# generated using pymatgen
data_YAgTe2
_symmetry_space_group_name_H-M   'P 1'
_cell_length_a   7.12686612
_cell_length_b   7.12686612
_cell_length_c   4.74553686
_cell_angle_alpha   90.00000000
_cell_angle_beta   90.00000000
_cell_angle_gamma   90.00000000
_symmetry_Int_Tables_number   1
_chemical_formula_structural   YAgTe2
_chemical_formula_sum   'Y2 Ag2 Te4'
_cell_volume   241.03635550
_cell_formula_units_Z   2
loop_
 _symmetry_equiv_pos_site_id
 _symmetry_equiv_pos_as_xyz
  1  'x, y, z'
loop_
 _atom_site_type_symbol
 _atom_site_label
 _atom_site_symmetry_multiplicity
 _atom_site_fract_x
 _atom_site_fract_y
 _atom_site_fract_z
 _atom_site_occupancy
  Y  Y0  1  0.000000  0.500000  0.805032  1
  Y  Y1  1  0.500000  0.000000  0.194968  1
  Ag  Ag2  1  0.000000  0.000000  0.000000  1
  Ag  Ag3  1  0.500000  0.500000  0.000000  1
  Te  Te4  1  0.798621  0.701379  0.288330  1
  Te  Te5  1  0.298621  0.798621  0.711670  1
  Te  Te6  1  0.701379  0.201379  0.711670  1
  Te  Te7  1  0.201379  0.298621  0.288330  1
