# generated using pymatgen
data_Zr2AgPdF11
_symmetry_space_group_name_H-M   'P 1'
_cell_length_a   5.95741942
_cell_length_b   5.95741942
_cell_length_c   7.96529483
_cell_angle_alpha   69.55585018
_cell_angle_beta   110.44414982
_cell_angle_gamma   106.83476228
_symmetry_Int_Tables_number   1
_chemical_formula_structural   Zr2AgPdF11
_chemical_formula_sum   'Zr2 Ag1 Pd1 F11'
_cell_volume   243.63999068
_cell_formula_units_Z   1
loop_
 _symmetry_equiv_pos_site_id
 _symmetry_equiv_pos_as_xyz
  1  'x, y, z'
loop_
 _atom_site_type_symbol
 _atom_site_label
 _atom_site_symmetry_multiplicity
 _atom_site_fract_x
 _atom_site_fract_y
 _atom_site_fract_z
 _atom_site_occupancy
  Zr  Zr0  1  0.492562  0.507438  0.762767  1
  Zr  Zr1  1  0.507438  0.492562  0.237233  1
  Ag  Ag2  1  1.000000  1.000000  0.000000  1
  Pd  Pd3  1  1.000000  1.000000  0.500000  1
  F  F4  1  0.232355  0.198282  0.308013  1
  F  F5  1  0.198282  0.232355  0.691987  1
  F  F6  1  0.767645  0.801718  0.691987  1
  F  F7  1  0.801718  0.767645  0.308013  1
  F  F8  1  0.500000  0.500000  0.500000  1
  F  F9  1  0.663000  0.663000  0.000000  1
  F  F10  1  0.337000  0.337000  0.000000  1
  F  F11  1  0.255077  0.744923  0.652471  1
  F  F12  1  0.744923  0.255077  0.347529  1
  F  F13  1  0.277275  0.722725  0.112819  1
  F  F14  1  0.722725  0.277275  0.887181  1
