# generated using pymatgen
data_LaVO4
_symmetry_space_group_name_H-M   'P 1'
_cell_length_a   6.26770868
_cell_length_b   6.26770868
_cell_length_c   6.26770868
_cell_angle_alpha   106.09115320
_cell_angle_beta   106.09115320
_cell_angle_gamma   116.46604672
_symmetry_Int_Tables_number   1
_chemical_formula_structural   LaVO4
_chemical_formula_sum   'La2 V2 O8'
_cell_volume   187.39802389
_cell_formula_units_Z   2
loop_
 _symmetry_equiv_pos_site_id
 _symmetry_equiv_pos_as_xyz
  1  'x, y, z'
loop_
 _atom_site_type_symbol
 _atom_site_label
 _atom_site_symmetry_multiplicity
 _atom_site_fract_x
 _atom_site_fract_y
 _atom_site_fract_z
 _atom_site_occupancy
  La  La0  1  0.000000  0.000000  0.000000  1
  La  La1  1  0.250000  0.750000  0.500000  1
  V  V2  1  0.750000  0.250000  0.500000  1
  V  V3  1  0.500000  0.500000  0.000000  1
  O  O4  1  0.847026  0.669019  0.178008  1
  O  O5  1  0.919019  0.241011  0.321992  1
  O  O6  1  0.919019  0.597026  0.678008  1
  O  O7  1  0.491011  0.669019  0.821992  1
  O  O8  1  0.330981  0.508989  0.178008  1
  O  O9  1  0.402974  0.080981  0.321992  1
  O  O10  1  0.758989  0.080981  0.678008  1
  O  O11  1  0.330981  0.152974  0.821992  1
