# generated using pymatgen
data_ScAl2Ni
_symmetry_space_group_name_H-M   'P 1'
_cell_length_a   5.17674734
_cell_length_b   5.17674734
_cell_length_c   6.68600099
_cell_angle_alpha   90.00000000
_cell_angle_beta   90.00000000
_cell_angle_gamma   134.40988154
_symmetry_Int_Tables_number   1
_chemical_formula_structural   ScAl2Ni
_chemical_formula_sum   'Sc2 Al4 Ni2'
_cell_volume   127.99489267
_cell_formula_units_Z   2
loop_
 _symmetry_equiv_pos_site_id
 _symmetry_equiv_pos_as_xyz
  1  'x, y, z'
loop_
 _atom_site_type_symbol
 _atom_site_label
 _atom_site_symmetry_multiplicity
 _atom_site_fract_x
 _atom_site_fract_y
 _atom_site_fract_z
 _atom_site_occupancy
  Sc  Sc0  1  0.567124  0.432876  0.750000  1
  Sc  Sc1  1  0.432876  0.567124  0.250000  1
  Al  Al2  1  0.854058  0.145942  0.949267  1
  Al  Al3  1  0.145942  0.854058  0.050733  1
  Al  Al4  1  0.145942  0.854058  0.449267  1
  Al  Al5  1  0.854058  0.145942  0.550733  1
  Ni  Ni6  1  0.289517  0.710483  0.750000  1
  Ni  Ni7  1  0.710483  0.289517  0.250000  1
