# generated using pymatgen
data_NdMg2Cu9
_symmetry_space_group_name_H-M   'P 1'
_cell_length_a   5.05014563
_cell_length_b   5.05014563
_cell_length_c   16.17126802
_cell_angle_alpha   90.00000000
_cell_angle_beta   90.00000000
_cell_angle_gamma   120.00000000
_symmetry_Int_Tables_number   1
_chemical_formula_structural   NdMg2Cu9
_chemical_formula_sum   'Nd2 Mg4 Cu18'
_cell_volume   357.17619881
_cell_formula_units_Z   2
loop_
 _symmetry_equiv_pos_site_id
 _symmetry_equiv_pos_as_xyz
  1  'x, y, z'
loop_
 _atom_site_type_symbol
 _atom_site_label
 _atom_site_symmetry_multiplicity
 _atom_site_fract_x
 _atom_site_fract_y
 _atom_site_fract_z
 _atom_site_occupancy
  Nd  Nd0  1  0.666667  0.333333  0.250000  1
  Nd  Nd1  1  0.333333  0.666667  0.750000  1
  Mg  Mg2  1  0.666667  0.333333  0.468347  1
  Mg  Mg3  1  0.333333  0.666667  0.968347  1
  Mg  Mg4  1  0.666667  0.333333  0.031653  1
  Mg  Mg5  1  0.333333  0.666667  0.531653  1
  Cu  Cu6  1  0.333333  0.666667  0.250000  1
  Cu  Cu7  1  0.666667  0.333333  0.750000  1
  Cu  Cu8  1  0.168153  0.831847  0.377728  1
  Cu  Cu9  1  0.168153  0.336305  0.377728  1
  Cu  Cu10  1  0.000000  0.000000  0.750000  1
  Cu  Cu11  1  0.000000  0.000000  0.250000  1
  Cu  Cu12  1  0.000000  0.000000  0.000000  1
  Cu  Cu13  1  0.000000  0.000000  0.500000  1
  Cu  Cu14  1  0.168153  0.336305  0.122272  1
  Cu  Cu15  1  0.831847  0.168153  0.622272  1
  Cu  Cu16  1  0.336305  0.168153  0.622272  1
  Cu  Cu17  1  0.663695  0.831847  0.122272  1
  Cu  Cu18  1  0.168153  0.831847  0.122272  1
  Cu  Cu19  1  0.831847  0.663695  0.877728  1
  Cu  Cu20  1  0.831847  0.168153  0.877728  1
  Cu  Cu21  1  0.831847  0.663695  0.622272  1
  Cu  Cu22  1  0.336305  0.168153  0.877728  1
  Cu  Cu23  1  0.663695  0.831847  0.377728  1
