# generated using pymatgen
data_CaAl2SiO6
_symmetry_space_group_name_H-M   'P 1'
_cell_length_a   5.33049943
_cell_length_b   8.73883155
_cell_length_c   9.71459071
_cell_angle_alpha   90.10340762
_cell_angle_beta   105.49290966
_cell_angle_gamma   90.24352223
_symmetry_Int_Tables_number   1
_chemical_formula_structural   CaAl2SiO6
_chemical_formula_sum   'Ca4 Al8 Si4 O24'
_cell_volume   436.07907780
_cell_formula_units_Z   4
loop_
 _symmetry_equiv_pos_site_id
 _symmetry_equiv_pos_as_xyz
  1  'x, y, z'
loop_
 _atom_site_type_symbol
 _atom_site_label
 _atom_site_symmetry_multiplicity
 _atom_site_fract_x
 _atom_site_fract_y
 _atom_site_fract_z
 _atom_site_occupancy
  Ca  Ca0  1  0.243253  0.309592  0.996239  1
  Ca  Ca1  1  0.757301  0.813827  0.513163  1
  Ca  Ca2  1  0.743731  0.687486  0.996474  1
  Ca  Ca3  1  0.257361  0.188482  0.513551  1
  Al  Al4  1  0.920536  0.096857  0.712224  1
  Al  Al5  1  0.573552  0.402721  0.782815  1
  Al  Al6  1  0.419249  0.901647  0.710687  1
  Al  Al7  1  0.924953  0.401569  0.215104  1
  Al  Al8  1  0.249750  0.909850  0.997626  1
  Al  Al9  1  0.764111  0.407197  0.504405  1
  Al  Al10  1  0.747260  0.093530  0.995333  1
  Al  Al11  1  0.261523  0.588837  0.501501  1
  Si  Si12  1  0.424820  0.596617  0.208225  1
  Si  Si13  1  0.567878  0.094523  0.285504  1
  Si  Si14  1  0.076647  0.596377  0.790887  1
  Si  Si15  1  0.067915  0.902410  0.286996  1
  O  O16  1  0.019736  0.072838  0.902652  1
  O  O17  1  0.956690  0.274742  0.636623  1
  O  O18  1  0.609053  0.024972  0.635482  1
  O  O19  1  0.517786  0.585056  0.385195  1
  O  O20  1  0.444279  0.764049  0.136612  1
  O  O21  1  0.131659  0.524650  0.145589  1
  O  O22  1  0.479432  0.081410  0.110959  1
  O  O23  1  0.571919  0.258139  0.363242  1
  O  O24  1  0.856103  0.010601  0.344822  1
  O  O25  1  0.987320  0.588950  0.613340  1
  O  O26  1  0.060314  0.762023  0.866304  1
  O  O27  1  0.367692  0.524336  0.853324  1
  O  O28  1  0.987205  0.906852  0.112014  1
  O  O29  1  0.064458  0.742617  0.369246  1
  O  O30  1  0.356758  0.988226  0.346455  1
  O  O31  1  0.488073  0.418494  0.594069  1
  O  O32  1  0.552246  0.232332  0.870786  1
  O  O33  1  0.882184  0.487198  0.855626  1
  O  O34  1  0.520167  0.918406  0.903256  1
  O  O35  1  0.455455  0.726042  0.630201  1
  O  O36  1  0.109416  0.975538  0.635768  1
  O  O37  1  0.021004  0.427469  0.402872  1
  O  O38  1  0.945005  0.227667  0.131729  1
  O  O39  1  0.616205  0.485869  0.143100  1
