# generated using pymatgen
data_ZrMn2
_symmetry_space_group_name_H-M   'P 1'
_cell_length_a   4.93191849
_cell_length_b   4.93191849
_cell_length_c   8.25141309
_cell_angle_alpha   90.00000000
_cell_angle_beta   90.00000000
_cell_angle_gamma   120.00000000
_symmetry_Int_Tables_number   1
_chemical_formula_structural   ZrMn2
_chemical_formula_sum   'Zr4 Mn8'
_cell_volume   173.81639641
_cell_formula_units_Z   4
loop_
 _symmetry_equiv_pos_site_id
 _symmetry_equiv_pos_as_xyz
  1  'x, y, z'
loop_
 _atom_site_type_symbol
 _atom_site_label
 _atom_site_symmetry_multiplicity
 _atom_site_fract_x
 _atom_site_fract_y
 _atom_site_fract_z
 _atom_site_occupancy
  Zr  Zr0  1  0.333333  0.666667  0.064159  1
  Zr  Zr1  1  0.666667  0.333333  0.564159  1
  Zr  Zr2  1  0.666667  0.333333  0.935841  1
  Zr  Zr3  1  0.333333  0.666667  0.435841  1
  Mn  Mn4  1  0.000000  0.000000  0.500000  1
  Mn  Mn5  1  0.000000  0.000000  0.000000  1
  Mn  Mn6  1  0.169522  0.339043  0.750000  1
  Mn  Mn7  1  0.830478  0.169522  0.250000  1
  Mn  Mn8  1  0.830478  0.660957  0.250000  1
  Mn  Mn9  1  0.169522  0.830478  0.750000  1
  Mn  Mn10  1  0.660957  0.830478  0.750000  1
  Mn  Mn11  1  0.339043  0.169522  0.250000  1
