# generated using pymatgen
data_Ba4Sm2Cd3S10
_symmetry_space_group_name_H-M   'P 1'
_cell_length_a   9.39748949
_cell_length_b   9.39748949
_cell_length_c   27.02728917
_cell_angle_alpha   90.00000000
_cell_angle_beta   90.00000000
_cell_angle_gamma   154.04140419
_symmetry_Int_Tables_number   1
_chemical_formula_structural   Ba4Sm2Cd3S10
_chemical_formula_sum   'Ba8 Sm4 Cd6 S20'
_cell_volume   1044.77817769
_cell_formula_units_Z   2
loop_
 _symmetry_equiv_pos_site_id
 _symmetry_equiv_pos_as_xyz
  1  'x, y, z'
loop_
 _atom_site_type_symbol
 _atom_site_label
 _atom_site_symmetry_multiplicity
 _atom_site_fract_x
 _atom_site_fract_y
 _atom_site_fract_z
 _atom_site_occupancy
  Ba  Ba0  1  0.595880  0.404120  0.338795  1
  Ba  Ba1  1  0.404120  0.595880  0.838795  1
  Ba  Ba2  1  0.575921  0.424079  0.156608  1
  Ba  Ba3  1  0.424079  0.575921  0.656608  1
  Ba  Ba4  1  0.163206  0.836794  0.610508  1
  Ba  Ba5  1  0.836794  0.163206  0.110508  1
  Ba  Ba6  1  0.162711  0.837289  0.890884  1
  Ba  Ba7  1  0.837289  0.162711  0.390884  1
  Sm  Sm8  1  0.502825  0.497175  0.499746  1
  Sm  Sm9  1  0.497175  0.502825  0.999746  1
  Sm  Sm10  1  0.079662  0.920338  0.753587  1
  Sm  Sm11  1  0.920338  0.079662  0.253587  1
  Cd  Cd12  1  0.217545  0.782455  0.231488  1
  Cd  Cd13  1  0.782455  0.217545  0.731488  1
  Cd  Cd14  1  0.159716  0.840284  0.462105  1
  Cd  Cd15  1  0.840284  0.159716  0.962105  1
  Cd  Cd16  1  0.154035  0.845965  0.044347  1
  Cd  Cd17  1  0.845965  0.154035  0.544347  1
  S  S18  1  0.423364  0.576636  0.322133  1
  S  S19  1  0.576636  0.423364  0.822133  1
  S  S20  1  0.409762  0.590238  0.183167  1
  S  S21  1  0.590238  0.409762  0.683167  1
  S  S22  1  0.347485  0.652515  0.489988  1
  S  S23  1  0.652515  0.347485  0.989988  1
  S  S24  1  0.344765  0.655235  0.018592  1
  S  S25  1  0.655235  0.344765  0.518591  1
  S  S26  1  0.233133  0.766867  0.766990  1
  S  S27  1  0.766867  0.233133  0.266990  1
  S  S28  1  0.211217  0.788783  0.378179  1
  S  S29  1  0.788783  0.211217  0.878179  1
  S  S30  1  0.207566  0.792434  0.131415  1
  S  S31  1  0.792434  0.207566  0.631415  1
  S  S32  1  0.073971  0.926029  0.247033  1
  S  S33  1  0.926029  0.073971  0.747033  1
  S  S34  1  0.016907  0.983093  0.432232  1
  S  S35  1  0.983093  0.016907  0.932232  1
  S  S36  1  0.987986  0.012014  0.571755  1
  S  S37  1  0.012014  0.987986  0.071755  1
