# generated using pymatgen
data_MoO3
_symmetry_space_group_name_H-M   'P 1'
_cell_length_a   7.43680938
_cell_length_b   7.79575372
_cell_length_c   10.90640688
_cell_angle_alpha   90.00000000
_cell_angle_beta   132.75455908
_cell_angle_gamma   90.00000000
_symmetry_Int_Tables_number   1
_chemical_formula_structural   MoO3
_chemical_formula_sum   'Mo8 O24'
_cell_volume   464.28146913
_cell_formula_units_Z   8
loop_
 _symmetry_equiv_pos_site_id
 _symmetry_equiv_pos_as_xyz
  1  'x, y, z'
loop_
 _atom_site_type_symbol
 _atom_site_label
 _atom_site_symmetry_multiplicity
 _atom_site_fract_x
 _atom_site_fract_y
 _atom_site_fract_z
 _atom_site_occupancy
  Mo  Mo0  1  0.034819  0.464663  0.784063  1
  Mo  Mo1  1  0.965181  0.964663  0.715937  1
  Mo  Mo2  1  0.965181  0.535337  0.215937  1
  Mo  Mo3  1  0.034819  0.035337  0.284063  1
  Mo  Mo4  1  0.534817  0.467024  0.285393  1
  Mo  Mo5  1  0.465183  0.967024  0.214607  1
  Mo  Mo6  1  0.465183  0.532976  0.714607  1
  Mo  Mo7  1  0.534817  0.032976  0.785393  1
  O  O8  1  0.223401  0.994390  0.997876  1
  O  O9  1  0.776599  0.494390  0.502124  1
  O  O10  1  0.776599  0.005610  0.002124  1
  O  O11  1  0.223401  0.505610  0.497876  1
  O  O12  1  0.227761  0.475565  0.002205  1
  O  O13  1  0.772239  0.975565  0.497795  1
  O  O14  1  0.772239  0.524435  0.997795  1
  O  O15  1  0.227761  0.024435  0.502205  1
  O  O16  1  0.728501  0.027613  0.727595  1
  O  O17  1  0.271499  0.527613  0.772405  1
  O  O18  1  0.271499  0.972387  0.272405  1
  O  O19  1  0.728501  0.472387  0.227595  1
  O  O20  1  0.727739  0.472140  0.728612  1
  O  O21  1  0.272261  0.972140  0.771388  1
  O  O22  1  0.272261  0.527860  0.271388  1
  O  O23  1  0.727739  0.027860  0.228612  1
  O  O24  1  0.488715  0.258641  0.766904  1
  O  O25  1  0.511285  0.758641  0.733096  1
  O  O26  1  0.511285  0.741359  0.233096  1
  O  O27  1  0.488715  0.241359  0.266904  1
  O  O28  1  0.028950  0.258935  0.249011  1
  O  O29  1  0.971050  0.758935  0.250989  1
  O  O30  1  0.971050  0.741065  0.750989  1
  O  O31  1  0.028950  0.241065  0.749011  1
