# generated using pymatgen
data_ErAl7Au3
_symmetry_space_group_name_H-M   'P 1'
_cell_length_a   8.44830504
_cell_length_b   8.44830504
_cell_length_c   8.44830504
_cell_angle_alpha   57.18665646
_cell_angle_beta   57.18665646
_cell_angle_gamma   57.18665646
_symmetry_Int_Tables_number   1
_chemical_formula_structural   ErAl7Au3
_chemical_formula_sum   'Er2 Al14 Au6'
_cell_volume   398.74398313
_cell_formula_units_Z   2
loop_
 _symmetry_equiv_pos_site_id
 _symmetry_equiv_pos_as_xyz
  1  'x, y, z'
loop_
 _atom_site_type_symbol
 _atom_site_label
 _atom_site_symmetry_multiplicity
 _atom_site_fract_x
 _atom_site_fract_y
 _atom_site_fract_z
 _atom_site_occupancy
  Er  Er0  1  0.500000  0.500000  0.500000  1
  Er  Er1  1  0.000000  0.000000  0.000000  1
  Al  Al2  1  0.569769  0.167014  0.352758  1
  Al  Al3  1  0.167014  0.352758  0.569769  1
  Al  Al4  1  0.352758  0.569769  0.167014  1
  Al  Al5  1  0.930231  0.147242  0.332986  1
  Al  Al6  1  0.147242  0.332986  0.930231  1
  Al  Al7  1  0.332986  0.930231  0.147242  1
  Al  Al8  1  0.430231  0.832986  0.647242  1
  Al  Al9  1  0.832986  0.647242  0.430231  1
  Al  Al10  1  0.750000  0.750000  0.750000  1
  Al  Al11  1  0.250000  0.250000  0.250000  1
  Al  Al12  1  0.667014  0.069769  0.852758  1
  Al  Al13  1  0.852758  0.667014  0.069769  1
  Al  Al14  1  0.069769  0.852758  0.667014  1
  Al  Al15  1  0.647242  0.430231  0.832986  1
  Au  Au16  1  0.250000  0.574514  0.925486  1
  Au  Au17  1  0.574514  0.925486  0.250000  1
  Au  Au18  1  0.925486  0.250000  0.574514  1
  Au  Au19  1  0.750000  0.425486  0.074514  1
  Au  Au20  1  0.425486  0.074514  0.750000  1
  Au  Au21  1  0.074514  0.750000  0.425486  1
