# generated using pymatgen
data_Rb2GaAs2
_symmetry_space_group_name_H-M   'P 1'
_cell_length_a   9.23597905
_cell_length_b   14.92385798
_cell_length_c   11.88862886
_cell_angle_alpha   90.00000000
_cell_angle_beta   118.23246453
_cell_angle_gamma   90.00000000
_symmetry_Int_Tables_number   1
_chemical_formula_structural   Rb2GaAs2
_chemical_formula_sum   'Rb16 Ga8 As16'
_cell_volume   1443.74087467
_cell_formula_units_Z   8
loop_
 _symmetry_equiv_pos_site_id
 _symmetry_equiv_pos_as_xyz
  1  'x, y, z'
loop_
 _atom_site_type_symbol
 _atom_site_label
 _atom_site_symmetry_multiplicity
 _atom_site_fract_x
 _atom_site_fract_y
 _atom_site_fract_z
 _atom_site_occupancy
  Rb  Rb0  1  0.492417  0.617109  0.430621  1
  Rb  Rb1  1  0.507583  0.117109  0.069379  1
  Rb  Rb2  1  0.507583  0.382891  0.569379  1
  Rb  Rb3  1  0.492417  0.882891  0.930621  1
  Rb  Rb4  1  0.205140  0.613604  0.023010  1
  Rb  Rb5  1  0.794860  0.113604  0.476990  1
  Rb  Rb6  1  0.794860  0.386396  0.976990  1
  Rb  Rb7  1  0.205140  0.886396  0.523010  1
  Rb  Rb8  1  0.590789  0.869440  0.406619  1
  Rb  Rb9  1  0.409211  0.369440  0.093381  1
  Rb  Rb10  1  0.409211  0.130560  0.593381  1
  Rb  Rb11  1  0.590789  0.630560  0.906619  1
  Rb  Rb12  1  0.013456  0.870879  0.035631  1
  Rb  Rb13  1  0.986544  0.370879  0.464369  1
  Rb  Rb14  1  0.986544  0.129121  0.964369  1
  Rb  Rb15  1  0.013456  0.629121  0.535631  1
  Ga  Ga16  1  0.001129  0.941700  0.743333  1
  Ga  Ga17  1  0.998871  0.441700  0.756667  1
  Ga  Ga18  1  0.001129  0.558300  0.243333  1
  Ga  Ga19  1  0.856516  0.783677  0.242654  1
  Ga  Ga20  1  0.143484  0.283677  0.257346  1
  Ga  Ga21  1  0.143484  0.216323  0.757346  1
  Ga  Ga22  1  0.856516  0.716323  0.742654  1
  Ga  Ga23  1  0.998871  0.058300  0.256667  1
  As  As24  1  0.797163  0.554934  0.739664  1
  As  As25  1  0.372502  0.190352  0.287509  1
  As  As26  1  0.372502  0.309648  0.787509  1
  As  As27  1  0.627498  0.690352  0.212491  1
  As  As28  1  0.106545  0.711304  0.271734  1
  As  As29  1  0.893455  0.211304  0.228266  1
  As  As30  1  0.893455  0.288696  0.728266  1
  As  As31  1  0.106545  0.788696  0.771734  1
  As  As32  1  0.202837  0.054934  0.760336  1
  As  As33  1  0.202837  0.445066  0.260336  1
  As  As34  1  0.797163  0.945066  0.239664  1
  As  As35  1  0.729766  0.964748  0.720963  1
  As  As36  1  0.729766  0.535252  0.220963  1
  As  As37  1  0.270234  0.035252  0.279037  1
  As  As38  1  0.627498  0.809648  0.712491  1
  As  As39  1  0.270234  0.464748  0.779037  1
