# generated using pymatgen
data_Na6Si2Se7
_symmetry_space_group_name_H-M   'P 1'
_cell_length_a   7.24008681
_cell_length_b   7.24008681
_cell_length_c   15.98160272
_cell_angle_alpha   80.43840580
_cell_angle_beta   99.56159420
_cell_angle_gamma   81.85456949
_symmetry_Int_Tables_number   1
_chemical_formula_structural   Na6Si2Se7
_chemical_formula_sum   'Na12 Si4 Se14'
_cell_volume   802.18444048
_cell_formula_units_Z   2
loop_
 _symmetry_equiv_pos_site_id
 _symmetry_equiv_pos_as_xyz
  1  'x, y, z'
loop_
 _atom_site_type_symbol
 _atom_site_label
 _atom_site_symmetry_multiplicity
 _atom_site_fract_x
 _atom_site_fract_y
 _atom_site_fract_z
 _atom_site_occupancy
  Na  Na0  1  0.581546  0.581546  0.750000  1
  Na  Na1  1  0.418454  0.418454  0.250000  1
  Na  Na2  1  0.500000  0.500000  0.500000  1
  Na  Na3  1  0.500000  0.500000  0.000000  1
  Na  Na4  1  0.267158  0.028533  0.571414  1
  Na  Na5  1  0.028533  0.267158  0.928586  1
  Na  Na6  1  0.732842  0.971467  0.428586  1
  Na  Na7  1  0.971467  0.732842  0.071414  1
  Na  Na8  1  0.511312  0.044908  0.857890  1
  Na  Na9  1  0.044908  0.511312  0.642110  1
  Na  Na10  1  0.488688  0.955092  0.142110  1
  Na  Na11  1  0.955092  0.488688  0.357890  1
  Si  Si12  1  0.763843  0.076863  0.640778  1
  Si  Si13  1  0.076863  0.763843  0.859222  1
  Si  Si14  1  0.923137  0.236157  0.140778  1
  Si  Si15  1  0.236157  0.923137  0.359222  1
  Se  Se16  1  0.036032  0.036032  0.750000  1
  Se  Se17  1  0.963968  0.963968  0.250000  1
  Se  Se18  1  0.691275  0.799916  0.606235  1
  Se  Se19  1  0.799916  0.691275  0.893765  1
  Se  Se20  1  0.308725  0.200084  0.393765  1
  Se  Se21  1  0.200084  0.308725  0.106235  1
  Se  Se22  1  0.870189  0.259241  0.532848  1
  Se  Se23  1  0.259241  0.870189  0.967152  1
  Se  Se24  1  0.129811  0.740759  0.467152  1
  Se  Se25  1  0.740759  0.129811  0.032848  1
  Se  Se26  1  0.508521  0.244095  0.678904  1
  Se  Se27  1  0.244095  0.508521  0.821096  1
  Se  Se28  1  0.491479  0.755905  0.321096  1
  Se  Se29  1  0.755905  0.491479  0.178904  1
