# generated using pymatgen
data_SrCr(Si2O5)2
_symmetry_space_group_name_H-M   'P 1'
_cell_length_a   7.55845900
_cell_length_b   7.55845900
_cell_length_c   15.85503400
_cell_angle_alpha   90.00000000
_cell_angle_beta   90.00000000
_cell_angle_gamma   90.00000000
_symmetry_Int_Tables_number   1
_chemical_formula_structural   SrCr(Si2O5)2
_chemical_formula_sum   'Sr4 Cr4 Si16 O40'
_cell_volume   905.80288785
_cell_formula_units_Z   4
loop_
 _symmetry_equiv_pos_site_id
 _symmetry_equiv_pos_as_xyz
  1  'x, y, z'
loop_
 _atom_site_type_symbol
 _atom_site_label
 _atom_site_symmetry_multiplicity
 _atom_site_fract_x
 _atom_site_fract_y
 _atom_site_fract_z
 _atom_site_occupancy
  Sr  Sr0  1  0.500000  0.500000  0.500000  1
  Sr  Sr1  1  0.000000  0.000000  0.500000  1
  Sr  Sr2  1  0.000000  0.000000  0.000000  1
  Sr  Sr3  1  0.500000  0.500000  0.000000  1
  Cr  Cr4  1  0.500000  0.000000  0.587384  1
  Cr  Cr5  1  0.000000  0.500000  0.912616  1
  Cr  Cr6  1  0.000000  0.500000  0.412616  1
  Cr  Cr7  1  0.500000  0.000000  0.087384  1
  Si  Si8  1  0.175314  0.258598  0.651423  1
  Si  Si9  1  0.824686  0.741402  0.651423  1
  Si  Si10  1  0.258598  0.175314  0.848577  1
  Si  Si11  1  0.758598  0.324686  0.651423  1
  Si  Si12  1  0.241402  0.675314  0.651423  1
  Si  Si13  1  0.324686  0.758598  0.848577  1
  Si  Si14  1  0.675314  0.241402  0.848577  1
  Si  Si15  1  0.741402  0.824686  0.848577  1
  Si  Si16  1  0.324686  0.241402  0.348577  1
  Si  Si17  1  0.675314  0.758598  0.348577  1
  Si  Si18  1  0.241402  0.324686  0.151423  1
  Si  Si19  1  0.741402  0.175314  0.348577  1
  Si  Si20  1  0.258598  0.824686  0.348577  1
  Si  Si21  1  0.175314  0.741402  0.151423  1
  Si  Si22  1  0.824686  0.258598  0.151423  1
  Si  Si23  1  0.758598  0.675314  0.151423  1
  O  O24  1  0.257687  0.118122  0.586615  1
  O  O25  1  0.742313  0.881878  0.586615  1
  O  O26  1  0.118122  0.257687  0.913385  1
  O  O27  1  0.618122  0.242313  0.586615  1
  O  O28  1  0.381878  0.757687  0.586615  1
  O  O29  1  0.242313  0.618122  0.913385  1
  O  O30  1  0.757687  0.381878  0.913385  1
  O  O31  1  0.881878  0.742313  0.913385  1
  O  O32  1  0.242313  0.381878  0.413385  1
  O  O33  1  0.757687  0.618122  0.413385  1
  O  O34  1  0.381878  0.242313  0.086615  1
  O  O35  1  0.881878  0.257687  0.413385  1
  O  O36  1  0.118122  0.742313  0.413385  1
  O  O37  1  0.257687  0.881878  0.086615  1
  O  O38  1  0.742313  0.118122  0.086615  1
  O  O39  1  0.252750  0.039651  0.367571  1
  O  O40  1  0.618122  0.757687  0.086615  1
  O  O41  1  0.752750  0.539651  0.632429  1
  O  O42  1  0.460349  0.247250  0.867571  1
  O  O43  1  0.960349  0.252750  0.632429  1
  O  O44  1  0.039651  0.747250  0.632429  1
  O  O45  1  0.252750  0.960349  0.867571  1
  O  O46  1  0.747250  0.039651  0.867571  1
  O  O47  1  0.539651  0.752750  0.867571  1
  O  O48  1  0.712725  0.712725  0.250000  1
  O  O49  1  0.787275  0.212725  0.250000  1
  O  O50  1  0.212725  0.787275  0.250000  1
  O  O51  1  0.287275  0.287275  0.250000  1
  O  O52  1  0.787275  0.787275  0.750000  1
  O  O53  1  0.712725  0.287275  0.750000  1
  O  O54  1  0.287275  0.712725  0.750000  1
  O  O55  1  0.212725  0.212725  0.750000  1
  O  O56  1  0.960349  0.747250  0.132429  1
  O  O57  1  0.752750  0.460349  0.132429  1
  O  O58  1  0.247250  0.539651  0.132429  1
  O  O59  1  0.460349  0.752750  0.367571  1
  O  O60  1  0.539651  0.247250  0.367571  1
  O  O61  1  0.039651  0.252750  0.132429  1
  O  O62  1  0.747250  0.960349  0.367571  1
  O  O63  1  0.247250  0.460349  0.632429  1
