# generated using pymatgen
data_Mn(SbS2)2
_symmetry_space_group_name_H-M   'P 1'
_cell_length_a   6.62177499
_cell_length_b   6.62177499
_cell_length_c   15.50278917
_cell_angle_alpha   67.36546213
_cell_angle_beta   112.63453787
_cell_angle_gamma   146.38526180
_symmetry_Int_Tables_number   1
_chemical_formula_structural   Mn(SbS2)2
_chemical_formula_sum   'Mn2 Sb4 S8'
_cell_volume   344.57091482
_cell_formula_units_Z   2
loop_
 _symmetry_equiv_pos_site_id
 _symmetry_equiv_pos_as_xyz
  1  'x, y, z'
loop_
 _atom_site_type_symbol
 _atom_site_label
 _atom_site_symmetry_multiplicity
 _atom_site_fract_x
 _atom_site_fract_y
 _atom_site_fract_z
 _atom_site_occupancy
  Mn  Mn0  1  0.000000  0.000000  0.500000  1
  Mn  Mn1  1  0.000000  0.000000  0.000000  1
  Sb  Sb2  1  0.354030  0.645970  0.126635  1
  Sb  Sb3  1  0.645970  0.354030  0.873365  1
  Sb  Sb4  1  0.231558  0.768442  0.375810  1
  Sb  Sb5  1  0.768442  0.231558  0.624190  1
  S  S6  1  0.386547  0.613453  0.539451  1
  S  S7  1  0.613453  0.386547  0.460549  1
  S  S8  1  0.005808  0.994192  0.163293  1
  S  S9  1  0.994192  0.005808  0.836707  1
  S  S10  1  0.345266  0.654734  0.962656  1
  S  S11  1  0.654734  0.345266  0.037344  1
  S  S12  1  0.158197  0.841803  0.666691  1
  S  S13  1  0.841803  0.158197  0.333309  1
