# generated using pymatgen
data_CaS3O10
_symmetry_space_group_name_H-M   'P 1'
_cell_length_a   8.61753030
_cell_length_b   9.20999394
_cell_length_c   13.22469625
_cell_angle_alpha   90.00000000
_cell_angle_beta   129.16716682
_cell_angle_gamma   90.00000000
_symmetry_Int_Tables_number   1
_chemical_formula_structural   CaS3O10
_chemical_formula_sum   'Ca4 S12 O40'
_cell_volume   813.76933181
_cell_formula_units_Z   4
loop_
 _symmetry_equiv_pos_site_id
 _symmetry_equiv_pos_as_xyz
  1  'x, y, z'
loop_
 _atom_site_type_symbol
 _atom_site_label
 _atom_site_symmetry_multiplicity
 _atom_site_fract_x
 _atom_site_fract_y
 _atom_site_fract_z
 _atom_site_occupancy
  Ca  Ca0  1  0.225913  0.225518  0.523448  1
  Ca  Ca1  1  0.225913  0.274482  0.023448  1
  Ca  Ca2  1  0.774087  0.774482  0.476552  1
  Ca  Ca3  1  0.774087  0.725518  0.976552  1
  S  S4  1  0.350768  0.833260  0.500843  1
  S  S5  1  0.350768  0.666740  0.000843  1
  S  S6  1  0.649232  0.166740  0.499157  1
  S  S7  1  0.649232  0.333260  0.999157  1
  S  S8  1  0.944202  0.923375  0.287544  1
  S  S9  1  0.944202  0.576625  0.787544  1
  S  S10  1  0.055798  0.076625  0.712456  1
  S  S11  1  0.055798  0.423375  0.212456  1
  S  S12  1  0.295004  0.613647  0.638841  1
  S  S13  1  0.295004  0.886353  0.138841  1
  S  S14  1  0.704996  0.386353  0.361159  1
  S  S15  1  0.704996  0.113647  0.861159  1
  O  O16  1  0.997551  0.073902  0.327678  1
  O  O17  1  0.997551  0.426098  0.827678  1
  O  O18  1  0.002449  0.926098  0.672322  1
  O  O19  1  0.002449  0.573902  0.172322  1
  O  O20  1  0.320479  0.934615  0.569589  1
  O  O21  1  0.320479  0.565385  0.069589  1
  O  O22  1  0.679521  0.065385  0.430411  1
  O  O23  1  0.679521  0.434615  0.930411  1
  O  O24  1  0.530345  0.838475  0.515435  1
  O  O25  1  0.530345  0.661525  0.015435  1
  O  O26  1  0.469655  0.161525  0.484565  1
  O  O27  1  0.469655  0.338475  0.984565  1
  O  O28  1  0.839437  0.894212  0.151469  1
  O  O29  1  0.839437  0.605788  0.651469  1
  O  O30  1  0.160563  0.105788  0.848531  1
  O  O31  1  0.160563  0.394212  0.348531  1
  O  O32  1  0.332297  0.671531  0.530091  1
  O  O33  1  0.332297  0.828469  0.030091  1
  O  O34  1  0.667703  0.328469  0.469909  1
  O  O35  1  0.667703  0.171531  0.969909  1
  O  O36  1  0.173333  0.844384  0.349333  1
  O  O37  1  0.173333  0.655616  0.849333  1
  O  O38  1  0.826667  0.155616  0.650667  1
  O  O39  1  0.826667  0.344384  0.150667  1
  O  O40  1  0.876680  0.843680  0.347889  1
  O  O41  1  0.876680  0.656320  0.847889  1
  O  O42  1  0.123320  0.156320  0.652111  1
  O  O43  1  0.123320  0.343680  0.152111  1
  O  O44  1  0.323853  0.460316  0.632750  1
  O  O45  1  0.323853  0.039684  0.132750  1
  O  O46  1  0.676147  0.539684  0.367250  1
  O  O47  1  0.676147  0.960316  0.867250  1
  O  O48  1  0.450863  0.685796  0.759526  1
  O  O49  1  0.450863  0.814204  0.259526  1
  O  O50  1  0.549137  0.314204  0.240474  1
  O  O51  1  0.549137  0.185796  0.740474  1
  O  O52  1  0.093359  0.658696  0.578466  1
  O  O53  1  0.093359  0.841304  0.078466  1
  O  O54  1  0.906641  0.341304  0.421534  1
  O  O55  1  0.906641  0.158696  0.921534  1
