# generated using pymatgen
data_Ba3(InP2)2
_symmetry_space_group_name_H-M   'P 1'
_cell_length_a   8.95361660
_cell_length_b   8.95361660
_cell_length_c   7.17690935
_cell_angle_alpha   89.88478700
_cell_angle_beta   90.11521300
_cell_angle_gamma   104.35394792
_symmetry_Int_Tables_number   1
_chemical_formula_structural   Ba3(InP2)2
_chemical_formula_sum   'Ba6 In4 P8'
_cell_volume   557.39033211
_cell_formula_units_Z   2
loop_
 _symmetry_equiv_pos_site_id
 _symmetry_equiv_pos_as_xyz
  1  'x, y, z'
loop_
 _atom_site_type_symbol
 _atom_site_label
 _atom_site_symmetry_multiplicity
 _atom_site_fract_x
 _atom_site_fract_y
 _atom_site_fract_z
 _atom_site_occupancy
  Ba  Ba0  1  0.401695  0.401695  0.750000  1
  Ba  Ba1  1  0.598305  0.598305  0.250000  1
  Ba  Ba2  1  0.252843  0.005719  0.044949  1
  Ba  Ba3  1  0.005719  0.252843  0.455051  1
  Ba  Ba4  1  0.747157  0.994281  0.955051  1
  Ba  Ba5  1  0.994281  0.747157  0.544949  1
  In  In6  1  0.826173  0.419230  0.915458  1
  In  In7  1  0.419230  0.826173  0.584542  1
  In  In8  1  0.173827  0.580770  0.084542  1
  In  In9  1  0.580770  0.173827  0.415458  1
  P  P10  1  0.427577  0.743152  0.931481  1
  P  P11  1  0.743152  0.427577  0.568519  1
  P  P12  1  0.572423  0.256848  0.068519  1
  P  P13  1  0.256848  0.572423  0.431481  1
  P  P14  1  0.290889  0.058434  0.526602  1
  P  P15  1  0.058434  0.290889  0.973398  1
  P  P16  1  0.941566  0.709111  0.026602  1
  P  P17  1  0.709111  0.941566  0.473398  1
