# generated using pymatgen
data_ReC2
_symmetry_space_group_name_H-M   'P 1'
_cell_length_a   3.90072331
_cell_length_b   3.90072331
_cell_length_c   3.90072331
_cell_angle_alpha   138.23488893
_cell_angle_beta   138.23488893
_cell_angle_gamma   60.54344516
_symmetry_Int_Tables_number   1
_chemical_formula_structural   ReC2
_chemical_formula_sum   'Re1 C2'
_cell_volume   26.05171435
_cell_formula_units_Z   1
loop_
 _symmetry_equiv_pos_site_id
 _symmetry_equiv_pos_as_xyz
  1  'x, y, z'
loop_
 _atom_site_type_symbol
 _atom_site_label
 _atom_site_symmetry_multiplicity
 _atom_site_fract_x
 _atom_site_fract_y
 _atom_site_fract_z
 _atom_site_occupancy
  Re  Re0  1  0.000000  0.000000  0.000000  1
  C  C1  1  0.666529  0.666529  0.000000  1
  C  C2  1  0.333471  0.333471  0.000000  1
