# generated using pymatgen
data_LiV2P2O9
_symmetry_space_group_name_H-M   'P 1'
_cell_length_a   6.38197449
_cell_length_b   7.71325156
_cell_length_c   13.93807280
_cell_angle_alpha   90.00000000
_cell_angle_beta   90.00000000
_cell_angle_gamma   90.00000000
_symmetry_Int_Tables_number   1
_chemical_formula_structural   LiV2P2O9
_chemical_formula_sum   'Li4 V8 P8 O36'
_cell_volume   686.11243128
_cell_formula_units_Z   4
loop_
 _symmetry_equiv_pos_site_id
 _symmetry_equiv_pos_as_xyz
  1  'x, y, z'
loop_
 _atom_site_type_symbol
 _atom_site_label
 _atom_site_symmetry_multiplicity
 _atom_site_fract_x
 _atom_site_fract_y
 _atom_site_fract_z
 _atom_site_occupancy
  Li  Li0  1  0.750000  0.953108  0.766480  1
  Li  Li1  1  0.750000  0.546892  0.266480  1
  Li  Li2  1  0.250000  0.453108  0.733520  1
  Li  Li3  1  0.250000  0.046892  0.233520  1
  V  V4  1  0.750000  0.350366  0.881121  1
  V  V5  1  0.250000  0.649634  0.118879  1
  V  V6  1  0.250000  0.850366  0.618879  1
  V  V7  1  0.750000  0.149634  0.381121  1
  V  V8  1  0.500000  0.000000  0.000000  1
  V  V9  1  0.500000  0.500000  0.500000  1
  V  V10  1  0.000000  0.500000  0.500000  1
  V  V11  1  0.000000  0.000000  0.000000  1
  P  P12  1  0.250000  0.351841  0.935549  1
  P  P13  1  0.750000  0.648159  0.064451  1
  P  P14  1  0.750000  0.851841  0.564451  1
  P  P15  1  0.250000  0.148159  0.435549  1
  P  P16  1  0.750000  0.383958  0.692356  1
  P  P17  1  0.750000  0.116042  0.192356  1
  P  P18  1  0.250000  0.883958  0.807644  1
  P  P19  1  0.250000  0.616042  0.307644  1
  O  O20  1  0.047323  0.596516  0.368568  1
  O  O21  1  0.547323  0.403484  0.631432  1
  O  O22  1  0.952677  0.096516  0.131432  1
  O  O23  1  0.452677  0.903484  0.868568  1
  O  O24  1  0.952677  0.403484  0.631432  1
  O  O25  1  0.452677  0.596516  0.368568  1
  O  O26  1  0.047323  0.903484  0.868568  1
  O  O27  1  0.547323  0.096516  0.131432  1
  O  O28  1  0.250000  0.334119  0.482019  1
  O  O29  1  0.750000  0.665881  0.517981  1
  O  O30  1  0.750000  0.834119  0.017981  1
  O  O31  1  0.250000  0.165881  0.982019  1
  O  O32  1  0.750000  0.146995  0.946873  1
  O  O33  1  0.250000  0.853005  0.053127  1
  O  O34  1  0.250000  0.646995  0.553127  1
  O  O35  1  0.750000  0.353005  0.446873  1
  O  O36  1  0.750000  0.212300  0.751188  1
  O  O37  1  0.250000  0.787700  0.248812  1
  O  O38  1  0.250000  0.712300  0.748812  1
  O  O39  1  0.750000  0.287700  0.251188  1
  O  O40  1  0.440337  0.133642  0.368525  1
  O  O41  1  0.940337  0.866358  0.631475  1
  O  O42  1  0.559663  0.633642  0.131475  1
  O  O43  1  0.059663  0.366358  0.868525  1
  O  O44  1  0.559663  0.866358  0.631475  1
  O  O45  1  0.059663  0.133642  0.368525  1
  O  O46  1  0.440337  0.366358  0.868525  1
  O  O47  1  0.940337  0.633642  0.131475  1
  O  O48  1  0.750000  0.515104  0.983962  1
  O  O49  1  0.250000  0.021033  0.725243  1
  O  O50  1  0.250000  0.478967  0.225243  1
  O  O51  1  0.750000  0.521033  0.774757  1
  O  O52  1  0.750000  0.984896  0.483962  1
  O  O53  1  0.250000  0.015104  0.516038  1
  O  O54  1  0.250000  0.484896  0.016038  1
  O  O55  1  0.750000  0.978967  0.274757  1
