# generated using pymatgen
data_BaCu2GeS4
_symmetry_space_group_name_H-M   'P 1'
_cell_length_a   6.27703298
_cell_length_b   6.27703298
_cell_length_c   15.55798258
_cell_angle_alpha   90.00000000
_cell_angle_beta   90.00000000
_cell_angle_gamma   120.00000000
_symmetry_Int_Tables_number   1
_chemical_formula_structural   BaCu2GeS4
_chemical_formula_sum   'Ba3 Cu6 Ge3 S12'
_cell_volume   530.87556166
_cell_formula_units_Z   3
loop_
 _symmetry_equiv_pos_site_id
 _symmetry_equiv_pos_as_xyz
  1  'x, y, z'
loop_
 _atom_site_type_symbol
 _atom_site_label
 _atom_site_symmetry_multiplicity
 _atom_site_fract_x
 _atom_site_fract_y
 _atom_site_fract_z
 _atom_site_occupancy
  Ba  Ba0  1  0.431875  0.431875  0.500000  1
  Ba  Ba1  1  0.000000  0.568125  0.166667  1
  Ba  Ba2  1  0.568125  0.000000  0.833333  1
  Cu  Cu3  1  0.354315  0.423404  0.744297  1
  Cu  Cu4  1  0.930911  0.576596  0.922370  1
  Cu  Cu5  1  0.423404  0.354315  0.255703  1
  Cu  Cu6  1  0.069089  0.645685  0.410963  1
  Cu  Cu7  1  0.576596  0.930911  0.077630  1
  Cu  Cu8  1  0.645685  0.069089  0.589037  1
  Ge  Ge9  1  0.710834  0.000000  0.333333  1
  Ge  Ge10  1  0.000000  0.710834  0.666667  1
  Ge  Ge11  1  0.289166  0.289166  0.000000  1
  S  S12  1  0.762953  0.667696  0.331650  1
  S  S13  1  0.904743  0.237047  0.998317  1
  S  S14  1  0.332304  0.095257  0.664984  1
  S  S15  1  0.095257  0.332304  0.335016  1
  S  S16  1  0.237047  0.904743  0.001683  1
  S  S17  1  0.667696  0.762953  0.668350  1
  S  S18  1  0.953018  0.467885  0.552335  1
  S  S19  1  0.514867  0.046982  0.219001  1
  S  S20  1  0.046982  0.514867  0.780999  1
  S  S21  1  0.467885  0.953018  0.447665  1
  S  S22  1  0.485133  0.532115  0.114332  1
  S  S23  1  0.532115  0.485133  0.885668  1
