# generated using pymatgen
data_ZnNi2Ge
_symmetry_space_group_name_H-M   'P 1'
_cell_length_a   4.10890778
_cell_length_b   4.10890778
_cell_length_c   4.10890778
_cell_angle_alpha   60.00000000
_cell_angle_beta   60.00000000
_cell_angle_gamma   60.00000000
_symmetry_Int_Tables_number   1
_chemical_formula_structural   ZnNi2Ge
_chemical_formula_sum   'Zn1 Ni2 Ge1'
_cell_volume   49.05284309
_cell_formula_units_Z   1
loop_
 _symmetry_equiv_pos_site_id
 _symmetry_equiv_pos_as_xyz
  1  'x, y, z'
loop_
 _atom_site_type_symbol
 _atom_site_label
 _atom_site_symmetry_multiplicity
 _atom_site_fract_x
 _atom_site_fract_y
 _atom_site_fract_z
 _atom_site_occupancy
  Zn  Zn0  1  0.000000  0.000000  0.000000  1
  Ni  Ni1  1  0.750000  0.750000  0.750000  1
  Ni  Ni2  1  0.250000  0.250000  0.250000  1
  Ge  Ge3  1  0.500000  0.500000  0.500000  1
