# generated using pymatgen
data_Cr2B
_symmetry_space_group_name_H-M   'P 1'
_cell_length_a   4.21783061
_cell_length_b   4.21783061
_cell_length_c   4.21783061
_cell_angle_alpha   104.93378860
_cell_angle_beta   104.93378860
_cell_angle_gamma   118.98592272
_symmetry_Int_Tables_number   1
_chemical_formula_structural   Cr2B
_chemical_formula_sum   'Cr4 B2'
_cell_volume   56.55027853
_cell_formula_units_Z   2
loop_
 _symmetry_equiv_pos_site_id
 _symmetry_equiv_pos_as_xyz
  1  'x, y, z'
loop_
 _atom_site_type_symbol
 _atom_site_label
 _atom_site_symmetry_multiplicity
 _atom_site_fract_x
 _atom_site_fract_y
 _atom_site_fract_z
 _atom_site_occupancy
  Cr  Cr0  1  0.666124  0.833876  0.500000  1
  Cr  Cr1  1  0.833876  0.333876  0.167752  1
  Cr  Cr2  1  0.333876  0.166124  0.500000  1
  Cr  Cr3  1  0.166124  0.666124  0.832248  1
  B  B4  1  0.750000  0.750000  0.000000  1
  B  B5  1  0.250000  0.250000  0.000000  1
