# generated using pymatgen
data_Sn4Au
_symmetry_space_group_name_H-M   'P 1'
_cell_length_a   6.81154514
_cell_length_b   6.81154514
_cell_length_c   6.65822396
_cell_angle_alpha   90.00000000
_cell_angle_beta   90.00000000
_cell_angle_gamma   121.25065672
_symmetry_Int_Tables_number   1
_chemical_formula_structural   Sn4Au
_chemical_formula_sum   'Sn8 Au2'
_cell_volume   264.09975865
_cell_formula_units_Z   2
loop_
 _symmetry_equiv_pos_site_id
 _symmetry_equiv_pos_as_xyz
  1  'x, y, z'
loop_
 _atom_site_type_symbol
 _atom_site_label
 _atom_site_symmetry_multiplicity
 _atom_site_fract_x
 _atom_site_fract_y
 _atom_site_fract_z
 _atom_site_occupancy
  Sn  Sn0  1  0.033569  0.286567  0.666685  1
  Sn  Sn1  1  0.713433  0.966431  0.333315  1
  Sn  Sn2  1  0.533569  0.786567  0.833315  1
  Sn  Sn3  1  0.213433  0.466431  0.166685  1
  Sn  Sn4  1  0.466431  0.213433  0.833315  1
  Sn  Sn5  1  0.786567  0.533569  0.166685  1
  Sn  Sn6  1  0.966431  0.713433  0.666685  1
  Sn  Sn7  1  0.286567  0.033569  0.333315  1
  Au  Au8  1  0.500000  0.500000  0.500000  1
  Au  Au9  1  0.000000  0.000000  0.000000  1
