# generated using pymatgen
data_CaMnP2O7
_symmetry_space_group_name_H-M   'P 1'
_cell_length_a   6.63549734
_cell_length_b   6.66743442
_cell_length_c   6.81939828
_cell_angle_alpha   66.25575873
_cell_angle_beta   86.17902735
_cell_angle_gamma   82.36933291
_symmetry_Int_Tables_number   1
_chemical_formula_structural   CaMnP2O7
_chemical_formula_sum   'Ca2 Mn2 P4 O14'
_cell_volume   273.68919200
_cell_formula_units_Z   2
loop_
 _symmetry_equiv_pos_site_id
 _symmetry_equiv_pos_as_xyz
  1  'x, y, z'
loop_
 _atom_site_type_symbol
 _atom_site_label
 _atom_site_symmetry_multiplicity
 _atom_site_fract_x
 _atom_site_fract_y
 _atom_site_fract_z
 _atom_site_occupancy
  Ca  Ca0  1  0.857877  0.274427  0.169687  1
  Ca  Ca1  1  0.142123  0.725573  0.830313  1
  Mn  Mn2  1  0.650474  0.103324  0.767238  1
  Mn  Mn3  1  0.349526  0.896676  0.232762  1
  P  P4  1  0.145800  0.228483  0.748318  1
  P  P5  1  0.854200  0.771517  0.251682  1
  P  P6  1  0.630806  0.640391  0.671965  1
  P  P7  1  0.369194  0.359609  0.328035  1
  O  O8  1  0.773350  0.609304  0.479176  1
  O  O9  1  0.226650  0.390696  0.520824  1
  O  O10  1  0.980942  0.102705  0.715611  1
  O  O11  1  0.019058  0.897295  0.284389  1
  O  O12  1  0.582004  0.259164  0.422950  1
  O  O13  1  0.417996  0.740836  0.577050  1
  O  O14  1  0.369258  0.596496  0.159572  1
  O  O15  1  0.630742  0.403504  0.840428  1
  O  O16  1  0.930458  0.618786  0.140496  1
  O  O17  1  0.069542  0.381214  0.859504  1
  O  O18  1  0.674449  0.947193  0.138141  1
  O  O19  1  0.325551  0.052807  0.861859  1
  O  O20  1  0.266032  0.209065  0.257563  1
  O  O21  1  0.733968  0.790935  0.742437  1
