# generated using pymatgen
data_BaSn3Pd
_symmetry_space_group_name_H-M   'P 1'
_cell_length_a   6.68174284
_cell_length_b   6.68174284
_cell_length_c   6.68174284
_cell_angle_alpha   136.35458168
_cell_angle_beta   136.35458168
_cell_angle_gamma   63.43262022
_symmetry_Int_Tables_number   1
_chemical_formula_structural   BaSn3Pd
_chemical_formula_sum   'Ba1 Sn3 Pd1'
_cell_volume   140.26678309
_cell_formula_units_Z   1
loop_
 _symmetry_equiv_pos_site_id
 _symmetry_equiv_pos_as_xyz
  1  'x, y, z'
loop_
 _atom_site_type_symbol
 _atom_site_label
 _atom_site_symmetry_multiplicity
 _atom_site_fract_x
 _atom_site_fract_y
 _atom_site_fract_z
 _atom_site_occupancy
  Ba  Ba0  1  0.000265  0.000265  0.000000  1
  Sn  Sn1  1  0.250032  0.750032  0.500000  1
  Sn  Sn2  1  0.412539  0.412539  0.000000  1
  Sn  Sn3  1  0.750032  0.250032  0.500000  1
  Pd  Pd4  1  0.649133  0.649133  0.000000  1
