# generated using pymatgen
data_BaLaCuS3
_symmetry_space_group_name_H-M   'P 1'
_cell_length_a   4.25783549
_cell_length_b   11.35338906
_cell_length_c   11.89310254
_cell_angle_alpha   90.00000000
_cell_angle_beta   90.00000000
_cell_angle_gamma   90.00000000
_symmetry_Int_Tables_number   1
_chemical_formula_structural   BaLaCuS3
_chemical_formula_sum   'Ba4 La4 Cu4 S12'
_cell_volume   574.92283900
_cell_formula_units_Z   4
loop_
 _symmetry_equiv_pos_site_id
 _symmetry_equiv_pos_as_xyz
  1  'x, y, z'
loop_
 _atom_site_type_symbol
 _atom_site_label
 _atom_site_symmetry_multiplicity
 _atom_site_fract_x
 _atom_site_fract_y
 _atom_site_fract_z
 _atom_site_occupancy
  Ba  Ba0  1  0.250000  0.316656  0.007809  1
  Ba  Ba1  1  0.750000  0.683344  0.992191  1
  Ba  Ba2  1  0.750000  0.183344  0.507809  1
  Ba  Ba3  1  0.250000  0.816656  0.492191  1
  La  La4  1  0.250000  0.989612  0.818003  1
  La  La5  1  0.750000  0.010388  0.181997  1
  La  La6  1  0.250000  0.489612  0.681997  1
  La  La7  1  0.750000  0.510388  0.318003  1
  Cu  Cu8  1  0.250000  0.747888  0.208361  1
  Cu  Cu9  1  0.250000  0.247888  0.291639  1
  Cu  Cu10  1  0.750000  0.252112  0.791639  1
  Cu  Cu11  1  0.750000  0.752112  0.708361  1
  S  S12  1  0.750000  0.948799  0.651371  1
  S  S13  1  0.250000  0.051201  0.348629  1
  S  S14  1  0.750000  0.448799  0.848629  1
  S  S15  1  0.250000  0.551201  0.151371  1
  S  S16  1  0.250000  0.889394  0.060183  1
  S  S17  1  0.750000  0.110606  0.939817  1
  S  S18  1  0.250000  0.389394  0.439817  1
  S  S19  1  0.750000  0.774870  0.295813  1
  S  S20  1  0.250000  0.725130  0.795813  1
  S  S21  1  0.750000  0.274870  0.204187  1
  S  S22  1  0.250000  0.225130  0.704187  1
  S  S23  1  0.750000  0.610606  0.560183  1
