# generated using pymatgen
data_Tm4In(NiGe2)2
_symmetry_space_group_name_H-M   'P 1'
_cell_length_a   7.95385665
_cell_length_b   7.95385665
_cell_length_c   6.98959571
_cell_angle_alpha   72.06714480
_cell_angle_beta   107.93285520
_cell_angle_gamma   149.44216633
_symmetry_Int_Tables_number   1
_chemical_formula_structural   Tm4In(NiGe2)2
_chemical_formula_sum   'Tm4 In1 Ni2 Ge4'
_cell_volume   213.05285986
_cell_formula_units_Z   1
loop_
 _symmetry_equiv_pos_site_id
 _symmetry_equiv_pos_as_xyz
  1  'x, y, z'
loop_
 _atom_site_type_symbol
 _atom_site_label
 _atom_site_symmetry_multiplicity
 _atom_site_fract_x
 _atom_site_fract_y
 _atom_site_fract_z
 _atom_site_occupancy
  Tm  Tm0  1  0.343971  0.656029  0.062829  1
  Tm  Tm1  1  0.656029  0.343971  0.937171  1
  Tm  Tm2  1  0.408693  0.591307  0.609027  1
  Tm  Tm3  1  0.591307  0.408693  0.390973  1
  In  In4  1  0.000000  0.000000  0.000000  1
  Ni  Ni5  1  0.218104  0.781896  0.637961  1
  Ni  Ni6  1  0.781896  0.218104  0.362039  1
  Ge  Ge7  1  0.066171  0.933829  0.662668  1
  Ge  Ge8  1  0.933829  0.066171  0.337332  1
  Ge  Ge9  1  0.201550  0.798450  0.264451  1
  Ge  Ge10  1  0.798450  0.201550  0.735549  1
