# generated using pymatgen
data_Rb3Ge4Au
_symmetry_space_group_name_H-M   'P 1'
_cell_length_a   6.22931223
_cell_length_b   6.99908666
_cell_length_c   12.72092709
_cell_angle_alpha   90.00000000
_cell_angle_beta   90.00000000
_cell_angle_gamma   90.00000000
_symmetry_Int_Tables_number   1
_chemical_formula_structural   Rb3Ge4Au
_chemical_formula_sum   'Rb6 Ge8 Au2'
_cell_volume   554.62601143
_cell_formula_units_Z   2
loop_
 _symmetry_equiv_pos_site_id
 _symmetry_equiv_pos_as_xyz
  1  'x, y, z'
loop_
 _atom_site_type_symbol
 _atom_site_label
 _atom_site_symmetry_multiplicity
 _atom_site_fract_x
 _atom_site_fract_y
 _atom_site_fract_z
 _atom_site_occupancy
  Rb  Rb0  1  0.424247  0.500000  0.500000  1
  Rb  Rb1  1  0.575753  0.000000  0.000000  1
  Rb  Rb2  1  0.166531  0.000000  0.764085  1
  Rb  Rb3  1  0.166531  0.000000  0.235915  1
  Rb  Rb4  1  0.833469  0.500000  0.735915  1
  Rb  Rb5  1  0.833469  0.500000  0.264085  1
  Ge  Ge6  1  0.329640  0.500000  0.109253  1
  Ge  Ge7  1  0.329640  0.500000  0.890747  1
  Ge  Ge8  1  0.059848  0.302206  0.000000  1
  Ge  Ge9  1  0.059848  0.697794  0.000000  1
  Ge  Ge10  1  0.940152  0.802206  0.500000  1
  Ge  Ge11  1  0.940152  0.197794  0.500000  1
  Ge  Ge12  1  0.670360  0.000000  0.390747  1
  Ge  Ge13  1  0.670360  0.000000  0.609253  1
  Au  Au14  1  0.693119  0.500000  0.000000  1
  Au  Au15  1  0.306881  0.000000  0.500000  1
