# generated using pymatgen
data_Nb2O5
_symmetry_space_group_name_H-M   'P 1'
_cell_length_a   6.82690439
_cell_length_b   6.82690439
_cell_length_c   4.06094573
_cell_angle_alpha   89.27452313
_cell_angle_beta   90.72547687
_cell_angle_gamma   147.04517751
_symmetry_Int_Tables_number   1
_chemical_formula_structural   Nb2O5
_chemical_formula_sum   'Nb2 O5'
_cell_volume   102.94801181
_cell_formula_units_Z   1
loop_
 _symmetry_equiv_pos_site_id
 _symmetry_equiv_pos_as_xyz
  1  'x, y, z'
loop_
 _atom_site_type_symbol
 _atom_site_label
 _atom_site_symmetry_multiplicity
 _atom_site_fract_x
 _atom_site_fract_y
 _atom_site_fract_z
 _atom_site_occupancy
  Nb  Nb0  1  0.853840  0.146160  0.932784  1
  Nb  Nb1  1  0.146160  0.853840  0.067216  1
  O  O2  1  0.852417  0.147583  0.489366  1
  O  O3  1  0.147583  0.852417  0.510634  1
  O  O4  1  0.000000  0.000000  0.000000  1
  O  O5  1  0.685033  0.314967  0.003085  1
  O  O6  1  0.314967  0.685033  0.996915  1
