# generated using pymatgen
data_DySiRu
_symmetry_space_group_name_H-M   'P 1'
_cell_length_a   4.34137619
_cell_length_b   7.00278468
_cell_length_c   7.10908576
_cell_angle_alpha   90.00000000
_cell_angle_beta   90.00000000
_cell_angle_gamma   90.00000000
_symmetry_Int_Tables_number   1
_chemical_formula_structural   DySiRu
_chemical_formula_sum   'Dy4 Si4 Ru4'
_cell_volume   216.12845374
_cell_formula_units_Z   4
loop_
 _symmetry_equiv_pos_site_id
 _symmetry_equiv_pos_as_xyz
  1  'x, y, z'
loop_
 _atom_site_type_symbol
 _atom_site_label
 _atom_site_symmetry_multiplicity
 _atom_site_fract_x
 _atom_site_fract_y
 _atom_site_fract_z
 _atom_site_occupancy
  Dy  Dy0  1  0.250000  0.485984  0.813375  1
  Dy  Dy1  1  0.750000  0.514016  0.186625  1
  Dy  Dy2  1  0.250000  0.985984  0.686625  1
  Dy  Dy3  1  0.750000  0.014016  0.313375  1
  Si  Si4  1  0.250000  0.804251  0.106120  1
  Si  Si5  1  0.750000  0.195749  0.893880  1
  Si  Si6  1  0.250000  0.304251  0.393880  1
  Si  Si7  1  0.750000  0.695749  0.606120  1
  Ru  Ru8  1  0.750000  0.347042  0.567334  1
  Ru  Ru9  1  0.250000  0.652958  0.432666  1
  Ru  Ru10  1  0.750000  0.847042  0.932666  1
  Ru  Ru11  1  0.250000  0.152958  0.067334  1
