# generated using pymatgen
data_LaMgTl
_symmetry_space_group_name_H-M   'P 1'
_cell_length_a   7.87727177
_cell_length_b   7.87727177
_cell_length_c   4.85592048
_cell_angle_alpha   90.00000000
_cell_angle_beta   90.00000000
_cell_angle_gamma   120.00000000
_symmetry_Int_Tables_number   1
_chemical_formula_structural   LaMgTl
_chemical_formula_sum   'La3 Mg3 Tl3'
_cell_volume   260.94793021
_cell_formula_units_Z   3
loop_
 _symmetry_equiv_pos_site_id
 _symmetry_equiv_pos_as_xyz
  1  'x, y, z'
loop_
 _atom_site_type_symbol
 _atom_site_label
 _atom_site_symmetry_multiplicity
 _atom_site_fract_x
 _atom_site_fract_y
 _atom_site_fract_z
 _atom_site_occupancy
  La  La0  1  0.574185  0.574185  0.000000  1
  La  La1  1  0.425815  0.000000  0.000000  1
  La  La2  1  0.000000  0.425815  0.000000  1
  Mg  Mg3  1  0.000000  0.757811  0.500000  1
  Mg  Mg4  1  0.242189  0.242189  0.500000  1
  Mg  Mg5  1  0.757811  0.000000  0.500000  1
  Tl  Tl6  1  0.333333  0.666667  0.500000  1
  Tl  Tl7  1  0.000000  0.000000  0.000000  1
  Tl  Tl8  1  0.666667  0.333333  0.500000  1
