# generated using pymatgen
data_SrLi2Ti6O14
_symmetry_space_group_name_H-M   'P 1'
_cell_length_a   10.09266633
_cell_length_b   10.09266633
_cell_length_c   11.56144208
_cell_angle_alpha   90.00000000
_cell_angle_beta   90.00000000
_cell_angle_gamma   112.01225146
_symmetry_Int_Tables_number   1
_chemical_formula_structural   SrLi2Ti6O14
_chemical_formula_sum   'Sr4 Li8 Ti24 O56'
_cell_volume   1091.82282159
_cell_formula_units_Z   4
loop_
 _symmetry_equiv_pos_site_id
 _symmetry_equiv_pos_as_xyz
  1  'x, y, z'
loop_
 _atom_site_type_symbol
 _atom_site_label
 _atom_site_symmetry_multiplicity
 _atom_site_fract_x
 _atom_site_fract_y
 _atom_site_fract_z
 _atom_site_occupancy
  Sr  Sr0  1  0.853360  0.853360  0.121059  1
  Sr  Sr1  1  0.146640  0.146640  0.878941  1
  Sr  Sr2  1  0.353360  0.353360  0.378941  1
  Sr  Sr3  1  0.646640  0.646640  0.621059  1
  Li  Li4  1  0.558557  0.930989  0.121671  1
  Li  Li5  1  0.941443  0.569011  0.621671  1
  Li  Li6  1  0.430989  0.058557  0.378329  1
  Li  Li7  1  0.069011  0.441443  0.878329  1
  Li  Li8  1  0.441443  0.069011  0.878329  1
  Li  Li9  1  0.058557  0.430989  0.378329  1
  Li  Li10  1  0.569011  0.941443  0.621671  1
  Li  Li11  1  0.930989  0.558557  0.121671  1
  Ti  Ti12  1  0.991005  0.775877  0.385052  1
  Ti  Ti13  1  0.508995  0.724123  0.885052  1
  Ti  Ti14  1  0.275877  0.491005  0.114948  1
  Ti  Ti15  1  0.224123  0.008995  0.614948  1
  Ti  Ti16  1  0.008995  0.224123  0.614948  1
  Ti  Ti17  1  0.743031  0.243032  0.250000  1
  Ti  Ti18  1  0.491005  0.275877  0.114948  1
  Ti  Ti19  1  0.724123  0.508995  0.885052  1
  Ti  Ti20  1  0.775877  0.991005  0.385052  1
  Ti  Ti21  1  0.734991  0.517634  0.359559  1
  Ti  Ti22  1  0.765009  0.982366  0.859559  1
  Ti  Ti23  1  0.017634  0.234991  0.140441  1
  Ti  Ti24  1  0.482366  0.265009  0.640441  1
  Ti  Ti25  1  0.265009  0.482366  0.640441  1
  Ti  Ti26  1  0.756968  0.256968  0.750000  1
  Ti  Ti27  1  0.982366  0.765009  0.859559  1
  Ti  Ti28  1  0.517634  0.734991  0.359559  1
  Ti  Ti29  1  0.260593  0.739407  0.500000  1
  Ti  Ti30  1  0.239407  0.760593  1.000000  1
  Ti  Ti31  1  0.739407  0.260593  0.500000  1
  Ti  Ti32  1  0.760593  0.239407  0.000000  1
  Ti  Ti33  1  0.243032  0.743032  0.250000  1
  Ti  Ti34  1  0.256968  0.756968  0.750000  1
  Ti  Ti35  1  0.234991  0.017634  0.140441  1
  O  O36  1  0.854961  0.639395  0.758923  1
  O  O37  1  0.090112  0.090112  0.633775  1
  O  O38  1  0.409888  0.409888  0.133775  1
  O  O39  1  0.590112  0.590112  0.866225  1
  O  O40  1  0.909888  0.909888  0.366225  1
  O  O41  1  0.855407  0.639871  0.482843  1
  O  O42  1  0.644593  0.860129  0.982843  1
  O  O43  1  0.139871  0.355407  0.017157  1
  O  O44  1  0.360129  0.144593  0.517157  1
  O  O45  1  0.144593  0.360129  0.517157  1
  O  O46  1  0.355407  0.139871  0.017157  1
  O  O47  1  0.860129  0.644593  0.982843  1
  O  O48  1  0.639871  0.855407  0.482843  1
  O  O49  1  0.416390  0.416390  0.622865  1
  O  O50  1  0.083610  0.083610  0.122865  1
  O  O51  1  0.916390  0.916390  0.877135  1
  O  O52  1  0.583610  0.583610  0.377135  1
  O  O53  1  0.860605  0.645039  0.258923  1
  O  O54  1  0.639395  0.854961  0.758923  1
  O  O55  1  0.145039  0.360605  0.241077  1
  O  O56  1  0.354961  0.139395  0.741077  1
  O  O57  1  0.139395  0.354961  0.741077  1
  O  O58  1  0.871164  0.128836  0.000000  1
  O  O59  1  0.645039  0.860605  0.258923  1
  O  O60  1  0.867368  0.132632  0.500000  1
  O  O61  1  0.632632  0.367368  0.000000  1
  O  O62  1  0.132632  0.867368  0.500000  1
  O  O63  1  0.367368  0.632632  1.000000  1
  O  O64  1  0.646065  0.120722  0.378232  1
  O  O65  1  0.853935  0.379278  0.878232  1
  O  O66  1  0.620722  0.146065  0.121768  1
  O  O67  1  0.879278  0.353935  0.621768  1
  O  O68  1  0.353935  0.879278  0.621768  1
  O  O69  1  0.146065  0.620722  0.121768  1
  O  O70  1  0.379278  0.853935  0.878232  1
  O  O71  1  0.120722  0.646065  0.378232  1
  O  O72  1  0.863378  0.127868  0.250000  1
  O  O73  1  0.636622  0.372132  0.750000  1
  O  O74  1  0.627868  0.363378  0.250000  1
  O  O75  1  0.872132  0.136622  0.750000  1
  O  O76  1  0.136622  0.872132  0.750000  1
  O  O77  1  0.363378  0.627868  0.250000  1
  O  O78  1  0.372132  0.636622  0.750000  1
  O  O79  1  0.127868  0.863378  0.250000  1
  O  O80  1  0.380463  0.848107  0.371861  1
  O  O81  1  0.119537  0.651893  0.871861  1
  O  O82  1  0.348107  0.880463  0.128139  1
  O  O83  1  0.151893  0.619537  0.628139  1
  O  O84  1  0.619537  0.151893  0.628139  1
  O  O85  1  0.880463  0.348107  0.128139  1
  O  O86  1  0.651893  0.119537  0.871861  1
  O  O87  1  0.848107  0.380463  0.371861  1
  O  O88  1  0.371164  0.628836  0.500000  1
  O  O89  1  0.128836  0.871164  0.000000  1
  O  O90  1  0.628836  0.371164  0.500000  1
  O  O91  1  0.360605  0.145039  0.241077  1
