# generated using pymatgen
data_Lu3BC3
_symmetry_space_group_name_H-M   'P 1'
_cell_length_a   3.53598631
_cell_length_b   3.53598631
_cell_length_c   15.70778629
_cell_angle_alpha   90.00000000
_cell_angle_beta   90.00000000
_cell_angle_gamma   90.39146370
_symmetry_Int_Tables_number   1
_chemical_formula_structural   Lu3BC3
_chemical_formula_sum   'Lu6 B2 C6'
_cell_volume   196.39299669
_cell_formula_units_Z   2
loop_
 _symmetry_equiv_pos_site_id
 _symmetry_equiv_pos_as_xyz
  1  'x, y, z'
loop_
 _atom_site_type_symbol
 _atom_site_label
 _atom_site_symmetry_multiplicity
 _atom_site_fract_x
 _atom_site_fract_y
 _atom_site_fract_z
 _atom_site_occupancy
  Lu  Lu0  1  0.416461  0.583539  0.104166  1
  Lu  Lu1  1  0.583539  0.416461  0.604166  1
  Lu  Lu2  1  0.583539  0.416461  0.895834  1
  Lu  Lu3  1  0.416461  0.583539  0.395834  1
  Lu  Lu4  1  0.089734  0.910266  0.750000  1
  Lu  Lu5  1  0.910266  0.089734  0.250000  1
  B  B6  1  0.000000  0.000000  0.000000  1
  B  B7  1  0.000000  0.000000  0.500000  1
  C  C8  1  0.904491  0.095509  0.087692  1
  C  C9  1  0.095509  0.904491  0.587692  1
  C  C10  1  0.095509  0.904491  0.912308  1
  C  C11  1  0.904491  0.095509  0.412308  1
  C  C12  1  0.401914  0.598086  0.250000  1
  C  C13  1  0.598086  0.401914  0.750000  1
