# generated using pymatgen
data_Ti2Zn
_symmetry_space_group_name_H-M   'P 1'
_cell_length_a   5.81397165
_cell_length_b   5.81397165
_cell_length_c   5.81397165
_cell_angle_alpha   150.00624144
_cell_angle_beta   150.00624144
_cell_angle_gamma   42.93224120
_symmetry_Int_Tables_number   1
_chemical_formula_structural   Ti2Zn
_chemical_formula_sum   'Ti2 Zn1'
_cell_volume   48.98617987
_cell_formula_units_Z   1
loop_
 _symmetry_equiv_pos_site_id
 _symmetry_equiv_pos_as_xyz
  1  'x, y, z'
loop_
 _atom_site_type_symbol
 _atom_site_label
 _atom_site_symmetry_multiplicity
 _atom_site_fract_x
 _atom_site_fract_y
 _atom_site_fract_z
 _atom_site_occupancy
  Ti  Ti0  1  0.664278  0.664278  0.000000  1
  Ti  Ti1  1  0.335722  0.335722  0.000000  1
  Zn  Zn2  1  0.000000  0.000000  0.000000  1
