# generated using pymatgen
data_LiZnAsO4
_symmetry_space_group_name_H-M   'P 1'
_cell_length_a   8.86543331
_cell_length_b   8.86543331
_cell_length_c   8.86543331
_cell_angle_alpha   107.85188177
_cell_angle_beta   107.85188177
_cell_angle_gamma   107.85188177
_symmetry_Int_Tables_number   1
_chemical_formula_structural   LiZnAsO4
_chemical_formula_sum   'Li6 Zn6 As6 O24'
_cell_volume   566.26471610
_cell_formula_units_Z   6
loop_
 _symmetry_equiv_pos_site_id
 _symmetry_equiv_pos_as_xyz
  1  'x, y, z'
loop_
 _atom_site_type_symbol
 _atom_site_label
 _atom_site_symmetry_multiplicity
 _atom_site_fract_x
 _atom_site_fract_y
 _atom_site_fract_z
 _atom_site_occupancy
  Li  Li0  1  0.334499  0.933488  0.158594  1
  Li  Li1  1  0.853492  0.619478  0.448637  1
  Li  Li2  1  0.448637  0.853492  0.619478  1
  Li  Li3  1  0.619478  0.448637  0.853492  1
  Li  Li4  1  0.158594  0.334499  0.933488  1
  Li  Li5  1  0.933488  0.158594  0.334499  1
  Zn  Zn6  1  0.665147  0.260265  0.494837  1
  Zn  Zn7  1  0.494837  0.665147  0.260265  1
  Zn  Zn8  1  0.260265  0.494837  0.665147  1
  Zn  Zn9  1  0.182079  0.956793  0.780516  1
  Zn  Zn10  1  0.780516  0.182079  0.956793  1
  Zn  Zn11  1  0.956793  0.780516  0.182079  1
  As  As12  1  0.291330  0.111811  0.520017  1
  As  As13  1  0.520017  0.291330  0.111811  1
  As  As14  1  0.111811  0.520017  0.291330  1
  As  As15  1  0.005582  0.596942  0.822105  1
  As  As16  1  0.822105  0.005582  0.596942  1
  As  As17  1  0.596942  0.822105  0.005582  1
  O  O18  1  0.418152  0.093160  0.408134  1
  O  O19  1  0.408134  0.418152  0.093160  1
  O  O20  1  0.093160  0.408134  0.418152  1
  O  O21  1  0.035666  0.086200  0.751556  1
  O  O22  1  0.751556  0.035666  0.086200  1
  O  O23  1  0.086200  0.751556  0.035666  1
  O  O24  1  0.706001  0.692543  0.024950  1
  O  O25  1  0.692543  0.024950  0.706001  1
  O  O26  1  0.308062  0.987538  0.634561  1
  O  O27  1  0.024950  0.706001  0.692543  1
  O  O28  1  0.987538  0.634561  0.308062  1
  O  O29  1  0.634561  0.308062  0.987538  1
  O  O30  1  0.330302  0.664329  0.371863  1
  O  O31  1  0.664329  0.371863  0.330302  1
  O  O32  1  0.371863  0.330302  0.664329  1
  O  O33  1  0.029238  0.365106  0.076431  1
  O  O34  1  0.365106  0.076431  0.029238  1
  O  O35  1  0.076431  0.029238  0.365106  1
  O  O36  1  0.128663  0.480538  0.809861  1
  O  O37  1  0.480538  0.809861  0.128663  1
  O  O38  1  0.809861  0.128663  0.480537  1
  O  O39  1  0.453488  0.740819  0.785927  1
  O  O40  1  0.740819  0.785927  0.453488  1
  O  O41  1  0.785927  0.453488  0.740819  1
