# generated using pymatgen
data_CeCuSe2
_symmetry_space_group_name_H-M   'P 1'
_cell_length_a   6.69560435
_cell_length_b   7.51159524
_cell_length_c   7.24446494
_cell_angle_alpha   90.00000000
_cell_angle_beta   96.88179153
_cell_angle_gamma   90.00000000
_symmetry_Int_Tables_number   1
_chemical_formula_structural   CeCuSe2
_chemical_formula_sum   'Ce4 Cu4 Se8'
_cell_volume   361.73294409
_cell_formula_units_Z   4
loop_
 _symmetry_equiv_pos_site_id
 _symmetry_equiv_pos_as_xyz
  1  'x, y, z'
loop_
 _atom_site_type_symbol
 _atom_site_label
 _atom_site_symmetry_multiplicity
 _atom_site_fract_x
 _atom_site_fract_y
 _atom_site_fract_z
 _atom_site_occupancy
  Ce  Ce0  1  0.308951  0.547591  0.700416  1
  Ce  Ce1  1  0.691049  0.047591  0.799584  1
  Ce  Ce2  1  0.691049  0.452409  0.299584  1
  Ce  Ce3  1  0.308951  0.952409  0.200416  1
  Cu  Cu4  1  0.938110  0.838027  0.460912  1
  Cu  Cu5  1  0.061890  0.161973  0.539088  1
  Cu  Cu6  1  0.938110  0.661973  0.960912  1
  Cu  Cu7  1  0.061890  0.338027  0.039088  1
  Se  Se8  1  0.587140  0.724587  0.999779  1
  Se  Se9  1  0.587140  0.775413  0.499779  1
  Se  Se10  1  0.412860  0.224587  0.500221  1
  Se  Se11  1  0.412860  0.275413  0.000221  1
  Se  Se12  1  0.099499  0.612427  0.283936  1
  Se  Se13  1  0.900501  0.112427  0.216064  1
  Se  Se14  1  0.900501  0.387573  0.716064  1
  Se  Se15  1  0.099499  0.887573  0.783936  1
