# generated using pymatgen
data_PrPIr
_symmetry_space_group_name_H-M   'P 1'
_cell_length_a   7.71949214
_cell_length_b   7.71949214
_cell_length_c   7.71949214
_cell_angle_alpha   148.87437168
_cell_angle_beta   148.87437168
_cell_angle_gamma   44.59625747
_symmetry_Int_Tables_number   1
_chemical_formula_structural   PrPIr
_chemical_formula_sum   'Pr2 P2 Ir2'
_cell_volume   122.54517868
_cell_formula_units_Z   2
loop_
 _symmetry_equiv_pos_site_id
 _symmetry_equiv_pos_as_xyz
  1  'x, y, z'
loop_
 _atom_site_type_symbol
 _atom_site_label
 _atom_site_symmetry_multiplicity
 _atom_site_fract_x
 _atom_site_fract_y
 _atom_site_fract_z
 _atom_site_occupancy
  Pr  Pr0  1  0.751064  0.751064  0.000000  1
  Pr  Pr1  1  0.501064  0.001064  0.500000  1
  P  P2  1  0.329668  0.329668  0.000000  1
  P  P3  1  0.079668  0.579668  0.500000  1
  Ir  Ir4  1  0.912288  0.412288  0.500000  1
  Ir  Ir5  1  0.162288  0.162288  0.000000  1
