# generated using pymatgen
data_Sr3Sn5
_symmetry_space_group_name_H-M   'P 1'
_cell_length_a   6.91375113
_cell_length_b   6.91375113
_cell_length_c   11.00725446
_cell_angle_alpha   90.00000000
_cell_angle_beta   90.00000000
_cell_angle_gamma   102.35459997
_symmetry_Int_Tables_number   1
_chemical_formula_structural   Sr3Sn5
_chemical_formula_sum   'Sr6 Sn10'
_cell_volume   513.96183362
_cell_formula_units_Z   2
loop_
 _symmetry_equiv_pos_site_id
 _symmetry_equiv_pos_as_xyz
  1  'x, y, z'
loop_
 _atom_site_type_symbol
 _atom_site_label
 _atom_site_symmetry_multiplicity
 _atom_site_fract_x
 _atom_site_fract_y
 _atom_site_fract_z
 _atom_site_occupancy
  Sr  Sr0  1  0.145915  0.145915  0.250000  1
  Sr  Sr1  1  0.854085  0.854085  0.750000  1
  Sr  Sr2  1  0.297223  0.702777  0.000000  1
  Sr  Sr3  1  0.702777  0.297223  0.500000  1
  Sr  Sr4  1  0.702777  0.297223  1.000000  1
  Sr  Sr5  1  0.297223  0.702777  0.500000  1
  Sn  Sn6  1  0.542530  0.542530  0.250000  1
  Sn  Sn7  1  0.457470  0.457470  0.750000  1
  Sn  Sn8  1  0.992304  0.591492  0.250000  1
  Sn  Sn9  1  0.007696  0.408508  0.750000  1
  Sn  Sn10  1  0.591492  0.992304  0.250000  1
  Sn  Sn11  1  0.408508  0.007696  0.750000  1
  Sn  Sn12  1  0.187807  0.187807  0.553235  1
  Sn  Sn13  1  0.812193  0.812193  0.053235  1
  Sn  Sn14  1  0.187807  0.187807  0.946765  1
  Sn  Sn15  1  0.812193  0.812193  0.446765  1
