# generated using pymatgen
data_KNpN3O11
_symmetry_space_group_name_H-M   'P 1'
_cell_length_a   8.38997882
_cell_length_b   8.38997882
_cell_length_c   8.38997882
_cell_angle_alpha   69.25954970
_cell_angle_beta   69.25954970
_cell_angle_gamma   69.25954970
_symmetry_Int_Tables_number   1
_chemical_formula_structural   KNpN3O11
_chemical_formula_sum   'K2 Np2 N6 O22'
_cell_volume   498.54289222
_cell_formula_units_Z   2
loop_
 _symmetry_equiv_pos_site_id
 _symmetry_equiv_pos_as_xyz
  1  'x, y, z'
loop_
 _atom_site_type_symbol
 _atom_site_label
 _atom_site_symmetry_multiplicity
 _atom_site_fract_x
 _atom_site_fract_y
 _atom_site_fract_z
 _atom_site_occupancy
  K  K0  1  0.500000  0.500000  0.500000  1
  K  K1  1  0.000000  0.000000  0.000000  1
  Np  Np2  1  0.250000  0.250000  0.250000  1
  Np  Np3  1  0.750000  0.750000  0.750000  1
  N  N4  1  0.943401  0.556599  0.250000  1
  N  N5  1  0.556599  0.250000  0.943401  1
  N  N6  1  0.250000  0.943401  0.556599  1
  N  N7  1  0.056599  0.443401  0.750000  1
  N  N8  1  0.443401  0.750000  0.056599  1
  N  N9  1  0.750000  0.056599  0.443401  1
  O  O10  1  0.344276  0.344276  0.344276  1
  O  O11  1  0.155724  0.155724  0.155724  1
  O  O12  1  0.844276  0.844276  0.844276  1
  O  O13  1  0.655724  0.655724  0.655724  1
  O  O14  1  0.088183  0.556380  0.125606  1
  O  O15  1  0.374394  0.943620  0.411817  1
  O  O16  1  0.411817  0.374394  0.943620  1
  O  O17  1  0.943620  0.411817  0.374394  1
  O  O18  1  0.750000  0.185425  0.314575  1
  O  O19  1  0.314575  0.750000  0.185425  1
  O  O20  1  0.185425  0.314575  0.750000  1
  O  O21  1  0.250000  0.814575  0.685425  1
  O  O22  1  0.685425  0.250000  0.814575  1
  O  O23  1  0.814575  0.685425  0.250000  1
  O  O24  1  0.874394  0.911817  0.443620  1
  O  O25  1  0.443620  0.874394  0.911817  1
  O  O26  1  0.911817  0.443620  0.874394  1
  O  O27  1  0.625606  0.056380  0.588183  1
  O  O28  1  0.588183  0.625606  0.056380  1
  O  O29  1  0.056380  0.588183  0.625606  1
  O  O30  1  0.125606  0.088183  0.556380  1
  O  O31  1  0.556380  0.125606  0.088183  1
