# generated using pymatgen
data_K2Ga3CuSe6
_symmetry_space_group_name_H-M   'P 1'
_cell_length_a   7.91728211
_cell_length_b   7.91728211
_cell_length_c   21.14358821
_cell_angle_alpha   84.63045628
_cell_angle_beta   95.36954372
_cell_angle_gamma   89.86346814
_symmetry_Int_Tables_number   1
_chemical_formula_structural   K2Ga3CuSe6
_chemical_formula_sum   'K8 Ga12 Cu4 Se24'
_cell_volume   1313.66193934
_cell_formula_units_Z   4
loop_
 _symmetry_equiv_pos_site_id
 _symmetry_equiv_pos_as_xyz
  1  'x, y, z'
loop_
 _atom_site_type_symbol
 _atom_site_label
 _atom_site_symmetry_multiplicity
 _atom_site_fract_x
 _atom_site_fract_y
 _atom_site_fract_z
 _atom_site_occupancy
  K  K0  1  0.777329  0.606895  0.580193  1
  K  K1  1  0.236157  0.896062  0.419555  1
  K  K2  1  0.103938  0.763843  0.919555  1
  K  K3  1  0.763843  0.103938  0.580445  1
  K  K4  1  0.393105  0.222671  0.080193  1
  K  K5  1  0.222671  0.393105  0.419807  1
  K  K6  1  0.896062  0.236157  0.080445  1
  K  K7  1  0.606895  0.777329  0.919807  1
  Ga  Ga8  1  0.154568  0.719017  0.120709  1
  Ga  Ga9  1  0.845432  0.280983  0.879291  1
  Ga  Ga10  1  0.719017  0.154568  0.379291  1
  Ga  Ga11  1  0.346104  0.280114  0.880310  1
  Ga  Ga12  1  0.280114  0.346104  0.619690  1
  Ga  Ga13  1  0.653896  0.719886  0.119690  1
  Ga  Ga14  1  0.719886  0.653896  0.380310  1
  Ga  Ga15  1  0.557955  0.557955  0.750000  1
  Ga  Ga16  1  0.442045  0.442045  0.250000  1
  Ga  Ga17  1  0.068317  0.068317  0.750000  1
  Ga  Ga18  1  0.280983  0.845432  0.620709  1
  Ga  Ga19  1  0.931683  0.931683  0.250000  1
  Cu  Cu20  1  0.064508  0.562170  0.750219  1
  Cu  Cu21  1  0.562170  0.064508  0.749781  1
  Cu  Cu22  1  0.935492  0.437830  0.249781  1
  Cu  Cu23  1  0.437830  0.935492  0.250219  1
  Se  Se24  1  0.332355  0.033814  0.819350  1
  Se  Se25  1  0.709726  0.887601  0.449265  1
  Se  Se26  1  0.112399  0.290274  0.949265  1
  Se  Se27  1  0.290274  0.112399  0.550735  1
  Se  Se28  1  0.442339  0.670626  0.319672  1
  Se  Se29  1  0.670626  0.442339  0.180328  1
  Se  Se30  1  0.557661  0.329374  0.680328  1
  Se  Se31  1  0.329374  0.557661  0.819672  1
  Se  Se32  1  0.385831  0.764017  0.050451  1
  Se  Se33  1  0.764017  0.385831  0.449549  1
  Se  Se34  1  0.614169  0.235983  0.949549  1
  Se  Se35  1  0.235983  0.614169  0.550451  1
  Se  Se36  1  0.167967  0.964535  0.182396  1
  Se  Se37  1  0.964535  0.167967  0.317604  1
  Se  Se38  1  0.832033  0.035465  0.817604  1
  Se  Se39  1  0.035465  0.832033  0.682396  1
  Se  Se40  1  0.033814  0.332355  0.680650  1
  Se  Se41  1  0.667645  0.966186  0.180650  1
  Se  Se42  1  0.966186  0.667645  0.319350  1
  Se  Se43  1  0.557329  0.827892  0.682369  1
  Se  Se44  1  0.827892  0.557329  0.817631  1
  Se  Se45  1  0.442671  0.172108  0.317631  1
  Se  Se46  1  0.172108  0.442671  0.182369  1
  Se  Se47  1  0.887601  0.709726  0.050735  1
