# generated using pymatgen
data_K2SiF6
_symmetry_space_group_name_H-M   'P 1'
_cell_length_a   5.73783283
_cell_length_b   5.73783283
_cell_length_c   9.41446064
_cell_angle_alpha   90.00000000
_cell_angle_beta   90.00000000
_cell_angle_gamma   120.00000000
_symmetry_Int_Tables_number   1
_chemical_formula_structural   K2SiF6
_chemical_formula_sum   'K4 Si2 F12'
_cell_volume   268.42431728
_cell_formula_units_Z   2
loop_
 _symmetry_equiv_pos_site_id
 _symmetry_equiv_pos_as_xyz
  1  'x, y, z'
loop_
 _atom_site_type_symbol
 _atom_site_label
 _atom_site_symmetry_multiplicity
 _atom_site_fract_x
 _atom_site_fract_y
 _atom_site_fract_z
 _atom_site_occupancy
  K  K0  1  0.000000  0.000000  0.312357  1
  K  K1  1  0.000000  0.000000  0.812357  1
  K  K2  1  0.333333  0.666667  0.591651  1
  K  K3  1  0.666667  0.333333  0.091651  1
  Si  Si4  1  0.666667  0.333333  0.475671  1
  Si  Si5  1  0.333333  0.666667  0.975671  1
  F  F6  1  0.948045  0.474022  0.368780  1
  F  F7  1  0.474022  0.948045  0.868780  1
  F  F8  1  0.474022  0.525978  0.868780  1
  F  F9  1  0.525978  0.474022  0.368780  1
  F  F10  1  0.525978  0.051955  0.368780  1
  F  F11  1  0.051955  0.525978  0.868780  1
  F  F12  1  0.619283  0.809641  0.078307  1
  F  F13  1  0.809641  0.619283  0.578307  1
  F  F14  1  0.809641  0.190359  0.578307  1
  F  F15  1  0.190359  0.809641  0.078307  1
  F  F16  1  0.190359  0.380717  0.078307  1
  F  F17  1  0.380717  0.190359  0.578307  1
