# generated using pymatgen
data_Hf5Sb3
_symmetry_space_group_name_H-M   'P 1'
_cell_length_a   7.45871753
_cell_length_b   8.82043054
_cell_length_c   10.79161503
_cell_angle_alpha   90.00000000
_cell_angle_beta   90.00000000
_cell_angle_gamma   90.00000000
_symmetry_Int_Tables_number   1
_chemical_formula_structural   Hf5Sb3
_chemical_formula_sum   'Hf20 Sb12'
_cell_volume   709.97063919
_cell_formula_units_Z   4
loop_
 _symmetry_equiv_pos_site_id
 _symmetry_equiv_pos_as_xyz
  1  'x, y, z'
loop_
 _atom_site_type_symbol
 _atom_site_label
 _atom_site_symmetry_multiplicity
 _atom_site_fract_x
 _atom_site_fract_y
 _atom_site_fract_z
 _atom_site_occupancy
  Hf  Hf0  1  0.801879  0.442347  0.559902  1
  Hf  Hf1  1  0.301879  0.057653  0.940098  1
  Hf  Hf2  1  0.198121  0.942347  0.440098  1
  Hf  Hf3  1  0.698121  0.557653  0.059902  1
  Hf  Hf4  1  0.140646  0.250000  0.716137  1
  Hf  Hf5  1  0.640646  0.250000  0.783863  1
  Hf  Hf6  1  0.859354  0.750000  0.283863  1
  Hf  Hf7  1  0.359354  0.750000  0.216137  1
  Hf  Hf8  1  0.301879  0.442347  0.940098  1
  Hf  Hf9  1  0.801879  0.057653  0.559902  1
  Hf  Hf10  1  0.698121  0.942347  0.059902  1
  Hf  Hf11  1  0.198121  0.557653  0.440098  1
  Hf  Hf12  1  0.194702  0.750000  0.723175  1
  Hf  Hf13  1  0.694702  0.750000  0.776825  1
  Hf  Hf14  1  0.805298  0.250000  0.276825  1
  Hf  Hf15  1  0.305298  0.250000  0.223175  1
  Hf  Hf16  1  0.026960  0.750000  0.989340  1
  Hf  Hf17  1  0.526960  0.750000  0.510660  1
  Hf  Hf18  1  0.973040  0.250000  0.010660  1
  Hf  Hf19  1  0.473040  0.250000  0.489340  1
  Sb  Sb20  1  0.417629  0.750000  0.955422  1
  Sb  Sb21  1  0.917629  0.750000  0.544578  1
  Sb  Sb22  1  0.582371  0.250000  0.044578  1
  Sb  Sb23  1  0.082371  0.250000  0.455422  1
  Sb  Sb24  1  0.574189  0.992093  0.324910  1
  Sb  Sb25  1  0.074189  0.507907  0.175090  1
  Sb  Sb26  1  0.425811  0.492093  0.675090  1
  Sb  Sb27  1  0.925811  0.007907  0.824910  1
  Sb  Sb28  1  0.425811  0.007907  0.675090  1
  Sb  Sb29  1  0.925811  0.492093  0.824910  1
  Sb  Sb30  1  0.574189  0.507907  0.324910  1
  Sb  Sb31  1  0.074189  0.992093  0.175090  1
