# generated using pymatgen
data_Ba2Zn3(AsO)2
_symmetry_space_group_name_H-M   'P 1'
_cell_length_a   10.50510784
_cell_length_b   10.50510784
_cell_length_c   10.50510784
_cell_angle_alpha   156.80134389
_cell_angle_beta   156.80134389
_cell_angle_gamma   33.04010255
_symmetry_Int_Tables_number   1
_chemical_formula_structural   Ba2Zn3(AsO)2
_chemical_formula_sum   'Ba2 Zn3 As2 O2'
_cell_volume   179.73497609
_cell_formula_units_Z   1
loop_
 _symmetry_equiv_pos_site_id
 _symmetry_equiv_pos_as_xyz
  1  'x, y, z'
loop_
 _atom_site_type_symbol
 _atom_site_label
 _atom_site_symmetry_multiplicity
 _atom_site_fract_x
 _atom_site_fract_y
 _atom_site_fract_z
 _atom_site_occupancy
  Ba  Ba0  1  0.589022  0.589022  0.000000  1
  Ba  Ba1  1  0.410978  0.410978  0.000000  1
  Zn  Zn2  1  0.000000  0.000000  0.000000  1
  Zn  Zn3  1  0.250000  0.750000  0.500000  1
  Zn  Zn4  1  0.750000  0.250000  0.500000  1
  As  As5  1  0.174943  0.174943  0.000000  1
  As  As6  1  0.825057  0.825057  0.000000  1
  O  O7  1  0.500000  1.000000  0.500000  1
  O  O8  1  1.000000  0.500000  0.500000  1
