# generated using pymatgen
data_Y3ReO8
_symmetry_space_group_name_H-M   'P 1'
_cell_length_a   7.29283590
_cell_length_b   6.05847621
_cell_length_c   14.56455524
_cell_angle_alpha   90.00000000
_cell_angle_beta   111.49768316
_cell_angle_gamma   90.00000000
_symmetry_Int_Tables_number   1
_chemical_formula_structural   Y3ReO8
_chemical_formula_sum   'Y12 Re4 O32'
_cell_volume   598.74499325
_cell_formula_units_Z   4
loop_
 _symmetry_equiv_pos_site_id
 _symmetry_equiv_pos_as_xyz
  1  'x, y, z'
loop_
 _atom_site_type_symbol
 _atom_site_label
 _atom_site_symmetry_multiplicity
 _atom_site_fract_x
 _atom_site_fract_y
 _atom_site_fract_z
 _atom_site_occupancy
  Y  Y0  1  0.339612  0.301533  0.555105  1
  Y  Y1  1  0.660388  0.801533  0.944895  1
  Y  Y2  1  0.660388  0.698467  0.444895  1
  Y  Y3  1  0.339612  0.198467  0.055105  1
  Y  Y4  1  0.405967  0.259530  0.797950  1
  Y  Y5  1  0.594033  0.759530  0.702050  1
  Y  Y6  1  0.594033  0.740470  0.202050  1
  Y  Y7  1  0.405967  0.240470  0.297950  1
  Y  Y8  1  0.107824  0.810769  0.667363  1
  Y  Y9  1  0.892176  0.310769  0.832637  1
  Y  Y10  1  0.892176  0.189231  0.332637  1
  Y  Y11  1  0.107824  0.689231  0.167363  1
  Re  Re12  1  0.821256  0.254704  0.590163  1
  Re  Re13  1  0.178744  0.754704  0.909837  1
  Re  Re14  1  0.178744  0.745296  0.409837  1
  Re  Re15  1  0.821256  0.245296  0.090163  1
  O  O16  1  0.975123  0.195878  0.519141  1
  O  O17  1  0.024877  0.695878  0.980859  1
  O  O18  1  0.024877  0.804122  0.480859  1
  O  O19  1  0.975123  0.304122  0.019141  1
  O  O20  1  0.748604  0.955227  0.596901  1
  O  O21  1  0.251396  0.455227  0.903099  1
  O  O22  1  0.251396  0.044773  0.403099  1
  O  O23  1  0.748604  0.544773  0.096901  1
  O  O24  1  0.667729  0.355688  0.670130  1
  O  O25  1  0.332271  0.855688  0.829870  1
  O  O26  1  0.332271  0.644312  0.329870  1
  O  O27  1  0.667729  0.144312  0.170130  1
  O  O28  1  0.880396  0.554327  0.587791  1
  O  O29  1  0.119604  0.054327  0.912209  1
  O  O30  1  0.119604  0.445673  0.412209  1
  O  O31  1  0.880396  0.945673  0.087791  1
  O  O32  1  0.686865  0.469999  0.326992  1
  O  O33  1  0.313135  0.969999  0.173008  1
  O  O34  1  0.313135  0.530001  0.673008  1
  O  O35  1  0.686865  0.030001  0.826992  1
  O  O36  1  0.351548  0.469830  0.157732  1
  O  O37  1  0.648452  0.969830  0.342268  1
  O  O38  1  0.648452  0.530170  0.842268  1
  O  O39  1  0.351548  0.030170  0.657732  1
  O  O40  1  0.584081  0.195148  0.980093  1
  O  O41  1  0.415919  0.695148  0.519907  1
  O  O42  1  0.415919  0.804852  0.019907  1
  O  O43  1  0.584081  0.304852  0.480093  1
  O  O44  1  0.033357  0.293546  0.213729  1
  O  O45  1  0.966643  0.793546  0.286271  1
  O  O46  1  0.966643  0.706454  0.786271  1
  O  O47  1  0.033357  0.206454  0.713729  1
