# generated using pymatgen
data_LaZn(BO2)5
_symmetry_space_group_name_H-M   'P 1'
_cell_length_a   8.87083220
_cell_length_b   7.68635408
_cell_length_c   12.78809895
_cell_angle_alpha   90.00000000
_cell_angle_beta   131.43256254
_cell_angle_gamma   90.00000000
_symmetry_Int_Tables_number   1
_chemical_formula_structural   LaZn(BO2)5
_chemical_formula_sum   'La4 Zn4 B20 O40'
_cell_volume   653.73025976
_cell_formula_units_Z   4
loop_
 _symmetry_equiv_pos_site_id
 _symmetry_equiv_pos_as_xyz
  1  'x, y, z'
loop_
 _atom_site_type_symbol
 _atom_site_label
 _atom_site_symmetry_multiplicity
 _atom_site_fract_x
 _atom_site_fract_y
 _atom_site_fract_z
 _atom_site_occupancy
  La  La0  1  0.053014  0.184814  0.735257  1
  La  La1  1  0.053014  0.315186  0.235257  1
  La  La2  1  0.946986  0.815186  0.264743  1
  La  La3  1  0.946986  0.684814  0.764743  1
  Zn  Zn4  1  0.489754  0.912132  0.879380  1
  Zn  Zn5  1  0.489754  0.587868  0.379380  1
  Zn  Zn6  1  0.510246  0.087868  0.120620  1
  Zn  Zn7  1  0.510246  0.412132  0.620620  1
  B  B8  1  0.645187  0.082659  0.733782  1
  B  B9  1  0.645187  0.417341  0.233782  1
  B  B10  1  0.354813  0.917341  0.266218  1
  B  B11  1  0.354813  0.582659  0.766218  1
  B  B12  1  0.512097  0.815867  0.585065  1
  B  B13  1  0.512097  0.684133  0.085065  1
  B  B14  1  0.487903  0.184133  0.414935  1
  B  B15  1  0.487903  0.315867  0.914935  1
  B  B16  1  0.904890  0.327395  0.890529  1
  B  B17  1  0.904890  0.172605  0.390529  1
  B  B18  1  0.095110  0.672605  0.109471  1
  B  B19  1  0.095110  0.827395  0.609471  1
  B  B20  1  0.731344  0.533748  0.947702  1
  B  B21  1  0.731344  0.966252  0.447702  1
  B  B22  1  0.268656  0.466252  0.052298  1
  B  B23  1  0.268656  0.033748  0.552298  1
  B  B24  1  0.844075  0.095276  0.994237  1
  B  B25  1  0.844075  0.404724  0.494237  1
  B  B26  1  0.155925  0.904724  0.005763  1
  B  B27  1  0.155925  0.595276  0.505763  1
  O  O28  1  0.786247  0.219125  0.761203  1
  O  O29  1  0.786247  0.280875  0.261203  1
  O  O30  1  0.213753  0.780875  0.238797  1
  O  O31  1  0.213753  0.719125  0.738797  1
  O  O32  1  0.673461  0.919422  0.687247  1
  O  O33  1  0.673461  0.580578  0.187247  1
  O  O34  1  0.326539  0.080578  0.312753  1
  O  O35  1  0.326539  0.419422  0.812753  1
  O  O36  1  0.680433  0.036760  0.862923  1
  O  O37  1  0.680433  0.463240  0.362923  1
  O  O38  1  0.319567  0.963240  0.137077  1
  O  O39  1  0.319567  0.536760  0.637077  1
  O  O40  1  0.772077  0.477011  0.857012  1
  O  O41  1  0.772077  0.022989  0.357012  1
  O  O42  1  0.227923  0.522989  0.142988  1
  O  O43  1  0.227923  0.977011  0.642988  1
  O  O44  1  0.085016  0.392457  0.915363  1
  O  O45  1  0.085016  0.107543  0.415363  1
  O  O46  1  0.914984  0.607543  0.084637  1
  O  O47  1  0.914984  0.892457  0.584637  1
  O  O48  1  0.969951  0.221569  0.009682  1
  O  O49  1  0.969951  0.278431  0.509682  1
  O  O50  1  0.030049  0.778431  0.990318  1
  O  O51  1  0.030049  0.721569  0.490318  1
  O  O52  1  0.559246  0.652980  0.871546  1
  O  O53  1  0.559246  0.847020  0.371546  1
  O  O54  1  0.440754  0.347020  0.128454  1
  O  O55  1  0.440754  0.152980  0.628454  1
  O  O56  1  0.318719  0.874364  0.510045  1
  O  O57  1  0.318719  0.625636  0.010045  1
  O  O58  1  0.681281  0.125636  0.489955  1
  O  O59  1  0.681281  0.374364  0.989955  1
  O  O60  1  0.563626  0.654218  0.568591  1
  O  O61  1  0.563626  0.845782  0.068591  1
  O  O62  1  0.436374  0.345782  0.431409  1
  O  O63  1  0.436374  0.154218  0.931409  1
  O  O64  1  0.882353  0.039936  0.110339  1
  O  O65  1  0.882353  0.460064  0.610339  1
  O  O66  1  0.117647  0.960064  0.889661  1
  O  O67  1  0.117647  0.539936  0.389661  1
