# generated using pymatgen
data_Sm3Fe5O12
_symmetry_space_group_name_H-M   'P 1'
_cell_length_a   10.99193153
_cell_length_b   10.99193153
_cell_length_c   10.99193153
_cell_angle_alpha   109.47122063
_cell_angle_beta   109.47122063
_cell_angle_gamma   109.47122063
_symmetry_Int_Tables_number   1
_chemical_formula_structural   Sm3Fe5O12
_chemical_formula_sum   'Sm12 Fe20 O48'
_cell_volume   1022.35129743
_cell_formula_units_Z   4
loop_
 _symmetry_equiv_pos_site_id
 _symmetry_equiv_pos_as_xyz
  1  'x, y, z'
loop_
 _atom_site_type_symbol
 _atom_site_label
 _atom_site_symmetry_multiplicity
 _atom_site_fract_x
 _atom_site_fract_y
 _atom_site_fract_z
 _atom_site_occupancy
  Sm  Sm0  1  0.250000  0.375000  0.125000  1
  Sm  Sm1  1  0.375000  0.750000  0.125000  1
  Sm  Sm2  1  0.125000  0.250000  0.375000  1
  Sm  Sm3  1  0.375000  0.125000  0.250000  1
  Sm  Sm4  1  0.125000  0.375000  0.750000  1
  Sm  Sm5  1  0.750000  0.125000  0.375000  1
  Sm  Sm6  1  0.750000  0.625000  0.875000  1
  Sm  Sm7  1  0.625000  0.250000  0.875000  1
  Sm  Sm8  1  0.875000  0.750000  0.625000  1
  Sm  Sm9  1  0.625000  0.875000  0.750000  1
  Sm  Sm10  1  0.875000  0.625000  0.250000  1
  Sm  Sm11  1  0.250000  0.875000  0.625000  1
  Fe  Fe12  1  0.000000  0.000000  0.000000  1
  Fe  Fe13  1  0.000000  0.500000  0.000000  1
  Fe  Fe14  1  0.000000  0.000000  0.500000  1
  Fe  Fe15  1  0.500000  1.000000  0.000000  1
  Fe  Fe16  1  0.000000  0.500000  0.500000  1
  Fe  Fe17  1  0.500000  1.000000  0.500000  1
  Fe  Fe18  1  0.500000  0.500000  0.000000  1
  Fe  Fe19  1  0.500000  0.500000  0.500000  1
  Fe  Fe20  1  0.250000  0.625000  0.375000  1
  Fe  Fe21  1  0.625000  0.750000  0.375000  1
  Fe  Fe22  1  0.875000  0.250000  0.125000  1
  Fe  Fe23  1  0.125000  0.875000  0.250000  1
  Fe  Fe24  1  0.250000  0.125000  0.875000  1
  Fe  Fe25  1  0.750000  0.875000  0.125000  1
  Fe  Fe26  1  0.375000  0.250000  0.625000  1
  Fe  Fe27  1  0.625000  0.375000  0.250000  1
  Fe  Fe28  1  0.125000  0.750000  0.875000  1
  Fe  Fe29  1  0.875000  0.125000  0.750000  1
  Fe  Fe30  1  0.750000  0.375000  0.625000  1
  Fe  Fe31  1  0.375000  0.625000  0.750000  1
  O  O32  1  0.794410  0.417161  0.822334  1
  O  O33  1  0.082839  0.877249  0.405173  1
  O  O34  1  0.677666  0.094827  0.972076  1
  O  O35  1  0.705590  0.527924  0.622751  1
  O  O36  1  0.705590  0.677666  0.082839  1
  O  O37  1  0.527924  0.622751  0.705590  1
  O  O38  1  0.094827  0.622751  0.417161  1
  O  O39  1  0.622751  0.705590  0.527924  1
  O  O40  1  0.405173  0.822334  0.527924  1
  O  O41  1  0.877249  0.972076  0.794410  1
  O  O42  1  0.972076  0.794410  0.877249  1
  O  O43  1  0.082839  0.705590  0.677666  1
  O  O44  1  0.622751  0.417161  0.094827  1
  O  O45  1  0.527924  0.405173  0.822334  1
  O  O46  1  0.677666  0.082839  0.705590  1
  O  O47  1  0.417161  0.094827  0.622751  1
  O  O48  1  0.822334  0.527924  0.405173  1
  O  O49  1  0.405173  0.082839  0.877249  1
  O  O50  1  0.094827  0.972076  0.677666  1
  O  O51  1  0.594827  0.177666  0.472076  1
  O  O52  1  0.972076  0.677666  0.094827  1
  O  O53  1  0.822334  0.794410  0.417161  1
  O  O54  1  0.877249  0.405173  0.082839  1
  O  O55  1  0.794410  0.877249  0.972076  1
  O  O56  1  0.205590  0.582839  0.177666  1
  O  O57  1  0.917161  0.122751  0.594827  1
  O  O58  1  0.322334  0.905173  0.027924  1
  O  O59  1  0.294410  0.472076  0.377249  1
  O  O60  1  0.294410  0.322334  0.917161  1
  O  O61  1  0.472076  0.377249  0.294410  1
  O  O62  1  0.905173  0.377249  0.582839  1
  O  O63  1  0.377249  0.294410  0.472076  1
  O  O64  1  0.205590  0.122751  0.027924  1
  O  O65  1  0.122751  0.594827  0.917161  1
  O  O66  1  0.177666  0.205590  0.582839  1
  O  O67  1  0.582839  0.177666  0.205590  1
  O  O68  1  0.027924  0.322334  0.905173  1
  O  O69  1  0.905173  0.027924  0.322334  1
  O  O70  1  0.594827  0.917161  0.122751  1
  O  O71  1  0.177666  0.472076  0.594827  1
  O  O72  1  0.582839  0.905173  0.377249  1
  O  O73  1  0.322334  0.917161  0.294410  1
  O  O74  1  0.472076  0.594827  0.177666  1
  O  O75  1  0.377249  0.582839  0.905173  1
  O  O76  1  0.917161  0.294410  0.322334  1
  O  O77  1  0.027924  0.205590  0.122751  1
  O  O78  1  0.122751  0.027924  0.205590  1
  O  O79  1  0.417161  0.822334  0.794410  1
