# generated using pymatgen
data_Sr3(GeAs2)2
_symmetry_space_group_name_H-M   'P 1'
_cell_length_a   7.55979599
_cell_length_b   18.76899817
_cell_length_c   7.71029588
_cell_angle_alpha   90.00000000
_cell_angle_beta   111.87512201
_cell_angle_gamma   90.00000000
_symmetry_Int_Tables_number   1
_chemical_formula_structural   Sr3(GeAs2)2
_chemical_formula_sum   'Sr12 Ge8 As16'
_cell_volume   1015.24137313
_cell_formula_units_Z   4
loop_
 _symmetry_equiv_pos_site_id
 _symmetry_equiv_pos_as_xyz
  1  'x, y, z'
loop_
 _atom_site_type_symbol
 _atom_site_label
 _atom_site_symmetry_multiplicity
 _atom_site_fract_x
 _atom_site_fract_y
 _atom_site_fract_z
 _atom_site_occupancy
  Sr  Sr0  1  0.012567  0.315455  0.217900  1
  Sr  Sr1  1  0.487433  0.815455  0.782100  1
  Sr  Sr2  1  0.987433  0.684545  0.782100  1
  Sr  Sr3  1  0.512567  0.184545  0.217900  1
  Sr  Sr4  1  0.997682  0.439770  0.739148  1
  Sr  Sr5  1  0.502318  0.939770  0.260852  1
  Sr  Sr6  1  0.002318  0.560230  0.260852  1
  Sr  Sr7  1  0.497682  0.060230  0.739148  1
  Sr  Sr8  1  0.511587  0.438661  0.255150  1
  Sr  Sr9  1  0.988413  0.938661  0.744850  1
  Sr  Sr10  1  0.488413  0.561339  0.744850  1
  Sr  Sr11  1  0.011587  0.061339  0.255150  1
  Ge  Ge12  1  0.472010  0.371471  0.787494  1
  Ge  Ge13  1  0.027990  0.871471  0.212506  1
  Ge  Ge14  1  0.972010  0.128529  0.787494  1
  Ge  Ge15  1  0.527990  0.628529  0.212506  1
  Ge  Ge16  1  0.085390  0.240344  0.685236  1
  Ge  Ge17  1  0.414610  0.740344  0.314764  1
  Ge  Ge18  1  0.914610  0.759656  0.314764  1
  Ge  Ge19  1  0.585390  0.259656  0.685236  1
  As  As20  1  0.780878  0.185943  0.959548  1
  As  As21  1  0.719122  0.685943  0.040452  1
  As  As22  1  0.219122  0.814057  0.040452  1
  As  As23  1  0.280878  0.314057  0.959548  1
  As  As24  1  0.247840  0.060670  0.992042  1
  As  As25  1  0.252160  0.560670  0.007958  1
  As  As26  1  0.752160  0.939330  0.007958  1
  As  As27  1  0.747840  0.439330  0.992042  1
  As  As28  1  0.758617  0.067874  0.503157  1
  As  As29  1  0.741383  0.567874  0.496843  1
  As  As30  1  0.258617  0.432126  0.503157  1
  As  As31  1  0.241383  0.932126  0.496843  1
  As  As32  1  0.276433  0.198115  0.497798  1
  As  As33  1  0.223567  0.698115  0.502202  1
  As  As34  1  0.723567  0.801885  0.502202  1
  As  As35  1  0.776433  0.301885  0.497798  1
