# generated using pymatgen
data_Ho2Ge5Rh3
_symmetry_space_group_name_H-M   'P 1'
_cell_length_a   8.34830300
_cell_length_b   8.34830300
_cell_length_c   5.88265848
_cell_angle_alpha   71.36080194
_cell_angle_beta   108.63919806
_cell_angle_gamma   85.59402904
_symmetry_Int_Tables_number   1
_chemical_formula_structural   Ho2Ge5Rh3
_chemical_formula_sum   'Ho4 Ge10 Rh6'
_cell_volume   360.71988556
_cell_formula_units_Z   2
loop_
 _symmetry_equiv_pos_site_id
 _symmetry_equiv_pos_as_xyz
  1  'x, y, z'
loop_
 _atom_site_type_symbol
 _atom_site_label
 _atom_site_symmetry_multiplicity
 _atom_site_fract_x
 _atom_site_fract_y
 _atom_site_fract_z
 _atom_site_occupancy
  Ho  Ho0  1  0.091069  0.629760  0.236619  1
  Ho  Ho1  1  0.629760  0.091069  0.263381  1
  Ho  Ho2  1  0.908931  0.370240  0.763381  1
  Ho  Ho3  1  0.370240  0.908931  0.736619  1
  Ge  Ge4  1  0.986517  0.986517  0.250000  1
  Ge  Ge5  1  0.013483  0.013483  0.750000  1
  Ge  Ge6  1  0.293098  0.293098  0.250000  1
  Ge  Ge7  1  0.706902  0.706902  0.750000  1
  Ge  Ge8  1  0.722298  0.722298  0.250000  1
  Ge  Ge9  1  0.277702  0.277702  0.750000  1
  Ge  Ge10  1  0.764777  0.424632  0.169162  1
  Ge  Ge11  1  0.575368  0.235223  0.669162  1
  Ge  Ge12  1  0.235223  0.575368  0.830838  1
  Ge  Ge13  1  0.424632  0.764777  0.330838  1
  Rh  Rh14  1  0.761401  0.954564  0.873814  1
  Rh  Rh15  1  0.502538  0.502538  0.750000  1
  Rh  Rh16  1  0.045436  0.238599  0.373814  1
  Rh  Rh17  1  0.238599  0.045436  0.126186  1
  Rh  Rh18  1  0.954564  0.761401  0.626186  1
  Rh  Rh19  1  0.497462  0.497462  0.250000  1
