# generated using pymatgen
data_Na3Li3Ti2F12
_symmetry_space_group_name_H-M   'P 1'
_cell_length_a   10.95541133
_cell_length_b   10.95541133
_cell_length_c   10.95541133
_cell_angle_alpha   109.47122063
_cell_angle_beta   109.47122063
_cell_angle_gamma   109.47122063
_symmetry_Int_Tables_number   1
_chemical_formula_structural   Na3Li3Ti2F12
_chemical_formula_sum   'Na12 Li12 Ti8 F48'
_cell_volume   1012.19496642
_cell_formula_units_Z   4
loop_
 _symmetry_equiv_pos_site_id
 _symmetry_equiv_pos_as_xyz
  1  'x, y, z'
loop_
 _atom_site_type_symbol
 _atom_site_label
 _atom_site_symmetry_multiplicity
 _atom_site_fract_x
 _atom_site_fract_y
 _atom_site_fract_z
 _atom_site_occupancy
  Na  Na0  1  0.625000  0.875000  0.750000  1
  Na  Na1  1  0.875000  0.625000  0.250000  1
  Na  Na2  1  0.625000  0.250000  0.875000  1
  Na  Na3  1  0.250000  0.875000  0.625000  1
  Na  Na4  1  0.750000  0.625000  0.875000  1
  Na  Na5  1  0.875000  0.750000  0.625000  1
  Na  Na6  1  0.375000  0.125000  0.250000  1
  Na  Na7  1  0.125000  0.375000  0.750000  1
  Na  Na8  1  0.375000  0.750000  0.125000  1
  Na  Na9  1  0.750000  0.125000  0.375000  1
  Na  Na10  1  0.125000  0.250000  0.375000  1
  Na  Na11  1  0.250000  0.375000  0.125000  1
  Li  Li12  1  0.250000  0.625000  0.375000  1
  Li  Li13  1  0.875000  0.250000  0.125000  1
  Li  Li14  1  0.125000  0.750000  0.875000  1
  Li  Li15  1  0.875000  0.125000  0.750000  1
  Li  Li16  1  0.625000  0.375000  0.250000  1
  Li  Li17  1  0.750000  0.875000  0.125000  1
  Li  Li18  1  0.125000  0.875000  0.250000  1
  Li  Li19  1  0.375000  0.625000  0.750000  1
  Li  Li20  1  0.625000  0.750000  0.375000  1
  Li  Li21  1  0.750000  0.375000  0.625000  1
  Li  Li22  1  0.250000  0.125000  0.875000  1
  Li  Li23  1  0.375000  0.250000  0.625000  1
  Ti  Ti24  1  0.500000  0.500000  0.500000  1
  Ti  Ti25  1  0.500000  0.500000  0.000000  1
  Ti  Ti26  1  0.500000  1.000000  0.500000  1
  Ti  Ti27  1  1.000000  0.500000  0.500000  1
  Ti  Ti28  1  0.500000  1.000000  0.000000  1
  Ti  Ti29  1  1.000000  1.000000  0.500000  1
  Ti  Ti30  1  1.000000  0.500000  1.000000  1
  Ti  Ti31  1  0.000000  0.000000  0.000000  1
  F  F32  1  0.803751  0.421879  0.824049  1
  F  F33  1  0.520298  0.402169  0.824049  1
  F  F34  1  0.675951  0.078121  0.696249  1
  F  F35  1  0.421879  0.097831  0.618128  1
  F  F36  1  0.824049  0.520298  0.402169  1
  F  F37  1  0.402169  0.078121  0.881872  1
  F  F38  1  0.097831  0.979702  0.675951  1
  F  F39  1  0.421879  0.824049  0.803751  1
  F  F40  1  0.078121  0.696249  0.675951  1
  F  F41  1  0.979702  0.803751  0.881872  1
  F  F42  1  0.881872  0.979702  0.803751  1
  F  F43  1  0.402169  0.824049  0.520298  1
  F  F44  1  0.618128  0.696249  0.520298  1
  F  F45  1  0.097831  0.618128  0.421879  1
  F  F46  1  0.520298  0.618128  0.696249  1
  F  F47  1  0.696249  0.675951  0.078121  1
  F  F48  1  0.696249  0.520298  0.618128  1
  F  F49  1  0.618128  0.421879  0.097831  1
  F  F50  1  0.675951  0.097831  0.979702  1
  F  F51  1  0.078121  0.881872  0.402169  1
  F  F52  1  0.196249  0.118128  0.020298  1
  F  F53  1  0.118128  0.597831  0.921879  1
  F  F54  1  0.175951  0.196249  0.578121  1
  F  F55  1  0.578121  0.175951  0.196249  1
  F  F56  1  0.020298  0.324049  0.902169  1
  F  F57  1  0.902169  0.020298  0.324049  1
  F  F58  1  0.597831  0.921879  0.118128  1
  F  F59  1  0.175951  0.479702  0.597831  1
  F  F60  1  0.578121  0.902169  0.381872  1
  F  F61  1  0.324049  0.921879  0.303751  1
  F  F62  1  0.479702  0.597831  0.175951  1
  F  F63  1  0.381872  0.578121  0.902169  1
  F  F64  1  0.921879  0.303751  0.324049  1
  F  F65  1  0.020298  0.196249  0.118128  1
  F  F66  1  0.118128  0.020298  0.196249  1
  F  F67  1  0.597831  0.175951  0.479702  1
  F  F68  1  0.381872  0.303751  0.479702  1
  F  F69  1  0.902169  0.381872  0.578121  1
  F  F70  1  0.479702  0.381872  0.303751  1
  F  F71  1  0.303751  0.324049  0.921879  1
  F  F72  1  0.303751  0.479702  0.381872  1
  F  F73  1  0.324049  0.902169  0.020298  1
  F  F74  1  0.921879  0.118128  0.597831  1
  F  F75  1  0.196249  0.578121  0.175951  1
  F  F76  1  0.803751  0.881872  0.979702  1
  F  F77  1  0.881872  0.402169  0.078121  1
  F  F78  1  0.824049  0.803751  0.421879  1
  F  F79  1  0.979702  0.675951  0.097831  1
