# generated using pymatgen
data_KAl(PO3)4
_symmetry_space_group_name_H-M   'P 1'
_cell_length_a   10.45813765
_cell_length_b   10.45813765
_cell_length_c   5.14431569
_cell_angle_alpha   81.58996006
_cell_angle_beta   98.41003994
_cell_angle_gamma   107.34979555
_symmetry_Int_Tables_number   1
_chemical_formula_structural   KAl(PO3)4
_chemical_formula_sum   'K2 Al2 P8 O24'
_cell_volume   528.12482573
_cell_formula_units_Z   2
loop_
 _symmetry_equiv_pos_site_id
 _symmetry_equiv_pos_as_xyz
  1  'x, y, z'
loop_
 _atom_site_type_symbol
 _atom_site_label
 _atom_site_symmetry_multiplicity
 _atom_site_fract_x
 _atom_site_fract_y
 _atom_site_fract_z
 _atom_site_occupancy
  K  K0  1  0.593297  0.406703  0.746678  1
  K  K1  1  0.406703  0.593297  0.253322  1
  Al  Al2  1  0.500000  0.000000  0.000000  1
  Al  Al3  1  0.000000  0.500000  0.000000  1
  P  P4  1  0.688119  0.069011  0.531767  1
  P  P5  1  0.930989  0.311881  0.531767  1
  P  P6  1  0.311881  0.930989  0.468233  1
  P  P7  1  0.069011  0.688119  0.468233  1
  P  P8  1  0.645692  0.802054  0.836146  1
  P  P9  1  0.197946  0.354308  0.836146  1
  P  P10  1  0.354308  0.197946  0.163854  1
  P  P11  1  0.802054  0.645692  0.163854  1
  O  O12  1  0.350616  0.912563  0.760635  1
  O  O13  1  0.087437  0.649384  0.760635  1
  O  O14  1  0.649384  0.087437  0.239365  1
  O  O15  1  0.912563  0.350616  0.239365  1
  O  O16  1  0.575569  0.857557  0.012092  1
  O  O17  1  0.142443  0.424431  0.012092  1
  O  O18  1  0.424431  0.142443  0.987908  1
  O  O19  1  0.857557  0.575569  0.987908  1
  O  O20  1  0.597700  0.095726  0.708152  1
  O  O21  1  0.904274  0.402300  0.708152  1
  O  O22  1  0.402300  0.904274  0.291848  1
  O  O23  1  0.095726  0.597700  0.291848  1
  O  O24  1  0.709755  0.923338  0.615036  1
  O  O25  1  0.076662  0.290245  0.615036  1
  O  O26  1  0.290245  0.076662  0.384964  1
  O  O27  1  0.923338  0.709755  0.384964  1
  O  O28  1  0.568398  0.678533  0.713275  1
  O  O29  1  0.321467  0.431602  0.713275  1
  O  O30  1  0.431602  0.321467  0.286725  1
  O  O31  1  0.678533  0.568398  0.286725  1
  O  O32  1  0.785658  0.785658  0.000000  1
  O  O33  1  0.214342  0.214342  0.000000  1
  O  O34  1  0.839061  0.160939  0.598098  1
  O  O35  1  0.160939  0.839061  0.401902  1
