# generated using pymatgen
data_K2Na3P3O10
_symmetry_space_group_name_H-M   'P 1'
_cell_length_a   5.76011447
_cell_length_b   5.76011447
_cell_length_c   18.89277947
_cell_angle_alpha   84.62882883
_cell_angle_beta   95.37117117
_cell_angle_gamma   120.66048251
_symmetry_Int_Tables_number   1
_chemical_formula_structural   K2Na3P3O10
_chemical_formula_sum   'K4 Na6 P6 O20'
_cell_volume   536.07389464
_cell_formula_units_Z   2
loop_
 _symmetry_equiv_pos_site_id
 _symmetry_equiv_pos_as_xyz
  1  'x, y, z'
loop_
 _atom_site_type_symbol
 _atom_site_label
 _atom_site_symmetry_multiplicity
 _atom_site_fract_x
 _atom_site_fract_y
 _atom_site_fract_z
 _atom_site_occupancy
  K  K0  1  0.366569  0.177624  0.077380  1
  K  K1  1  0.177624  0.366569  0.422620  1
  K  K2  1  0.633431  0.822376  0.922620  1
  K  K3  1  0.822376  0.633431  0.577380  1
  Na  Na4  1  0.910159  0.473600  0.827731  1
  Na  Na5  1  0.473600  0.910159  0.672269  1
  Na  Na6  1  0.089841  0.526400  0.172269  1
  Na  Na7  1  0.526400  0.089841  0.327731  1
  Na  Na8  1  0.000000  0.500000  0.000000  1
  Na  Na9  1  0.500000  1.000000  0.500000  1
  P  P10  1  0.297022  0.161340  0.898688  1
  P  P11  1  0.161340  0.297022  0.601312  1
  P  P12  1  0.702978  0.838660  0.101312  1
  P  P13  1  0.838660  0.702978  0.398688  1
  P  P14  1  0.095629  0.095629  0.750000  1
  P  P15  1  0.904371  0.904371  0.250000  1
  O  O16  1  0.151348  0.297303  0.923128  1
  O  O17  1  0.297303  0.151348  0.576872  1
  O  O18  1  0.848652  0.702697  0.076872  1
  O  O19  1  0.702697  0.848652  0.423128  1
  O  O20  1  0.592023  0.289893  0.926607  1
  O  O21  1  0.289893  0.592023  0.573393  1
  O  O22  1  0.407977  0.710107  0.073393  1
  O  O23  1  0.710107  0.407977  0.426607  1
  O  O24  1  0.137731  0.852763  0.906347  1
  O  O25  1  0.852763  0.137731  0.593653  1
  O  O26  1  0.862269  0.147237  0.093653  1
  O  O27  1  0.147237  0.862269  0.406347  1
  O  O28  1  0.331653  0.241291  0.811265  1
  O  O29  1  0.241291  0.331653  0.688735  1
  O  O30  1  0.668347  0.758709  0.188735  1
  O  O31  1  0.758709  0.668347  0.311265  1
  O  O32  1  0.837243  0.078276  0.769184  1
  O  O33  1  0.078276  0.837243  0.730816  1
  O  O34  1  0.162757  0.921724  0.230816  1
  O  O35  1  0.921724  0.162757  0.269184  1
