# generated using pymatgen
data_Ti5Se4
_symmetry_space_group_name_H-M   'P 1'
_cell_length_a   7.10113804
_cell_length_b   7.10113804
_cell_length_c   7.10113804
_cell_angle_alpha   93.46671116
_cell_angle_beta   93.46671116
_cell_angle_gamma   151.52951226
_symmetry_Int_Tables_number   1
_chemical_formula_structural   Ti5Se4
_chemical_formula_sum   'Ti5 Se4'
_cell_volume   165.45890930
_cell_formula_units_Z   1
loop_
 _symmetry_equiv_pos_site_id
 _symmetry_equiv_pos_as_xyz
  1  'x, y, z'
loop_
 _atom_site_type_symbol
 _atom_site_label
 _atom_site_symmetry_multiplicity
 _atom_site_fract_x
 _atom_site_fract_y
 _atom_site_fract_z
 _atom_site_occupancy
  Ti  Ti0  1  0.000000  0.000000  0.000000  1
  Ti  Ti1  1  0.627507  0.306649  0.934156  1
  Ti  Ti2  1  0.693351  0.627507  0.320858  1
  Ti  Ti3  1  0.306649  0.372493  0.679142  1
  Ti  Ti4  1  0.372493  0.693351  0.065844  1
  Se  Se5  1  0.727885  0.057917  0.785803  1
  Se  Se6  1  0.942083  0.727885  0.669968  1
  Se  Se7  1  0.057917  0.272115  0.330032  1
  Se  Se8  1  0.272115  0.942083  0.214197  1
