# generated using pymatgen
data_VSO5
_symmetry_space_group_name_H-M   'P 1'
_cell_length_a   6.37552711
_cell_length_b   6.37552711
_cell_length_c   4.18995177
_cell_angle_alpha   90.00000000
_cell_angle_beta   90.00000000
_cell_angle_gamma   90.00000000
_symmetry_Int_Tables_number   1
_chemical_formula_structural   VSO5
_chemical_formula_sum   'V2 S2 O10'
_cell_volume   170.31041903
_cell_formula_units_Z   2
loop_
 _symmetry_equiv_pos_site_id
 _symmetry_equiv_pos_as_xyz
  1  'x, y, z'
loop_
 _atom_site_type_symbol
 _atom_site_label
 _atom_site_symmetry_multiplicity
 _atom_site_fract_x
 _atom_site_fract_y
 _atom_site_fract_z
 _atom_site_occupancy
  V  V0  1  0.500000  0.000000  0.384445  1
  V  V1  1  0.000000  0.500000  0.615555  1
  S  S2  1  0.000000  0.000000  0.500000  1
  S  S3  1  0.500000  0.500000  0.500000  1
  O  O4  1  0.687186  0.516546  0.709695  1
  O  O5  1  0.016546  0.812814  0.709695  1
  O  O6  1  0.000000  0.500000  0.225735  1
  O  O7  1  0.500000  0.000000  0.774265  1
  O  O8  1  0.983454  0.187186  0.709695  1
  O  O9  1  0.312814  0.483454  0.709695  1
  O  O10  1  0.187186  0.016546  0.290305  1
  O  O11  1  0.516546  0.312814  0.290305  1
  O  O12  1  0.483454  0.687186  0.290305  1
  O  O13  1  0.812814  0.983454  0.290305  1
