# generated using pymatgen
data_K2Ga2As3
_symmetry_space_group_name_H-M   'P 1'
_cell_length_a   14.00713419
_cell_length_b   6.86242754
_cell_length_c   15.92125664
_cell_angle_alpha   90.00000000
_cell_angle_beta   90.27398483
_cell_angle_gamma   90.00000000
_symmetry_Int_Tables_number   1
_chemical_formula_structural   K2Ga2As3
_chemical_formula_sum   'K16 Ga16 As24'
_cell_volume   1530.38055360
_cell_formula_units_Z   8
loop_
 _symmetry_equiv_pos_site_id
 _symmetry_equiv_pos_as_xyz
  1  'x, y, z'
loop_
 _atom_site_type_symbol
 _atom_site_label
 _atom_site_symmetry_multiplicity
 _atom_site_fract_x
 _atom_site_fract_y
 _atom_site_fract_z
 _atom_site_occupancy
  K  K0  1  0.855526  0.968124  0.004295  1
  K  K1  1  0.144474  0.468124  0.495705  1
  K  K2  1  0.144474  0.031876  0.995705  1
  K  K3  1  0.855526  0.531876  0.504295  1
  K  K4  1  0.346703  0.553585  0.981692  1
  K  K5  1  0.653297  0.053585  0.518308  1
  K  K6  1  0.653297  0.446415  0.018308  1
  K  K7  1  0.346703  0.946415  0.481692  1
  K  K8  1  0.078769  0.534065  0.891731  1
  K  K9  1  0.921231  0.034065  0.608269  1
  K  K10  1  0.921231  0.465935  0.108269  1
  K  K11  1  0.078769  0.965935  0.391731  1
  K  K12  1  0.557527  0.932316  0.101747  1
  K  K13  1  0.442473  0.432316  0.398253  1
  K  K14  1  0.442473  0.067684  0.898253  1
  K  K15  1  0.557527  0.567684  0.601747  1
  Ga  Ga16  1  0.314468  0.274190  0.175134  1
  Ga  Ga17  1  0.685532  0.774190  0.324866  1
  Ga  Ga18  1  0.685532  0.725810  0.824866  1
  Ga  Ga19  1  0.314468  0.225810  0.675134  1
  Ga  Ga20  1  0.908892  0.788717  0.268771  1
  Ga  Ga21  1  0.091108  0.288717  0.231229  1
  Ga  Ga22  1  0.091108  0.211283  0.731229  1
  Ga  Ga23  1  0.908892  0.711283  0.768771  1
  Ga  Ga24  1  0.183692  0.759608  0.181223  1
  Ga  Ga25  1  0.816308  0.259608  0.318777  1
  Ga  Ga26  1  0.816308  0.240392  0.818777  1
  Ga  Ga27  1  0.183692  0.740392  0.681223  1
  Ga  Ga28  1  0.407859  0.752591  0.241120  1
  Ga  Ga29  1  0.592141  0.252591  0.258880  1
  Ga  Ga30  1  0.592141  0.247409  0.758880  1
  Ga  Ga31  1  0.407859  0.747409  0.741120  1
  As  As32  1  0.032106  0.960175  0.178449  1
  As  As33  1  0.967894  0.460175  0.321551  1
  As  As34  1  0.967894  0.039825  0.821551  1
  As  As35  1  0.032106  0.539825  0.678449  1
  As  As36  1  0.165448  0.446417  0.103381  1
  As  As37  1  0.834552  0.946417  0.396619  1
  As  As38  1  0.834552  0.553583  0.896619  1
  As  As39  1  0.165448  0.053583  0.603381  1
  As  As40  1  0.328641  0.935887  0.120116  1
  As  As41  1  0.671359  0.435887  0.379884  1
  As  As42  1  0.671359  0.064113  0.879884  1
  As  As43  1  0.328641  0.564113  0.620116  1
  As  As44  1  0.253996  0.837483  0.823305  1
  As  As45  1  0.746004  0.337483  0.676695  1
  As  As46  1  0.746004  0.162517  0.176695  1
  As  As47  1  0.253996  0.662517  0.323305  1
  As  As48  1  0.473622  0.450075  0.167526  1
  As  As49  1  0.526378  0.950075  0.332474  1
  As  As50  1  0.526378  0.549925  0.832474  1
  As  As51  1  0.473622  0.049925  0.667526  1
  As  As52  1  0.243454  0.201876  0.819592  1
  As  As53  1  0.756546  0.701876  0.680408  1
  As  As54  1  0.756546  0.798124  0.180408  1
  As  As55  1  0.243454  0.298124  0.319592  1
