# generated using pymatgen
data_Gd2Mo2C3
_symmetry_space_group_name_H-M   'P 1'
_cell_length_a   6.18186076
_cell_length_b   6.18186076
_cell_length_c   5.78490203
_cell_angle_alpha   67.65517725
_cell_angle_beta   112.34482275
_cell_angle_gamma   148.34016943
_symmetry_Int_Tables_number   1
_chemical_formula_structural   Gd2Mo2C3
_chemical_formula_sum   'Gd2 Mo2 C3'
_cell_volume   106.59119924
_cell_formula_units_Z   1
loop_
 _symmetry_equiv_pos_site_id
 _symmetry_equiv_pos_as_xyz
  1  'x, y, z'
loop_
 _atom_site_type_symbol
 _atom_site_label
 _atom_site_symmetry_multiplicity
 _atom_site_fract_x
 _atom_site_fract_y
 _atom_site_fract_z
 _atom_site_occupancy
  Gd  Gd0  1  0.391207  0.608793  0.179186  1
  Gd  Gd1  1  0.608793  0.391207  0.820814  1
  Mo  Mo2  1  0.158209  0.841791  0.324593  1
  Mo  Mo3  1  0.841791  0.158209  0.675407  1
  C  C4  1  0.000000  0.000000  0.000000  1
  C  C5  1  0.249526  0.750474  0.731404  1
  C  C6  1  0.750474  0.249526  0.268596  1
