# generated using pymatgen
data_Yb2Pb
_symmetry_space_group_name_H-M   'P 1'
_cell_length_a   5.30879622
_cell_length_b   7.34614633
_cell_length_c   9.57219418
_cell_angle_alpha   90.00000000
_cell_angle_beta   90.00000000
_cell_angle_gamma   90.00000000
_symmetry_Int_Tables_number   1
_chemical_formula_structural   Yb2Pb
_chemical_formula_sum   'Yb8 Pb4'
_cell_volume   373.30785657
_cell_formula_units_Z   4
loop_
 _symmetry_equiv_pos_site_id
 _symmetry_equiv_pos_as_xyz
  1  'x, y, z'
loop_
 _atom_site_type_symbol
 _atom_site_label
 _atom_site_symmetry_multiplicity
 _atom_site_fract_x
 _atom_site_fract_y
 _atom_site_fract_z
 _atom_site_occupancy
  Yb  Yb0  1  0.250000  0.485383  0.210524  1
  Yb  Yb1  1  0.750000  0.514617  0.789476  1
  Yb  Yb2  1  0.250000  0.985383  0.289476  1
  Yb  Yb3  1  0.750000  0.014617  0.710524  1
  Yb  Yb4  1  0.750000  0.191117  0.076690  1
  Yb  Yb5  1  0.250000  0.808883  0.923310  1
  Yb  Yb6  1  0.750000  0.691117  0.423310  1
  Yb  Yb7  1  0.250000  0.308883  0.576690  1
  Pb  Pb8  1  0.250000  0.761094  0.595163  1
  Pb  Pb9  1  0.750000  0.238906  0.404837  1
  Pb  Pb10  1  0.250000  0.261094  0.904837  1
  Pb  Pb11  1  0.750000  0.738906  0.095163  1
