# generated using pymatgen
data_TaPO5
_symmetry_space_group_name_H-M   'P 1'
_cell_length_a   6.51524510
_cell_length_b   6.51524510
_cell_length_c   4.04985942
_cell_angle_alpha   90.00000000
_cell_angle_beta   90.00000000
_cell_angle_gamma   90.00000000
_symmetry_Int_Tables_number   1
_chemical_formula_structural   TaPO5
_chemical_formula_sum   'Ta2 P2 O10'
_cell_volume   171.91012839
_cell_formula_units_Z   2
loop_
 _symmetry_equiv_pos_site_id
 _symmetry_equiv_pos_as_xyz
  1  'x, y, z'
loop_
 _atom_site_type_symbol
 _atom_site_label
 _atom_site_symmetry_multiplicity
 _atom_site_fract_x
 _atom_site_fract_y
 _atom_site_fract_z
 _atom_site_occupancy
  Ta  Ta0  1  0.500000  0.000000  0.235808  1
  Ta  Ta1  1  0.000000  0.500000  0.764192  1
  P  P2  1  0.000000  0.000000  0.500000  1
  P  P3  1  0.500000  0.500000  0.500000  1
  O  O4  1  0.194556  0.000000  0.284316  1
  O  O5  1  0.500000  0.305444  0.284316  1
  O  O6  1  0.000000  0.500000  0.215144  1
  O  O7  1  0.500000  0.000000  0.784856  1
  O  O8  1  0.500000  0.694556  0.284316  1
  O  O9  1  0.805444  0.000000  0.284316  1
  O  O10  1  0.694556  0.500000  0.715684  1
  O  O11  1  0.000000  0.805444  0.715684  1
  O  O12  1  0.000000  0.194556  0.715684  1
  O  O13  1  0.305444  0.500000  0.715684  1
