# generated using pymatgen
data_Y(FeO2)2
_symmetry_space_group_name_H-M   'P 1'
_cell_length_a   8.69726844
_cell_length_b   8.69726844
_cell_length_c   8.69726844
_cell_angle_alpha   23.31551316
_cell_angle_beta   23.31551316
_cell_angle_gamma   23.31551316
_symmetry_Int_Tables_number   1
_chemical_formula_structural   Y(FeO2)2
_chemical_formula_sum   'Y1 Fe2 O4'
_cell_volume   90.48301009
_cell_formula_units_Z   1
loop_
 _symmetry_equiv_pos_site_id
 _symmetry_equiv_pos_as_xyz
  1  'x, y, z'
loop_
 _atom_site_type_symbol
 _atom_site_label
 _atom_site_symmetry_multiplicity
 _atom_site_fract_x
 _atom_site_fract_y
 _atom_site_fract_z
 _atom_site_occupancy
  Y  Y0  1  0.000000  0.000000  0.000000  1
  Fe  Fe1  1  0.213058  0.213058  0.213058  1
  Fe  Fe2  1  0.786942  0.786942  0.786942  1
  O  O3  1  0.128640  0.128640  0.128640  1
  O  O4  1  0.871360  0.871360  0.871360  1
  O  O5  1  0.291301  0.291301  0.291301  1
  O  O6  1  0.708699  0.708699  0.708699  1
