# generated using pymatgen
data_Zn13Fe
_symmetry_space_group_name_H-M   'P 1'
_cell_length_a   6.61718798
_cell_length_b   6.61718798
_cell_length_c   5.06607638
_cell_angle_alpha   81.22330761
_cell_angle_beta   98.77669239
_cell_angle_gamma   109.37149575
_symmetry_Int_Tables_number   1
_chemical_formula_structural   Zn13Fe
_chemical_formula_sum   'Zn13 Fe1'
_cell_volume   205.57972755
_cell_formula_units_Z   1
loop_
 _symmetry_equiv_pos_site_id
 _symmetry_equiv_pos_as_xyz
  1  'x, y, z'
loop_
 _atom_site_type_symbol
 _atom_site_label
 _atom_site_symmetry_multiplicity
 _atom_site_fract_x
 _atom_site_fract_y
 _atom_site_fract_z
 _atom_site_occupancy
  Zn  Zn0  1  0.000000  0.000000  0.000000  1
  Zn  Zn1  1  0.385425  0.614575  0.062135  1
  Zn  Zn2  1  0.614575  0.385425  0.937865  1
  Zn  Zn3  1  0.777253  0.222747  0.624454  1
  Zn  Zn4  1  0.222747  0.777253  0.375546  1
  Zn  Zn5  1  0.213515  0.365067  0.686002  1
  Zn  Zn6  1  0.365067  0.213515  0.313998  1
  Zn  Zn7  1  0.786485  0.634933  0.313998  1
  Zn  Zn8  1  0.634933  0.786485  0.686002  1
  Zn  Zn9  1  0.004761  0.356003  0.200370  1
  Zn  Zn10  1  0.356003  0.004761  0.799630  1
  Zn  Zn11  1  0.995239  0.643997  0.799630  1
  Zn  Zn12  1  0.643997  0.995239  0.200370  1
  Fe  Fe13  1  1.000000  1.000000  0.500000  1
