# generated using pymatgen
data_Yb(FeO2)2
_symmetry_space_group_name_H-M   'P 1'
_cell_length_a   8.78858178
_cell_length_b   8.78858178
_cell_length_c   8.78858178
_cell_angle_alpha   22.75647852
_cell_angle_beta   22.75647852
_cell_angle_gamma   22.75647852
_symmetry_Int_Tables_number   1
_chemical_formula_structural   Yb(FeO2)2
_chemical_formula_sum   'Yb1 Fe2 O4'
_cell_volume   89.11758874
_cell_formula_units_Z   1
loop_
 _symmetry_equiv_pos_site_id
 _symmetry_equiv_pos_as_xyz
  1  'x, y, z'
loop_
 _atom_site_type_symbol
 _atom_site_label
 _atom_site_symmetry_multiplicity
 _atom_site_fract_x
 _atom_site_fract_y
 _atom_site_fract_z
 _atom_site_occupancy
  Yb  Yb0  1  0.000000  0.000000  0.000000  1
  Fe  Fe1  1  0.216833  0.216833  0.216833  1
  Fe  Fe2  1  0.783167  0.783167  0.783167  1
  O  O3  1  0.131148  0.131148  0.131148  1
  O  O4  1  0.868852  0.868852  0.868852  1
  O  O5  1  0.287641  0.287641  0.287641  1
  O  O6  1  0.712359  0.712359  0.712359  1
