# generated using pymatgen
data_K2Mn2(SO4)3
_symmetry_space_group_name_H-M   'P 1'
_cell_length_a   10.30339855
_cell_length_b   10.30339855
_cell_length_c   10.30339855
_cell_angle_alpha   90.00000000
_cell_angle_beta   90.00000000
_cell_angle_gamma   90.00000000
_symmetry_Int_Tables_number   1
_chemical_formula_structural   K2Mn2(SO4)3
_chemical_formula_sum   'K8 Mn8 S12 O48'
_cell_volume   1093.80901345
_cell_formula_units_Z   4
loop_
 _symmetry_equiv_pos_site_id
 _symmetry_equiv_pos_as_xyz
  1  'x, y, z'
loop_
 _atom_site_type_symbol
 _atom_site_label
 _atom_site_symmetry_multiplicity
 _atom_site_fract_x
 _atom_site_fract_y
 _atom_site_fract_z
 _atom_site_occupancy
  K  K0  1  0.685178  0.185178  0.314822  1
  K  K1  1  0.314822  0.685178  0.185178  1
  K  K2  1  0.947912  0.552088  0.447912  1
  K  K3  1  0.185178  0.314822  0.685178  1
  K  K4  1  0.052088  0.052088  0.052088  1
  K  K5  1  0.447912  0.947912  0.552088  1
  K  K6  1  0.552088  0.447912  0.947912  1
  K  K7  1  0.814822  0.814822  0.814822  1
  Mn  Mn8  1  0.333206  0.333206  0.333206  1
  Mn  Mn9  1  0.166794  0.666794  0.833206  1
  Mn  Mn10  1  0.833206  0.166794  0.666794  1
  Mn  Mn11  1  0.666794  0.833206  0.166794  1
  Mn  Mn12  1  0.593031  0.593031  0.593031  1
  Mn  Mn13  1  0.093031  0.906969  0.406969  1
  Mn  Mn14  1  0.406969  0.093031  0.906969  1
  Mn  Mn15  1  0.906969  0.406969  0.093031  1
  S  S16  1  0.278217  0.624314  0.515567  1
  S  S17  1  0.778217  0.875686  0.484433  1
  S  S18  1  0.721783  0.124314  0.984433  1
  S  S19  1  0.875686  0.484433  0.778217  1
  S  S20  1  0.984433  0.721783  0.124314  1
  S  S21  1  0.484433  0.778217  0.875686  1
  S  S22  1  0.624314  0.515567  0.278217  1
  S  S23  1  0.515567  0.278217  0.624314  1
  S  S24  1  0.124314  0.984433  0.721783  1
  S  S25  1  0.221783  0.375686  0.015567  1
  S  S26  1  0.015567  0.221783  0.375686  1
  S  S27  1  0.375686  0.015567  0.221783  1
  O  O28  1  0.244455  0.591039  0.651701  1
  O  O29  1  0.744455  0.908961  0.348299  1
  O  O30  1  0.755545  0.091039  0.848299  1
  O  O31  1  0.908961  0.348299  0.744455  1
  O  O32  1  0.848299  0.755545  0.091039  1
  O  O33  1  0.348299  0.744455  0.908961  1
  O  O34  1  0.591039  0.651701  0.244455  1
  O  O35  1  0.651701  0.244455  0.591039  1
  O  O36  1  0.091039  0.848299  0.755545  1
  O  O37  1  0.408961  0.151701  0.255545  1
  O  O38  1  0.151701  0.255545  0.408961  1
  O  O39  1  0.255545  0.408961  0.151701  1
  O  O40  1  0.262938  0.505948  0.434311  1
  O  O41  1  0.762938  0.994052  0.565689  1
  O  O42  1  0.737062  0.005948  0.065689  1
  O  O43  1  0.994052  0.565689  0.762938  1
  O  O44  1  0.065689  0.737062  0.005948  1
  O  O45  1  0.565689  0.762938  0.994052  1
  O  O46  1  0.992100  0.585689  0.174156  1
  O  O47  1  0.505948  0.434311  0.262938  1
  O  O48  1  0.005948  0.065689  0.737062  1
  O  O49  1  0.494052  0.934311  0.237062  1
  O  O50  1  0.934311  0.237062  0.494052  1
  O  O51  1  0.237062  0.494052  0.934311  1
  O  O52  1  0.414311  0.674157  0.507900  1
  O  O53  1  0.914311  0.825843  0.492100  1
  O  O54  1  0.585689  0.174156  0.992100  1
  O  O55  1  0.825843  0.492100  0.914311  1
  O  O56  1  0.311476  0.275879  0.962692  1
  O  O57  1  0.962692  0.311476  0.275879  1
  O  O58  1  0.275879  0.962692  0.311476  1
  O  O59  1  0.224121  0.037308  0.811476  1
  O  O60  1  0.462692  0.188524  0.724121  1
  O  O61  1  0.724121  0.462692  0.188524  1
  O  O62  1  0.537308  0.688524  0.775879  1
  O  O63  1  0.037308  0.811476  0.224121  1
  O  O64  1  0.775879  0.537308  0.688524  1
  O  O65  1  0.811476  0.224121  0.037308  1
  O  O66  1  0.688524  0.775879  0.537308  1
  O  O67  1  0.188524  0.724121  0.462692  1
  O  O68  1  0.085689  0.325844  0.007900  1
  O  O69  1  0.007900  0.085689  0.325844  1
  O  O70  1  0.325844  0.007900  0.085689  1
  O  O71  1  0.174156  0.992100  0.585689  1
  O  O72  1  0.507900  0.414311  0.674157  1
  O  O73  1  0.674157  0.507900  0.414311  1
  O  O74  1  0.492100  0.914311  0.825843  1
  O  O75  1  0.434311  0.262938  0.505948  1
