# generated using pymatgen
data_HfZnN2
_symmetry_space_group_name_H-M   'P 1'
_cell_length_a   3.26518386
_cell_length_b   3.26518386
_cell_length_c   5.32148786
_cell_angle_alpha   90.00000000
_cell_angle_beta   90.00000000
_cell_angle_gamma   120.00000000
_symmetry_Int_Tables_number   1
_chemical_formula_structural   HfZnN2
_chemical_formula_sum   'Hf1 Zn1 N2'
_cell_volume   49.13364572
_cell_formula_units_Z   1
loop_
 _symmetry_equiv_pos_site_id
 _symmetry_equiv_pos_as_xyz
  1  'x, y, z'
loop_
 _atom_site_type_symbol
 _atom_site_label
 _atom_site_symmetry_multiplicity
 _atom_site_fract_x
 _atom_site_fract_y
 _atom_site_fract_z
 _atom_site_occupancy
  Hf  Hf0  1  0.333333  0.666667  0.792395  1
  Zn  Zn1  1  0.666667  0.333333  0.343301  1
  N  N2  1  0.666667  0.333333  0.976514  1
  N  N3  1  0.000000  0.000000  0.540490  1
