# generated using pymatgen
data_Sr2ErCu3(PbO4)2
_symmetry_space_group_name_H-M   'P 1'
_cell_length_a   3.82512209
_cell_length_b   3.82512209
_cell_length_c   15.98158638
_cell_angle_alpha   90.00000000
_cell_angle_beta   90.00000000
_cell_angle_gamma   90.00000000
_symmetry_Int_Tables_number   1
_chemical_formula_structural   Sr2ErCu3(PbO4)2
_chemical_formula_sum   'Sr2 Er1 Cu3 Pb2 O8'
_cell_volume   233.83552456
_cell_formula_units_Z   1
loop_
 _symmetry_equiv_pos_site_id
 _symmetry_equiv_pos_as_xyz
  1  'x, y, z'
loop_
 _atom_site_type_symbol
 _atom_site_label
 _atom_site_symmetry_multiplicity
 _atom_site_fract_x
 _atom_site_fract_y
 _atom_site_fract_z
 _atom_site_occupancy
  Sr  Sr0  1  0.000000  0.000000  0.779591  1
  Sr  Sr1  1  0.000000  0.000000  0.220409  1
  Er  Er2  1  0.000000  0.000000  0.000000  1
  Cu  Cu3  1  0.000000  0.000000  0.500000  1
  Cu  Cu4  1  0.500000  0.500000  0.897313  1
  Cu  Cu5  1  0.500000  0.500000  0.102687  1
  Pb  Pb6  1  0.500000  0.500000  0.387286  1
  Pb  Pb7  1  0.500000  0.500000  0.612714  1
  O  O8  1  0.000000  0.500000  0.910285  1
  O  O9  1  0.500000  0.000000  0.089715  1
  O  O10  1  0.000000  0.500000  0.089715  1
  O  O11  1  0.500000  0.000000  0.910285  1
  O  O12  1  0.000000  0.000000  0.383391  1
  O  O13  1  0.500000  0.500000  0.749570  1
  O  O14  1  0.500000  0.500000  0.250430  1
  O  O15  1  0.000000  0.000000  0.616609  1
