# generated using pymatgen
data_Rb2Li14Pr3O14
_symmetry_space_group_name_H-M   'P 1'
_cell_length_a   8.86049264
_cell_length_b   8.86049264
_cell_length_c   8.86049264
_cell_angle_alpha   129.95780761
_cell_angle_beta   123.56143764
_cell_angle_gamma   78.75211264
_symmetry_Int_Tables_number   1
_chemical_formula_structural   Rb2Li14Pr3O14
_chemical_formula_sum   'Rb2 Li14 Pr3 O14'
_cell_volume   430.15436660
_cell_formula_units_Z   1
loop_
 _symmetry_equiv_pos_site_id
 _symmetry_equiv_pos_as_xyz
  1  'x, y, z'
loop_
 _atom_site_type_symbol
 _atom_site_label
 _atom_site_symmetry_multiplicity
 _atom_site_fract_x
 _atom_site_fract_y
 _atom_site_fract_z
 _atom_site_occupancy
  Rb  Rb0  1  0.500000  0.762244  0.262244  1
  Rb  Rb1  1  0.500000  0.237756  0.737756  1
  Li  Li2  1  0.713036  0.145249  0.123781  1
  Li  Li3  1  0.978532  0.854751  0.567787  1
  Li  Li4  1  0.021468  0.589254  0.876219  1
  Li  Li5  1  0.286964  0.410746  0.432213  1
  Li  Li6  1  0.021468  0.145249  0.432213  1
  Li  Li7  1  0.158676  0.500000  0.658676  1
  Li  Li8  1  0.841324  0.500000  0.341324  1
  Li  Li9  1  0.414257  0.768581  0.645675  1
  Li  Li10  1  0.585743  0.231419  0.354325  1
  Li  Li11  1  0.877094  0.231419  0.645675  1
  Li  Li12  1  0.122906  0.768581  0.354325  1
  Li  Li13  1  0.713036  0.589254  0.567787  1
  Li  Li14  1  0.286964  0.854751  0.876219  1
  Li  Li15  1  0.978532  0.410746  0.123781  1
  Pr  Pr16  1  0.000000  0.000000  0.000000  1
  Pr  Pr17  1  0.272091  0.272091  0.000000  1
  Pr  Pr18  1  0.727909  0.727909  0.000000  1
  O  O19  1  0.058043  0.867776  0.190268  1
  O  O20  1  0.401664  0.624143  0.777521  1
  O  O21  1  0.846623  0.624143  0.222479  1
  O  O22  1  0.598336  0.375857  0.222479  1
  O  O23  1  0.153377  0.375857  0.777521  1
  O  O24  1  0.758939  0.063997  0.305058  1
  O  O25  1  0.241061  0.546119  0.305058  1
  O  O26  1  0.241061  0.936003  0.694942  1
  O  O27  1  0.758939  0.453881  0.694942  1
  O  O28  1  1.000000  0.693823  0.693823  1
  O  O29  1  1.000000  0.306177  0.306177  1
  O  O30  1  0.677508  0.867776  0.809732  1
  O  O31  1  0.322492  0.132224  0.190268  1
  O  O32  1  0.941957  0.132224  0.809732  1
