# generated using pymatgen
data_Sr3CdPtO6
_symmetry_space_group_name_H-M   'P 1'
_cell_length_a   6.87165145
_cell_length_b   6.87165145
_cell_length_c   6.87165145
_cell_angle_alpha   90.23925377
_cell_angle_beta   90.23925377
_cell_angle_gamma   90.23925377
_symmetry_Int_Tables_number   1
_chemical_formula_structural   Sr3CdPtO6
_chemical_formula_sum   'Sr6 Cd2 Pt2 O12'
_cell_volume   324.46807793
_cell_formula_units_Z   2
loop_
 _symmetry_equiv_pos_site_id
 _symmetry_equiv_pos_as_xyz
  1  'x, y, z'
loop_
 _atom_site_type_symbol
 _atom_site_label
 _atom_site_symmetry_multiplicity
 _atom_site_fract_x
 _atom_site_fract_y
 _atom_site_fract_z
 _atom_site_occupancy
  Sr  Sr0  1  0.250000  0.886854  0.613146  1
  Sr  Sr1  1  0.886854  0.613146  0.250000  1
  Sr  Sr2  1  0.613146  0.250000  0.886854  1
  Sr  Sr3  1  0.750000  0.113146  0.386854  1
  Sr  Sr4  1  0.386854  0.750000  0.113146  1
  Sr  Sr5  1  0.113146  0.386854  0.750000  1
  Cd  Cd6  1  0.250000  0.250000  0.250000  1
  Cd  Cd7  1  0.750000  0.750000  0.750000  1
  Pt  Pt8  1  0.000000  0.000000  0.000000  1
  Pt  Pt9  1  0.500000  0.500000  0.500000  1
  O  O10  1  0.784966  0.448679  0.582568  1
  O  O11  1  0.582568  0.784966  0.448679  1
  O  O12  1  0.448679  0.582568  0.784966  1
  O  O13  1  0.917432  0.051321  0.715034  1
  O  O14  1  0.715034  0.917432  0.051321  1
  O  O15  1  0.051321  0.715034  0.917432  1
  O  O16  1  0.215034  0.551321  0.417432  1
  O  O17  1  0.417432  0.215034  0.551321  1
  O  O18  1  0.551321  0.417432  0.215034  1
  O  O19  1  0.082568  0.948679  0.284966  1
  O  O20  1  0.948679  0.284966  0.082568  1
  O  O21  1  0.284966  0.082568  0.948679  1
