# generated using pymatgen
data_Er4Sb3
_symmetry_space_group_name_H-M   'P 1'
_cell_length_a   7.90605719
_cell_length_b   7.90605719
_cell_length_c   7.90605719
_cell_angle_alpha   109.47122063
_cell_angle_beta   109.47122063
_cell_angle_gamma   109.47122063
_symmetry_Int_Tables_number   1
_chemical_formula_structural   Er4Sb3
_chemical_formula_sum   'Er8 Sb6'
_cell_volume   380.41529034
_cell_formula_units_Z   2
loop_
 _symmetry_equiv_pos_site_id
 _symmetry_equiv_pos_as_xyz
  1  'x, y, z'
loop_
 _atom_site_type_symbol
 _atom_site_label
 _atom_site_symmetry_multiplicity
 _atom_site_fract_x
 _atom_site_fract_y
 _atom_site_fract_z
 _atom_site_occupancy
  Er  Er0  1  1.000000  0.357007  0.500000  1
  Er  Er1  1  0.500000  1.000000  0.357007  1
  Er  Er2  1  0.857007  0.500000  0.000000  1
  Er  Er3  1  0.500000  1.000000  0.857007  1
  Er  Er4  1  0.642993  0.642993  0.642993  1
  Er  Er5  1  0.142993  0.142993  0.142993  1
  Er  Er6  1  1.000000  0.857007  0.500000  1
  Er  Er7  1  0.357007  0.500000  0.000000  1
  Sb  Sb8  1  0.125000  0.750000  0.875000  1
  Sb  Sb9  1  0.625000  0.375000  0.250000  1
  Sb  Sb10  1  0.375000  0.250000  0.625000  1
  Sb  Sb11  1  0.750000  0.875000  0.125000  1
  Sb  Sb12  1  0.250000  0.625000  0.375000  1
  Sb  Sb13  1  0.875000  0.125000  0.750000  1
