# generated using pymatgen
data_Tb6FeSb2
_symmetry_space_group_name_H-M   'P 1'
_cell_length_a   8.27211261
_cell_length_b   8.27211261
_cell_length_c   4.15384870
_cell_angle_alpha   90.00000000
_cell_angle_beta   90.00000000
_cell_angle_gamma   120.00000000
_symmetry_Int_Tables_number   1
_chemical_formula_structural   Tb6FeSb2
_chemical_formula_sum   'Tb6 Fe1 Sb2'
_cell_volume   246.15812869
_cell_formula_units_Z   1
loop_
 _symmetry_equiv_pos_site_id
 _symmetry_equiv_pos_as_xyz
  1  'x, y, z'
loop_
 _atom_site_type_symbol
 _atom_site_label
 _atom_site_symmetry_multiplicity
 _atom_site_fract_x
 _atom_site_fract_y
 _atom_site_fract_z
 _atom_site_occupancy
  Tb  Tb0  1  0.234704  0.000000  0.000000  1
  Tb  Tb1  1  0.765296  0.765296  0.000000  1
  Tb  Tb2  1  0.000000  0.234704  0.000000  1
  Tb  Tb3  1  0.599453  0.000000  0.500000  1
  Tb  Tb4  1  0.400547  0.400547  0.500000  1
  Tb  Tb5  1  0.000000  0.599453  0.500000  1
  Fe  Fe6  1  0.000000  0.000000  0.500000  1
  Sb  Sb7  1  0.333333  0.666667  0.000000  1
  Sb  Sb8  1  0.666667  0.333333  0.000000  1
