# generated using pymatgen
data_Ga7Ni3
_symmetry_space_group_name_H-M   'P 1'
_cell_length_a   7.33061099
_cell_length_b   7.33061099
_cell_length_c   7.33061099
_cell_angle_alpha   109.47122063
_cell_angle_beta   109.47122063
_cell_angle_gamma   109.47122063
_symmetry_Int_Tables_number   1
_chemical_formula_structural   Ga7Ni3
_chemical_formula_sum   'Ga14 Ni6'
_cell_volume   303.24847815
_cell_formula_units_Z   2
loop_
 _symmetry_equiv_pos_site_id
 _symmetry_equiv_pos_as_xyz
  1  'x, y, z'
loop_
 _atom_site_type_symbol
 _atom_site_label
 _atom_site_symmetry_multiplicity
 _atom_site_fract_x
 _atom_site_fract_y
 _atom_site_fract_z
 _atom_site_occupancy
  Ga  Ga0  1  0.500000  0.750000  0.250000  1
  Ga  Ga1  1  0.750000  0.500000  0.250000  1
  Ga  Ga2  1  0.250000  0.500000  0.750000  1
  Ga  Ga3  1  0.750000  0.250000  0.500000  1
  Ga  Ga4  1  0.250000  0.750000  0.500000  1
  Ga  Ga5  1  0.500000  0.250000  0.750000  1
  Ga  Ga6  1  0.323194  0.323194  0.323194  1
  Ga  Ga7  1  0.323194  0.000000  0.000000  1
  Ga  Ga8  1  0.000000  0.323194  1.000000  1
  Ga  Ga9  1  0.000000  0.000000  0.323194  1
  Ga  Ga10  1  0.000000  0.676806  0.000000  1
  Ga  Ga11  1  1.000000  0.000000  0.676806  1
  Ga  Ga12  1  0.676806  0.000000  0.000000  1
  Ga  Ga13  1  0.676806  0.676806  0.676806  1
  Ni  Ni14  1  1.000000  0.349849  0.349849  1
  Ni  Ni15  1  0.349849  1.000000  0.349849  1
  Ni  Ni16  1  0.650151  1.000000  0.650151  1
  Ni  Ni17  1  0.650151  0.650151  0.000000  1
  Ni  Ni18  1  0.349849  0.349849  0.000000  1
  Ni  Ni19  1  0.000000  0.650151  0.650151  1
