# generated using pymatgen
data_Ca2SiO4
_symmetry_space_group_name_H-M   'P 1'
_cell_length_a   5.53515883
_cell_length_b   5.53515883
_cell_length_c   7.56245119
_cell_angle_alpha   90.00000000
_cell_angle_beta   90.00000000
_cell_angle_gamma   120.00000000
_symmetry_Int_Tables_number   1
_chemical_formula_structural   Ca2SiO4
_chemical_formula_sum   'Ca4 Si2 O8'
_cell_volume   200.65657318
_cell_formula_units_Z   2
loop_
 _symmetry_equiv_pos_site_id
 _symmetry_equiv_pos_as_xyz
  1  'x, y, z'
loop_
 _atom_site_type_symbol
 _atom_site_label
 _atom_site_symmetry_multiplicity
 _atom_site_fract_x
 _atom_site_fract_y
 _atom_site_fract_z
 _atom_site_occupancy
  Ca  Ca0  1  0.666667  0.333333  0.319684  1
  Ca  Ca1  1  0.333333  0.666667  0.819684  1
  Ca  Ca2  1  0.000000  0.000000  0.060360  1
  Ca  Ca3  1  0.000000  0.000000  0.560360  1
  Si  Si4  1  0.666667  0.333333  0.838617  1
  Si  Si5  1  0.333333  0.666667  0.338617  1
  O  O6  1  0.666667  0.333333  0.052553  1
  O  O7  1  0.333333  0.666667  0.552553  1
  O  O8  1  0.830152  0.660304  0.774900  1
  O  O9  1  0.339696  0.169848  0.774900  1
  O  O10  1  0.830152  0.169848  0.774900  1
  O  O11  1  0.169848  0.339696  0.274900  1
  O  O12  1  0.660304  0.830152  0.274900  1
  O  O13  1  0.169848  0.830152  0.274900  1
