# generated using pymatgen
data_LaVO3
_symmetry_space_group_name_H-M   'P 1'
_cell_length_a   5.59749790
_cell_length_b   5.60131963
_cell_length_c   8.05551098
_cell_angle_alpha   90.00000000
_cell_angle_beta   90.00000000
_cell_angle_gamma   90.00000000
_symmetry_Int_Tables_number   1
_chemical_formula_structural   LaVO3
_chemical_formula_sum   'La4 V4 O12'
_cell_volume   252.56745549
_cell_formula_units_Z   4
loop_
 _symmetry_equiv_pos_site_id
 _symmetry_equiv_pos_as_xyz
  1  'x, y, z'
loop_
 _atom_site_type_symbol
 _atom_site_label
 _atom_site_symmetry_multiplicity
 _atom_site_fract_x
 _atom_site_fract_y
 _atom_site_fract_z
 _atom_site_occupancy
  La  La0  1  0.960780  0.005408  0.750000  1
  La  La1  1  0.539220  0.505408  0.250000  1
  La  La2  1  0.460780  0.494592  0.750000  1
  La  La3  1  0.039220  0.994592  0.250000  1
  V  V4  1  0.000000  0.500000  0.500000  1
  V  V5  1  0.500000  0.000000  0.500000  1
  V  V6  1  0.500000  0.000000  0.000000  1
  V  V7  1  0.000000  0.500000  0.000000  1
  O  O8  1  0.211063  0.213041  0.953719  1
  O  O9  1  0.288937  0.713041  0.046281  1
  O  O10  1  0.711063  0.286959  0.546281  1
  O  O11  1  0.788937  0.786959  0.453719  1
  O  O12  1  0.788937  0.786959  0.046281  1
  O  O13  1  0.711063  0.286959  0.953719  1
  O  O14  1  0.288937  0.713041  0.453719  1
  O  O15  1  0.211063  0.213041  0.546281  1
  O  O16  1  0.478671  0.085306  0.250000  1
  O  O17  1  0.021329  0.585306  0.750000  1
  O  O18  1  0.978671  0.414694  0.250000  1
  O  O19  1  0.521329  0.914694  0.750000  1
