# generated using pymatgen
data_KNa2BN2
_symmetry_space_group_name_H-M   'P 1'
_cell_length_a   5.99463080
_cell_length_b   5.99463080
_cell_length_c   5.99463080
_cell_angle_alpha   138.30447066
_cell_angle_beta   138.30447066
_cell_angle_gamma   60.43700628
_symmetry_Int_Tables_number   1
_chemical_formula_structural   KNa2BN2
_chemical_formula_sum   'K1 Na2 B1 N2'
_cell_volume   94.30608115
_cell_formula_units_Z   1
loop_
 _symmetry_equiv_pos_site_id
 _symmetry_equiv_pos_as_xyz
  1  'x, y, z'
loop_
 _atom_site_type_symbol
 _atom_site_label
 _atom_site_symmetry_multiplicity
 _atom_site_fract_x
 _atom_site_fract_y
 _atom_site_fract_z
 _atom_site_occupancy
  K  K0  1  0.500000  0.500000  0.000000  1
  Na  Na1  1  0.250000  0.750000  0.500000  1
  Na  Na2  1  0.750000  0.250000  0.500000  1
  B  B3  1  0.000000  0.000000  0.000000  1
  N  N4  1  0.869244  0.869244  0.000000  1
  N  N5  1  0.130756  0.130756  0.000000  1
