# generated using pymatgen
data_KMgP
_symmetry_space_group_name_H-M   'P 1'
_cell_length_a   4.47718362
_cell_length_b   4.47718362
_cell_length_c   7.63512449
_cell_angle_alpha   90.00000000
_cell_angle_beta   90.00000000
_cell_angle_gamma   90.00000000
_symmetry_Int_Tables_number   1
_chemical_formula_structural   KMgP
_chemical_formula_sum   'K2 Mg2 P2'
_cell_volume   153.04739256
_cell_formula_units_Z   2
loop_
 _symmetry_equiv_pos_site_id
 _symmetry_equiv_pos_as_xyz
  1  'x, y, z'
loop_
 _atom_site_type_symbol
 _atom_site_label
 _atom_site_symmetry_multiplicity
 _atom_site_fract_x
 _atom_site_fract_y
 _atom_site_fract_z
 _atom_site_occupancy
  K  K0  1  0.000000  0.500000  0.357674  1
  K  K1  1  0.500000  0.000000  0.642326  1
  Mg  Mg2  1  0.000000  0.000000  0.000000  1
  Mg  Mg3  1  0.500000  0.500000  0.000000  1
  P  P4  1  0.000000  0.500000  0.814317  1
  P  P5  1  0.500000  0.000000  0.185683  1
