# generated using pymatgen
data_Na2Co(Si2O5)2
_symmetry_space_group_name_H-M   'P 1'
_cell_length_a   7.01588475
_cell_length_b   7.87491642
_cell_length_c   9.88298551
_cell_angle_alpha   102.17871253
_cell_angle_beta   102.25128289
_cell_angle_gamma   114.83716368
_symmetry_Int_Tables_number   1
_chemical_formula_structural   Na2Co(Si2O5)2
_chemical_formula_sum   'Na4 Co2 Si8 O20'
_cell_volume   455.67352450
_cell_formula_units_Z   2
loop_
 _symmetry_equiv_pos_site_id
 _symmetry_equiv_pos_as_xyz
  1  'x, y, z'
loop_
 _atom_site_type_symbol
 _atom_site_label
 _atom_site_symmetry_multiplicity
 _atom_site_fract_x
 _atom_site_fract_y
 _atom_site_fract_z
 _atom_site_occupancy
  Na  Na0  1  0.656285  0.768005  0.984054  1
  Na  Na1  1  0.738185  0.275253  0.421463  1
  Na  Na2  1  0.261815  0.724747  0.578537  1
  Na  Na3  1  0.343715  0.231995  0.015946  1
  Co  Co4  1  0.754996  0.692374  0.581209  1
  Co  Co5  1  0.245004  0.307626  0.418791  1
  Si  Si6  1  0.090252  0.712550  0.862077  1
  Si  Si7  1  0.909748  0.287450  0.137923  1
  Si  Si8  1  0.234619  0.927722  0.197866  1
  Si  Si9  1  0.765381  0.072278  0.802134  1
  Si  Si10  1  0.387693  0.628169  0.258624  1
  Si  Si11  1  0.189610  0.380910  0.751974  1
  Si  Si12  1  0.810390  0.619090  0.248026  1
  Si  Si13  1  0.612307  0.371831  0.741376  1
  O  O14  1  0.981295  0.791889  0.197558  1
  O  O15  1  0.018705  0.208111  0.802442  1
  O  O16  1  0.848382  0.553128  0.867457  1
  O  O17  1  0.151618  0.446872  0.132543  1
  O  O18  1  0.574018  0.621827  0.182341  1
  O  O19  1  0.425982  0.378173  0.817659  1
  O  O20  1  0.246669  0.602075  0.859692  1
  O  O21  1  0.753331  0.397925  0.140308  1
  O  O22  1  0.886001  0.645182  0.418354  1
  O  O23  1  0.113999  0.354818  0.581646  1
  O  O24  1  0.426612  0.597954  0.416013  1
  O  O25  1  0.573388  0.402046  0.583987  1
  O  O26  1  0.063733  0.790938  0.727205  1
  O  O27  1  0.936267  0.209062  0.272795  1
  O  O28  1  0.785383  0.103863  0.977816  1
  O  O29  1  0.214617  0.896137  0.022184  1
  O  O30  1  0.604860  0.157750  0.730460  1
  O  O31  1  0.395140  0.842250  0.269540  1
  O  O32  1  0.344661  0.160847  0.280544  1
  O  O33  1  0.655339  0.839153  0.719456  1
