# generated using pymatgen
data_TmAl
_symmetry_space_group_name_H-M   'P 1'
_cell_length_a   5.55481246
_cell_length_b   5.79450463
_cell_length_c   11.28772539
_cell_angle_alpha   90.00000000
_cell_angle_beta   90.00000000
_cell_angle_gamma   90.00000000
_symmetry_Int_Tables_number   1
_chemical_formula_structural   TmAl
_chemical_formula_sum   'Tm8 Al8'
_cell_volume   363.32238004
_cell_formula_units_Z   8
loop_
 _symmetry_equiv_pos_site_id
 _symmetry_equiv_pos_as_xyz
  1  'x, y, z'
loop_
 _atom_site_type_symbol
 _atom_site_label
 _atom_site_symmetry_multiplicity
 _atom_site_fract_x
 _atom_site_fract_y
 _atom_site_fract_z
 _atom_site_occupancy
  Tm  Tm0  1  0.250000  0.160670  0.017641  1
  Tm  Tm1  1  0.750000  0.839330  0.982359  1
  Tm  Tm2  1  0.750000  0.160670  0.482359  1
  Tm  Tm3  1  0.250000  0.839330  0.517641  1
  Tm  Tm4  1  0.250000  0.397453  0.331167  1
  Tm  Tm5  1  0.750000  0.602547  0.668833  1
  Tm  Tm6  1  0.750000  0.397453  0.168833  1
  Tm  Tm7  1  0.250000  0.602547  0.831167  1
  Al  Al8  1  0.000000  0.931085  0.250000  1
  Al  Al9  1  0.500000  0.068915  0.750000  1
  Al  Al10  1  0.000000  0.068915  0.750000  1
  Al  Al11  1  0.500000  0.931085  0.250000  1
  Al  Al12  1  0.250000  0.658904  0.096875  1
  Al  Al13  1  0.750000  0.341096  0.903125  1
  Al  Al14  1  0.750000  0.658904  0.403125  1
  Al  Al15  1  0.250000  0.341096  0.596875  1
