# generated using pymatgen
data_NaFeO2
_symmetry_space_group_name_H-M   'P 1'
_cell_length_a   5.69277808
_cell_length_b   5.69277808
_cell_length_c   5.69277808
_cell_angle_alpha   31.15893949
_cell_angle_beta   31.15893949
_cell_angle_gamma   31.15893949
_symmetry_Int_Tables_number   1
_chemical_formula_structural   NaFeO2
_chemical_formula_sum   'Na1 Fe1 O2'
_cell_volume   43.82635454
_cell_formula_units_Z   1
loop_
 _symmetry_equiv_pos_site_id
 _symmetry_equiv_pos_as_xyz
  1  'x, y, z'
loop_
 _atom_site_type_symbol
 _atom_site_label
 _atom_site_symmetry_multiplicity
 _atom_site_fract_x
 _atom_site_fract_y
 _atom_site_fract_z
 _atom_site_occupancy
  Na  Na0  1  0.500000  0.500000  0.500000  1
  Fe  Fe1  1  0.000000  1.000000  0.000000  1
  O  O2  1  0.733971  0.733971  0.733971  1
  O  O3  1  0.266029  0.266029  0.266029  1
