# generated using pymatgen
data_Nd(AsPd)2
_symmetry_space_group_name_H-M   'P 1'
_cell_length_a   6.09433441
_cell_length_b   6.09433441
_cell_length_c   6.09433441
_cell_angle_alpha   138.69655347
_cell_angle_beta   138.69655347
_cell_angle_gamma   59.83785192
_symmetry_Int_Tables_number   1
_chemical_formula_structural   Nd(AsPd)2
_chemical_formula_sum   'Nd1 As2 Pd2'
_cell_volume   97.61159710
_cell_formula_units_Z   1
loop_
 _symmetry_equiv_pos_site_id
 _symmetry_equiv_pos_as_xyz
  1  'x, y, z'
loop_
 _atom_site_type_symbol
 _atom_site_label
 _atom_site_symmetry_multiplicity
 _atom_site_fract_x
 _atom_site_fract_y
 _atom_site_fract_z
 _atom_site_occupancy
  Nd  Nd0  1  0.000000  0.000000  0.000000  1
  As  As1  1  0.619453  0.619453  0.000000  1
  As  As2  1  0.380547  0.380547  0.000000  1
  Pd  Pd3  1  0.250000  0.750000  0.500000  1
  Pd  Pd4  1  0.750000  0.250000  0.500000  1
