# generated using pymatgen
data_K3AuSe2
_symmetry_space_group_name_H-M   'P 1'
_cell_length_a   8.05376988
_cell_length_b   8.05376988
_cell_length_c   8.05376988
_cell_angle_alpha   68.43770213
_cell_angle_beta   68.43770213
_cell_angle_gamma   68.43770213
_symmetry_Int_Tables_number   1
_chemical_formula_structural   K3AuSe2
_chemical_formula_sum   'K6 Au2 Se4'
_cell_volume   435.21353866
_cell_formula_units_Z   2
loop_
 _symmetry_equiv_pos_site_id
 _symmetry_equiv_pos_as_xyz
  1  'x, y, z'
loop_
 _atom_site_type_symbol
 _atom_site_label
 _atom_site_symmetry_multiplicity
 _atom_site_fract_x
 _atom_site_fract_y
 _atom_site_fract_z
 _atom_site_occupancy
  K  K0  1  0.750000  0.040955  0.459045  1
  K  K1  1  0.459045  0.750000  0.040955  1
  K  K2  1  0.040955  0.459045  0.750000  1
  K  K3  1  0.250000  0.959045  0.540955  1
  K  K4  1  0.540955  0.250000  0.959045  1
  K  K5  1  0.959045  0.540955  0.250000  1
  Au  Au6  1  0.500000  0.500000  0.500000  1
  Au  Au7  1  0.000000  0.000000  0.000000  1
  Se  Se8  1  0.366055  0.366055  0.366055  1
  Se  Se9  1  0.133945  0.133945  0.133945  1
  Se  Se10  1  0.866055  0.866055  0.866055  1
  Se  Se11  1  0.633945  0.633945  0.633945  1
