# generated using pymatgen
data_MnGaGe
_symmetry_space_group_name_H-M   'P 1'
_cell_length_a   3.94595679
_cell_length_b   3.94595679
_cell_length_c   5.91088208
_cell_angle_alpha   90.00000000
_cell_angle_beta   90.00000000
_cell_angle_gamma   90.00000000
_symmetry_Int_Tables_number   1
_chemical_formula_structural   MnGaGe
_chemical_formula_sum   'Mn2 Ga2 Ge2'
_cell_volume   92.03583268
_cell_formula_units_Z   2
loop_
 _symmetry_equiv_pos_site_id
 _symmetry_equiv_pos_as_xyz
  1  'x, y, z'
loop_
 _atom_site_type_symbol
 _atom_site_label
 _atom_site_symmetry_multiplicity
 _atom_site_fract_x
 _atom_site_fract_y
 _atom_site_fract_z
 _atom_site_occupancy
  Mn  Mn0  1  0.000000  0.000000  0.000000  1
  Mn  Mn1  1  0.500000  0.500000  0.000000  1
  Ga  Ga2  1  0.000000  0.500000  0.703773  1
  Ga  Ga3  1  0.500000  0.000000  0.296227  1
  Ge  Ge4  1  0.000000  0.500000  0.280947  1
  Ge  Ge5  1  0.500000  0.000000  0.719053  1
