# generated using pymatgen
data_Ca3Fe2(SiO4)3
_symmetry_space_group_name_H-M   'P 1'
_cell_length_a   10.55951925
_cell_length_b   10.55951925
_cell_length_c   10.55951925
_cell_angle_alpha   109.47122063
_cell_angle_beta   109.47122063
_cell_angle_gamma   109.47122063
_symmetry_Int_Tables_number   1
_chemical_formula_structural   Ca3Fe2(SiO4)3
_chemical_formula_sum   'Ca12 Fe8 Si12 O48'
_cell_volume   906.38048972
_cell_formula_units_Z   4
loop_
 _symmetry_equiv_pos_site_id
 _symmetry_equiv_pos_as_xyz
  1  'x, y, z'
loop_
 _atom_site_type_symbol
 _atom_site_label
 _atom_site_symmetry_multiplicity
 _atom_site_fract_x
 _atom_site_fract_y
 _atom_site_fract_z
 _atom_site_occupancy
  Ca  Ca0  1  0.375000  0.750000  0.125000  1
  Ca  Ca1  1  0.125000  0.250000  0.375000  1
  Ca  Ca2  1  0.375000  0.125000  0.250000  1
  Ca  Ca3  1  0.125000  0.375000  0.750000  1
  Ca  Ca4  1  0.875000  0.750000  0.625000  1
  Ca  Ca5  1  0.750000  0.125000  0.375000  1
  Ca  Ca6  1  0.750000  0.625000  0.875000  1
  Ca  Ca7  1  0.625000  0.250000  0.875000  1
  Ca  Ca8  1  0.250000  0.875000  0.625000  1
  Ca  Ca9  1  0.875000  0.625000  0.250000  1
  Ca  Ca10  1  0.625000  0.875000  0.750000  1
  Ca  Ca11  1  0.250000  0.375000  0.125000  1
  Fe  Fe12  1  0.000000  0.000000  0.000000  1
  Fe  Fe13  1  0.000000  0.500000  0.000000  1
  Fe  Fe14  1  0.000000  0.000000  0.500000  1
  Fe  Fe15  1  1.000000  0.500000  0.500000  1
  Fe  Fe16  1  0.500000  1.000000  0.500000  1
  Fe  Fe17  1  0.500000  0.500000  0.000000  1
  Fe  Fe18  1  0.500000  0.500000  0.500000  1
  Fe  Fe19  1  0.500000  0.000000  0.000000  1
  Si  Si20  1  0.250000  0.125000  0.875000  1
  Si  Si21  1  0.750000  0.875000  0.125000  1
  Si  Si22  1  0.375000  0.250000  0.625000  1
  Si  Si23  1  0.625000  0.375000  0.250000  1
  Si  Si24  1  0.125000  0.750000  0.875000  1
  Si  Si25  1  0.875000  0.125000  0.750000  1
  Si  Si26  1  0.750000  0.375000  0.625000  1
  Si  Si27  1  0.375000  0.625000  0.750000  1
  Si  Si28  1  0.125000  0.875000  0.250000  1
  Si  Si29  1  0.875000  0.250000  0.125000  1
  Si  Si30  1  0.625000  0.750000  0.375000  1
  Si  Si31  1  0.250000  0.625000  0.375000  1
  O  O32  1  0.295625  0.490626  0.383447  1
  O  O33  1  0.009374  0.304999  0.892821  1
  O  O34  1  0.116553  0.607179  0.912178  1
  O  O35  1  0.204375  0.587822  0.195001  1
  O  O36  1  0.204375  0.116553  0.009374  1
  O  O37  1  0.587822  0.195001  0.204375  1
  O  O38  1  0.607179  0.195001  0.490626  1
  O  O39  1  0.195001  0.204375  0.587822  1
  O  O40  1  0.892821  0.383447  0.587822  1
  O  O41  1  0.304999  0.912178  0.295625  1
  O  O42  1  0.912178  0.295625  0.304999  1
  O  O43  1  0.009374  0.204375  0.116553  1
  O  O44  1  0.195001  0.490626  0.607179  1
  O  O45  1  0.587822  0.892821  0.383447  1
  O  O46  1  0.116553  0.009374  0.204375  1
  O  O47  1  0.490626  0.607179  0.195001  1
  O  O48  1  0.383447  0.587822  0.892821  1
  O  O49  1  0.892821  0.009374  0.304999  1
  O  O50  1  0.607179  0.912178  0.116553  1
  O  O51  1  0.107179  0.616553  0.412178  1
  O  O52  1  0.912178  0.116553  0.607179  1
  O  O53  1  0.383447  0.295625  0.490626  1
  O  O54  1  0.304999  0.892821  0.009374  1
  O  O55  1  0.295625  0.304999  0.912178  1
  O  O56  1  0.704375  0.509374  0.616553  1
  O  O57  1  0.990626  0.695001  0.107179  1
  O  O58  1  0.883447  0.392821  0.087822  1
  O  O59  1  0.795625  0.412178  0.804999  1
  O  O60  1  0.795625  0.883447  0.990626  1
  O  O61  1  0.412178  0.804999  0.795625  1
  O  O62  1  0.392821  0.804999  0.509374  1
  O  O63  1  0.804999  0.795625  0.412178  1
  O  O64  1  0.704375  0.695001  0.087822  1
  O  O65  1  0.695001  0.107179  0.990626  1
  O  O66  1  0.616553  0.704375  0.509374  1
  O  O67  1  0.509374  0.616553  0.704375  1
  O  O68  1  0.087822  0.883447  0.392821  1
  O  O69  1  0.392821  0.087822  0.883447  1
  O  O70  1  0.107179  0.990626  0.695001  1
  O  O71  1  0.616553  0.412178  0.107179  1
  O  O72  1  0.509374  0.392821  0.804999  1
  O  O73  1  0.883447  0.990626  0.795625  1
  O  O74  1  0.412178  0.107179  0.616553  1
  O  O75  1  0.804999  0.509374  0.392821  1
  O  O76  1  0.990626  0.795625  0.883447  1
  O  O77  1  0.087822  0.704375  0.695001  1
  O  O78  1  0.695001  0.087822  0.704375  1
  O  O79  1  0.490626  0.383447  0.295625  1
