# generated using pymatgen
data_Nd2Te5
_symmetry_space_group_name_H-M   'P 1'
_cell_length_a   23.04172168
_cell_length_b   23.04172168
_cell_length_c   4.44038791
_cell_angle_alpha   90.00000000
_cell_angle_beta   90.00000000
_cell_angle_gamma   168.95091031
_symmetry_Int_Tables_number   1
_chemical_formula_structural   Nd2Te5
_chemical_formula_sum   'Nd4 Te10'
_cell_volume   451.81380743
_cell_formula_units_Z   2
loop_
 _symmetry_equiv_pos_site_id
 _symmetry_equiv_pos_as_xyz
  1  'x, y, z'
loop_
 _atom_site_type_symbol
 _atom_site_label
 _atom_site_symmetry_multiplicity
 _atom_site_fract_x
 _atom_site_fract_y
 _atom_site_fract_z
 _atom_site_occupancy
  Nd  Nd0  1  0.694038  0.305962  0.250000  1
  Nd  Nd1  1  0.305962  0.694038  0.750000  1
  Nd  Nd2  1  0.898470  0.101530  0.250000  1
  Nd  Nd3  1  0.101530  0.898470  0.750000  1
  Te  Te4  1  0.622871  0.377129  0.250000  1
  Te  Te5  1  0.377129  0.622871  0.750000  1
  Te  Te6  1  0.825484  0.174516  0.250000  1
  Te  Te7  1  0.174516  0.825484  0.750000  1
  Te  Te8  1  0.953627  0.046373  0.750000  1
  Te  Te9  1  0.046373  0.953627  0.250000  1
  Te  Te10  1  0.546382  0.453618  0.750000  1
  Te  Te11  1  0.453618  0.546382  0.250000  1
  Te  Te12  1  0.749983  0.250017  0.750000  1
  Te  Te13  1  0.250017  0.749983  0.250000  1
