# generated using pymatgen
data_ErAl4Ge2Au
_symmetry_space_group_name_H-M   'P 1'
_cell_length_a   10.56016579
_cell_length_b   10.56016579
_cell_length_c   10.56016579
_cell_angle_alpha   23.17318827
_cell_angle_beta   23.17318827
_cell_angle_gamma   23.17318827
_symmetry_Int_Tables_number   1
_chemical_formula_structural   ErAl4Ge2Au
_chemical_formula_sum   'Er1 Al4 Ge2 Au1'
_cell_volume   160.07939297
_cell_formula_units_Z   1
loop_
 _symmetry_equiv_pos_site_id
 _symmetry_equiv_pos_as_xyz
  1  'x, y, z'
loop_
 _atom_site_type_symbol
 _atom_site_label
 _atom_site_symmetry_multiplicity
 _atom_site_fract_x
 _atom_site_fract_y
 _atom_site_fract_z
 _atom_site_occupancy
  Er  Er0  1  0.500000  0.500000  0.500000  1
  Al  Al1  1  0.084497  0.084497  0.084497  1
  Al  Al2  1  0.306955  0.306955  0.306955  1
  Al  Al3  1  0.915503  0.915503  0.915503  1
  Al  Al4  1  0.693045  0.693045  0.693045  1
  Ge  Ge5  1  0.221029  0.221029  0.221029  1
  Ge  Ge6  1  0.778971  0.778971  0.778971  1
  Au  Au7  1  0.000000  0.000000  0.000000  1
