# generated using pymatgen
data_Mn2PO4F
_symmetry_space_group_name_H-M   'P 1'
_cell_length_a   7.56973975
_cell_length_b   7.56973975
_cell_length_c   10.24181252
_cell_angle_alpha   63.13125884
_cell_angle_beta   116.86874116
_cell_angle_gamma   128.29715041
_symmetry_Int_Tables_number   1
_chemical_formula_structural   Mn2PO4F
_chemical_formula_sum   'Mn8 P4 O16 F4'
_cell_volume   398.28284503
_cell_formula_units_Z   4
loop_
 _symmetry_equiv_pos_site_id
 _symmetry_equiv_pos_as_xyz
  1  'x, y, z'
loop_
 _atom_site_type_symbol
 _atom_site_label
 _atom_site_symmetry_multiplicity
 _atom_site_fract_x
 _atom_site_fract_y
 _atom_site_fract_z
 _atom_site_occupancy
  Mn  Mn0  1  0.323012  0.211159  0.495035  1
  Mn  Mn1  1  0.211159  0.323012  0.004965  1
  Mn  Mn2  1  0.676988  0.788841  0.504965  1
  Mn  Mn3  1  0.788841  0.676988  0.995035  1
  Mn  Mn4  1  0.739877  0.051234  0.148882  1
  Mn  Mn5  1  0.051234  0.739877  0.351118  1
  Mn  Mn6  1  0.260123  0.948766  0.851118  1
  Mn  Mn7  1  0.948766  0.260123  0.648882  1
  P  P8  1  0.581747  0.229755  0.306245  1
  P  P9  1  0.229755  0.581747  0.193755  1
  P  P10  1  0.418253  0.770245  0.693755  1
  P  P11  1  0.770245  0.418253  0.806245  1
  O  O12  1  0.387662  0.774596  0.082876  1
  O  O13  1  0.774596  0.387662  0.417124  1
  O  O14  1  0.612338  0.225404  0.917124  1
  O  O15  1  0.225404  0.612338  0.582876  1
  O  O16  1  0.355425  0.934430  0.687775  1
  O  O17  1  0.934430  0.355425  0.812225  1
  O  O18  1  0.644575  0.065570  0.312225  1
  O  O19  1  0.065570  0.644575  0.187775  1
  O  O20  1  0.451625  0.621493  0.857598  1
  O  O21  1  0.621493  0.451625  0.642402  1
  O  O22  1  0.548375  0.378507  0.142402  1
  O  O23  1  0.378507  0.548375  0.357598  1
  O  O24  1  0.649239  0.914037  0.645165  1
  O  O25  1  0.914037  0.649239  0.854835  1
  O  O26  1  0.350761  0.085963  0.354835  1
  O  O27  1  0.085963  0.350761  0.145165  1
  F  F28  1  0.110717  0.082608  0.891982  1
  F  F29  1  0.082608  0.110717  0.608018  1
  F  F30  1  0.889283  0.917392  0.108018  1
  F  F31  1  0.917392  0.889283  0.391982  1
