# generated using pymatgen
data_SrGe(PO4)2
_symmetry_space_group_name_H-M   'P 1'
_cell_length_a   8.65979537
_cell_length_b   8.65979537
_cell_length_c   8.02109718
_cell_angle_alpha   65.50910749
_cell_angle_beta   114.49089251
_cell_angle_gamma   145.52592110
_symmetry_Int_Tables_number   1
_chemical_formula_structural   SrGe(PO4)2
_chemical_formula_sum   'Sr2 Ge2 P4 O16'
_cell_volume   306.73540641
_cell_formula_units_Z   2
loop_
 _symmetry_equiv_pos_site_id
 _symmetry_equiv_pos_as_xyz
  1  'x, y, z'
loop_
 _atom_site_type_symbol
 _atom_site_label
 _atom_site_symmetry_multiplicity
 _atom_site_fract_x
 _atom_site_fract_y
 _atom_site_fract_z
 _atom_site_occupancy
  Sr  Sr0  1  0.802627  0.802627  0.750000  1
  Sr  Sr1  1  0.197373  0.197373  0.250000  1
  Ge  Ge2  1  0.500000  1.000000  0.500000  1
  Ge  Ge3  1  0.000000  0.500000  0.000000  1
  P  P4  1  0.889429  0.595691  0.259551  1
  P  P5  1  0.595691  0.889429  0.240449  1
  P  P6  1  0.110571  0.404309  0.740449  1
  P  P7  1  0.404309  0.110571  0.759551  1
  O  O8  1  0.138864  0.811988  0.398322  1
  O  O9  1  0.811988  0.138864  0.101678  1
  O  O10  1  0.861136  0.188012  0.601678  1
  O  O11  1  0.188012  0.861136  0.898322  1
  O  O12  1  0.631855  0.330250  0.365827  1
  O  O13  1  0.330250  0.631855  0.134173  1
  O  O14  1  0.368145  0.669750  0.634173  1
  O  O15  1  0.669750  0.368145  0.865827  1
  O  O16  1  0.960672  0.513028  0.201529  1
  O  O17  1  0.513028  0.960672  0.298471  1
  O  O18  1  0.039328  0.486972  0.798471  1
  O  O19  1  0.486972  0.039328  0.701529  1
  O  O20  1  0.824685  0.720350  0.106796  1
  O  O21  1  0.720350  0.824685  0.393204  1
  O  O22  1  0.175315  0.279650  0.893204  1
  O  O23  1  0.279650  0.175315  0.606796  1
