# generated using pymatgen
data_ZnHCO4
_symmetry_space_group_name_H-M   'P 1'
_cell_length_a   10.83597231
_cell_length_b   10.83597231
_cell_length_c   6.39790730
_cell_angle_alpha   90.00000000
_cell_angle_beta   90.00000000
_cell_angle_gamma   120.00000000
_symmetry_Int_Tables_number   1
_chemical_formula_structural   ZnHCO4
_chemical_formula_sum   'Zn6 H6 C6 O24'
_cell_volume   650.58545310
_cell_formula_units_Z   6
loop_
 _symmetry_equiv_pos_site_id
 _symmetry_equiv_pos_as_xyz
  1  'x, y, z'
loop_
 _atom_site_type_symbol
 _atom_site_label
 _atom_site_symmetry_multiplicity
 _atom_site_fract_x
 _atom_site_fract_y
 _atom_site_fract_z
 _atom_site_occupancy
  Zn  Zn0  1  0.000000  0.500000  0.500000  1
  Zn  Zn1  1  0.000000  0.500000  0.000000  1
  Zn  Zn2  1  0.500000  0.500000  0.500000  1
  Zn  Zn3  1  0.500000  0.500000  0.000000  1
  Zn  Zn4  1  0.500000  0.000000  0.500000  1
  Zn  Zn5  1  0.500000  0.000000  0.000000  1
  H  H6  1  0.185851  0.631934  0.750000  1
  H  H7  1  0.446083  0.814149  0.750000  1
  H  H8  1  0.368066  0.553917  0.750000  1
  H  H9  1  0.631934  0.446083  0.250000  1
  H  H10  1  0.553917  0.185851  0.250000  1
  H  H11  1  0.814149  0.368066  0.250000  1
  C  C12  1  0.203614  0.769468  0.250000  1
  C  C13  1  0.230532  0.434146  0.250000  1
  C  C14  1  0.565854  0.796386  0.250000  1
  C  C15  1  0.434146  0.203614  0.750000  1
  C  C16  1  0.769468  0.565854  0.750000  1
  C  C17  1  0.796386  0.230532  0.750000  1
  O  O18  1  0.145907  0.712885  0.425493  1
  O  O19  1  0.145907  0.712885  0.074507  1
  O  O20  1  0.323080  0.887256  0.250000  1
  O  O21  1  0.118286  0.528962  0.750000  1
  O  O22  1  0.112744  0.435824  0.250000  1
  O  O23  1  0.410676  0.881714  0.750000  1
  O  O24  1  0.287115  0.433022  0.425493  1
  O  O25  1  0.287115  0.433022  0.074507  1
  O  O26  1  0.566978  0.854093  0.074507  1
  O  O27  1  0.566978  0.854093  0.425493  1
  O  O28  1  0.471038  0.589324  0.750000  1
  O  O29  1  0.564176  0.676920  0.250000  1
  O  O30  1  0.435824  0.323080  0.750000  1
  O  O31  1  0.528962  0.410676  0.250000  1
  O  O32  1  0.433022  0.145907  0.574507  1
  O  O33  1  0.433022  0.145907  0.925493  1
  O  O34  1  0.712885  0.566978  0.925493  1
  O  O35  1  0.712885  0.566978  0.574507  1
  O  O36  1  0.589324  0.118286  0.250000  1
  O  O37  1  0.887256  0.564176  0.750000  1
  O  O38  1  0.881714  0.471038  0.250000  1
  O  O39  1  0.676920  0.112744  0.750000  1
  O  O40  1  0.854093  0.287115  0.925493  1
  O  O41  1  0.854093  0.287115  0.574507  1
