# generated using pymatgen
data_TmGa2
_symmetry_space_group_name_H-M   'P 1'
_cell_length_a   5.73869287
_cell_length_b   5.73869287
_cell_length_c   5.73869287
_cell_angle_alpha   136.56699012
_cell_angle_beta   106.45097213
_cell_angle_gamma   89.46293135
_symmetry_Int_Tables_number   1
_chemical_formula_structural   TmGa2
_chemical_formula_sum   'Tm2 Ga4'
_cell_volume   118.96359649
_cell_formula_units_Z   2
loop_
 _symmetry_equiv_pos_site_id
 _symmetry_equiv_pos_as_xyz
  1  'x, y, z'
loop_
 _atom_site_type_symbol
 _atom_site_label
 _atom_site_symmetry_multiplicity
 _atom_site_fract_x
 _atom_site_fract_y
 _atom_site_fract_z
 _atom_site_occupancy
  Tm  Tm0  1  0.306302  0.556302  0.250000  1
  Tm  Tm1  1  0.693698  0.443698  0.750000  1
  Ga  Ga2  1  0.711238  0.161092  0.050146  1
  Ga  Ga3  1  0.288762  0.838908  0.949854  1
  Ga  Ga4  1  0.889054  0.838908  0.550146  1
  Ga  Ga5  1  0.110946  0.161092  0.449854  1
