# generated using pymatgen
data_Dy2Co3Si5
_symmetry_space_group_name_H-M   'P 1'
_cell_length_a   7.83331660
_cell_length_b   7.83331660
_cell_length_c   5.48079678
_cell_angle_alpha   70.83233091
_cell_angle_beta   109.16766909
_cell_angle_gamma   86.62586728
_symmetry_Int_Tables_number   1
_chemical_formula_structural   Dy2Co3Si5
_chemical_formula_sum   'Dy4 Co6 Si10'
_cell_volume   294.77022201
_cell_formula_units_Z   2
loop_
 _symmetry_equiv_pos_site_id
 _symmetry_equiv_pos_as_xyz
  1  'x, y, z'
loop_
 _atom_site_type_symbol
 _atom_site_label
 _atom_site_symmetry_multiplicity
 _atom_site_fract_x
 _atom_site_fract_y
 _atom_site_fract_z
 _atom_site_occupancy
  Dy  Dy0  1  0.869247  0.402153  0.236254  1
  Dy  Dy1  1  0.402153  0.869247  0.263746  1
  Dy  Dy2  1  0.130753  0.597847  0.763746  1
  Dy  Dy3  1  0.597847  0.130753  0.736254  1
  Co  Co4  1  0.538511  0.737791  0.873988  1
  Co  Co5  1  0.996499  0.996499  0.750000  1
  Co  Co6  1  0.262209  0.461489  0.373988  1
  Co  Co7  1  0.461489  0.262209  0.126012  1
  Co  Co8  1  0.737791  0.538511  0.626012  1
  Co  Co9  1  0.003501  0.003501  0.250000  1
  Si  Si10  1  0.770313  0.770313  0.250000  1
  Si  Si11  1  0.229687  0.229687  0.750000  1
  Si  Si12  1  0.511100  0.511100  0.250000  1
  Si  Si13  1  0.488900  0.488900  0.750000  1
  Si  Si14  1  0.214775  0.214775  0.250000  1
  Si  Si15  1  0.785225  0.785225  0.750000  1
  Si  Si16  1  0.063034  0.737736  0.164644  1
  Si  Si17  1  0.262264  0.936966  0.664644  1
  Si  Si18  1  0.936966  0.262264  0.835356  1
  Si  Si19  1  0.737736  0.063034  0.335356  1
