# generated using pymatgen
data_NbPt3
_symmetry_space_group_name_H-M   'P 1'
_cell_length_a   4.93748219
_cell_length_b   5.62018923
_cell_length_c   9.41488356
_cell_angle_alpha   90.00000000
_cell_angle_beta   100.58624353
_cell_angle_gamma   90.00000000
_symmetry_Int_Tables_number   1
_chemical_formula_structural   NbPt3
_chemical_formula_sum   'Nb4 Pt12'
_cell_volume   256.81234033
_cell_formula_units_Z   4
loop_
 _symmetry_equiv_pos_site_id
 _symmetry_equiv_pos_as_xyz
  1  'x, y, z'
loop_
 _atom_site_type_symbol
 _atom_site_label
 _atom_site_symmetry_multiplicity
 _atom_site_fract_x
 _atom_site_fract_y
 _atom_site_fract_z
 _atom_site_occupancy
  Nb  Nb0  1  0.379265  0.750000  0.622260  1
  Nb  Nb1  1  0.620735  0.250000  0.377740  1
  Nb  Nb2  1  0.213200  0.750000  0.127423  1
  Nb  Nb3  1  0.786800  0.250000  0.872577  1
  Pt  Pt4  1  0.792152  0.750000  0.871839  1
  Pt  Pt5  1  0.207848  0.250000  0.128161  1
  Pt  Pt6  1  0.609050  0.750000  0.375629  1
  Pt  Pt7  1  0.390950  0.250000  0.624371  1
  Pt  Pt8  1  0.880443  0.999067  0.625907  1
  Pt  Pt9  1  0.119557  0.499067  0.374093  1
  Pt  Pt10  1  0.119557  0.000933  0.374093  1
  Pt  Pt11  1  0.880443  0.500933  0.625907  1
  Pt  Pt12  1  0.291485  0.998552  0.877197  1
  Pt  Pt13  1  0.708515  0.498552  0.122803  1
  Pt  Pt14  1  0.708515  0.001448  0.122803  1
  Pt  Pt15  1  0.291485  0.501448  0.877197  1
