# generated using pymatgen
data_LaCd(BO2)5
_symmetry_space_group_name_H-M   'P 1'
_cell_length_a   8.88334383
_cell_length_b   7.98793560
_cell_length_c   13.04211252
_cell_angle_alpha   90.00000000
_cell_angle_beta   131.90797905
_cell_angle_gamma   90.00000000
_symmetry_Int_Tables_number   1
_chemical_formula_structural   LaCd(BO2)5
_chemical_formula_sum   'La4 Cd4 B20 O40'
_cell_volume   688.74657513
_cell_formula_units_Z   4
loop_
 _symmetry_equiv_pos_site_id
 _symmetry_equiv_pos_as_xyz
  1  'x, y, z'
loop_
 _atom_site_type_symbol
 _atom_site_label
 _atom_site_symmetry_multiplicity
 _atom_site_fract_x
 _atom_site_fract_y
 _atom_site_fract_z
 _atom_site_occupancy
  La  La0  1  0.957866  0.177360  0.764992  1
  La  La1  1  0.042134  0.677360  0.735008  1
  La  La2  1  0.042134  0.822640  0.235008  1
  La  La3  1  0.957866  0.322640  0.264992  1
  Cd  Cd4  1  0.485417  0.408974  0.875952  1
  Cd  Cd5  1  0.514583  0.908974  0.624048  1
  Cd  Cd6  1  0.514583  0.591026  0.124048  1
  Cd  Cd7  1  0.485417  0.091026  0.375952  1
  B  B8  1  0.661171  0.578415  0.745196  1
  B  B9  1  0.525344  0.173856  0.092747  1
  B  B10  1  0.474656  0.673856  0.407253  1
  B  B11  1  0.474656  0.826144  0.907253  1
  B  B12  1  0.525344  0.326144  0.592747  1
  B  B13  1  0.854078  0.895223  0.502711  1
  B  B14  1  0.145922  0.395223  0.997289  1
  B  B15  1  0.145922  0.104777  0.497289  1
  B  B16  1  0.854078  0.604777  0.002711  1
  B  B17  1  0.338829  0.078415  0.754804  1
  B  B18  1  0.338829  0.421585  0.254804  1
  B  B19  1  0.661171  0.921585  0.245196  1
  B  B20  1  0.084213  0.326821  0.599623  1
  B  B21  1  0.915787  0.826821  0.900377  1
  B  B22  1  0.915787  0.673179  0.400377  1
  B  B23  1  0.084213  0.173179  0.099623  1
  B  B24  1  0.275470  0.529604  0.557523  1
  B  B25  1  0.724530  0.029604  0.942477  1
  B  B26  1  0.724530  0.470396  0.442477  1
  B  B27  1  0.275470  0.970396  0.057523  1
  O  O28  1  0.196217  0.212919  0.724603  1
  O  O29  1  0.420532  0.671140  0.921629  1
  O  O30  1  0.579468  0.171140  0.578371  1
  O  O31  1  0.579468  0.328860  0.078371  1
  O  O32  1  0.420532  0.828860  0.421629  1
  O  O33  1  0.123156  0.444492  0.887550  1
  O  O34  1  0.876844  0.944492  0.612450  1
  O  O35  1  0.876844  0.555508  0.112450  1
  O  O36  1  0.803783  0.712919  0.775397  1
  O  O37  1  0.123156  0.055508  0.387550  1
  O  O38  1  0.196217  0.287081  0.224603  1
  O  O39  1  0.803783  0.787081  0.275397  1
  O  O40  1  0.707941  0.534775  0.874740  1
  O  O41  1  0.292059  0.034775  0.625260  1
  O  O42  1  0.292059  0.465225  0.125260  1
  O  O43  1  0.707941  0.965225  0.374740  1
  O  O44  1  0.687588  0.424777  0.695691  1
  O  O45  1  0.312412  0.924777  0.804309  1
  O  O46  1  0.312412  0.575223  0.304309  1
  O  O47  1  0.687588  0.075223  0.195691  1
  O  O48  1  0.451684  0.640296  0.642937  1
  O  O49  1  0.548316  0.140296  0.857063  1
  O  O50  1  0.548316  0.359704  0.357063  1
  O  O51  1  0.451684  0.859704  0.142937  1
  O  O52  1  0.223155  0.468059  0.638755  1
  O  O53  1  0.776845  0.968059  0.861245  1
  O  O54  1  0.776845  0.531941  0.361245  1
  O  O55  1  0.223155  0.031941  0.138755  1
  O  O56  1  0.905170  0.390585  0.575826  1
  O  O57  1  0.094830  0.890585  0.924174  1
  O  O58  1  0.094830  0.609415  0.424174  1
  O  O59  1  0.328714  0.119563  0.014329  1
  O  O60  1  0.023833  0.232207  0.480058  1
  O  O61  1  0.976167  0.732207  0.019942  1
  O  O62  1  0.976167  0.767793  0.519942  1
  O  O63  1  0.023833  0.267793  0.980058  1
  O  O64  1  0.328714  0.380437  0.514329  1
  O  O65  1  0.671286  0.880437  0.985671  1
  O  O66  1  0.671286  0.619563  0.485671  1
  O  O67  1  0.905170  0.109415  0.075826  1
