# generated using pymatgen
data_BaAs3
_symmetry_space_group_name_H-M   'P 1'
_cell_length_a   6.49654408
_cell_length_b   6.49654408
_cell_length_c   6.13350561
_cell_angle_alpha   71.59212721
_cell_angle_beta   108.40787279
_cell_angle_gamma   105.17048226
_symmetry_Int_Tables_number   1
_chemical_formula_structural   BaAs3
_chemical_formula_sum   'Ba2 As6'
_cell_volume   229.24901993
_cell_formula_units_Z   2
loop_
 _symmetry_equiv_pos_site_id
 _symmetry_equiv_pos_as_xyz
  1  'x, y, z'
loop_
 _atom_site_type_symbol
 _atom_site_label
 _atom_site_symmetry_multiplicity
 _atom_site_fract_x
 _atom_site_fract_y
 _atom_site_fract_z
 _atom_site_occupancy
  Ba  Ba0  1  0.835023  0.164977  0.663683  1
  Ba  Ba1  1  0.164977  0.835023  0.336317  1
  As  As2  1  0.373623  0.095874  0.816690  1
  As  As3  1  0.095874  0.373623  0.183310  1
  As  As4  1  0.504268  0.495732  0.795891  1
  As  As5  1  0.495732  0.504268  0.204109  1
  As  As6  1  0.904126  0.626377  0.816690  1
  As  As7  1  0.626377  0.904126  0.183310  1
