# generated using pymatgen
data_BaNi2(PO4)2
_symmetry_space_group_name_H-M   'P 1'
_cell_length_a   8.40549237
_cell_length_b   8.40549237
_cell_length_c   8.40549237
_cell_angle_alpha   33.55465129
_cell_angle_beta   33.55465129
_cell_angle_gamma   33.55465129
_symmetry_Int_Tables_number   1
_chemical_formula_structural   BaNi2(PO4)2
_chemical_formula_sum   'Ba1 Ni2 P2 O8'
_cell_volume   161.60691199
_cell_formula_units_Z   1
loop_
 _symmetry_equiv_pos_site_id
 _symmetry_equiv_pos_as_xyz
  1  'x, y, z'
loop_
 _atom_site_type_symbol
 _atom_site_label
 _atom_site_symmetry_multiplicity
 _atom_site_fract_x
 _atom_site_fract_y
 _atom_site_fract_z
 _atom_site_occupancy
  Ba  Ba0  1  0.000000  0.000000  0.000000  1
  Ni  Ni1  1  0.831172  0.831172  0.831172  1
  Ni  Ni2  1  0.168828  0.168828  0.168828  1
  P  P3  1  0.427613  0.427613  0.427613  1
  P  P4  1  0.572387  0.572387  0.572387  1
  O  O5  1  0.853638  0.560012  0.240167  1
  O  O6  1  0.560012  0.240167  0.853638  1
  O  O7  1  0.240167  0.853638  0.560012  1
  O  O8  1  0.146362  0.439988  0.759833  1
  O  O9  1  0.439988  0.759833  0.146362  1
  O  O10  1  0.363294  0.363294  0.363294  1
  O  O11  1  0.636706  0.636706  0.636706  1
  O  O12  1  0.759833  0.146362  0.439988  1
