# generated using pymatgen
data_Nb2Zn3O8
_symmetry_space_group_name_H-M   'P 1'
_cell_length_a   10.13770883
_cell_length_b   10.13770883
_cell_length_c   5.27124549
_cell_angle_alpha   89.86452755
_cell_angle_beta   90.13547245
_cell_angle_gamma   145.69065414
_symmetry_Int_Tables_number   1
_chemical_formula_structural   Nb2Zn3O8
_chemical_formula_sum   'Nb4 Zn6 O16'
_cell_volume   305.35804428
_cell_formula_units_Z   2
loop_
 _symmetry_equiv_pos_site_id
 _symmetry_equiv_pos_as_xyz
  1  'x, y, z'
loop_
 _atom_site_type_symbol
 _atom_site_label
 _atom_site_symmetry_multiplicity
 _atom_site_fract_x
 _atom_site_fract_y
 _atom_site_fract_z
 _atom_site_occupancy
  Nb  Nb0  1  0.721956  0.951108  0.736905  1
  Nb  Nb1  1  0.951108  0.721956  0.763095  1
  Nb  Nb2  1  0.278044  0.048892  0.263095  1
  Nb  Nb3  1  0.048892  0.278044  0.236905  1
  Zn  Zn4  1  0.346630  0.346630  0.750000  1
  Zn  Zn5  1  0.653370  0.653370  0.250000  1
  Zn  Zn6  1  0.566323  0.124828  0.761595  1
  Zn  Zn7  1  0.124828  0.566323  0.738405  1
  Zn  Zn8  1  0.875172  0.433677  0.261595  1
  Zn  Zn9  1  0.433677  0.875172  0.238405  1
  O  O10  1  0.316737  0.432907  0.085730  1
  O  O11  1  0.432907  0.316737  0.414270  1
  O  O12  1  0.683263  0.567093  0.914270  1
  O  O13  1  0.567093  0.683263  0.585730  1
  O  O14  1  0.954551  0.815209  0.424534  1
  O  O15  1  0.815209  0.954551  0.075466  1
  O  O16  1  0.045449  0.184791  0.575466  1
  O  O17  1  0.184791  0.045449  0.924534  1
  O  O18  1  0.162373  0.548143  0.368482  1
  O  O19  1  0.548143  0.162373  0.131518  1
  O  O20  1  0.282740  0.922910  0.557226  1
  O  O21  1  0.922910  0.282740  0.942774  1
  O  O22  1  0.717260  0.077090  0.442774  1
  O  O23  1  0.077090  0.717260  0.057226  1
  O  O24  1  0.451857  0.837627  0.868482  1
  O  O25  1  0.837627  0.451857  0.631518  1
