# generated using pymatgen
data_Ba3PrRu2O9
_symmetry_space_group_name_H-M   'P 1'
_cell_length_a   6.01601392
_cell_length_b   6.01601392
_cell_length_c   15.02181368
_cell_angle_alpha   90.00000000
_cell_angle_beta   90.00000000
_cell_angle_gamma   120.00000000
_symmetry_Int_Tables_number   1
_chemical_formula_structural   Ba3PrRu2O9
_chemical_formula_sum   'Ba6 Pr2 Ru4 O18'
_cell_volume   470.83709118
_cell_formula_units_Z   2
loop_
 _symmetry_equiv_pos_site_id
 _symmetry_equiv_pos_as_xyz
  1  'x, y, z'
loop_
 _atom_site_type_symbol
 _atom_site_label
 _atom_site_symmetry_multiplicity
 _atom_site_fract_x
 _atom_site_fract_y
 _atom_site_fract_z
 _atom_site_occupancy
  Ba  Ba0  1  0.333333  0.666667  0.605532  1
  Ba  Ba1  1  0.000000  0.000000  0.250000  1
  Ba  Ba2  1  0.666667  0.333333  0.394468  1
  Ba  Ba3  1  0.666667  0.333333  0.105532  1
  Ba  Ba4  1  0.333333  0.666667  0.894468  1
  Ba  Ba5  1  0.000000  0.000000  0.750000  1
  Pr  Pr6  1  0.000000  0.000000  0.500000  1
  Pr  Pr7  1  0.000000  0.000000  0.000000  1
  Ru  Ru8  1  0.333333  0.666667  0.333093  1
  Ru  Ru9  1  0.666667  0.333333  0.833093  1
  Ru  Ru10  1  0.666667  0.333333  0.666907  1
  Ru  Ru11  1  0.333333  0.666667  0.166907  1
  O  O12  1  0.178303  0.821697  0.093968  1
  O  O13  1  0.178303  0.356606  0.093968  1
  O  O14  1  0.643394  0.821697  0.093968  1
  O  O15  1  0.356606  0.178303  0.593968  1
  O  O16  1  0.821697  0.643394  0.906032  1
  O  O17  1  0.821697  0.178303  0.593968  1
  O  O18  1  0.821697  0.643394  0.593968  1
  O  O19  1  0.178303  0.821697  0.406032  1
  O  O20  1  0.643394  0.821697  0.406032  1
  O  O21  1  0.356606  0.178303  0.906032  1
  O  O22  1  0.821697  0.178303  0.906032  1
  O  O23  1  0.178303  0.356606  0.406032  1
  O  O24  1  0.491225  0.982450  0.250000  1
  O  O25  1  0.508775  0.491225  0.750000  1
  O  O26  1  0.982450  0.491225  0.750000  1
  O  O27  1  0.017550  0.508775  0.250000  1
  O  O28  1  0.491225  0.508775  0.250000  1
  O  O29  1  0.508775  0.017550  0.750000  1
