# generated using pymatgen
data_TlGaSe2
_symmetry_space_group_name_H-M   'P 1'
_cell_length_a   7.79138476
_cell_length_b   7.79138476
_cell_length_c   16.05960237
_cell_angle_alpha   83.28614058
_cell_angle_beta   96.71385942
_cell_angle_gamma   90.19118001
_symmetry_Int_Tables_number   1
_chemical_formula_structural   TlGaSe2
_chemical_formula_sum   'Tl8 Ga8 Se16'
_cell_volume   961.53104468
_cell_formula_units_Z   8
loop_
 _symmetry_equiv_pos_site_id
 _symmetry_equiv_pos_as_xyz
  1  'x, y, z'
loop_
 _atom_site_type_symbol
 _atom_site_label
 _atom_site_symmetry_multiplicity
 _atom_site_fract_x
 _atom_site_fract_y
 _atom_site_fract_z
 _atom_site_occupancy
  Tl  Tl0  1  0.827145  0.342670  0.116871  1
  Tl  Tl1  1  0.342670  0.827145  0.383129  1
  Tl  Tl2  1  0.172855  0.657330  0.883129  1
  Tl  Tl3  1  0.657330  0.172855  0.616871  1
  Tl  Tl4  1  0.844850  0.716937  0.396700  1
  Tl  Tl5  1  0.716937  0.844850  0.103300  1
  Tl  Tl6  1  0.155150  0.283063  0.603300  1
  Tl  Tl7  1  0.283063  0.155150  0.896700  1
  Ga  Ga8  1  0.086571  0.288369  0.335097  1
  Ga  Ga9  1  0.291251  0.580750  0.163972  1
  Ga  Ga10  1  0.580750  0.291251  0.336028  1
  Ga  Ga11  1  0.708749  0.419250  0.836028  1
  Ga  Ga12  1  0.419250  0.708749  0.663972  1
  Ga  Ga13  1  0.288369  0.086571  0.164903  1
  Ga  Ga14  1  0.913429  0.711631  0.664903  1
  Ga  Ga15  1  0.711631  0.913429  0.835097  1
  Se  Se16  1  0.429605  0.947554  0.749749  1
  Se  Se17  1  0.947554  0.429605  0.750251  1
  Se  Se18  1  0.570395  0.052446  0.250251  1
  Se  Se19  1  0.249433  0.355672  0.069361  1
  Se  Se20  1  0.052446  0.570395  0.249749  1
  Se  Se21  1  0.644328  0.750567  0.569361  1
  Se  Se22  1  0.750567  0.644328  0.930639  1
  Se  Se23  1  0.355672  0.249433  0.430639  1
  Se  Se24  1  0.953360  0.953360  0.750000  1
  Se  Se25  1  0.046640  0.046640  0.250000  1
  Se  Se26  1  0.429760  0.429760  0.750000  1
  Se  Se27  1  0.570240  0.570240  0.250000  1
  Se  Se28  1  0.714780  0.143401  0.928277  1
  Se  Se29  1  0.143401  0.714780  0.571723  1
  Se  Se30  1  0.285220  0.856599  0.071723  1
  Se  Se31  1  0.856599  0.285220  0.428277  1
