# generated using pymatgen
data_Ba8Al10B12O41
_symmetry_space_group_name_H-M   'P 1'
_cell_length_a   9.35363497
_cell_length_b   9.93258360
_cell_length_c   11.23431440
_cell_angle_alpha   76.25697923
_cell_angle_beta   73.72265235
_cell_angle_gamma   77.99798843
_symmetry_Int_Tables_number   1
_chemical_formula_structural   Ba8Al10B12O41
_chemical_formula_sum   'Ba8 Al10 B12 O41'
_cell_volume   961.96374273
_cell_formula_units_Z   1
loop_
 _symmetry_equiv_pos_site_id
 _symmetry_equiv_pos_as_xyz
  1  'x, y, z'
loop_
 _atom_site_type_symbol
 _atom_site_label
 _atom_site_symmetry_multiplicity
 _atom_site_fract_x
 _atom_site_fract_y
 _atom_site_fract_z
 _atom_site_occupancy
  Ba  Ba0  1  0.777621  0.948024  0.855277  1
  Ba  Ba1  1  0.222379  0.051976  0.144723  1
  Ba  Ba2  1  0.804261  0.424790  0.848997  1
  Ba  Ba3  1  0.195739  0.575210  0.151003  1
  Ba  Ba4  1  0.790453  0.571646  0.446051  1
  Ba  Ba5  1  0.209547  0.428354  0.553949  1
  Ba  Ba6  1  0.210670  0.943898  0.557502  1
  Ba  Ba7  1  0.789330  0.056102  0.442498  1
  Al  Al8  1  0.583344  0.289398  0.704529  1
  Al  Al9  1  0.416656  0.710602  0.295471  1
  Al  Al10  1  0.452029  0.339637  0.992904  1
  Al  Al11  1  0.547971  0.660363  0.007096  1
  Al  Al12  1  0.103044  0.135016  0.813746  1
  Al  Al13  1  0.896956  0.864984  0.186254  1
  Al  Al14  1  0.131018  0.637580  0.795338  1
  Al  Al15  1  0.868982  0.362420  0.204662  1
  Al  Al16  1  0.579662  0.792411  0.707059  1
  Al  Al17  1  0.420338  0.207589  0.292941  1
  B  B18  1  0.903007  0.215791  0.646172  1
  B  B19  1  0.096993  0.784209  0.353828  1
  B  B20  1  0.431338  0.075077  0.666666  1
  B  B21  1  0.568662  0.924923  0.333334  1
  B  B22  1  0.439474  0.576465  0.663051  1
  B  B23  1  0.560526  0.423535  0.336949  1
  B  B24  1  0.180594  0.349959  0.908623  1
  B  B25  1  0.819406  0.650041  0.091377  1
  B  B26  1  0.118527  0.842533  0.939767  1
  B  B27  1  0.881473  0.157467  0.060233  1
  B  B28  1  0.900589  0.715876  0.656737  1
  B  B29  1  0.099411  0.284124  0.343263  1
  O  O30  1  0.922291  0.085628  0.620777  1
  O  O31  1  0.077709  0.914372  0.379223  1
  O  O32  1  0.774629  0.315376  0.630060  1
  O  O33  1  0.225371  0.684624  0.369940  1
  O  O34  1  0.003870  0.252979  0.699844  1
  O  O35  1  0.996130  0.747021  0.300156  1
  O  O36  1  0.465125  0.939304  0.642199  1
  O  O37  1  0.534875  0.060696  0.357801  1
  O  O38  1  0.286053  0.143634  0.680469  1
  O  O39  1  0.713947  0.856366  0.319531  1
  O  O40  1  0.552402  0.137041  0.665970  1
  O  O41  1  0.447598  0.862959  0.334030  1
  O  O42  1  0.463255  0.438945  0.647631  1
  O  O43  1  0.536745  0.561055  0.352369  1
  O  O44  1  0.295607  0.652173  0.670171  1
  O  O45  1  0.704393  0.347827  0.329829  1
  O  O46  1  0.558628  0.637532  0.663962  1
  O  O47  1  0.441372  0.362468  0.336038  1
  O  O48  1  0.174597  0.211983  0.911579  1
  O  O49  1  0.825403  0.788017  0.088421  1
  O  O50  1  0.104611  0.458381  0.833432  1
  O  O51  1  0.895389  0.541619  0.166568  1
  O  O52  1  0.259914  0.382735  0.981292  1
  O  O53  1  0.740086  0.617265  0.018708  1
  O  O54  1  0.139392  0.703906  0.923626  1
  O  O55  1  0.860608  0.296094  0.076374  1
  O  O56  1  0.096697  0.864154  0.060872  1
  O  O57  1  0.903303  0.135846  0.939128  1
  O  O58  1  0.119284  0.947508  0.833757  1
  O  O59  1  0.880716  0.052492  0.166243  1
  O  O60  1  0.983864  0.748708  0.730327  1
  O  O61  1  0.016136  0.251292  0.269673  1
  O  O62  1  0.936349  0.592979  0.616252  1
  O  O63  1  0.063651  0.407021  0.383748  1
  O  O64  1  0.773446  0.814221  0.636214  1
  O  O65  1  0.226554  0.185779  0.363786  1
  O  O66  1  0.573722  0.268740  0.864993  1
  O  O67  1  0.426278  0.731260  0.135007  1
  O  O68  1  0.439884  0.215329  0.133640  1
  O  O69  1  0.560116  0.784671  0.866360  1
  O  O70  1  0.500000  0.500000  0.000000  1
