# generated using pymatgen
data_AlF3
_symmetry_space_group_name_H-M   'P 1'
_cell_length_a   10.32658372
_cell_length_b   10.32658372
_cell_length_c   7.27578749
_cell_angle_alpha   90.00000000
_cell_angle_beta   90.00000000
_cell_angle_gamma   90.00000000
_symmetry_Int_Tables_number   1
_chemical_formula_structural   AlF3
_chemical_formula_sum   'Al16 F48'
_cell_volume   775.87783702
_cell_formula_units_Z   16
loop_
 _symmetry_equiv_pos_site_id
 _symmetry_equiv_pos_as_xyz
  1  'x, y, z'
loop_
 _atom_site_type_symbol
 _atom_site_label
 _atom_site_symmetry_multiplicity
 _atom_site_fract_x
 _atom_site_fract_y
 _atom_site_fract_z
 _atom_site_occupancy
  Al  Al0  1  0.500000  0.336444  0.671597  1
  Al  Al1  1  0.500000  0.663556  0.671597  1
  Al  Al2  1  0.163556  0.000000  0.671597  1
  Al  Al3  1  0.836444  0.000000  0.671597  1
  Al  Al4  1  0.336444  0.500000  0.328403  1
  Al  Al5  1  0.000000  0.163556  0.328403  1
  Al  Al6  1  0.000000  0.836444  0.328403  1
  Al  Al7  1  0.663556  0.500000  0.328403  1
  Al  Al8  1  0.500000  0.000000  0.587734  1
  Al  Al9  1  0.000000  0.500000  0.412266  1
  Al  Al10  1  0.500000  0.000000  0.090699  1
  Al  Al11  1  0.000000  0.500000  0.909301  1
  Al  Al12  1  0.250000  0.750000  0.000000  1
  Al  Al13  1  0.250000  0.250000  0.000000  1
  Al  Al14  1  0.750000  0.750000  0.000000  1
  Al  Al15  1  0.750000  0.250000  0.000000  1
  F  F16  1  0.500000  0.500000  0.755063  1
  F  F17  1  0.000000  0.000000  0.755063  1
  F  F18  1  0.000000  0.000000  0.244937  1
  F  F19  1  0.500000  0.500000  0.244937  1
  F  F20  1  0.123432  0.876568  0.500000  1
  F  F21  1  0.376568  0.376568  0.500000  1
  F  F22  1  0.623432  0.623432  0.500000  1
  F  F23  1  0.876568  0.123432  0.500000  1
  F  F24  1  0.376568  0.623432  0.500000  1
  F  F25  1  0.123432  0.123432  0.500000  1
  F  F26  1  0.876568  0.876568  0.500000  1
  F  F27  1  0.623432  0.376568  0.500000  1
  F  F28  1  0.500000  0.173594  0.589195  1
  F  F29  1  0.500000  0.826406  0.589195  1
  F  F30  1  0.326406  0.000000  0.589195  1
  F  F31  1  0.173594  0.500000  0.410805  1
  F  F32  1  0.673594  0.000000  0.589195  1
  F  F33  1  0.871251  0.628749  0.909254  1
  F  F34  1  0.128749  0.371251  0.909254  1
  F  F35  1  0.128749  0.628749  0.909254  1
  F  F36  1  0.628749  0.871251  0.090746  1
  F  F37  1  0.371251  0.128749  0.090746  1
  F  F38  1  0.371251  0.871251  0.090746  1
  F  F39  1  0.628749  0.128749  0.090746  1
  F  F40  1  0.698063  0.372211  0.162987  1
  F  F41  1  0.872211  0.801937  0.162987  1
  F  F42  1  0.127789  0.198063  0.162987  1
  F  F43  1  0.301937  0.627789  0.162987  1
  F  F44  1  0.801937  0.872211  0.837013  1
  F  F45  1  0.198063  0.127789  0.837013  1
  F  F46  1  0.372211  0.698063  0.837013  1
  F  F47  1  0.627789  0.301937  0.837013  1
  F  F48  1  0.801937  0.127789  0.837013  1
  F  F49  1  0.627789  0.698063  0.837013  1
  F  F50  1  0.372211  0.301937  0.837013  1
  F  F51  1  0.198063  0.872211  0.837013  1
  F  F52  1  0.698063  0.627789  0.162987  1
  F  F53  1  0.301937  0.372211  0.162987  1
  F  F54  1  0.127789  0.801937  0.162987  1
  F  F55  1  0.872211  0.198063  0.162987  1
  F  F56  1  0.000000  0.500000  0.158613  1
  F  F57  1  0.500000  0.000000  0.841387  1
  F  F58  1  0.000000  0.500000  0.662110  1
  F  F59  1  0.500000  0.000000  0.337890  1
  F  F60  1  0.826406  0.500000  0.410805  1
  F  F61  1  0.000000  0.673594  0.410805  1
  F  F62  1  0.000000  0.326406  0.410805  1
  F  F63  1  0.871251  0.371251  0.909254  1
