# generated using pymatgen
data_KNa2Zn3(PO4)3
_symmetry_space_group_name_H-M   'P 1'
_cell_length_a   17.90930319
_cell_length_b   17.90930319
_cell_length_c   8.29936301
_cell_angle_alpha   90.00000000
_cell_angle_beta   90.00000000
_cell_angle_gamma   120.00000000
_symmetry_Int_Tables_number   1
_chemical_formula_structural   KNa2Zn3(PO4)3
_chemical_formula_sum   'K8 Na16 Zn24 P24 O96'
_cell_volume   2305.32823848
_cell_formula_units_Z   8
loop_
 _symmetry_equiv_pos_site_id
 _symmetry_equiv_pos_as_xyz
  1  'x, y, z'
loop_
 _atom_site_type_symbol
 _atom_site_label
 _atom_site_symmetry_multiplicity
 _atom_site_fract_x
 _atom_site_fract_y
 _atom_site_fract_z
 _atom_site_occupancy
  K  K0  1  0.000000  0.000000  0.343611  1
  K  K1  1  0.000000  0.000000  0.843611  1
  K  K2  1  0.999183  0.501930  0.328450  1
  K  K3  1  0.497253  0.999183  0.828450  1
  K  K4  1  0.501930  0.502747  0.828450  1
  K  K5  1  0.498070  0.497253  0.328450  1
  K  K6  1  0.502747  0.000817  0.328450  1
  K  K7  1  0.000817  0.498070  0.828450  1
  Na  Na8  1  0.322149  0.152831  0.810201  1
  Na  Na9  1  0.169318  0.322149  0.310201  1
  Na  Na10  1  0.152831  0.830682  0.310201  1
  Na  Na11  1  0.847169  0.169318  0.810201  1
  Na  Na12  1  0.830682  0.677851  0.810201  1
  Na  Na13  1  0.677851  0.847169  0.310201  1
  Na  Na14  1  0.157637  0.338508  0.860654  1
  Na  Na15  1  0.819129  0.157637  0.360654  1
  Na  Na16  1  0.338508  0.180871  0.360654  1
  Na  Na17  1  0.661492  0.819129  0.860654  1
  Na  Na18  1  0.180871  0.842363  0.860654  1
  Na  Na19  1  0.842363  0.661492  0.360654  1
  Na  Na20  1  0.333333  0.666667  0.365145  1
  Na  Na21  1  0.666667  0.333333  0.865145  1
  Na  Na22  1  0.333333  0.666667  0.805111  1
  Na  Na23  1  0.666667  0.333333  0.305111  1
  Zn  Zn24  1  0.161919  0.172519  0.006886  1
  Zn  Zn25  1  0.989399  0.161919  0.506886  1
  Zn  Zn26  1  0.172519  0.010601  0.506886  1
  Zn  Zn27  1  0.827481  0.989399  0.006886  1
  Zn  Zn28  1  0.010601  0.838081  0.006886  1
  Zn  Zn29  1  0.838081  0.827481  0.506886  1
  Zn  Zn30  1  0.004240  0.335801  0.168143  1
  Zn  Zn31  1  0.668438  0.004240  0.668143  1
  Zn  Zn32  1  0.335801  0.331562  0.668143  1
  Zn  Zn33  1  0.664199  0.668438  0.168143  1
  Zn  Zn34  1  0.331562  0.995760  0.168143  1
  Zn  Zn35  1  0.995760  0.664199  0.668143  1
  Zn  Zn36  1  0.508486  0.339275  0.159908  1
  Zn  Zn37  1  0.169211  0.508486  0.659908  1
  Zn  Zn38  1  0.339275  0.830789  0.659908  1
  Zn  Zn39  1  0.660725  0.169211  0.159908  1
  Zn  Zn40  1  0.830789  0.491514  0.159908  1
  Zn  Zn41  1  0.491514  0.660725  0.659908  1
  Zn  Zn42  1  0.329400  0.495502  0.160535  1
  Zn  Zn43  1  0.833897  0.329400  0.660535  1
  Zn  Zn44  1  0.495502  0.166103  0.660535  1
  Zn  Zn45  1  0.504498  0.833897  0.160535  1
  Zn  Zn46  1  0.166103  0.670600  0.160535  1
  Zn  Zn47  1  0.670600  0.504498  0.660535  1
  P  P48  1  0.159632  0.173786  0.612634  1
  P  P49  1  0.985846  0.159632  0.112634  1
  P  P50  1  0.173786  0.014154  0.112634  1
  P  P51  1  0.826214  0.985846  0.612634  1
  P  P52  1  0.014154  0.840368  0.612634  1
  P  P53  1  0.840368  0.826214  0.112634  1
  P  P54  1  0.009636  0.338469  0.559471  1
  P  P55  1  0.671168  0.009636  0.059471  1
  P  P56  1  0.338469  0.328832  0.059471  1
  P  P57  1  0.661531  0.671168  0.559471  1
  P  P58  1  0.328832  0.990364  0.559471  1
  P  P59  1  0.990364  0.661531  0.059471  1
  P  P60  1  0.170620  0.511538  0.053724  1
  P  P61  1  0.659082  0.170620  0.553724  1
  P  P62  1  0.511538  0.340918  0.553724  1
  P  P63  1  0.488462  0.659082  0.053724  1
  P  P64  1  0.340918  0.829380  0.053724  1
  P  P65  1  0.829380  0.488462  0.553724  1
  P  P66  1  0.326069  0.487959  0.551772  1
  P  P67  1  0.838110  0.326069  0.051772  1
  P  P68  1  0.487959  0.161890  0.051772  1
  P  P69  1  0.512041  0.838110  0.551772  1
  P  P70  1  0.161890  0.673931  0.551772  1
  P  P71  1  0.673931  0.512041  0.051772  1
  O  O72  1  0.039729  0.257712  0.071775  1
  O  O73  1  0.782017  0.039729  0.571775  1
  O  O74  1  0.257712  0.217983  0.571775  1
  O  O75  1  0.742288  0.782017  0.071775  1
  O  O76  1  0.217983  0.960271  0.071775  1
  O  O77  1  0.960271  0.742288  0.571775  1
  O  O78  1  0.120231  0.574345  0.562127  1
  O  O79  1  0.545886  0.120231  0.062127  1
  O  O80  1  0.574345  0.454114  0.062127  1
  O  O81  1  0.425655  0.545886  0.562127  1
  O  O82  1  0.454114  0.879769  0.562127  1
  O  O83  1  0.879769  0.425655  0.062127  1
  O  O84  1  0.201354  0.056505  0.282075  1
  O  O85  1  0.144849  0.201354  0.782075  1
  O  O86  1  0.056505  0.855151  0.782075  1
  O  O87  1  0.943495  0.144849  0.282075  1
  O  O88  1  0.855151  0.798646  0.282075  1
  O  O89  1  0.798646  0.943495  0.782075  1
  O  O90  1  0.240756  0.284830  0.104106  1
  O  O91  1  0.955926  0.240756  0.604106  1
  O  O92  1  0.284830  0.044074  0.604106  1
  O  O93  1  0.715170  0.955926  0.104106  1
  O  O94  1  0.044074  0.759244  0.104106  1
  O  O95  1  0.759244  0.715170  0.604106  1
  O  O96  1  0.213972  0.455323  0.074315  1
  O  O97  1  0.758648  0.213972  0.574315  1
  O  O98  1  0.455323  0.241352  0.574315  1
  O  O99  1  0.544677  0.758648  0.074315  1
  O  O100  1  0.241352  0.786028  0.074315  1
  O  O101  1  0.786028  0.544677  0.574315  1
  O  O102  1  0.113148  0.201385  0.487147  1
  O  O103  1  0.911763  0.113148  0.987147  1
  O  O104  1  0.201385  0.088237  0.987147  1
  O  O105  1  0.798615  0.911763  0.487147  1
  O  O106  1  0.088237  0.886852  0.487147  1
  O  O107  1  0.886852  0.798615  0.987147  1
  O  O108  1  0.071570  0.451623  0.071436  1
  O  O109  1  0.619947  0.071570  0.571436  1
  O  O110  1  0.451623  0.380053  0.571436  1
  O  O111  1  0.548377  0.619947  0.071436  1
  O  O112  1  0.380053  0.928430  0.071436  1
  O  O113  1  0.928430  0.548377  0.571436  1
  O  O114  1  0.050413  0.622316  0.062453  1
  O  O115  1  0.428097  0.050413  0.562453  1
  O  O116  1  0.622316  0.571903  0.562453  1
  O  O117  1  0.377684  0.428097  0.062453  1
  O  O118  1  0.571903  0.949587  0.062453  1
  O  O119  1  0.949587  0.377684  0.562453  1
  O  O120  1  0.121396  0.074481  0.606747  1
  O  O121  1  0.046915  0.121396  0.106747  1
  O  O122  1  0.074481  0.953085  0.106747  1
  O  O123  1  0.925519  0.046915  0.606747  1
  O  O124  1  0.953085  0.878604  0.606747  1
  O  O125  1  0.878604  0.925519  0.106747  1
  O  O126  1  0.285714  0.546468  0.582299  1
  O  O127  1  0.739246  0.285714  0.082299  1
  O  O128  1  0.546468  0.260754  0.082299  1
  O  O129  1  0.453532  0.739246  0.582299  1
  O  O130  1  0.260754  0.714286  0.582299  1
  O  O131  1  0.714286  0.453532  0.082299  1
  O  O132  1  0.204895  0.585364  0.181982  1
  O  O133  1  0.619531  0.204895  0.681982  1
  O  O134  1  0.585364  0.380469  0.681982  1
  O  O135  1  0.414636  0.619531  0.181982  1
  O  O136  1  0.380469  0.795105  0.181982  1
  O  O137  1  0.795105  0.414636  0.681982  1
  O  O138  1  0.084106  0.385717  0.684429  1
  O  O139  1  0.698389  0.084106  0.184429  1
  O  O140  1  0.385717  0.301611  0.184429  1
  O  O141  1  0.614283  0.698389  0.684429  1
  O  O142  1  0.301611  0.915894  0.684429  1
  O  O143  1  0.915894  0.614283  0.184429  1
  O  O144  1  0.191614  0.555319  0.885153  1
  O  O145  1  0.636295  0.191614  0.385153  1
  O  O146  1  0.555319  0.363705  0.385153  1
  O  O147  1  0.444681  0.636295  0.885153  1
  O  O148  1  0.363705  0.808386  0.885153  1
  O  O149  1  0.808386  0.444681  0.385153  1
  O  O150  1  0.051642  0.350537  0.390479  1
  O  O151  1  0.701105  0.051642  0.890479  1
  O  O152  1  0.350537  0.298895  0.890479  1
  O  O153  1  0.649463  0.701105  0.390479  1
  O  O154  1  0.298895  0.948358  0.390479  1
  O  O155  1  0.948358  0.649463  0.890479  1
  O  O156  1  0.292765  0.413876  0.678897  1
  O  O157  1  0.878888  0.292765  0.178897  1
  O  O158  1  0.413876  0.121112  0.178897  1
  O  O159  1  0.586124  0.878888  0.678897  1
  O  O160  1  0.121112  0.707235  0.678897  1
  O  O161  1  0.707235  0.586124  0.178897  1
  O  O162  1  0.301158  0.445746  0.382413  1
  O  O163  1  0.855412  0.301158  0.882413  1
  O  O164  1  0.445746  0.144588  0.882413  1
  O  O165  1  0.554254  0.855412  0.382413  1
  O  O166  1  0.144588  0.698842  0.382413  1
  O  O167  1  0.698842  0.554254  0.882413  1
