# generated using pymatgen
data_PrB4
_symmetry_space_group_name_H-M   'P 1'
_cell_length_a   7.27020889
_cell_length_b   7.27020889
_cell_length_c   4.14410588
_cell_angle_alpha   90.00000000
_cell_angle_beta   90.00000000
_cell_angle_gamma   90.00000000
_symmetry_Int_Tables_number   1
_chemical_formula_structural   PrB4
_chemical_formula_sum   'Pr4 B16'
_cell_volume   219.04060058
_cell_formula_units_Z   4
loop_
 _symmetry_equiv_pos_site_id
 _symmetry_equiv_pos_as_xyz
  1  'x, y, z'
loop_
 _atom_site_type_symbol
 _atom_site_label
 _atom_site_symmetry_multiplicity
 _atom_site_fract_x
 _atom_site_fract_y
 _atom_site_fract_z
 _atom_site_occupancy
  Pr  Pr0  1  0.182872  0.682872  0.000000  1
  Pr  Pr1  1  0.682872  0.817128  0.000000  1
  Pr  Pr2  1  0.317128  0.182872  0.000000  1
  Pr  Pr3  1  0.817128  0.317128  0.000000  1
  B  B4  1  0.326236  0.461095  0.500000  1
  B  B5  1  0.673764  0.538905  0.500000  1
  B  B6  1  0.538905  0.326236  0.500000  1
  B  B7  1  0.461095  0.673764  0.500000  1
  B  B8  1  0.000000  0.000000  0.205260  1
  B  B9  1  0.500000  0.500000  0.794740  1
  B  B10  1  0.000000  0.000000  0.794740  1
  B  B11  1  0.500000  0.500000  0.205260  1
  B  B12  1  0.588242  0.088242  0.500000  1
  B  B13  1  0.088242  0.411758  0.500000  1
  B  B14  1  0.911758  0.588242  0.500000  1
  B  B15  1  0.411758  0.911758  0.500000  1
  B  B16  1  0.038905  0.173764  0.500000  1
  B  B17  1  0.173764  0.961095  0.500000  1
  B  B18  1  0.826236  0.038905  0.500000  1
  B  B19  1  0.961095  0.826236  0.500000  1
