# generated using pymatgen
data_Ca2Co12P7
_symmetry_space_group_name_H-M   'P 1'
_cell_length_a   9.03137942
_cell_length_b   9.03137942
_cell_length_c   3.56186069
_cell_angle_alpha   90.00000000
_cell_angle_beta   90.00000000
_cell_angle_gamma   120.00000000
_symmetry_Int_Tables_number   1
_chemical_formula_structural   Ca2Co12P7
_chemical_formula_sum   'Ca2 Co12 P7'
_cell_volume   251.60295479
_cell_formula_units_Z   1
loop_
 _symmetry_equiv_pos_site_id
 _symmetry_equiv_pos_as_xyz
  1  'x, y, z'
loop_
 _atom_site_type_symbol
 _atom_site_label
 _atom_site_symmetry_multiplicity
 _atom_site_fract_x
 _atom_site_fract_y
 _atom_site_fract_z
 _atom_site_occupancy
  Ca  Ca0  1  0.666667  0.333333  0.500000  1
  Ca  Ca1  1  0.333333  0.666667  0.000000  1
  Co  Co2  1  0.382501  0.434417  0.500000  1
  Co  Co3  1  0.051916  0.617499  0.500000  1
  Co  Co4  1  0.234900  0.103095  0.500000  1
  Co  Co5  1  0.868195  0.765100  0.500000  1
  Co  Co6  1  0.896905  0.131805  0.500000  1
  Co  Co7  1  0.728194  0.880550  0.000000  1
  Co  Co8  1  0.119450  0.847644  0.000000  1
  Co  Co9  1  0.152356  0.271806  0.000000  1
  Co  Co10  1  0.941832  0.376369  0.000000  1
  Co  Co11  1  0.623631  0.565463  0.000000  1
  Co  Co12  1  0.434537  0.058168  0.000000  1
  Co  Co13  1  0.565583  0.948084  0.500000  1
  P  P14  1  0.000000  0.000000  0.000000  1
  P  P15  1  0.404579  0.292022  0.000000  1
  P  P16  1  0.598710  0.708401  0.500000  1
  P  P17  1  0.291599  0.890309  0.500000  1
  P  P18  1  0.109691  0.401290  0.500000  1
  P  P19  1  0.707978  0.112558  0.000000  1
  P  P20  1  0.887442  0.595421  0.000000  1
