# generated using pymatgen
data_SmCu(WO4)2
_symmetry_space_group_name_H-M   'P 1'
_cell_length_a   7.23084314
_cell_length_b   7.40053624
_cell_length_c   7.41756450
_cell_angle_alpha   114.08463927
_cell_angle_beta   116.37925025
_cell_angle_gamma   90.61391465
_symmetry_Int_Tables_number   1
_chemical_formula_structural   SmCu(WO4)2
_chemical_formula_sum   'Sm2 Cu2 W4 O16'
_cell_volume   315.56617839
_cell_formula_units_Z   2
loop_
 _symmetry_equiv_pos_site_id
 _symmetry_equiv_pos_as_xyz
  1  'x, y, z'
loop_
 _atom_site_type_symbol
 _atom_site_label
 _atom_site_symmetry_multiplicity
 _atom_site_fract_x
 _atom_site_fract_y
 _atom_site_fract_z
 _atom_site_occupancy
  Sm  Sm0  1  0.825131  0.716028  0.558612  1
  Sm  Sm1  1  0.174869  0.283972  0.441388  1
  Cu  Cu2  1  0.262117  0.719903  0.133526  1
  Cu  Cu3  1  0.737883  0.280097  0.866474  1
  W  W4  1  0.737403  0.701294  0.982743  1
  W  W5  1  0.262597  0.298706  0.017257  1
  W  W6  1  0.349698  0.888470  0.706193  1
  W  W7  1  0.650302  0.111530  0.293807  1
  O  O8  1  0.446565  0.553812  0.248191  1
  O  O9  1  0.553435  0.446188  0.751809  1
  O  O10  1  0.968756  0.702014  0.932654  1
  O  O11  1  0.031244  0.297986  0.067346  1
  O  O12  1  0.818204  0.664082  0.230554  1
  O  O13  1  0.181796  0.335918  0.769446  1
  O  O14  1  0.180032  0.629275  0.555188  1
  O  O15  1  0.819968  0.370725  0.444812  1
  O  O16  1  0.288289  0.963227  0.485399  1
  O  O17  1  0.711711  0.036773  0.514601  1
  O  O18  1  0.135933  0.984706  0.792261  1
  O  O19  1  0.864067  0.015294  0.207739  1
  O  O20  1  0.484040  0.829663  0.019530  1
  O  O21  1  0.515960  0.170337  0.980470  1
  O  O22  1  0.613880  0.811927  0.739808  1
  O  O23  1  0.386120  0.188073  0.260192  1
