# generated using pymatgen
data_PrPt
_symmetry_space_group_name_H-M   'P 1'
_cell_length_a   5.84172858
_cell_length_b   5.84172858
_cell_length_c   4.59203761
_cell_angle_alpha   90.00000000
_cell_angle_beta   90.00000000
_cell_angle_gamma   140.37597899
_symmetry_Int_Tables_number   1
_chemical_formula_structural   PrPt
_chemical_formula_sum   'Pr2 Pt2'
_cell_volume   99.93936561
_cell_formula_units_Z   2
loop_
 _symmetry_equiv_pos_site_id
 _symmetry_equiv_pos_as_xyz
  1  'x, y, z'
loop_
 _atom_site_type_symbol
 _atom_site_label
 _atom_site_symmetry_multiplicity
 _atom_site_fract_x
 _atom_site_fract_y
 _atom_site_fract_z
 _atom_site_occupancy
  Pr  Pr0  1  0.862785  0.137215  0.250000  1
  Pr  Pr1  1  0.137215  0.862785  0.750000  1
  Pt  Pt2  1  0.587716  0.412284  0.250000  1
  Pt  Pt3  1  0.412284  0.587716  0.750000  1
