# generated using pymatgen
data_ZnS
_symmetry_space_group_name_H-M   'P 1'
_cell_length_a   3.85250299
_cell_length_b   3.85250299
_cell_length_c   12.60818078
_cell_angle_alpha   90.00000000
_cell_angle_beta   90.00000000
_cell_angle_gamma   120.00000000
_symmetry_Int_Tables_number   1
_chemical_formula_structural   ZnS
_chemical_formula_sum   'Zn4 S4'
_cell_volume   162.05746024
_cell_formula_units_Z   4
loop_
 _symmetry_equiv_pos_site_id
 _symmetry_equiv_pos_as_xyz
  1  'x, y, z'
loop_
 _atom_site_type_symbol
 _atom_site_label
 _atom_site_symmetry_multiplicity
 _atom_site_fract_x
 _atom_site_fract_y
 _atom_site_fract_z
 _atom_site_occupancy
  Zn  Zn0  1  0.666667  0.333333  0.750030  1
  Zn  Zn1  1  0.333333  0.666667  0.250030  1
  Zn  Zn2  1  0.000000  0.000000  0.500064  1
  Zn  Zn3  1  0.000000  0.000000  0.000064  1
  S  S4  1  0.666667  0.333333  0.937641  1
  S  S5  1  0.333333  0.666667  0.437641  1
  S  S6  1  0.000000  0.000000  0.687265  1
  S  S7  1  0.000000  0.000000  0.187265  1
