# generated using pymatgen
data_CeCdAu
_symmetry_space_group_name_H-M   'P 1'
_cell_length_a   7.92012090
_cell_length_b   7.92012090
_cell_length_c   4.06252649
_cell_angle_alpha   90.00000000
_cell_angle_beta   90.00000000
_cell_angle_gamma   120.00000000
_symmetry_Int_Tables_number   1
_chemical_formula_structural   CeCdAu
_chemical_formula_sum   'Ce3 Cd3 Au3'
_cell_volume   220.69396624
_cell_formula_units_Z   3
loop_
 _symmetry_equiv_pos_site_id
 _symmetry_equiv_pos_as_xyz
  1  'x, y, z'
loop_
 _atom_site_type_symbol
 _atom_site_label
 _atom_site_symmetry_multiplicity
 _atom_site_fract_x
 _atom_site_fract_y
 _atom_site_fract_z
 _atom_site_occupancy
  Ce  Ce0  1  0.592989  0.592989  0.000000  1
  Ce  Ce1  1  0.407011  0.000000  0.000000  1
  Ce  Ce2  1  0.000000  0.407011  0.000000  1
  Cd  Cd3  1  0.000000  0.742816  0.500000  1
  Cd  Cd4  1  0.257184  0.257184  0.500000  1
  Cd  Cd5  1  0.742816  0.000000  0.500000  1
  Au  Au6  1  0.000000  0.000000  0.000000  1
  Au  Au7  1  0.333333  0.666667  0.500000  1
  Au  Au8  1  0.666667  0.333333  0.500000  1
