# generated using pymatgen
data_CaAg2
_symmetry_space_group_name_H-M   'P 1'
_cell_length_a   6.01475592
_cell_length_b   6.01475592
_cell_length_c   6.01475592
_cell_angle_alpha   133.81047267
_cell_angle_beta   104.72460160
_cell_angle_gamma   93.06975293
_symmetry_Int_Tables_number   1
_chemical_formula_structural   CaAg2
_chemical_formula_sum   'Ca2 Ag4'
_cell_volume   143.42266442
_cell_formula_units_Z   2
loop_
 _symmetry_equiv_pos_site_id
 _symmetry_equiv_pos_as_xyz
  1  'x, y, z'
loop_
 _atom_site_type_symbol
 _atom_site_label
 _atom_site_symmetry_multiplicity
 _atom_site_fract_x
 _atom_site_fract_y
 _atom_site_fract_z
 _atom_site_occupancy
  Ca  Ca0  1  0.702634  0.952634  0.250000  1
  Ca  Ca1  1  0.297366  0.047366  0.750000  1
  Ag  Ag2  1  0.110844  0.661559  0.949285  1
  Ag  Ag3  1  0.889156  0.338441  0.050715  1
  Ag  Ag4  1  0.287726  0.338441  0.449285  1
  Ag  Ag5  1  0.712274  0.661559  0.550715  1
