# generated using pymatgen
data_YAl2Co
_symmetry_space_group_name_H-M   'P 1'
_cell_length_a   5.43160530
_cell_length_b   5.43160530
_cell_length_c   7.02108246
_cell_angle_alpha   90.00000000
_cell_angle_beta   90.00000000
_cell_angle_gamma   136.43533095
_symmetry_Int_Tables_number   1
_chemical_formula_structural   YAl2Co
_chemical_formula_sum   'Y2 Al4 Co2'
_cell_volume   142.75411827
_cell_formula_units_Z   2
loop_
 _symmetry_equiv_pos_site_id
 _symmetry_equiv_pos_as_xyz
  1  'x, y, z'
loop_
 _atom_site_type_symbol
 _atom_site_label
 _atom_site_symmetry_multiplicity
 _atom_site_fract_x
 _atom_site_fract_y
 _atom_site_fract_z
 _atom_site_occupancy
  Y  Y0  1  0.940738  0.059262  0.750000  1
  Y  Y1  1  0.059262  0.940738  0.250000  1
  Al  Al2  1  0.661784  0.338216  0.943579  1
  Al  Al3  1  0.338216  0.661784  0.056421  1
  Al  Al4  1  0.338216  0.661784  0.443579  1
  Al  Al5  1  0.661784  0.338216  0.556421  1
  Co  Co6  1  0.216737  0.783263  0.750000  1
  Co  Co7  1  0.783263  0.216737  0.250000  1
