# generated using pymatgen
data_Y4Si2S3O7
_symmetry_space_group_name_H-M   'P 1'
_cell_length_a   10.78870492
_cell_length_b   10.78870492
_cell_length_c   10.78870492
_cell_angle_alpha   113.90067760
_cell_angle_beta   113.90067760
_cell_angle_gamma   100.93499707
_symmetry_Int_Tables_number   1
_chemical_formula_structural   Y4Si2S3O7
_chemical_formula_sum   'Y16 Si8 S12 O28'
_cell_volume   950.93944383
_cell_formula_units_Z   4
loop_
 _symmetry_equiv_pos_site_id
 _symmetry_equiv_pos_as_xyz
  1  'x, y, z'
loop_
 _atom_site_type_symbol
 _atom_site_label
 _atom_site_symmetry_multiplicity
 _atom_site_fract_x
 _atom_site_fract_y
 _atom_site_fract_z
 _atom_site_occupancy
  Y  Y0  1  0.033441  0.268560  0.235119  1
  Y  Y1  1  0.018560  0.283441  0.735119  1
  Y  Y2  1  0.548322  0.283441  0.264881  1
  Y  Y3  1  0.033441  0.798322  0.764881  1
  Y  Y4  1  0.716559  0.981440  0.264881  1
  Y  Y5  1  0.731440  0.966559  0.764881  1
  Y  Y6  1  0.201678  0.966559  0.235119  1
  Y  Y7  1  0.716559  0.451678  0.735119  1
  Y  Y8  1  0.327917  0.327917  0.655834  1
  Y  Y9  1  0.672083  0.327917  0.000000  1
  Y  Y10  1  0.077917  0.577917  0.155834  1
  Y  Y11  1  0.422083  0.577917  0.500000  1
  Y  Y12  1  0.327917  0.672083  0.000000  1
  Y  Y13  1  0.672083  0.672083  0.344166  1
  Y  Y14  1  0.077917  0.922083  0.500000  1
  Y  Y15  1  0.422083  0.922083  0.844166  1
  Si  Si16  1  0.279414  0.404177  0.124762  1
  Si  Si17  1  0.154177  0.529414  0.624762  1
  Si  Si18  1  0.904652  0.529414  0.375238  1
  Si  Si19  1  0.279414  0.154652  0.875238  1
  Si  Si20  1  0.470586  0.845823  0.375238  1
  Si  Si21  1  0.595823  0.720586  0.875238  1
  Si  Si22  1  0.845348  0.720586  0.124762  1
  Si  Si23  1  0.470586  0.095348  0.624762  1
  S  S24  1  0.021012  0.625000  0.896012  1
  S  S25  1  0.728988  0.625000  0.603988  1
  S  S26  1  0.375000  0.271012  0.396012  1
  S  S27  1  0.875000  0.271012  0.896012  1
  S  S28  1  0.021012  0.125000  0.396012  1
  S  S29  1  0.728988  0.125000  0.103988  1
  S  S30  1  0.375000  0.978988  0.103988  1
  S  S31  1  0.875000  0.978988  0.603988  1
  S  S32  1  1.000000  1.000000  0.000000  1
  S  S33  1  0.750000  0.250000  0.500000  1
  S  S34  1  0.250000  0.750000  0.500000  1
  S  S35  1  0.500000  0.500000  0.000000  1
  O  O36  1  0.210559  0.474694  0.017931  1
  O  O37  1  0.456763  0.474694  0.264135  1
  O  O38  1  0.224694  0.460559  0.517931  1
  O  O39  1  0.942628  0.460559  0.235865  1
  O  O40  1  0.210559  0.192628  0.735865  1
  O  O41  1  0.456763  0.192628  0.982069  1
  O  O42  1  0.224694  0.706763  0.764135  1
  O  O43  1  0.942628  0.706763  0.482069  1
  O  O44  1  0.539441  0.775306  0.482069  1
  O  O45  1  0.293237  0.775306  0.235865  1
  O  O46  1  0.525306  0.789441  0.982069  1
  O  O47  1  0.807372  0.789441  0.264135  1
  O  O48  1  0.539441  0.057372  0.764135  1
  O  O49  1  0.293237  0.057372  0.517931  1
  O  O50  1  0.525306  0.543237  0.735865  1
  O  O51  1  0.807372  0.543237  0.017931  1
  O  O52  1  0.201297  0.433149  0.231852  1
  O  O53  1  0.183149  0.451297  0.731852  1
  O  O54  1  0.719444  0.451297  0.268148  1
  O  O55  1  0.201297  0.969444  0.768148  1
  O  O56  1  0.548703  0.816851  0.268148  1
  O  O57  1  0.566851  0.798703  0.768148  1
  O  O58  1  0.030556  0.798703  0.231852  1
  O  O59  1  0.548703  0.280556  0.731852  1
  O  O60  1  0.226225  0.226225  0.000000  1
  O  O61  1  0.976225  0.476225  0.500000  1
  O  O62  1  0.523775  0.023775  0.500000  1
  O  O63  1  0.773775  0.773775  0.000000  1
