# generated using pymatgen
data_TiBe12
_symmetry_space_group_name_H-M   'P 1'
_cell_length_a   4.22878627
_cell_length_b   4.22878627
_cell_length_c   7.32914902
_cell_angle_alpha   90.00000000
_cell_angle_beta   90.00000000
_cell_angle_gamma   120.00000000
_symmetry_Int_Tables_number   1
_chemical_formula_structural   TiBe12
_chemical_formula_sum   'Ti1 Be12'
_cell_volume   113.50517284
_cell_formula_units_Z   1
loop_
 _symmetry_equiv_pos_site_id
 _symmetry_equiv_pos_as_xyz
  1  'x, y, z'
loop_
 _atom_site_type_symbol
 _atom_site_label
 _atom_site_symmetry_multiplicity
 _atom_site_fract_x
 _atom_site_fract_y
 _atom_site_fract_z
 _atom_site_occupancy
  Ti  Ti0  1  0.000000  0.000000  0.000000  1
  Be  Be1  1  0.333333  0.666667  0.000000  1
  Be  Be2  1  0.666667  0.333333  0.000000  1
  Be  Be3  1  0.333333  0.666667  0.500000  1
  Be  Be4  1  0.666667  0.333333  0.500000  1
  Be  Be5  1  0.000000  0.000000  0.347494  1
  Be  Be6  1  0.000000  0.000000  0.652506  1
  Be  Be7  1  0.500000  0.000000  0.240556  1
  Be  Be8  1  0.500000  0.500000  0.240556  1
  Be  Be9  1  0.000000  0.500000  0.240556  1
  Be  Be10  1  0.500000  0.000000  0.759444  1
  Be  Be11  1  0.500000  0.500000  0.759444  1
  Be  Be12  1  0.000000  0.500000  0.759444  1
