# generated using pymatgen
data_RbCuPdSe5
_symmetry_space_group_name_H-M   'P 1'
_cell_length_a   6.37993654
_cell_length_b   7.42393972
_cell_length_c   9.30308710
_cell_angle_alpha   90.00000000
_cell_angle_beta   103.03357515
_cell_angle_gamma   90.00000000
_symmetry_Int_Tables_number   1
_chemical_formula_structural   RbCuPdSe5
_chemical_formula_sum   'Rb2 Cu2 Pd2 Se10'
_cell_volume   429.28229989
_cell_formula_units_Z   2
loop_
 _symmetry_equiv_pos_site_id
 _symmetry_equiv_pos_as_xyz
  1  'x, y, z'
loop_
 _atom_site_type_symbol
 _atom_site_label
 _atom_site_symmetry_multiplicity
 _atom_site_fract_x
 _atom_site_fract_y
 _atom_site_fract_z
 _atom_site_occupancy
  Rb  Rb0  1  0.746239  0.750000  0.948948  1
  Rb  Rb1  1  0.253761  0.250000  0.051052  1
  Cu  Cu2  1  0.889636  0.750000  0.390806  1
  Cu  Cu3  1  0.110364  0.250000  0.609194  1
  Pd  Pd4  1  0.500000  0.500000  0.500000  1
  Pd  Pd5  1  0.500000  0.000000  0.500000  1
  Se  Se6  1  0.955216  0.250000  0.348429  1
  Se  Se7  1  0.313735  0.991161  0.708902  1
  Se  Se8  1  0.273529  0.750000  0.367257  1
  Se  Se9  1  0.726471  0.250000  0.632743  1
  Se  Se10  1  0.313735  0.508839  0.708902  1
  Se  Se11  1  0.700724  0.250000  0.884529  1
  Se  Se12  1  0.299276  0.750000  0.115471  1
  Se  Se13  1  0.044784  0.750000  0.651571  1
  Se  Se14  1  0.686265  0.008839  0.291098  1
  Se  Se15  1  0.686265  0.491161  0.291098  1
