# generated using pymatgen
data_Na3Sr3GaAs4
_symmetry_space_group_name_H-M   'P 1'
_cell_length_a   9.69215558
_cell_length_b   9.69215558
_cell_length_c   7.60142214
_cell_angle_alpha   90.00000000
_cell_angle_beta   90.00000000
_cell_angle_gamma   120.00000000
_symmetry_Int_Tables_number   1
_chemical_formula_structural   Na3Sr3GaAs4
_chemical_formula_sum   'Na6 Sr6 Ga2 As8'
_cell_volume   618.39538086
_cell_formula_units_Z   2
loop_
 _symmetry_equiv_pos_site_id
 _symmetry_equiv_pos_as_xyz
  1  'x, y, z'
loop_
 _atom_site_type_symbol
 _atom_site_label
 _atom_site_symmetry_multiplicity
 _atom_site_fract_x
 _atom_site_fract_y
 _atom_site_fract_z
 _atom_site_occupancy
  Na  Na0  1  0.136446  0.863554  0.169731  1
  Na  Na1  1  0.272892  0.136446  0.669731  1
  Na  Na2  1  0.863554  0.727108  0.669731  1
  Na  Na3  1  0.727108  0.863554  0.169731  1
  Na  Na4  1  0.863554  0.136446  0.669731  1
  Na  Na5  1  0.136446  0.272892  0.169731  1
  Sr  Sr6  1  0.955777  0.477888  0.998847  1
  Sr  Sr7  1  0.522112  0.044223  0.998847  1
  Sr  Sr8  1  0.477888  0.955777  0.498847  1
  Sr  Sr9  1  0.044223  0.522112  0.498847  1
  Sr  Sr10  1  0.522112  0.477888  0.998847  1
  Sr  Sr11  1  0.477888  0.522112  0.498847  1
  Ga  Ga12  1  0.666667  0.333333  0.373322  1
  Ga  Ga13  1  0.333333  0.666667  0.873322  1
  As  As14  1  0.811130  0.188870  0.278066  1
  As  As15  1  0.188870  0.377740  0.778066  1
  As  As16  1  0.811130  0.622260  0.278066  1
  As  As17  1  0.666667  0.333333  0.717847  1
  As  As18  1  0.622260  0.811130  0.778066  1
  As  As19  1  0.333333  0.666667  0.217847  1
  As  As20  1  0.188870  0.811130  0.778066  1
  As  As21  1  0.377740  0.188870  0.278066  1
