# generated using pymatgen
data_BaAl2Sb2O7
_symmetry_space_group_name_H-M   'P 1'
_cell_length_a   8.76911008
_cell_length_b   8.76911008
_cell_length_c   8.76911008
_cell_angle_alpha   36.63099228
_cell_angle_beta   36.63099228
_cell_angle_gamma   36.63099228
_symmetry_Int_Tables_number   1
_chemical_formula_structural   BaAl2Sb2O7
_chemical_formula_sum   'Ba1 Al2 Sb2 O7'
_cell_volume   214.95522015
_cell_formula_units_Z   1
loop_
 _symmetry_equiv_pos_site_id
 _symmetry_equiv_pos_as_xyz
  1  'x, y, z'
loop_
 _atom_site_type_symbol
 _atom_site_label
 _atom_site_symmetry_multiplicity
 _atom_site_fract_x
 _atom_site_fract_y
 _atom_site_fract_z
 _atom_site_occupancy
  Ba  Ba0  1  0.500000  0.500000  0.500000  1
  Al  Al1  1  0.070685  0.070685  0.070685  1
  Al  Al2  1  0.929315  0.929315  0.929315  1
  Sb  Sb3  1  0.279285  0.279285  0.279285  1
  Sb  Sb4  1  0.720715  0.720715  0.720715  1
  O  O5  1  0.024669  0.837907  0.428770  1
  O  O6  1  0.837907  0.428770  0.024669  1
  O  O7  1  0.428770  0.024669  0.837907  1
  O  O8  1  0.975331  0.571230  0.162093  1
  O  O9  1  0.571230  0.162093  0.975331  1
  O  O10  1  0.000000  0.000000  0.000000  1
  O  O11  1  0.162093  0.975331  0.571230  1
