# generated using pymatgen
data_Rh2O3
_symmetry_space_group_name_H-M   'P 1'
_cell_length_a   5.26003010
_cell_length_b   5.45300149
_cell_length_c   7.37584971
_cell_angle_alpha   90.00000000
_cell_angle_beta   90.00000000
_cell_angle_gamma   90.00000000
_symmetry_Int_Tables_number   1
_chemical_formula_structural   Rh2O3
_chemical_formula_sum   'Rh8 O12'
_cell_volume   211.56114299
_cell_formula_units_Z   4
loop_
 _symmetry_equiv_pos_site_id
 _symmetry_equiv_pos_as_xyz
  1  'x, y, z'
loop_
 _atom_site_type_symbol
 _atom_site_label
 _atom_site_symmetry_multiplicity
 _atom_site_fract_x
 _atom_site_fract_y
 _atom_site_fract_z
 _atom_site_occupancy
  Rh  Rh0  1  0.749682  0.030092  0.107313  1
  Rh  Rh1  1  0.749682  0.469908  0.892687  1
  Rh  Rh2  1  0.750318  0.530092  0.392687  1
  Rh  Rh3  1  0.750318  0.969908  0.607313  1
  Rh  Rh4  1  0.250318  0.969908  0.892687  1
  Rh  Rh5  1  0.250318  0.530092  0.107313  1
  Rh  Rh6  1  0.249682  0.469908  0.607313  1
  Rh  Rh7  1  0.249682  0.030092  0.392687  1
  O  O8  1  0.050120  0.250000  0.000000  1
  O  O9  1  0.449880  0.750000  0.500000  1
  O  O10  1  0.949880  0.750000  0.000000  1
  O  O11  1  0.550120  0.250000  0.500000  1
  O  O12  1  0.607223  0.112046  0.848913  1
  O  O13  1  0.607223  0.387954  0.151087  1
  O  O14  1  0.892777  0.612046  0.651087  1
  O  O15  1  0.892777  0.887954  0.348913  1
  O  O16  1  0.392777  0.887954  0.151087  1
  O  O17  1  0.392777  0.612046  0.848913  1
  O  O18  1  0.107223  0.387954  0.348913  1
  O  O19  1  0.107223  0.112046  0.651087  1
