# generated using pymatgen
data_CaTiGeO5
_symmetry_space_group_name_H-M   'P 1'
_cell_length_a   6.77137991
_cell_length_b   8.96593773
_cell_length_c   7.27788887
_cell_angle_alpha   90.00000000
_cell_angle_beta   114.30346595
_cell_angle_gamma   90.00000000
_symmetry_Int_Tables_number   1
_chemical_formula_structural   CaTiGeO5
_chemical_formula_sum   'Ca4 Ti4 Ge4 O20'
_cell_volume   402.69574581
_cell_formula_units_Z   4
loop_
 _symmetry_equiv_pos_site_id
 _symmetry_equiv_pos_as_xyz
  1  'x, y, z'
loop_
 _atom_site_type_symbol
 _atom_site_label
 _atom_site_symmetry_multiplicity
 _atom_site_fract_x
 _atom_site_fract_y
 _atom_site_fract_z
 _atom_site_occupancy
  Ca  Ca0  1  0.749849  0.424904  0.756365  1
  Ca  Ca1  1  0.250151  0.924904  0.743635  1
  Ca  Ca2  1  0.250151  0.575096  0.243635  1
  Ca  Ca3  1  0.749849  0.075096  0.256365  1
  Ti  Ti4  1  0.250988  0.245935  0.985741  1
  Ti  Ti5  1  0.749012  0.745935  0.514259  1
  Ti  Ti6  1  0.749012  0.754065  0.014259  1
  Ti  Ti7  1  0.250988  0.254065  0.485741  1
  Ge  Ge8  1  0.751446  0.431622  0.252316  1
  Ge  Ge9  1  0.248554  0.931622  0.247684  1
  Ge  Ge10  1  0.248554  0.568378  0.747684  1
  Ge  Ge11  1  0.751446  0.068378  0.752316  1
  O  O12  1  0.146756  0.458717  0.892860  1
  O  O13  1  0.853244  0.958717  0.607140  1
  O  O14  1  0.853244  0.541283  0.107140  1
  O  O15  1  0.146756  0.041283  0.392860  1
  O  O16  1  0.354304  0.039897  0.105033  1
  O  O17  1  0.645696  0.539897  0.394967  1
  O  O18  1  0.645696  0.960103  0.894967  1
  O  O19  1  0.354304  0.460103  0.605033  1
  O  O20  1  0.942786  0.305942  0.419847  1
  O  O21  1  0.057214  0.805942  0.080153  1
  O  O22  1  0.057214  0.694058  0.580153  1
  O  O23  1  0.942786  0.194058  0.919847  1
  O  O24  1  0.248982  0.316945  0.250250  1
  O  O25  1  0.751018  0.816945  0.249750  1
  O  O26  1  0.751018  0.683055  0.749750  1
  O  O27  1  0.248982  0.183055  0.750250  1
  O  O28  1  0.560311  0.306063  0.083998  1
  O  O29  1  0.439689  0.806063  0.416002  1
  O  O30  1  0.439689  0.693937  0.916002  1
  O  O31  1  0.560311  0.193937  0.583998  1
