# generated using pymatgen
data_BaTi18Mn3O38
_symmetry_space_group_name_H-M   'P 1'
_cell_length_a   9.30164246
_cell_length_b   9.30164246
_cell_length_c   9.30164246
_cell_angle_alpha   68.78735874
_cell_angle_beta   68.78735874
_cell_angle_gamma   68.78735874
_symmetry_Int_Tables_number   1
_chemical_formula_structural   BaTi18Mn3O38
_chemical_formula_sum   'Ba1 Ti18 Mn3 O38'
_cell_volume   674.28112109
_cell_formula_units_Z   1
loop_
 _symmetry_equiv_pos_site_id
 _symmetry_equiv_pos_as_xyz
  1  'x, y, z'
loop_
 _atom_site_type_symbol
 _atom_site_label
 _atom_site_symmetry_multiplicity
 _atom_site_fract_x
 _atom_site_fract_y
 _atom_site_fract_z
 _atom_site_occupancy
  Ba  Ba0  1  0.000000  0.000000  0.000000  1
  Ti  Ti1  1  0.467246  0.087243  0.640175  1
  Ti  Ti2  1  0.087243  0.640175  0.467246  1
  Ti  Ti3  1  0.640175  0.467246  0.087243  1
  Ti  Ti4  1  0.532754  0.912757  0.359825  1
  Ti  Ti5  1  0.912757  0.359825  0.532754  1
  Ti  Ti6  1  0.359825  0.532754  0.912757  1
  Ti  Ti7  1  0.314613  0.714129  0.149567  1
  Ti  Ti8  1  0.714129  0.149567  0.314613  1
  Ti  Ti9  1  0.149567  0.314613  0.714129  1
  Ti  Ti10  1  0.685387  0.285871  0.850433  1
  Ti  Ti11  1  0.285871  0.850433  0.685387  1
  Ti  Ti12  1  0.850433  0.685387  0.285871  1
  Ti  Ti13  1  0.348157  0.124026  0.020624  1
  Ti  Ti14  1  0.124026  0.020624  0.348157  1
  Ti  Ti15  1  0.020624  0.348157  0.124026  1
  Ti  Ti16  1  0.651843  0.875974  0.979376  1
  Ti  Ti17  1  0.875974  0.979376  0.651843  1
  Ti  Ti18  1  0.979376  0.651843  0.875974  1
  Mn  Mn19  1  0.500000  0.500000  0.500000  1
  Mn  Mn20  1  0.310394  0.310394  0.310394  1
  Mn  Mn21  1  0.689606  0.689606  0.689606  1
  O  O22  1  0.211797  0.211797  0.211797  1
  O  O23  1  0.788203  0.788203  0.788203  1
  O  O24  1  0.705512  0.244029  0.074778  1
  O  O25  1  0.244029  0.074778  0.705512  1
  O  O26  1  0.074778  0.705512  0.244028  1
  O  O27  1  0.294488  0.755972  0.925222  1
  O  O28  1  0.755971  0.925222  0.294488  1
  O  O29  1  0.925222  0.294488  0.755972  1
  O  O30  1  0.392837  0.489909  0.132075  1
  O  O31  1  0.489909  0.132075  0.392837  1
  O  O32  1  0.132075  0.392837  0.489909  1
  O  O33  1  0.607163  0.510091  0.867925  1
  O  O34  1  0.510091  0.867925  0.607163  1
  O  O35  1  0.867925  0.607163  0.510091  1
  O  O36  1  0.297822  0.925625  0.456107  1
  O  O37  1  0.144201  0.513488  0.988666  1
  O  O38  1  0.988666  0.144201  0.513488  1
  O  O39  1  0.855799  0.486512  0.011334  1
  O  O40  1  0.486512  0.011334  0.855799  1
  O  O41  1  0.011334  0.855799  0.486512  1
  O  O42  1  0.925625  0.456107  0.297822  1
  O  O43  1  0.456107  0.297822  0.925625  1
  O  O44  1  0.623678  0.694378  0.372406  1
  O  O45  1  0.372406  0.623678  0.694378  1
  O  O46  1  0.694378  0.372406  0.623678  1
  O  O47  1  0.376322  0.305622  0.627594  1
  O  O48  1  0.627594  0.376322  0.305622  1
  O  O49  1  0.305622  0.627594  0.376322  1
  O  O50  1  0.061031  0.845986  0.761177  1
  O  O51  1  0.761177  0.061031  0.845986  1
  O  O52  1  0.845986  0.761177  0.061031  1
  O  O53  1  0.938969  0.154014  0.238823  1
  O  O54  1  0.238823  0.938969  0.154014  1
  O  O55  1  0.154014  0.238823  0.938969  1
  O  O56  1  0.702178  0.074375  0.543893  1
  O  O57  1  0.543893  0.702178  0.074375  1
  O  O58  1  0.074375  0.543893  0.702178  1
  O  O59  1  0.513488  0.988666  0.144201  1
