# generated using pymatgen
data_K(CoS)2
_symmetry_space_group_name_H-M   'P 1'
_cell_length_a   6.88948273
_cell_length_b   6.88948273
_cell_length_c   6.88948273
_cell_angle_alpha   148.46015558
_cell_angle_beta   148.46015558
_cell_angle_gamma   45.20654028
_symmetry_Int_Tables_number   1
_chemical_formula_structural   K(CoS)2
_chemical_formula_sum   'K1 Co2 S2'
_cell_volume   89.19272008
_cell_formula_units_Z   1
loop_
 _symmetry_equiv_pos_site_id
 _symmetry_equiv_pos_as_xyz
  1  'x, y, z'
loop_
 _atom_site_type_symbol
 _atom_site_label
 _atom_site_symmetry_multiplicity
 _atom_site_fract_x
 _atom_site_fract_y
 _atom_site_fract_z
 _atom_site_occupancy
  K  K0  1  0.000000  0.000000  0.000000  1
  Co  Co1  1  0.250000  0.750000  0.500000  1
  Co  Co2  1  0.750000  0.250000  0.500000  1
  S  S3  1  0.655753  0.655753  0.000000  1
  S  S4  1  0.344247  0.344247  0.000000  1
