# generated using pymatgen
data_Ba2B10O17
_symmetry_space_group_name_H-M   'P 1'
_cell_length_a   6.81994070
_cell_length_b   10.12965545
_cell_length_c   10.20553674
_cell_angle_alpha   75.98401667
_cell_angle_beta   82.99760252
_cell_angle_gamma   72.62238722
_symmetry_Int_Tables_number   1
_chemical_formula_structural   Ba2B10O17
_chemical_formula_sum   'Ba4 B20 O34'
_cell_volume   651.88735251
_cell_formula_units_Z   2
loop_
 _symmetry_equiv_pos_site_id
 _symmetry_equiv_pos_as_xyz
  1  'x, y, z'
loop_
 _atom_site_type_symbol
 _atom_site_label
 _atom_site_symmetry_multiplicity
 _atom_site_fract_x
 _atom_site_fract_y
 _atom_site_fract_z
 _atom_site_occupancy
  Ba  Ba0  1  0.749209  0.019477  0.779344  1
  Ba  Ba1  1  0.250791  0.980523  0.220656  1
  Ba  Ba2  1  0.732447  0.477318  0.701017  1
  Ba  Ba3  1  0.267553  0.522682  0.298983  1
  B  B4  1  0.777583  0.799961  0.128246  1
  B  B5  1  0.222417  0.200039  0.871754  1
  B  B6  1  0.989233  0.733656  0.514848  1
  B  B7  1  0.010767  0.266344  0.485152  1
  B  B8  1  0.293043  0.292799  0.617371  1
  B  B9  1  0.706957  0.707201  0.382629  1
  B  B10  1  0.517920  0.767457  0.974978  1
  B  B11  1  0.482080  0.232543  0.025022  1
  B  B12  1  0.148561  0.754774  0.023832  1
  B  B13  1  0.851439  0.245226  0.976168  1
  B  B14  1  0.735696  0.503190  0.029913  1
  B  B15  1  0.264304  0.496810  0.970087  1
  B  B16  1  0.763392  0.995744  0.453215  1
  B  B17  1  0.236608  0.004256  0.546785  1
  B  B18  1  0.196177  0.613398  0.717866  1
  B  B19  1  0.803823  0.386602  0.282134  1
  B  B20  1  0.644224  0.252191  0.483473  1
  B  B21  1  0.355776  0.747809  0.516527  1
  B  B22  1  0.257478  0.888860  0.802163  1
  B  B23  1  0.742522  0.111140  0.197837  1
  O  O24  1  0.623713  0.625051  0.949865  1
  O  O25  1  0.376287  0.374949  0.050135  1
  O  O26  1  0.836027  0.395894  0.965289  1
  O  O27  1  0.163973  0.604106  0.034711  1
  O  O28  1  0.663100  0.230080  0.929669  1
  O  O29  1  0.336900  0.769920  0.070331  1
  O  O30  1  0.343438  0.681594  0.662572  1
  O  O31  1  0.656562  0.318406  0.337428  1
  O  O32  1  0.020756  0.635385  0.653616  1
  O  O33  1  0.979244  0.364615  0.346384  1
  O  O34  1  0.635516  0.103249  0.509738  1
  O  O35  1  0.364484  0.896751  0.490262  1
  O  O36  1  0.452348  0.863502  0.839995  1
  O  O37  1  0.547652  0.136498  0.160005  1
  O  O38  1  0.813250  0.258077  0.554372  1
  O  O39  1  0.186750  0.741923  0.445628  1
  O  O40  1  0.849102  0.869904  0.539441  1
  O  O41  1  0.150898  0.130096  0.460559  1
  O  O42  1  0.338417  0.219552  0.748527  1
  O  O43  1  0.661583  0.780448  0.251473  1
  O  O44  1  0.183292  0.984897  0.683831  1
  O  O45  1  0.816708  0.015103  0.316169  1
  O  O46  1  0.021382  0.198692  0.875649  1
  O  O47  1  0.978618  0.801308  0.124351  1
  O  O48  1  0.108209  0.838601  0.884851  1
  O  O49  1  0.891791  0.161399  0.115149  1
  O  O50  1  0.246095  0.507401  0.833694  1
  O  O51  1  0.753905  0.492599  0.166306  1
  O  O52  1  0.671357  0.828313  0.014243  1
  O  O53  1  0.328643  0.171687  0.985757  1
  O  O54  1  0.101083  0.332142  0.568957  1
  O  O55  1  0.898917  0.667858  0.431043  1
  O  O56  1  0.553137  0.662392  0.463757  1
  O  O57  1  0.446863  0.337608  0.536243  1
