# generated using pymatgen
data_Pr2Se2O
_symmetry_space_group_name_H-M   'P 1'
_cell_length_a   7.42272820
_cell_length_b   7.41069099
_cell_length_c   8.94898823
_cell_angle_alpha   90.00000000
_cell_angle_beta   99.73973008
_cell_angle_gamma   90.00000000
_symmetry_Int_Tables_number   1
_chemical_formula_structural   Pr2Se2O
_chemical_formula_sum   'Pr8 Se8 O4'
_cell_volume   485.16660618
_cell_formula_units_Z   4
loop_
 _symmetry_equiv_pos_site_id
 _symmetry_equiv_pos_as_xyz
  1  'x, y, z'
loop_
 _atom_site_type_symbol
 _atom_site_label
 _atom_site_symmetry_multiplicity
 _atom_site_fract_x
 _atom_site_fract_y
 _atom_site_fract_z
 _atom_site_occupancy
  Pr  Pr0  1  0.746325  0.052066  0.857121  1
  Pr  Pr1  1  0.753675  0.552066  0.142879  1
  Pr  Pr2  1  0.253675  0.947934  0.142879  1
  Pr  Pr3  1  0.246325  0.447934  0.857121  1
  Pr  Pr4  1  0.673270  0.147804  0.425436  1
  Pr  Pr5  1  0.826730  0.647804  0.574564  1
  Pr  Pr6  1  0.326730  0.852196  0.574564  1
  Pr  Pr7  1  0.173270  0.352196  0.425436  1
  Se  Se8  1  0.971197  0.722296  0.923129  1
  Se  Se9  1  0.430332  0.629107  0.320163  1
  Se  Se10  1  0.569668  0.370893  0.679837  1
  Se  Se11  1  0.930332  0.870893  0.320163  1
  Se  Se12  1  0.528803  0.222296  0.076871  1
  Se  Se13  1  0.028803  0.277704  0.076871  1
  Se  Se14  1  0.471197  0.777704  0.923129  1
  Se  Se15  1  0.069668  0.129107  0.679837  1
  O  O16  1  0.350614  0.085091  0.385788  1
  O  O17  1  0.850614  0.414909  0.385788  1
  O  O18  1  0.649386  0.914909  0.614212  1
  O  O19  1  0.149386  0.585091  0.614212  1
