# generated using pymatgen
data_SmSi3Ni
_symmetry_space_group_name_H-M   'P 1'
_cell_length_a   10.78677645
_cell_length_b   10.78677645
_cell_length_c   4.01434649
_cell_angle_alpha   90.00000000
_cell_angle_beta   90.00000000
_cell_angle_gamma   158.75784167
_symmetry_Int_Tables_number   1
_chemical_formula_structural   SmSi3Ni
_chemical_formula_sum   'Sm2 Si6 Ni2'
_cell_volume   169.23068226
_cell_formula_units_Z   2
loop_
 _symmetry_equiv_pos_site_id
 _symmetry_equiv_pos_as_xyz
  1  'x, y, z'
loop_
 _atom_site_type_symbol
 _atom_site_label
 _atom_site_symmetry_multiplicity
 _atom_site_fract_x
 _atom_site_fract_y
 _atom_site_fract_z
 _atom_site_occupancy
  Sm  Sm0  1  0.668520  0.331480  0.500000  1
  Sm  Sm1  1  0.331480  0.668520  0.500000  1
  Si  Si2  1  0.555592  0.444408  0.000000  1
  Si  Si3  1  0.444408  0.555592  0.000000  1
  Si  Si4  1  0.782389  0.217611  1.000000  1
  Si  Si5  1  0.217611  0.782389  0.000000  1
  Si  Si6  1  0.055624  0.944376  0.500000  1
  Si  Si7  1  0.944376  0.055624  0.500000  1
  Ni  Ni8  1  0.891084  0.108916  1.000000  1
  Ni  Ni9  1  0.108916  0.891084  0.000000  1
