# generated using pymatgen
data_TiFeO3
_symmetry_space_group_name_H-M   'P 1'
_cell_length_a   5.57245878
_cell_length_b   5.57245878
_cell_length_c   5.57245878
_cell_angle_alpha   55.27737138
_cell_angle_beta   55.27737138
_cell_angle_gamma   55.27737138
_symmetry_Int_Tables_number   1
_chemical_formula_structural   TiFeO3
_chemical_formula_sum   'Ti2 Fe2 O6'
_cell_volume   108.92690935
_cell_formula_units_Z   2
loop_
 _symmetry_equiv_pos_site_id
 _symmetry_equiv_pos_as_xyz
  1  'x, y, z'
loop_
 _atom_site_type_symbol
 _atom_site_label
 _atom_site_symmetry_multiplicity
 _atom_site_fract_x
 _atom_site_fract_y
 _atom_site_fract_z
 _atom_site_occupancy
  Ti  Ti0  1  0.853763  0.853763  0.853763  1
  Ti  Ti1  1  0.146237  0.146237  0.146237  1
  Fe  Fe2  1  0.644803  0.644803  0.644803  1
  Fe  Fe3  1  0.355197  0.355197  0.355197  1
  O  O4  1  0.780756  0.048981  0.433580  1
  O  O5  1  0.433580  0.780756  0.048981  1
  O  O6  1  0.048981  0.433580  0.780756  1
  O  O7  1  0.219244  0.951019  0.566420  1
  O  O8  1  0.566420  0.219244  0.951019  1
  O  O9  1  0.951019  0.566420  0.219244  1
