# generated using pymatgen
data_Cs2B2S3O13
_symmetry_space_group_name_H-M   'P 1'
_cell_length_a   12.71690859
_cell_length_b   6.84282066
_cell_length_c   15.42850880
_cell_angle_alpha   90.00000000
_cell_angle_beta   104.44306414
_cell_angle_gamma   90.00000000
_symmetry_Int_Tables_number   1
_chemical_formula_structural   Cs2B2S3O13
_chemical_formula_sum   'Cs8 B8 S12 O52'
_cell_volume   1300.15051813
_cell_formula_units_Z   4
loop_
 _symmetry_equiv_pos_site_id
 _symmetry_equiv_pos_as_xyz
  1  'x, y, z'
loop_
 _atom_site_type_symbol
 _atom_site_label
 _atom_site_symmetry_multiplicity
 _atom_site_fract_x
 _atom_site_fract_y
 _atom_site_fract_z
 _atom_site_occupancy
  Cs  Cs0  1  0.265691  0.672265  0.118403  1
  Cs  Cs1  1  0.234309  0.172265  0.881597  1
  Cs  Cs2  1  0.734309  0.327735  0.881597  1
  Cs  Cs3  1  0.765691  0.827735  0.118403  1
  Cs  Cs4  1  0.133501  0.224945  0.511865  1
  Cs  Cs5  1  0.366499  0.724945  0.488135  1
  Cs  Cs6  1  0.866499  0.775055  0.488135  1
  Cs  Cs7  1  0.633501  0.275055  0.511865  1
  B  B8  1  0.979105  0.636874  0.750908  1
  B  B9  1  0.520895  0.136874  0.249092  1
  B  B10  1  0.020895  0.363126  0.249092  1
  B  B11  1  0.479105  0.863126  0.750908  1
  B  B12  1  0.374033  0.552022  0.755892  1
  B  B13  1  0.125967  0.052022  0.244108  1
  B  B14  1  0.625967  0.447978  0.244108  1
  B  B15  1  0.874033  0.947978  0.755892  1
  S  S16  1  0.164447  0.688637  0.693092  1
  S  S17  1  0.335553  0.188637  0.306908  1
  S  S18  1  0.835553  0.311363  0.306908  1
  S  S19  1  0.664447  0.811363  0.693092  1
  S  S20  1  0.457997  0.743453  0.909722  1
  S  S21  1  0.042003  0.243453  0.090278  1
  S  S22  1  0.542003  0.256547  0.090278  1
  S  S23  1  0.957997  0.756547  0.909722  1
  S  S24  1  0.950940  0.258176  0.679331  1
  S  S25  1  0.549060  0.758176  0.320669  1
  S  S26  1  0.049060  0.741824  0.320669  1
  S  S27  1  0.450940  0.241824  0.679331  1
  O  O28  1  0.210930  0.879138  0.716550  1
  O  O29  1  0.289070  0.379138  0.283450  1
  O  O30  1  0.789070  0.120862  0.283450  1
  O  O31  1  0.710930  0.620862  0.716550  1
  O  O32  1  0.098319  0.662348  0.602337  1
  O  O33  1  0.401681  0.162348  0.397663  1
  O  O34  1  0.901681  0.337652  0.397663  1
  O  O35  1  0.598319  0.837652  0.602337  1
  O  O36  1  0.404113  0.822112  0.973783  1
  O  O37  1  0.095887  0.322112  0.026217  1
  O  O38  1  0.595887  0.177888  0.026217  1
  O  O39  1  0.904113  0.677888  0.973783  1
  O  O40  1  0.564006  0.657033  0.942914  1
  O  O41  1  0.935994  0.157033  0.057086  1
  O  O42  1  0.435994  0.342967  0.057086  1
  O  O43  1  0.064006  0.842967  0.942914  1
  O  O44  1  0.884360  0.195628  0.593068  1
  O  O45  1  0.615640  0.695628  0.406932  1
  O  O46  1  0.115640  0.804372  0.406932  1
  O  O47  1  0.384360  0.304372  0.593068  1
  O  O48  1  0.066631  0.230478  0.693358  1
  O  O49  1  0.433369  0.730478  0.306642  1
  O  O50  1  0.933369  0.769522  0.306642  1
  O  O51  1  0.566631  0.269522  0.693358  1
  O  O52  1  0.932731  0.816429  0.716279  1
  O  O53  1  0.567269  0.316429  0.283721  1
  O  O54  1  0.067269  0.183571  0.283721  1
  O  O55  1  0.432731  0.683571  0.716279  1
  O  O56  1  0.100327  0.624798  0.761913  1
  O  O57  1  0.399673  0.124798  0.238087  1
  O  O58  1  0.899673  0.375202  0.238087  1
  O  O59  1  0.600327  0.875202  0.761913  1
  O  O60  1  0.923004  0.475338  0.688789  1
  O  O61  1  0.576996  0.975338  0.311211  1
  O  O62  1  0.076996  0.524662  0.311211  1
  O  O63  1  0.423004  0.024662  0.688789  1
  O  O64  1  0.912651  0.159201  0.756625  1
  O  O65  1  0.587349  0.659201  0.243375  1
  O  O66  1  0.087349  0.840799  0.243375  1
  O  O67  1  0.412651  0.340799  0.756625  1
  O  O68  1  0.254624  0.530264  0.707802  1
  O  O69  1  0.245376  0.030264  0.292198  1
  O  O70  1  0.745376  0.469736  0.292198  1
  O  O71  1  0.754624  0.969736  0.707802  1
  O  O72  1  0.377870  0.592226  0.852000  1
  O  O73  1  0.122130  0.092226  0.148000  1
  O  O74  1  0.622130  0.407774  0.148000  1
  O  O75  1  0.877870  0.907774  0.852000  1
  O  O76  1  0.463322  0.910316  0.841853  1
  O  O77  1  0.036678  0.410316  0.158147  1
  O  O78  1  0.536678  0.089684  0.158147  1
  O  O79  1  0.963322  0.589684  0.841853  1
