# generated using pymatgen
data_HoPS4
_symmetry_space_group_name_H-M   'P 1'
_cell_length_a   12.19970128
_cell_length_b   12.19970128
_cell_length_c   12.19970128
_cell_angle_alpha   127.59175101
_cell_angle_beta   127.59175101
_cell_angle_gamma   77.28731485
_symmetry_Int_Tables_number   1
_chemical_formula_structural   HoPS4
_chemical_formula_sum   'Ho8 P8 S32'
_cell_volume   1106.07239807
_cell_formula_units_Z   8
loop_
 _symmetry_equiv_pos_site_id
 _symmetry_equiv_pos_as_xyz
  1  'x, y, z'
loop_
 _atom_site_type_symbol
 _atom_site_label
 _atom_site_symmetry_multiplicity
 _atom_site_fract_x
 _atom_site_fract_y
 _atom_site_fract_z
 _atom_site_occupancy
  Ho  Ho0  1  0.000000  0.000000  0.000000  1
  Ho  Ho1  1  0.750000  0.250000  0.500000  1
  Ho  Ho2  1  0.250000  0.750000  0.500000  1
  Ho  Ho3  1  0.500000  0.500000  0.000000  1
  Ho  Ho4  1  0.750000  0.750000  0.000000  1
  Ho  Ho5  1  0.500000  0.000000  0.500000  1
  Ho  Ho6  1  0.000000  0.500000  0.500000  1
  Ho  Ho7  1  0.250000  0.250000  0.000000  1
  P  P8  1  0.125000  0.413074  0.788074  1
  P  P9  1  0.125000  0.913074  0.288074  1
  P  P10  1  0.663074  0.875000  0.288074  1
  P  P11  1  0.586926  0.375000  0.711926  1
  P  P12  1  0.625000  0.836926  0.711926  1
  P  P13  1  0.625000  0.336926  0.211926  1
  P  P14  1  0.086926  0.375000  0.211926  1
  P  P15  1  0.163074  0.875000  0.788074  1
  S  S16  1  0.486122  0.208827  0.450919  1
  S  S17  1  0.757908  0.035202  0.549081  1
  S  S18  1  0.785202  0.736122  0.777295  1
  S  S19  1  0.958827  0.007908  0.222705  1
  S  S20  1  0.492092  0.541173  0.777295  1
  S  S21  1  0.763878  0.714798  0.222705  1
  S  S22  1  0.291173  0.013878  0.549081  1
  S  S23  1  0.464798  0.742092  0.450919  1
  S  S24  1  0.279531  0.469193  0.318204  1
  S  S25  1  0.219193  0.400988  0.689662  1
  S  S26  1  0.711327  0.529531  0.310338  1
  S  S27  1  0.970469  0.788673  0.689662  1
  S  S28  1  0.099012  0.280807  0.310338  1
  S  S29  1  0.538673  0.349012  0.318204  1
  S  S30  1  0.030807  0.220469  0.681796  1
  S  S31  1  0.150988  0.961327  0.681796  1
  S  S32  1  0.470469  0.780807  0.181796  1
  S  S33  1  0.530807  0.849012  0.810338  1
  S  S34  1  0.038673  0.720469  0.189662  1
  S  S35  1  0.779531  0.461327  0.810338  1
  S  S36  1  0.650988  0.969193  0.189662  1
  S  S37  1  0.211327  0.900988  0.181796  1
  S  S38  1  0.719193  0.029531  0.818204  1
  S  S39  1  0.599012  0.288673  0.818204  1
  S  S40  1  0.992092  0.214798  0.950919  1
  S  S41  1  0.964798  0.513878  0.722705  1
  S  S42  1  0.791173  0.242092  0.277295  1
  S  S43  1  0.257908  0.708827  0.722705  1
  S  S44  1  0.986122  0.535202  0.277295  1
  S  S45  1  0.458827  0.236122  0.950919  1
  S  S46  1  0.285202  0.507908  0.049081  1
  S  S47  1  0.263878  0.041173  0.049081  1
