# generated using pymatgen
data_Ca(BeN)2
_symmetry_space_group_name_H-M   'P 1'
_cell_length_a   5.23375119
_cell_length_b   5.23375119
_cell_length_c   5.23375119
_cell_angle_alpha   115.86207641
_cell_angle_beta   115.86207641
_cell_angle_gamma   97.33020150
_symmetry_Int_Tables_number   1
_chemical_formula_structural   Ca(BeN)2
_chemical_formula_sum   'Ca2 Be4 N4'
_cell_volume   106.76659782
_cell_formula_units_Z   2
loop_
 _symmetry_equiv_pos_site_id
 _symmetry_equiv_pos_as_xyz
  1  'x, y, z'
loop_
 _atom_site_type_symbol
 _atom_site_label
 _atom_site_symmetry_multiplicity
 _atom_site_fract_x
 _atom_site_fract_y
 _atom_site_fract_z
 _atom_site_occupancy
  Ca  Ca0  1  0.750000  0.750000  1.000000  1
  Ca  Ca1  1  0.250000  0.250000  0.000000  1
  Be  Be2  1  0.626267  0.873733  0.500000  1
  Be  Be3  1  0.873733  0.373733  0.247466  1
  Be  Be4  1  0.373733  0.126267  0.500000  1
  Be  Be5  1  0.126267  0.626267  0.752534  1
  N  N6  1  0.330580  0.830580  0.161159  1
  N  N7  1  0.169420  0.330580  0.500000  1
  N  N8  1  0.830580  0.669420  0.500000  1
  N  N9  1  0.669420  0.169420  0.838841  1
