# generated using pymatgen
data_Sc2Pt
_symmetry_space_group_name_H-M   'P 1'
_cell_length_a   4.52037439
_cell_length_b   6.62434755
_cell_length_c   8.25413986
_cell_angle_alpha   90.00000000
_cell_angle_beta   90.00000000
_cell_angle_gamma   90.00000000
_symmetry_Int_Tables_number   1
_chemical_formula_structural   Sc2Pt
_chemical_formula_sum   'Sc8 Pt4'
_cell_volume   247.16634704
_cell_formula_units_Z   4
loop_
 _symmetry_equiv_pos_site_id
 _symmetry_equiv_pos_as_xyz
  1  'x, y, z'
loop_
 _atom_site_type_symbol
 _atom_site_label
 _atom_site_symmetry_multiplicity
 _atom_site_fract_x
 _atom_site_fract_y
 _atom_site_fract_z
 _atom_site_occupancy
  Sc  Sc0  1  0.250000  0.487158  0.173863  1
  Sc  Sc1  1  0.750000  0.512842  0.826137  1
  Sc  Sc2  1  0.250000  0.987158  0.326137  1
  Sc  Sc3  1  0.750000  0.012842  0.673863  1
  Sc  Sc4  1  0.750000  0.148105  0.076885  1
  Sc  Sc5  1  0.250000  0.851895  0.923115  1
  Sc  Sc6  1  0.750000  0.648105  0.423115  1
  Sc  Sc7  1  0.250000  0.351895  0.576885  1
  Pt  Pt8  1  0.250000  0.759240  0.597347  1
  Pt  Pt9  1  0.750000  0.240760  0.402653  1
  Pt  Pt10  1  0.250000  0.259240  0.902653  1
  Pt  Pt11  1  0.750000  0.740760  0.097347  1
