# generated using pymatgen
data_Sr4In2N
_symmetry_space_group_name_H-M   'P 1'
_cell_length_a   15.87712353
_cell_length_b   15.87712353
_cell_length_c   15.87712353
_cell_angle_alpha   160.86424589
_cell_angle_beta   160.86424589
_cell_angle_gamma   27.19088619
_symmetry_Int_Tables_number   1
_chemical_formula_structural   Sr4In2N
_chemical_formula_sum   'Sr8 In4 N2'
_cell_volume   429.91034556
_cell_formula_units_Z   2
loop_
 _symmetry_equiv_pos_site_id
 _symmetry_equiv_pos_as_xyz
  1  'x, y, z'
loop_
 _atom_site_type_symbol
 _atom_site_label
 _atom_site_symmetry_multiplicity
 _atom_site_fract_x
 _atom_site_fract_y
 _atom_site_fract_z
 _atom_site_occupancy
  Sr  Sr0  1  0.667973  0.167973  0.500000  1
  Sr  Sr1  1  0.499971  0.999971  0.500000  1
  Sr  Sr2  1  0.832027  0.332027  0.500000  1
  Sr  Sr3  1  0.917973  0.917973  0.000000  1
  Sr  Sr4  1  0.082027  0.082027  0.000000  1
  Sr  Sr5  1  0.000029  0.500029  0.500000  1
  Sr  Sr6  1  0.250029  0.250029  0.000000  1
  Sr  Sr7  1  0.749971  0.749971  0.000000  1
  In  In8  1  0.408566  0.408566  0.000000  1
  In  In9  1  0.158566  0.658566  0.500000  1
  In  In10  1  0.591434  0.591434  0.000000  1
  In  In11  1  0.341434  0.841434  0.500000  1
  N  N12  1  0.750000  0.250000  0.500000  1
  N  N13  1  1.000000  0.000000  0.000000  1
