# generated using pymatgen
data_Ba2LaRuO6
_symmetry_space_group_name_H-M   'P 1'
_cell_length_a   6.08111936
_cell_length_b   6.08111936
_cell_length_c   6.08111936
_cell_angle_alpha   60.64916339
_cell_angle_beta   60.64916339
_cell_angle_gamma   60.64916339
_symmetry_Int_Tables_number   1
_chemical_formula_structural   Ba2LaRuO6
_chemical_formula_sum   'Ba2 La1 Ru1 O6'
_cell_volume   161.34469708
_cell_formula_units_Z   1
loop_
 _symmetry_equiv_pos_site_id
 _symmetry_equiv_pos_as_xyz
  1  'x, y, z'
loop_
 _atom_site_type_symbol
 _atom_site_label
 _atom_site_symmetry_multiplicity
 _atom_site_fract_x
 _atom_site_fract_y
 _atom_site_fract_z
 _atom_site_occupancy
  Ba  Ba0  1  0.252029  0.252029  0.252029  1
  Ba  Ba1  1  0.747971  0.747971  0.747971  1
  La  La2  1  1.000000  0.000000  0.000000  1
  Ru  Ru3  1  0.500000  0.500000  0.500000  1
  O  O4  1  0.315529  0.724899  0.228033  1
  O  O5  1  0.724899  0.228033  0.315529  1
  O  O6  1  0.228033  0.315529  0.724899  1
  O  O7  1  0.684471  0.275101  0.771967  1
  O  O8  1  0.771967  0.684471  0.275101  1
  O  O9  1  0.275101  0.771967  0.684471  1
