# generated using pymatgen
data_Sm2Mo2C3
_symmetry_space_group_name_H-M   'P 1'
_cell_length_a   5.94894902
_cell_length_b   5.94894902
_cell_length_c   5.83243292
_cell_angle_alpha   74.29675294
_cell_angle_beta   105.70324706
_cell_angle_gamma   146.14428187
_symmetry_Int_Tables_number   1
_chemical_formula_structural   Sm2Mo2C3
_chemical_formula_sum   'Sm2 Mo2 C3'
_cell_volume   110.29367902
_cell_formula_units_Z   1
loop_
 _symmetry_equiv_pos_site_id
 _symmetry_equiv_pos_as_xyz
  1  'x, y, z'
loop_
 _atom_site_type_symbol
 _atom_site_label
 _atom_site_symmetry_multiplicity
 _atom_site_fract_x
 _atom_site_fract_y
 _atom_site_fract_z
 _atom_site_occupancy
  Sm  Sm0  1  0.388876  0.611124  0.176255  1
  Sm  Sm1  1  0.611124  0.388876  0.823745  1
  Mo  Mo2  1  0.152417  0.847583  0.382241  1
  Mo  Mo3  1  0.847583  0.152417  0.617759  1
  C  C4  1  0.000000  0.000000  0.500000  1
  C  C5  1  0.275427  0.724573  0.733945  1
  C  C6  1  0.724573  0.275427  0.266055  1
