# generated using pymatgen
data_YbAl7Au3
_symmetry_space_group_name_H-M   'P 1'
_cell_length_a   8.53492539
_cell_length_b   8.53492539
_cell_length_c   8.53492539
_cell_angle_alpha   56.51442015
_cell_angle_beta   56.51442015
_cell_angle_gamma   56.51442015
_symmetry_Int_Tables_number   1
_chemical_formula_structural   YbAl7Au3
_chemical_formula_sum   'Yb2 Al14 Au6'
_cell_volume   404.21107198
_cell_formula_units_Z   2
loop_
 _symmetry_equiv_pos_site_id
 _symmetry_equiv_pos_as_xyz
  1  'x, y, z'
loop_
 _atom_site_type_symbol
 _atom_site_label
 _atom_site_symmetry_multiplicity
 _atom_site_fract_x
 _atom_site_fract_y
 _atom_site_fract_z
 _atom_site_occupancy
  Yb  Yb0  1  0.500000  0.500000  0.500000  1
  Yb  Yb1  1  0.000000  0.000000  0.000000  1
  Al  Al2  1  0.569526  0.165750  0.352146  1
  Al  Al3  1  0.165750  0.352146  0.569526  1
  Al  Al4  1  0.352146  0.569526  0.165750  1
  Al  Al5  1  0.930474  0.147854  0.334250  1
  Al  Al6  1  0.147854  0.334250  0.930474  1
  Al  Al7  1  0.334250  0.930474  0.147854  1
  Al  Al8  1  0.430474  0.834250  0.647854  1
  Al  Al9  1  0.834250  0.647854  0.430474  1
  Al  Al10  1  0.750000  0.750000  0.750000  1
  Al  Al11  1  0.250000  0.250000  0.250000  1
  Al  Al12  1  0.665750  0.069526  0.852146  1
  Al  Al13  1  0.852146  0.665750  0.069526  1
  Al  Al14  1  0.069526  0.852146  0.665750  1
  Al  Al15  1  0.647854  0.430474  0.834250  1
  Au  Au16  1  0.250000  0.574877  0.925123  1
  Au  Au17  1  0.574877  0.925123  0.250000  1
  Au  Au18  1  0.925123  0.250000  0.574877  1
  Au  Au19  1  0.750000  0.425123  0.074877  1
  Au  Au20  1  0.425123  0.074877  0.750000  1
  Au  Au21  1  0.074877  0.750000  0.425123  1
