# generated using pymatgen
data_Ba4Ti12O27
_symmetry_space_group_name_H-M   'P 1'
_cell_length_a   11.56919517
_cell_length_b   11.56919517
_cell_length_c   10.03618543
_cell_angle_alpha   73.63662564
_cell_angle_beta   106.36337436
_cell_angle_gamma   120.14487495
_symmetry_Int_Tables_number   1
_chemical_formula_structural   Ba4Ti12O27
_chemical_formula_sum   'Ba8 Ti24 O54'
_cell_volume   1098.54483568
_cell_formula_units_Z   2
loop_
 _symmetry_equiv_pos_site_id
 _symmetry_equiv_pos_as_xyz
  1  'x, y, z'
loop_
 _atom_site_type_symbol
 _atom_site_label
 _atom_site_symmetry_multiplicity
 _atom_site_fract_x
 _atom_site_fract_y
 _atom_site_fract_z
 _atom_site_occupancy
  Ba  Ba0  1  0.204601  0.795399  0.126353  1
  Ba  Ba1  1  0.795399  0.204601  0.873647  1
  Ba  Ba2  1  0.076237  0.923763  0.711101  1
  Ba  Ba3  1  0.923763  0.076237  0.288899  1
  Ba  Ba4  1  0.209815  0.339452  0.784573  1
  Ba  Ba5  1  0.339452  0.209815  0.215427  1
  Ba  Ba6  1  0.790185  0.660548  0.215427  1
  Ba  Ba7  1  0.660548  0.790185  0.784573  1
  Ti  Ti8  1  0.000000  0.000000  0.000000  1
  Ti  Ti9  1  0.500000  0.500000  0.500000  1
  Ti  Ti10  1  0.000000  0.500000  0.500000  1
  Ti  Ti11  1  0.500000  1.000000  0.500000  1
  Ti  Ti12  1  0.230237  0.230237  0.500000  1
  Ti  Ti13  1  0.769763  0.769763  0.500000  1
  Ti  Ti14  1  0.386676  0.613324  0.078311  1
  Ti  Ti15  1  0.613324  0.386676  0.921689  1
  Ti  Ti16  1  0.263529  0.736471  0.516700  1
  Ti  Ti17  1  0.736471  0.263529  0.483300  1
  Ti  Ti18  1  0.111113  0.888887  0.389411  1
  Ti  Ti19  1  0.888887  0.111113  0.610589  1
  Ti  Ti20  1  0.880380  0.636678  0.922157  1
  Ti  Ti21  1  0.636678  0.880380  0.077843  1
  Ti  Ti22  1  0.119620  0.363322  0.077843  1
  Ti  Ti23  1  0.363322  0.119620  0.922157  1
  Ti  Ti24  1  0.490930  0.229722  0.658535  1
  Ti  Ti25  1  0.229722  0.490930  0.341465  1
  Ti  Ti26  1  0.509070  0.770278  0.341465  1
  Ti  Ti27  1  0.770278  0.509070  0.658535  1
  Ti  Ti28  1  0.387396  0.879517  0.785624  1
  Ti  Ti29  1  0.879517  0.387396  0.214376  1
  Ti  Ti30  1  0.612604  0.120483  0.214376  1
  Ti  Ti31  1  0.120483  0.612604  0.785624  1
  O  O32  1  0.432848  0.567152  0.306146  1
  O  O33  1  0.567152  0.432848  0.693854  1
  O  O34  1  0.313712  0.686288  0.888984  1
  O  O35  1  0.686288  0.313712  0.111016  1
  O  O36  1  0.316280  0.683720  0.385029  1
  O  O37  1  0.683720  0.316280  0.614971  1
  O  O38  1  0.205365  0.794635  0.656097  1
  O  O39  1  0.794635  0.205365  0.343903  1
  O  O40  1  0.068745  0.931255  0.199563  1
  O  O41  1  0.931255  0.068745  0.800437  1
  O  O42  1  0.934996  0.814752  0.948272  1
  O  O43  1  0.814752  0.934996  0.051728  1
  O  O44  1  0.065004  0.185248  0.051728  1
  O  O45  1  0.185248  0.065004  0.948272  1
  O  O46  1  0.819535  0.687155  0.698524  1
  O  O47  1  0.687155  0.819535  0.301476  1
  O  O48  1  0.180465  0.312845  0.301476  1
  O  O49  1  0.312845  0.180465  0.698524  1
  O  O50  1  0.689649  0.566717  0.943189  1
  O  O51  1  0.566717  0.689649  0.056811  1
  O  O52  1  0.310351  0.433283  0.056811  1
  O  O53  1  0.433283  0.310351  0.943189  1
  O  O54  1  0.793192  0.449960  0.858122  1
  O  O55  1  0.449960  0.793192  0.141878  1
  O  O56  1  0.206808  0.550040  0.141878  1
  O  O57  1  0.550040  0.206808  0.858122  1
  O  O58  1  0.053195  0.677929  0.876251  1
  O  O59  1  0.677929  0.053195  0.123749  1
  O  O60  1  0.946805  0.322071  0.123749  1
  O  O61  1  0.322071  0.946805  0.876251  1
  O  O62  1  0.452348  0.055520  0.639318  1
  O  O63  1  0.055520  0.452348  0.360682  1
  O  O64  1  0.826253  0.936683  0.559600  1
  O  O65  1  0.936683  0.826253  0.440400  1
  O  O66  1  0.173747  0.063317  0.440400  1
  O  O67  1  0.063317  0.173747  0.559600  1
  O  O68  1  0.310644  0.428430  0.530867  1
  O  O69  1  0.428430  0.310644  0.469133  1
  O  O70  1  0.689356  0.571570  0.469133  1
  O  O71  1  0.571570  0.689356  0.530867  1
  O  O72  1  0.566714  0.923465  0.886978  1
  O  O73  1  0.923465  0.566714  0.113022  1
  O  O74  1  0.433286  0.076535  0.113022  1
  O  O75  1  0.076535  0.433286  0.886978  1
  O  O76  1  0.695170  0.076209  0.595764  1
  O  O77  1  0.076209  0.695170  0.404236  1
  O  O78  1  0.304830  0.923791  0.404236  1
  O  O79  1  0.923791  0.304830  0.595764  1
  O  O80  1  0.176607  0.559256  0.630633  1
  O  O81  1  0.559256  0.176607  0.369367  1
  O  O82  1  0.823392  0.440744  0.369367  1
  O  O83  1  0.440744  0.823392  0.630633  1
  O  O84  1  0.944480  0.547652  0.639318  1
  O  O85  1  0.547652  0.944480  0.360682  1
