# generated using pymatgen
data_RbLiCrO4
_symmetry_space_group_name_H-M   'P 1'
_cell_length_a   5.49656103
_cell_length_b   5.49656103
_cell_length_c   9.33624906
_cell_angle_alpha   90.00000000
_cell_angle_beta   90.00000000
_cell_angle_gamma   120.00000000
_symmetry_Int_Tables_number   1
_chemical_formula_structural   RbLiCrO4
_chemical_formula_sum   'Rb2 Li2 Cr2 O8'
_cell_volume   244.27845768
_cell_formula_units_Z   2
loop_
 _symmetry_equiv_pos_site_id
 _symmetry_equiv_pos_as_xyz
  1  'x, y, z'
loop_
 _atom_site_type_symbol
 _atom_site_label
 _atom_site_symmetry_multiplicity
 _atom_site_fract_x
 _atom_site_fract_y
 _atom_site_fract_z
 _atom_site_occupancy
  Rb  Rb0  1  0.000000  0.000000  0.498243  1
  Rb  Rb1  1  0.000000  0.000000  0.998243  1
  Li  Li2  1  0.666667  0.333333  0.681271  1
  Li  Li3  1  0.333333  0.666667  0.181271  1
  Cr  Cr4  1  0.333333  0.666667  0.792352  1
  Cr  Cr5  1  0.666667  0.333333  0.292352  1
  O  O6  1  0.611274  0.649082  0.735191  1
  O  O7  1  0.962192  0.611274  0.235191  1
  O  O8  1  0.649082  0.037808  0.235191  1
  O  O9  1  0.350918  0.962192  0.735191  1
  O  O10  1  0.666667  0.333333  0.470962  1
  O  O11  1  0.333333  0.666667  0.970962  1
  O  O12  1  0.388726  0.350918  0.235191  1
  O  O13  1  0.037808  0.388726  0.735191  1
