# generated using pymatgen
data_Ba2ZnO3
_symmetry_space_group_name_H-M   'P 1'
_cell_length_a   6.50486354
_cell_length_b   6.50486354
_cell_length_c   12.71625872
_cell_angle_alpha   88.52855340
_cell_angle_beta   91.47144660
_cell_angle_gamma   54.58823466
_symmetry_Int_Tables_number   1
_chemical_formula_structural   Ba2ZnO3
_chemical_formula_sum   'Ba8 Zn4 O12'
_cell_volume   437.84060030
_cell_formula_units_Z   4
loop_
 _symmetry_equiv_pos_site_id
 _symmetry_equiv_pos_as_xyz
  1  'x, y, z'
loop_
 _atom_site_type_symbol
 _atom_site_label
 _atom_site_symmetry_multiplicity
 _atom_site_fract_x
 _atom_site_fract_y
 _atom_site_fract_z
 _atom_site_occupancy
  Ba  Ba0  1  0.969912  0.440712  0.652335  1
  Ba  Ba1  1  0.559288  0.030088  0.152335  1
  Ba  Ba2  1  0.030088  0.559288  0.347665  1
  Ba  Ba3  1  0.440712  0.969912  0.847665  1
  Ba  Ba4  1  0.342031  0.865172  0.424970  1
  Ba  Ba5  1  0.865172  0.342031  0.075030  1
  Ba  Ba6  1  0.657969  0.134828  0.575030  1
  Ba  Ba7  1  0.134828  0.657969  0.924970  1
  Zn  Zn8  1  0.268959  0.726331  0.163699  1
  Zn  Zn9  1  0.731041  0.273669  0.836301  1
  Zn  Zn10  1  0.726331  0.268959  0.336301  1
  Zn  Zn11  1  0.273669  0.731041  0.663699  1
  O  O12  1  0.873565  0.323602  0.464943  1
  O  O13  1  0.323602  0.873565  0.035057  1
  O  O14  1  0.126435  0.676398  0.535057  1
  O  O15  1  0.676398  0.126435  0.964943  1
  O  O16  1  0.993110  0.993110  0.250000  1
  O  O17  1  0.006890  0.006890  0.750000  1
  O  O18  1  0.593670  0.593670  0.250000  1
  O  O19  1  0.850614  0.491916  0.867577  1
  O  O20  1  0.508084  0.149386  0.367577  1
  O  O21  1  0.149386  0.508084  0.132423  1
  O  O22  1  0.491916  0.850614  0.632423  1
  O  O23  1  0.406330  0.406330  0.750000  1
