# generated using pymatgen
data_EuBN2
_symmetry_space_group_name_H-M   'P 1'
_cell_length_a   7.33542630
_cell_length_b   7.33542630
_cell_length_c   7.33542630
_cell_angle_alpha   110.31473498
_cell_angle_beta   110.31473498
_cell_angle_gamma   110.31473498
_symmetry_Int_Tables_number   1
_chemical_formula_structural   EuBN2
_chemical_formula_sum   'Eu6 B6 N12'
_cell_volume   293.97491105
_cell_formula_units_Z   6
loop_
 _symmetry_equiv_pos_site_id
 _symmetry_equiv_pos_as_xyz
  1  'x, y, z'
loop_
 _atom_site_type_symbol
 _atom_site_label
 _atom_site_symmetry_multiplicity
 _atom_site_fract_x
 _atom_site_fract_y
 _atom_site_fract_z
 _atom_site_occupancy
  Eu  Eu0  1  0.750000  0.300397  0.199603  1
  Eu  Eu1  1  0.300397  0.199603  0.750000  1
  Eu  Eu2  1  0.199603  0.750000  0.300397  1
  Eu  Eu3  1  0.699603  0.800397  0.250000  1
  Eu  Eu4  1  0.800397  0.250000  0.699603  1
  Eu  Eu5  1  0.250000  0.699603  0.800397  1
  B  B6  1  0.750000  0.628930  0.871070  1
  B  B7  1  0.628930  0.871070  0.750000  1
  B  B8  1  0.871070  0.750000  0.628930  1
  B  B9  1  0.371070  0.128930  0.250000  1
  B  B10  1  0.128930  0.250000  0.371070  1
  B  B11  1  0.250000  0.371070  0.128930  1
  N  N12  1  0.750000  0.873130  0.626870  1
  N  N13  1  0.873130  0.626870  0.750000  1
  N  N14  1  0.626870  0.750000  0.873130  1
  N  N15  1  0.126870  0.373130  0.250000  1
  N  N16  1  0.373130  0.250000  0.126870  1
  N  N17  1  0.250000  0.126870  0.373130  1
  N  N18  1  0.750000  0.507210  0.992790  1
  N  N19  1  0.507210  0.992790  0.750000  1
  N  N20  1  0.992790  0.750000  0.507210  1
  N  N21  1  0.492790  0.007210  0.250000  1
  N  N22  1  0.007210  0.250000  0.492790  1
  N  N23  1  0.250000  0.492790  0.007210  1
