# generated using pymatgen
data_Mn2MoP12
_symmetry_space_group_name_H-M   'P 1'
_cell_length_a   8.49902419
_cell_length_b   8.49902419
_cell_length_c   10.58746189
_cell_angle_alpha   65.73476914
_cell_angle_beta   114.26523086
_cell_angle_gamma   140.55258967
_symmetry_Int_Tables_number   1
_chemical_formula_structural   Mn2MoP12
_chemical_formula_sum   'Mn4 Mo2 P24'
_cell_volume   437.15836840
_cell_formula_units_Z   2
loop_
 _symmetry_equiv_pos_site_id
 _symmetry_equiv_pos_as_xyz
  1  'x, y, z'
loop_
 _atom_site_type_symbol
 _atom_site_label
 _atom_site_symmetry_multiplicity
 _atom_site_fract_x
 _atom_site_fract_y
 _atom_site_fract_z
 _atom_site_occupancy
  Mn  Mn0  1  0.372221  0.011310  0.545611  1
  Mn  Mn1  1  0.011310  0.372221  0.954389  1
  Mn  Mn2  1  0.627779  0.988690  0.454389  1
  Mn  Mn3  1  0.988690  0.627779  0.045611  1
  Mo  Mo4  1  0.304902  0.304902  0.750000  1
  Mo  Mo5  1  0.695098  0.695098  0.250000  1
  P  P6  1  0.596804  0.051113  0.924462  1
  P  P7  1  0.051113  0.596804  0.575538  1
  P  P8  1  0.403196  0.948887  0.075538  1
  P  P9  1  0.948887  0.403196  0.424462  1
  P  P10  1  0.578636  0.700786  0.833866  1
  P  P11  1  0.700786  0.578636  0.666134  1
  P  P12  1  0.975499  0.671036  0.239986  1
  P  P13  1  0.671036  0.975499  0.260014  1
  P  P14  1  0.024501  0.328964  0.760014  1
  P  P15  1  0.328964  0.024501  0.739986  1
  P  P16  1  0.010477  0.077288  0.073983  1
  P  P17  1  0.077288  0.010477  0.426017  1
  P  P18  1  0.989523  0.922712  0.926017  1
  P  P19  1  0.922712  0.989523  0.573983  1
  P  P20  1  0.332221  0.564791  0.497008  1
  P  P21  1  0.564791  0.332221  0.002992  1
  P  P22  1  0.667779  0.435209  0.502992  1
  P  P23  1  0.435209  0.667779  0.997008  1
  P  P24  1  0.997063  0.352759  0.164726  1
  P  P25  1  0.352759  0.997063  0.335274  1
  P  P26  1  0.002937  0.647241  0.835274  1
  P  P27  1  0.647241  0.002937  0.664726  1
  P  P28  1  0.299214  0.421364  0.333866  1
  P  P29  1  0.421364  0.299214  0.166134  1
