# generated using pymatgen
data_BS4N4F3
_symmetry_space_group_name_H-M   'P 1'
_cell_length_a   7.49552038
_cell_length_b   10.91721680
_cell_length_c   12.86729320
_cell_angle_alpha   90.00000000
_cell_angle_beta   120.76531497
_cell_angle_gamma   90.00000000
_symmetry_Int_Tables_number   1
_chemical_formula_structural   BS4N4F3
_chemical_formula_sum   'B4 S16 N16 F12'
_cell_volume   904.75382095
_cell_formula_units_Z   4
loop_
 _symmetry_equiv_pos_site_id
 _symmetry_equiv_pos_as_xyz
  1  'x, y, z'
loop_
 _atom_site_type_symbol
 _atom_site_label
 _atom_site_symmetry_multiplicity
 _atom_site_fract_x
 _atom_site_fract_y
 _atom_site_fract_z
 _atom_site_occupancy
  B  B0  1  0.791493  0.403075  0.301244  1
  B  B1  1  0.208507  0.903075  0.198756  1
  B  B2  1  0.208507  0.596925  0.698756  1
  B  B3  1  0.791493  0.096925  0.801244  1
  S  S4  1  0.643630  0.926859  0.909012  1
  S  S5  1  0.356370  0.426859  0.590988  1
  S  S6  1  0.356370  0.073141  0.090988  1
  S  S7  1  0.643630  0.573141  0.409012  1
  S  S8  1  0.228942  0.952321  0.686403  1
  S  S9  1  0.771058  0.452321  0.813597  1
  S  S10  1  0.771058  0.047679  0.313597  1
  S  S11  1  0.228942  0.547679  0.186403  1
  S  S12  1  0.414130  0.843839  0.550237  1
  S  S13  1  0.585870  0.343839  0.949763  1
  S  S14  1  0.585870  0.156161  0.449763  1
  S  S15  1  0.414130  0.656161  0.050237  1
  S  S16  1  0.818106  0.833870  0.781871  1
  S  S17  1  0.181894  0.333870  0.718129  1
  S  S18  1  0.181894  0.166130  0.218129  1
  S  S19  1  0.818106  0.666130  0.281871  1
  N  N20  1  0.709022  0.437715  0.914360  1
  N  N21  1  0.602994  0.437917  0.676865  1
  N  N22  1  0.602994  0.062083  0.176865  1
  N  N23  1  0.397006  0.562083  0.323135  1
  N  N24  1  0.290978  0.937715  0.585640  1
  N  N25  1  0.290978  0.562285  0.085640  1
  N  N26  1  0.709022  0.062285  0.414360  1
  N  N27  1  0.397006  0.937917  0.823135  1
  N  N28  1  0.638076  0.801716  0.647243  1
  N  N29  1  0.361924  0.301716  0.852757  1
  N  N30  1  0.361924  0.198284  0.352757  1
  N  N31  1  0.239414  0.459738  0.668232  1
  N  N32  1  0.760586  0.540262  0.331768  1
  N  N33  1  0.239414  0.040262  0.168232  1
  N  N34  1  0.760586  0.959738  0.831768  1
  N  N35  1  0.638076  0.698284  0.147243  1
  F  F36  1  0.595791  0.152198  0.729437  1
  F  F37  1  0.098660  0.589734  0.759950  1
  F  F38  1  0.098660  0.910266  0.259950  1
  F  F39  1  0.901340  0.410266  0.240050  1
  F  F40  1  0.901340  0.089734  0.740050  1
  F  F41  1  0.096201  0.839331  0.088380  1
  F  F42  1  0.096201  0.660669  0.588380  1
  F  F43  1  0.903799  0.160669  0.911620  1
  F  F44  1  0.595791  0.347802  0.229437  1
  F  F45  1  0.404209  0.847802  0.270563  1
  F  F46  1  0.404209  0.652198  0.770563  1
  F  F47  1  0.903799  0.339331  0.411620  1
