# generated using pymatgen
data_Yb2V2O7
_symmetry_space_group_name_H-M   'P 1'
_cell_length_a   7.08904928
_cell_length_b   7.08904928
_cell_length_c   7.08904928
_cell_angle_alpha   60.00000000
_cell_angle_beta   60.00000000
_cell_angle_gamma   60.00000000
_symmetry_Int_Tables_number   1
_chemical_formula_structural   Yb2V2O7
_chemical_formula_sum   'Yb4 V4 O14'
_cell_volume   251.91207664
_cell_formula_units_Z   2
loop_
 _symmetry_equiv_pos_site_id
 _symmetry_equiv_pos_as_xyz
  1  'x, y, z'
loop_
 _atom_site_type_symbol
 _atom_site_label
 _atom_site_symmetry_multiplicity
 _atom_site_fract_x
 _atom_site_fract_y
 _atom_site_fract_z
 _atom_site_occupancy
  Yb  Yb0  1  0.125000  0.625000  0.625000  1
  Yb  Yb1  1  0.625000  0.625000  0.125000  1
  Yb  Yb2  1  0.625000  0.625000  0.625000  1
  Yb  Yb3  1  0.625000  0.125000  0.625000  1
  V  V4  1  0.625000  0.125000  0.125000  1
  V  V5  1  0.125000  0.125000  0.625000  1
  V  V6  1  0.125000  0.125000  0.125000  1
  V  V7  1  0.125000  0.625000  0.125000  1
  O  O8  1  0.750000  0.750000  0.750000  1
  O  O9  1  0.500000  0.500000  0.500000  1
  O  O10  1  0.809046  0.190954  0.809046  1
  O  O11  1  0.059046  0.440954  0.059046  1
  O  O12  1  0.809046  0.190954  0.190954  1
  O  O13  1  0.190954  0.190954  0.809046  1
  O  O14  1  0.809046  0.809046  0.190954  1
  O  O15  1  0.190954  0.809046  0.809046  1
  O  O16  1  0.190954  0.809046  0.190954  1
  O  O17  1  0.440954  0.059046  0.059046  1
  O  O18  1  0.059046  0.440954  0.440954  1
  O  O19  1  0.440954  0.440954  0.059046  1
  O  O20  1  0.059046  0.059046  0.440954  1
  O  O21  1  0.440954  0.059046  0.440954  1
