# generated using pymatgen
data_Fe(PdSe)2
_symmetry_space_group_name_H-M   'P 1'
_cell_length_a   6.63512367
_cell_length_b   6.63512367
_cell_length_c   6.63512367
_cell_angle_alpha   134.80298876
_cell_angle_beta   126.72002507
_cell_angle_gamma   72.38757700
_symmetry_Int_Tables_number   1
_chemical_formula_structural   Fe(PdSe)2
_chemical_formula_sum   'Fe2 Pd4 Se4'
_cell_volume   162.47282522
_cell_formula_units_Z   2
loop_
 _symmetry_equiv_pos_site_id
 _symmetry_equiv_pos_as_xyz
  1  'x, y, z'
loop_
 _atom_site_type_symbol
 _atom_site_label
 _atom_site_symmetry_multiplicity
 _atom_site_fract_x
 _atom_site_fract_y
 _atom_site_fract_z
 _atom_site_occupancy
  Fe  Fe0  1  0.000000  0.750000  0.750000  1
  Fe  Fe1  1  0.000000  0.250000  0.250000  1
  Pd  Pd2  1  0.268711  0.888690  0.380021  1
  Pd  Pd3  1  0.731289  0.111310  0.619979  1
  Pd  Pd4  1  0.491331  0.611310  0.880021  1
  Pd  Pd5  1  0.508669  0.388690  0.119979  1
  Se  Se6  1  0.942124  0.643935  0.298189  1
  Se  Se7  1  0.057876  0.356065  0.701811  1
  Se  Se8  1  0.345746  0.143935  0.201811  1
  Se  Se9  1  0.654254  0.856065  0.798189  1
