# generated using pymatgen
data_K2Li3B(P2O7)2
_symmetry_space_group_name_H-M   'P 1'
_cell_length_a   14.10716467
_cell_length_b   14.10716467
_cell_length_c   7.00045202
_cell_angle_alpha   90.00000000
_cell_angle_beta   90.00000000
_cell_angle_gamma   119.70924058
_symmetry_Int_Tables_number   1
_chemical_formula_structural   K2Li3B(P2O7)2
_chemical_formula_sum   'K8 Li12 B4 P16 O56'
_cell_volume   1210.04404221
_cell_formula_units_Z   4
loop_
 _symmetry_equiv_pos_site_id
 _symmetry_equiv_pos_as_xyz
  1  'x, y, z'
loop_
 _atom_site_type_symbol
 _atom_site_label
 _atom_site_symmetry_multiplicity
 _atom_site_fract_x
 _atom_site_fract_y
 _atom_site_fract_z
 _atom_site_occupancy
  K  K0  1  0.591980  0.091980  0.750000  1
  K  K1  1  0.908020  0.408020  0.250000  1
  K  K2  1  0.408020  0.908020  0.250000  1
  K  K3  1  0.091980  0.591980  0.750000  1
  K  K4  1  0.608970  0.608970  0.698263  1
  K  K5  1  0.391030  0.391030  0.301737  1
  K  K6  1  0.891030  0.891030  0.198263  1
  K  K7  1  0.108970  0.108970  0.801737  1
  Li  Li8  1  0.629649  0.898662  0.974172  1
  Li  Li9  1  0.101338  0.370351  0.025828  1
  Li  Li10  1  0.601338  0.870351  0.474172  1
  Li  Li11  1  0.129649  0.398662  0.525828  1
  Li  Li12  1  0.370351  0.101338  0.025828  1
  Li  Li13  1  0.898662  0.629649  0.974172  1
  Li  Li14  1  0.398662  0.129649  0.525828  1
  Li  Li15  1  0.870351  0.601338  0.474172  1
  Li  Li16  1  0.882156  0.117844  0.000000  1
  Li  Li17  1  0.382156  0.617844  0.500000  1
  Li  Li18  1  0.117844  0.882156  0.000000  1
  Li  Li19  1  0.617844  0.382156  0.500000  1
  B  B20  1  0.881147  0.118853  0.500000  1
  B  B21  1  0.381147  0.618853  0.000000  1
  B  B22  1  0.118853  0.881147  0.500000  1
  B  B23  1  0.618853  0.381147  0.000000  1
  P  P24  1  0.799901  0.923662  0.697061  1
  P  P25  1  0.076338  0.200099  0.302939  1
  P  P26  1  0.576338  0.700099  0.197061  1
  P  P27  1  0.299901  0.423662  0.802939  1
  P  P28  1  0.200099  0.076338  0.302939  1
  P  P29  1  0.923662  0.799901  0.697061  1
  P  P30  1  0.423662  0.299901  0.802939  1
  P  P31  1  0.700099  0.576338  0.197061  1
  P  P32  1  0.404157  0.784442  0.757236  1
  P  P33  1  0.215558  0.595843  0.242764  1
  P  P34  1  0.715558  0.095843  0.257236  1
  P  P35  1  0.904157  0.284442  0.742764  1
  P  P36  1  0.595843  0.215558  0.242764  1
  P  P37  1  0.784442  0.404157  0.757236  1
  P  P38  1  0.284442  0.904157  0.742764  1
  P  P39  1  0.095843  0.715558  0.257236  1
  O  O40  1  0.864597  0.983457  0.870023  1
  O  O41  1  0.016543  0.135403  0.129977  1
  O  O42  1  0.516543  0.635403  0.370023  1
  O  O43  1  0.364597  0.483457  0.629977  1
  O  O44  1  0.135403  0.016543  0.129977  1
  O  O45  1  0.983457  0.864597  0.870023  1
  O  O46  1  0.483457  0.364597  0.629977  1
  O  O47  1  0.635403  0.516543  0.370023  1
  O  O48  1  0.832642  0.998612  0.513254  1
  O  O49  1  0.001388  0.167358  0.486746  1
  O  O50  1  0.501388  0.667358  0.013254  1
  O  O51  1  0.332642  0.498612  0.986746  1
  O  O52  1  0.167358  0.001388  0.486746  1
  O  O53  1  0.998612  0.832642  0.513254  1
  O  O54  1  0.498612  0.332642  0.986746  1
  O  O55  1  0.667358  0.501388  0.013254  1
  O  O56  1  0.831274  0.831274  0.629202  1
  O  O57  1  0.168726  0.168726  0.370798  1
  O  O58  1  0.668726  0.668726  0.129202  1
  O  O59  1  0.331274  0.331274  0.870798  1
  O  O60  1  0.676445  0.861811  0.716501  1
  O  O61  1  0.138189  0.323555  0.283499  1
  O  O62  1  0.638189  0.823555  0.216501  1
  O  O63  1  0.176445  0.361811  0.783499  1
  O  O64  1  0.323555  0.138189  0.283499  1
  O  O65  1  0.861811  0.676445  0.716501  1
  O  O66  1  0.361811  0.176445  0.783499  1
  O  O67  1  0.823555  0.638189  0.216501  1
  O  O68  1  0.481397  0.868403  0.897618  1
  O  O69  1  0.131597  0.518603  0.102382  1
  O  O70  1  0.631597  0.018603  0.397618  1
  O  O71  1  0.981397  0.368403  0.602382  1
  O  O72  1  0.518603  0.131597  0.102382  1
  O  O73  1  0.868403  0.481397  0.897618  1
  O  O74  1  0.368403  0.981397  0.602382  1
  O  O75  1  0.018603  0.631597  0.397618  1
  O  O76  1  0.291811  0.791811  0.750000  1
  O  O77  1  0.208189  0.708189  0.250000  1
  O  O78  1  0.708189  0.208189  0.250000  1
  O  O79  1  0.791811  0.291811  0.750000  1
  O  O80  1  0.355562  0.661965  0.826906  1
  O  O81  1  0.338035  0.644438  0.173094  1
  O  O82  1  0.838035  0.144438  0.326906  1
  O  O83  1  0.855562  0.161965  0.673094  1
  O  O84  1  0.644438  0.338035  0.173094  1
  O  O85  1  0.661965  0.355562  0.826906  1
  O  O86  1  0.161965  0.855562  0.673094  1
  O  O87  1  0.144438  0.838035  0.326906  1
  O  O88  1  0.443170  0.789027  0.553909  1
  O  O89  1  0.210973  0.556830  0.446091  1
  O  O90  1  0.710973  0.056830  0.053909  1
  O  O91  1  0.943170  0.289027  0.946091  1
  O  O92  1  0.556830  0.210973  0.446091  1
  O  O93  1  0.789027  0.443170  0.553909  1
  O  O94  1  0.289027  0.943170  0.946091  1
  O  O95  1  0.056830  0.710973  0.053909  1
