# generated using pymatgen
data_LaPO4
_symmetry_space_group_name_H-M   'P 1'
_cell_length_a   6.05286150
_cell_length_b   6.05286150
_cell_length_c   6.05286150
_cell_angle_alpha   105.94203552
_cell_angle_beta   105.94203552
_cell_angle_gamma   116.78671268
_symmetry_Int_Tables_number   1
_chemical_formula_structural   LaPO4
_chemical_formula_sum   'La2 P2 O8'
_cell_volume   168.59801185
_cell_formula_units_Z   2
loop_
 _symmetry_equiv_pos_site_id
 _symmetry_equiv_pos_as_xyz
  1  'x, y, z'
loop_
 _atom_site_type_symbol
 _atom_site_label
 _atom_site_symmetry_multiplicity
 _atom_site_fract_x
 _atom_site_fract_y
 _atom_site_fract_z
 _atom_site_occupancy
  La  La0  1  0.000000  0.000000  0.000000  1
  La  La1  1  0.250000  0.750000  0.500000  1
  P  P2  1  0.750000  0.250000  0.500000  1
  P  P3  1  0.500000  0.500000  0.000000  1
  O  O4  1  0.900841  0.232250  0.331410  1
  O  O5  1  0.819431  0.650841  0.168590  1
  O  O6  1  0.482250  0.650841  0.831410  1
  O  O7  1  0.900841  0.569431  0.668590  1
  O  O8  1  0.349159  0.517750  0.168590  1
  O  O9  1  0.430569  0.099159  0.331410  1
  O  O10  1  0.767750  0.099159  0.668590  1
  O  O11  1  0.349159  0.180569  0.831410  1
