# generated using pymatgen
data_NaCaVO4
_symmetry_space_group_name_H-M   'P 1'
_cell_length_a   5.57766170
_cell_length_b   5.57766170
_cell_length_c   7.20486927
_cell_angle_alpha   90.00000000
_cell_angle_beta   90.00000000
_cell_angle_gamma   115.19746638
_symmetry_Int_Tables_number   1
_chemical_formula_structural   NaCaVO4
_chemical_formula_sum   'Na2 Ca2 V2 O8'
_cell_volume   202.81732843
_cell_formula_units_Z   2
loop_
 _symmetry_equiv_pos_site_id
 _symmetry_equiv_pos_as_xyz
  1  'x, y, z'
loop_
 _atom_site_type_symbol
 _atom_site_label
 _atom_site_symmetry_multiplicity
 _atom_site_fract_x
 _atom_site_fract_y
 _atom_site_fract_z
 _atom_site_occupancy
  Na  Na0  1  0.821387  0.178613  0.250000  1
  Na  Na1  1  0.178613  0.821387  0.750000  1
  Ca  Ca2  1  0.500000  0.500000  0.500000  1
  Ca  Ca3  1  0.500000  0.500000  0.000000  1
  V  V4  1  0.148004  0.851996  0.250000  1
  V  V5  1  0.851996  0.148004  0.750000  1
  O  O6  1  0.745157  0.254843  0.943410  1
  O  O7  1  0.254843  0.745157  0.443410  1
  O  O8  1  0.254843  0.745157  0.056590  1
  O  O9  1  0.745157  0.254843  0.556590  1
  O  O10  1  0.277672  0.203092  0.250000  1
  O  O11  1  0.722328  0.796908  0.750000  1
  O  O12  1  0.796908  0.722328  0.250000  1
  O  O13  1  0.203092  0.277672  0.750000  1
