# generated using pymatgen
data_DyBO3
_symmetry_space_group_name_H-M   'P 1'
_cell_length_a   7.24318126
_cell_length_b   9.03684641
_cell_length_c   9.92157440
_cell_angle_alpha   81.35852095
_cell_angle_beta   85.73993352
_cell_angle_gamma   77.30893812
_symmetry_Int_Tables_number   1
_chemical_formula_structural   DyBO3
_chemical_formula_sum   'Dy12 B12 O36'
_cell_volume   625.78963717
_cell_formula_units_Z   12
loop_
 _symmetry_equiv_pos_site_id
 _symmetry_equiv_pos_as_xyz
  1  'x, y, z'
loop_
 _atom_site_type_symbol
 _atom_site_label
 _atom_site_symmetry_multiplicity
 _atom_site_fract_x
 _atom_site_fract_y
 _atom_site_fract_z
 _atom_site_occupancy
  Dy  Dy0  1  0.262220  0.558675  0.972925  1
  Dy  Dy1  1  0.737780  0.441325  0.027075  1
  Dy  Dy2  1  0.751335  0.956885  0.519094  1
  Dy  Dy3  1  0.248665  0.043115  0.480906  1
  Dy  Dy4  1  0.901546  0.068312  0.836764  1
  Dy  Dy5  1  0.098454  0.931688  0.163236  1
  Dy  Dy6  1  0.098056  0.435452  0.671261  1
  Dy  Dy7  1  0.901944  0.564548  0.328739  1
  Dy  Dy8  1  0.564652  0.558558  0.657546  1
  Dy  Dy9  1  0.435348  0.441442  0.342454  1
  Dy  Dy10  1  0.426774  0.943300  0.844618  1
  Dy  Dy11  1  0.573226  0.056700  0.155382  1
  B  B12  1  0.477942  0.284540  0.922436  1
  B  B13  1  0.522058  0.715460  0.077564  1
  B  B14  1  0.466314  0.779289  0.386903  1
  B  B15  1  0.533686  0.220711  0.613097  1
  B  B16  1  0.831753  0.728614  0.794594  1
  B  B17  1  0.168247  0.271386  0.205406  1
  B  B18  1  0.219463  0.782765  0.691640  1
  B  B19  1  0.780537  0.217235  0.308360  1
  B  B20  1  0.883440  0.744121  0.051137  1
  B  B21  1  0.116560  0.255879  0.948863  1
  B  B22  1  0.108272  0.751769  0.448174  1
  B  B23  1  0.891728  0.248231  0.551826  1
  O  O24  1  0.061755  0.185905  0.629554  1
  O  O25  1  0.938245  0.814095  0.370446  1
  O  O26  1  0.944314  0.318701  0.873649  1
  O  O27  1  0.055686  0.681299  0.126351  1
  O  O28  1  0.918563  0.162739  0.427873  1
  O  O29  1  0.081437  0.837261  0.572127  1
  O  O30  1  0.083151  0.333066  0.080494  1
  O  O31  1  0.916849  0.666934  0.919506  1
  O  O32  1  0.849699  0.412321  0.534494  1
  O  O33  1  0.150301  0.587679  0.465506  1
  O  O34  1  0.153139  0.090570  0.964466  1
  O  O35  1  0.846861  0.909430  0.035534  1
  O  O36  1  0.269303  0.816686  0.364959  1
  O  O37  1  0.730697  0.183314  0.635041  1
  O  O38  1  0.272625  0.322369  0.873583  1
  O  O39  1  0.727375  0.677631  0.126417  1
  O  O40  1  0.844167  0.124912  0.198930  1
  O  O41  1  0.155833  0.875088  0.801070  1
  O  O42  1  0.167692  0.369427  0.299258  1
  O  O43  1  0.832308  0.630573  0.700742  1
  O  O44  1  0.754975  0.382684  0.263060  1
  O  O45  1  0.245025  0.617316  0.736940  1
  O  O46  1  0.245769  0.117139  0.239493  1
  O  O47  1  0.754231  0.882861  0.760507  1
  O  O48  1  0.453850  0.094599  0.625343  1
  O  O49  1  0.546150  0.905401  0.374657  1
  O  O50  1  0.434953  0.594752  0.149238  1
  O  O51  1  0.565047  0.405248  0.850762  1
  O  O52  1  0.565707  0.632218  0.416244  1
  O  O53  1  0.434293  0.367782  0.583756  1
  O  O54  1  0.428776  0.872228  0.087450  1
  O  O55  1  0.571224  0.127772  0.912550  1
  O  O56  1  0.593047  0.186196  0.367100  1
  O  O57  1  0.406953  0.813804  0.632900  1
  O  O58  1  0.473771  0.311462  0.070499  1
  O  O59  1  0.526229  0.688538  0.929501  1
