# generated using pymatgen
data_Mg(P2Rh3)2
_symmetry_space_group_name_H-M   'P 1'
_cell_length_a   7.11157117
_cell_length_b   7.11157117
_cell_length_c   3.54038141
_cell_angle_alpha   90.00000000
_cell_angle_beta   90.00000000
_cell_angle_gamma   120.00000000
_symmetry_Int_Tables_number   1
_chemical_formula_structural   Mg(P2Rh3)2
_chemical_formula_sum   'Mg1 P4 Rh6'
_cell_volume   155.06429334
_cell_formula_units_Z   1
loop_
 _symmetry_equiv_pos_site_id
 _symmetry_equiv_pos_as_xyz
  1  'x, y, z'
loop_
 _atom_site_type_symbol
 _atom_site_label
 _atom_site_symmetry_multiplicity
 _atom_site_fract_x
 _atom_site_fract_y
 _atom_site_fract_z
 _atom_site_occupancy
  Mg  Mg0  1  0.000000  0.000000  0.000000  1
  P  P1  1  0.812230  0.187770  0.500000  1
  P  P2  1  0.375540  0.187770  0.500000  1
  P  P3  1  0.333333  0.666667  0.000000  1
  P  P4  1  0.812230  0.624460  0.500000  1
  Rh  Rh5  1  0.191288  0.808712  0.500000  1
  Rh  Rh6  1  0.191288  0.382577  0.500000  1
  Rh  Rh7  1  0.534297  0.068595  0.000000  1
  Rh  Rh8  1  0.931405  0.465703  0.000000  1
  Rh  Rh9  1  0.534297  0.465703  0.000000  1
  Rh  Rh10  1  0.617423  0.808712  0.500000  1
