# generated using pymatgen
data_La3AgSnSe7
_symmetry_space_group_name_H-M   'P 1'
_cell_length_a   10.92425527
_cell_length_b   10.92425527
_cell_length_c   6.32983855
_cell_angle_alpha   90.00000000
_cell_angle_beta   90.00000000
_cell_angle_gamma   120.00000000
_symmetry_Int_Tables_number   1
_chemical_formula_structural   La3AgSnSe7
_chemical_formula_sum   'La6 Ag2 Sn2 Se14'
_cell_volume   654.19458407
_cell_formula_units_Z   2
loop_
 _symmetry_equiv_pos_site_id
 _symmetry_equiv_pos_as_xyz
  1  'x, y, z'
loop_
 _atom_site_type_symbol
 _atom_site_label
 _atom_site_symmetry_multiplicity
 _atom_site_fract_x
 _atom_site_fract_y
 _atom_site_fract_z
 _atom_site_occupancy
  La  La0  1  0.866560  0.223491  0.617473  1
  La  La1  1  0.643070  0.866560  0.117473  1
  La  La2  1  0.223491  0.356930  0.117473  1
  La  La3  1  0.776509  0.643070  0.617473  1
  La  La4  1  0.356930  0.133440  0.617473  1
  La  La5  1  0.133440  0.776509  0.117473  1
  Ag  Ag6  1  0.000000  0.000000  0.554021  1
  Ag  Ag7  1  0.000000  0.000000  0.054021  1
  Sn  Sn8  1  0.666667  0.333333  0.199445  1
  Sn  Sn9  1  0.333333  0.666667  0.699445  1
  Se  Se10  1  0.666667  0.333333  0.800574  1
  Se  Se11  1  0.333333  0.666667  0.300574  1
  Se  Se12  1  0.166261  0.269616  0.592920  1
  Se  Se13  1  0.896645  0.166261  0.092920  1
  Se  Se14  1  0.269616  0.103355  0.092920  1
  Se  Se15  1  0.730384  0.896645  0.592920  1
  Se  Se16  1  0.103355  0.833739  0.592920  1
  Se  Se17  1  0.833739  0.730384  0.092920  1
  Se  Se18  1  0.574976  0.088767  0.371015  1
  Se  Se19  1  0.486208  0.574976  0.871015  1
  Se  Se20  1  0.425024  0.911233  0.871015  1
  Se  Se21  1  0.513792  0.425024  0.371015  1
  Se  Se22  1  0.911233  0.486208  0.371015  1
  Se  Se23  1  0.088767  0.513792  0.871015  1
