# generated using pymatgen
data_CaCu3(SnO3)4
_symmetry_space_group_name_H-M   'P 1'
_cell_length_a   6.72614026
_cell_length_b   6.72614026
_cell_length_c   6.72614026
_cell_angle_alpha   109.47122063
_cell_angle_beta   109.47122063
_cell_angle_gamma   109.47122063
_symmetry_Int_Tables_number   1
_chemical_formula_structural   CaCu3(SnO3)4
_chemical_formula_sum   'Ca1 Cu3 Sn4 O12'
_cell_volume   234.24798712
_cell_formula_units_Z   1
loop_
 _symmetry_equiv_pos_site_id
 _symmetry_equiv_pos_as_xyz
  1  'x, y, z'
loop_
 _atom_site_type_symbol
 _atom_site_label
 _atom_site_symmetry_multiplicity
 _atom_site_fract_x
 _atom_site_fract_y
 _atom_site_fract_z
 _atom_site_occupancy
  Ca  Ca0  1  0.000000  0.000000  0.000000  1
  Cu  Cu1  1  0.500000  0.500000  0.000000  1
  Cu  Cu2  1  0.000000  0.500000  0.500000  1
  Cu  Cu3  1  0.500000  1.000000  0.500000  1
  Sn  Sn4  1  0.500000  0.500000  0.500000  1
  Sn  Sn5  1  0.000000  0.500000  1.000000  1
  Sn  Sn6  1  1.000000  1.000000  0.500000  1
  Sn  Sn7  1  0.500000  0.000000  1.000000  1
  O  O8  1  0.830417  0.307142  0.137560  1
  O  O9  1  0.169583  0.692858  0.862440  1
  O  O10  1  0.830417  0.692858  0.523275  1
  O  O11  1  0.307142  0.476725  0.169583  1
  O  O12  1  0.476725  0.169583  0.307142  1
  O  O13  1  0.137560  0.830417  0.307142  1
  O  O14  1  0.692858  0.862440  0.169583  1
  O  O15  1  0.523275  0.830417  0.692858  1
  O  O16  1  0.169583  0.307142  0.476725  1
  O  O17  1  0.692858  0.523275  0.830417  1
  O  O18  1  0.862440  0.169583  0.692858  1
  O  O19  1  0.307142  0.137560  0.830417  1
