# generated using pymatgen
data_SrNbO3
_symmetry_space_group_name_H-M   'P 1'
_cell_length_a   5.75165399
_cell_length_b   5.75490558
_cell_length_c   8.19661958
_cell_angle_alpha   90.00000000
_cell_angle_beta   90.00000000
_cell_angle_gamma   90.00000000
_symmetry_Int_Tables_number   1
_chemical_formula_structural   SrNbO3
_chemical_formula_sum   'Sr4 Nb4 O12'
_cell_volume   271.30995759
_cell_formula_units_Z   4
loop_
 _symmetry_equiv_pos_site_id
 _symmetry_equiv_pos_as_xyz
  1  'x, y, z'
loop_
 _atom_site_type_symbol
 _atom_site_label
 _atom_site_symmetry_multiplicity
 _atom_site_fract_x
 _atom_site_fract_y
 _atom_site_fract_z
 _atom_site_occupancy
  Sr  Sr0  1  0.999738  0.017470  0.750000  1
  Sr  Sr1  1  0.500262  0.517470  0.750000  1
  Sr  Sr2  1  0.499738  0.482530  0.250000  1
  Sr  Sr3  1  0.000262  0.982530  0.250000  1
  Nb  Nb4  1  0.500000  0.000000  0.500000  1
  Nb  Nb5  1  0.000000  0.500000  0.000000  1
  Nb  Nb6  1  0.000000  0.500000  0.500000  1
  Nb  Nb7  1  0.500000  0.000000  0.000000  1
  O  O8  1  0.281073  0.719118  0.481102  1
  O  O9  1  0.218927  0.219118  0.018898  1
  O  O10  1  0.781073  0.780882  0.518898  1
  O  O11  1  0.718927  0.280882  0.981102  1
  O  O12  1  0.718927  0.280882  0.518898  1
  O  O13  1  0.781073  0.780882  0.981102  1
  O  O14  1  0.218927  0.219118  0.481102  1
  O  O15  1  0.281073  0.719118  0.018898  1
  O  O16  1  0.962308  0.505713  0.250000  1
  O  O17  1  0.537692  0.005713  0.250000  1
  O  O18  1  0.462308  0.994287  0.750000  1
  O  O19  1  0.037692  0.494287  0.750000  1
