# generated using pymatgen
data_Tb2Co3Ge5
_symmetry_space_group_name_H-M   'P 1'
_cell_length_a   8.09626007
_cell_length_b   8.09626007
_cell_length_c   5.73361288
_cell_angle_alpha   70.28801647
_cell_angle_beta   109.71198353
_cell_angle_gamma   86.53099195
_symmetry_Int_Tables_number   1
_chemical_formula_structural   Tb2Co3Ge5
_chemical_formula_sum   'Tb4 Co6 Ge10'
_cell_volume   326.57427800
_cell_formula_units_Z   2
loop_
 _symmetry_equiv_pos_site_id
 _symmetry_equiv_pos_as_xyz
  1  'x, y, z'
loop_
 _atom_site_type_symbol
 _atom_site_label
 _atom_site_symmetry_multiplicity
 _atom_site_fract_x
 _atom_site_fract_y
 _atom_site_fract_z
 _atom_site_occupancy
  Tb  Tb0  1  0.592866  0.128511  0.232842  1
  Tb  Tb1  1  0.128511  0.592866  0.267158  1
  Tb  Tb2  1  0.407134  0.871489  0.767158  1
  Tb  Tb3  1  0.871489  0.407134  0.732842  1
  Co  Co4  1  0.542175  0.739245  0.382725  1
  Co  Co5  1  0.739245  0.542175  0.117275  1
  Co  Co6  1  0.457825  0.260755  0.617275  1
  Co  Co7  1  0.260755  0.457825  0.882725  1
  Co  Co8  1  0.997823  0.997823  0.250000  1
  Co  Co9  1  0.002177  0.002177  0.750000  1
  Ge  Ge10  1  0.492445  0.492445  0.250000  1
  Ge  Ge11  1  0.507555  0.507555  0.750000  1
  Ge  Ge12  1  0.261575  0.922678  0.171912  1
  Ge  Ge13  1  0.922678  0.261575  0.328088  1
  Ge  Ge14  1  0.738425  0.077322  0.828088  1
  Ge  Ge15  1  0.077322  0.738425  0.671912  1
  Ge  Ge16  1  0.785169  0.785169  0.250000  1
  Ge  Ge17  1  0.214831  0.214831  0.750000  1
  Ge  Ge18  1  0.225844  0.225844  0.250000  1
  Ge  Ge19  1  0.774156  0.774156  0.750000  1
