# generated using pymatgen
data_LaSi3N5
_symmetry_space_group_name_H-M   'P 1'
_cell_length_a   4.83632415
_cell_length_b   7.90358119
_cell_length_c   11.35884614
_cell_angle_alpha   90.00000000
_cell_angle_beta   90.00000000
_cell_angle_gamma   90.00000000
_symmetry_Int_Tables_number   1
_chemical_formula_structural   LaSi3N5
_chemical_formula_sum   'La4 Si12 N20'
_cell_volume   434.18372193
_cell_formula_units_Z   4
loop_
 _symmetry_equiv_pos_site_id
 _symmetry_equiv_pos_as_xyz
  1  'x, y, z'
loop_
 _atom_site_type_symbol
 _atom_site_label
 _atom_site_symmetry_multiplicity
 _atom_site_fract_x
 _atom_site_fract_y
 _atom_site_fract_z
 _atom_site_occupancy
  La  La0  1  0.994825  0.940136  0.670061  1
  La  La1  1  0.494825  0.559864  0.329939  1
  La  La2  1  0.005175  0.440136  0.829939  1
  La  La3  1  0.505175  0.059864  0.170061  1
  Si  Si4  1  0.486303  0.661946  0.660295  1
  Si  Si5  1  0.986303  0.838054  0.339705  1
  Si  Si6  1  0.513697  0.161946  0.839705  1
  Si  Si7  1  0.013697  0.338054  0.160295  1
  Si  Si8  1  0.483417  0.793215  0.916661  1
  Si  Si9  1  0.983417  0.706785  0.083339  1
  Si  Si10  1  0.516583  0.293215  0.583339  1
  Si  Si11  1  0.016583  0.206785  0.416661  1
  Si  Si12  1  0.976362  0.532879  0.540857  1
  Si  Si13  1  0.476362  0.967121  0.459143  1
  Si  Si14  1  0.023638  0.032879  0.959143  1
  Si  Si15  1  0.523638  0.467121  0.040857  1
  N  N16  1  0.455028  0.842055  0.579217  1
  N  N17  1  0.955028  0.657945  0.420783  1
  N  N18  1  0.544972  0.342055  0.920783  1
  N  N19  1  0.044972  0.157945  0.079217  1
  N  N20  1  0.336669  0.706521  0.794333  1
  N  N21  1  0.836669  0.793479  0.205667  1
  N  N22  1  0.663331  0.206521  0.705667  1
  N  N23  1  0.163331  0.293479  0.294333  1
  N  N24  1  0.315327  0.481670  0.593019  1
  N  N25  1  0.815327  0.018330  0.406981  1
  N  N26  1  0.684673  0.981670  0.906981  1
  N  N27  1  0.184673  0.518330  0.093019  1
  N  N28  1  0.202823  0.849700  0.009751  1
  N  N29  1  0.702823  0.650300  0.990249  1
  N  N30  1  0.797177  0.349700  0.490249  1
  N  N31  1  0.297177  0.150300  0.509751  1
  N  N32  1  0.828880  0.610153  0.667347  1
  N  N33  1  0.328880  0.889847  0.332653  1
  N  N34  1  0.171120  0.110153  0.832653  1
  N  N35  1  0.671120  0.389847  0.167347  1
