# generated using pymatgen
data_Sc2MnSe4
_symmetry_space_group_name_H-M   'P 1'
_cell_length_a   7.88474361
_cell_length_b   7.88474361
_cell_length_c   7.88474361
_cell_angle_alpha   60.00000000
_cell_angle_beta   60.00000000
_cell_angle_gamma   60.00000000
_symmetry_Int_Tables_number   1
_chemical_formula_structural   Sc2MnSe4
_chemical_formula_sum   'Sc4 Mn2 Se8'
_cell_volume   346.61530012
_cell_formula_units_Z   2
loop_
 _symmetry_equiv_pos_site_id
 _symmetry_equiv_pos_as_xyz
  1  'x, y, z'
loop_
 _atom_site_type_symbol
 _atom_site_label
 _atom_site_symmetry_multiplicity
 _atom_site_fract_x
 _atom_site_fract_y
 _atom_site_fract_z
 _atom_site_occupancy
  Sc  Sc0  1  0.625000  0.125000  0.125000  1
  Sc  Sc1  1  0.125000  0.125000  0.625000  1
  Sc  Sc2  1  0.125000  0.625000  0.125000  1
  Sc  Sc3  1  0.125000  0.125000  0.125000  1
  Mn  Mn4  1  0.500000  0.500000  0.500000  1
  Mn  Mn5  1  0.750000  0.750000  0.750000  1
  Se  Se6  1  0.369113  0.892661  0.369113  1
  Se  Se7  1  0.880887  0.880887  0.880887  1
  Se  Se8  1  0.880887  0.880887  0.357339  1
  Se  Se9  1  0.357339  0.880887  0.880887  1
  Se  Se10  1  0.369113  0.369113  0.892661  1
  Se  Se11  1  0.892661  0.369113  0.369113  1
  Se  Se12  1  0.369113  0.369113  0.369113  1
  Se  Se13  1  0.880887  0.357339  0.880887  1
