# generated using pymatgen
data_AlRe2
_symmetry_space_group_name_H-M   'P 1'
_cell_length_a   5.27692285
_cell_length_b   5.27692285
_cell_length_c   5.27692285
_cell_angle_alpha   146.91677590
_cell_angle_beta   146.91677590
_cell_angle_gamma   47.48702490
_symmetry_Int_Tables_number   1
_chemical_formula_structural   AlRe2
_chemical_formula_sum   'Al1 Re2'
_cell_volume   43.61171670
_cell_formula_units_Z   1
loop_
 _symmetry_equiv_pos_site_id
 _symmetry_equiv_pos_as_xyz
  1  'x, y, z'
loop_
 _atom_site_type_symbol
 _atom_site_label
 _atom_site_symmetry_multiplicity
 _atom_site_fract_x
 _atom_site_fract_y
 _atom_site_fract_z
 _atom_site_occupancy
  Al  Al0  1  0.000000  0.000000  0.000000  1
  Re  Re1  1  0.331135  0.331135  0.000000  1
  Re  Re2  1  0.668865  0.668865  0.000000  1
