# generated using pymatgen
data_Nd4Si2Se3O7
_symmetry_space_group_name_H-M   'P 1'
_cell_length_a   11.27998017
_cell_length_b   11.27998017
_cell_length_c   11.27998017
_cell_angle_alpha   114.55158270
_cell_angle_beta   114.55158270
_cell_angle_gamma   99.72825182
_symmetry_Int_Tables_number   1
_chemical_formula_structural   Nd4Si2Se3O7
_chemical_formula_sum   'Nd16 Si8 Se12 O28'
_cell_volume   1081.48953837
_cell_formula_units_Z   4
loop_
 _symmetry_equiv_pos_site_id
 _symmetry_equiv_pos_as_xyz
  1  'x, y, z'
loop_
 _atom_site_type_symbol
 _atom_site_label
 _atom_site_symmetry_multiplicity
 _atom_site_fract_x
 _atom_site_fract_y
 _atom_site_fract_z
 _atom_site_occupancy
  Nd  Nd0  1  0.922483  0.422483  0.844967  1
  Nd  Nd1  1  0.577517  0.077517  0.155033  1
  Nd  Nd2  1  0.172483  0.827517  0.000000  1
  Nd  Nd3  1  0.827517  0.172483  0.000000  1
  Nd  Nd4  1  0.577517  0.422483  0.500000  1
  Nd  Nd5  1  0.172483  0.172483  0.344967  1
  Nd  Nd6  1  0.827517  0.827517  0.655033  1
  Nd  Nd7  1  0.922483  0.077517  0.500000  1
  Nd  Nd8  1  0.051703  0.791240  0.260463  1
  Nd  Nd9  1  0.530777  0.791240  0.739537  1
  Nd  Nd10  1  0.208760  0.469223  0.260463  1
  Nd  Nd11  1  0.541240  0.301703  0.760463  1
  Nd  Nd12  1  0.541240  0.780777  0.239537  1
  Nd  Nd13  1  0.219223  0.458760  0.760463  1
  Nd  Nd14  1  0.698297  0.458760  0.239537  1
  Nd  Nd15  1  0.208760  0.948297  0.739537  1
  Si  Si16  1  0.655364  0.031407  0.623957  1
  Si  Si17  1  0.407449  0.031407  0.376043  1
  Si  Si18  1  0.968593  0.592551  0.623957  1
  Si  Si19  1  0.781407  0.905364  0.123957  1
  Si  Si20  1  0.781407  0.657449  0.876043  1
  Si  Si21  1  0.342551  0.218593  0.123957  1
  Si  Si22  1  0.094636  0.218593  0.876043  1
  Si  Si23  1  0.968593  0.344636  0.376043  1
  Se  Se24  1  0.750000  0.250000  0.500000  1
  Se  Se25  1  0.000000  0.000000  0.000000  1
  Se  Se26  1  0.500000  0.500000  0.000000  1
  Se  Se27  1  0.250000  0.750000  0.500000  1
  Se  Se28  1  0.229009  0.125000  0.604009  1
  Se  Se29  1  0.875000  0.770991  0.395991  1
  Se  Se30  1  0.375000  0.479009  0.604009  1
  Se  Se31  1  0.520991  0.625000  0.395991  1
  Se  Se32  1  0.520991  0.125000  0.895991  1
  Se  Se33  1  0.875000  0.479009  0.104009  1
  Se  Se34  1  0.375000  0.770991  0.895991  1
  Se  Se35  1  0.229009  0.625000  0.104009  1
  O  O36  1  0.015282  0.515282  0.500000  1
  O  O37  1  0.265282  0.265282  0.000000  1
  O  O38  1  0.734718  0.734718  0.000000  1
  O  O39  1  0.484718  0.984718  0.500000  1
  O  O40  1  0.229338  0.955567  0.273771  1
  O  O41  1  0.681796  0.955567  0.726229  1
  O  O42  1  0.044433  0.318204  0.273771  1
  O  O43  1  0.705567  0.479338  0.773771  1
  O  O44  1  0.705567  0.931796  0.226229  1
  O  O45  1  0.068204  0.294433  0.773771  1
  O  O46  1  0.520662  0.294433  0.226229  1
  O  O47  1  0.044433  0.770662  0.726229  1
  O  O48  1  0.306723  0.284596  0.259056  1
  O  O49  1  0.025540  0.047667  0.740944  1
  O  O50  1  0.952333  0.974460  0.259056  1
  O  O51  1  0.797667  0.556723  0.522127  1
  O  O52  1  0.034596  0.556723  0.759056  1
  O  O53  1  0.715404  0.693277  0.740944  1
  O  O54  1  0.025540  0.284596  0.977873  1
  O  O55  1  0.715404  0.974460  0.022127  1
  O  O56  1  0.952333  0.693277  0.977873  1
  O  O57  1  0.797667  0.275540  0.240944  1
  O  O58  1  0.724460  0.202333  0.759056  1
  O  O59  1  0.443277  0.965404  0.240944  1
  O  O60  1  0.034596  0.275540  0.477873  1
  O  O61  1  0.724460  0.965404  0.522127  1
  O  O62  1  0.443277  0.202333  0.477873  1
  O  O63  1  0.306723  0.047667  0.022127  1
