# generated using pymatgen
data_Ba2Ge2Te5
_symmetry_space_group_name_H-M   'P 1'
_cell_length_a   9.36486245
_cell_length_b   10.10031814
_cell_length_c   13.61946872
_cell_angle_alpha   90.00000000
_cell_angle_beta   90.00000000
_cell_angle_gamma   90.00000000
_symmetry_Int_Tables_number   1
_chemical_formula_structural   Ba2Ge2Te5
_chemical_formula_sum   'Ba8 Ge8 Te20'
_cell_volume   1288.23953416
_cell_formula_units_Z   4
loop_
 _symmetry_equiv_pos_site_id
 _symmetry_equiv_pos_as_xyz
  1  'x, y, z'
loop_
 _atom_site_type_symbol
 _atom_site_label
 _atom_site_symmetry_multiplicity
 _atom_site_fract_x
 _atom_site_fract_y
 _atom_site_fract_z
 _atom_site_occupancy
  Ba  Ba0  1  0.603423  0.919533  0.334292  1
  Ba  Ba1  1  0.396577  0.419533  0.665708  1
  Ba  Ba2  1  0.896577  0.919533  0.834292  1
  Ba  Ba3  1  0.103423  0.419533  0.165708  1
  Ba  Ba4  1  0.560121  0.436589  0.318098  1
  Ba  Ba5  1  0.439879  0.936589  0.681902  1
  Ba  Ba6  1  0.939879  0.436589  0.818098  1
  Ba  Ba7  1  0.060121  0.936589  0.181902  1
  Ge  Ge8  1  0.178445  0.730069  0.522328  1
  Ge  Ge9  1  0.821555  0.230069  0.477672  1
  Ge  Ge10  1  0.321555  0.730069  0.022328  1
  Ge  Ge11  1  0.678445  0.230069  0.977672  1
  Ge  Ge12  1  0.024423  0.563247  0.435054  1
  Ge  Ge13  1  0.975577  0.063247  0.564946  1
  Ge  Ge14  1  0.475577  0.563247  0.935054  1
  Ge  Ge15  1  0.524423  0.063247  0.064946  1
  Te  Te16  1  0.201229  0.364315  0.417001  1
  Te  Te17  1  0.798771  0.864315  0.582999  1
  Te  Te18  1  0.298771  0.364315  0.917001  1
  Te  Te19  1  0.701229  0.864315  0.082999  1
  Te  Te20  1  0.177886  0.973369  0.446482  1
  Te  Te21  1  0.822114  0.473369  0.553518  1
  Te  Te22  1  0.322114  0.973369  0.946482  1
  Te  Te23  1  0.677886  0.473369  0.053518  1
  Te  Te24  1  0.875955  0.656759  0.286583  1
  Te  Te25  1  0.124045  0.156759  0.713417  1
  Te  Te26  1  0.624045  0.656759  0.786583  1
  Te  Te27  1  0.375955  0.156759  0.213417  1
  Te  Te28  1  0.157619  0.701739  0.714815  1
  Te  Te29  1  0.842381  0.201739  0.285185  1
  Te  Te30  1  0.342381  0.701739  0.214815  1
  Te  Te31  1  0.657619  0.201739  0.785185  1
  Te  Te32  1  0.453476  0.681880  0.495394  1
  Te  Te33  1  0.546524  0.181880  0.504606  1
  Te  Te34  1  0.046524  0.681880  0.995394  1
  Te  Te35  1  0.953476  0.181880  0.004606  1
