# generated using pymatgen
data_Cs2MgSi5O12
_symmetry_space_group_name_H-M   'P 1'
_cell_length_a   13.89775181
_cell_length_b   13.91041187
_cell_length_c   13.92318305
_cell_angle_alpha   90.00000000
_cell_angle_beta   90.00000000
_cell_angle_gamma   90.00000000
_symmetry_Int_Tables_number   1
_chemical_formula_structural   Cs2MgSi5O12
_chemical_formula_sum   'Cs16 Mg8 Si40 O96'
_cell_volume   2691.67780649
_cell_formula_units_Z   8
loop_
 _symmetry_equiv_pos_site_id
 _symmetry_equiv_pos_as_xyz
  1  'x, y, z'
loop_
 _atom_site_type_symbol
 _atom_site_label
 _atom_site_symmetry_multiplicity
 _atom_site_fract_x
 _atom_site_fract_y
 _atom_site_fract_z
 _atom_site_occupancy
  Cs  Cs0  1  0.354451  0.628245  0.137800  1
  Cs  Cs1  1  0.645549  0.128245  0.362200  1
  Cs  Cs2  1  0.145549  0.371755  0.637800  1
  Cs  Cs3  1  0.854451  0.871755  0.862200  1
  Cs  Cs4  1  0.645549  0.371755  0.862200  1
  Cs  Cs5  1  0.354451  0.871755  0.637800  1
  Cs  Cs6  1  0.854451  0.628245  0.362200  1
  Cs  Cs7  1  0.145549  0.128245  0.137800  1
  Cs  Cs8  1  0.111359  0.883574  0.395572  1
  Cs  Cs9  1  0.888641  0.383574  0.104428  1
  Cs  Cs10  1  0.388641  0.116426  0.895572  1
  Cs  Cs11  1  0.611359  0.616426  0.604428  1
  Cs  Cs12  1  0.888641  0.116426  0.604428  1
  Cs  Cs13  1  0.111359  0.616426  0.895572  1
  Cs  Cs14  1  0.611359  0.883574  0.104428  1
  Cs  Cs15  1  0.388641  0.383574  0.395572  1
  Mg  Mg16  1  0.569229  0.877742  0.837930  1
  Mg  Mg17  1  0.430771  0.377742  0.662070  1
  Mg  Mg18  1  0.930771  0.122258  0.337930  1
  Mg  Mg19  1  0.069229  0.622258  0.162070  1
  Mg  Mg20  1  0.430771  0.122258  0.162070  1
  Mg  Mg21  1  0.569229  0.622258  0.337930  1
  Mg  Mg22  1  0.069229  0.877742  0.662070  1
  Mg  Mg23  1  0.930771  0.377742  0.837930  1
  Si  Si24  1  0.900188  0.626492  0.666812  1
  Si  Si25  1  0.099812  0.126492  0.833188  1
  Si  Si26  1  0.599812  0.373508  0.166812  1
  Si  Si27  1  0.400188  0.873508  0.333188  1
  Si  Si28  1  0.099812  0.373508  0.333188  1
  Si  Si29  1  0.900188  0.873508  0.166812  1
  Si  Si30  1  0.400188  0.626492  0.833188  1
  Si  Si31  1  0.599812  0.126492  0.666812  1
  Si  Si32  1  0.861540  0.088215  0.118192  1
  Si  Si33  1  0.138460  0.588215  0.381808  1
  Si  Si34  1  0.638460  0.911785  0.618192  1
  Si  Si35  1  0.361540  0.411785  0.881808  1
  Si  Si36  1  0.138460  0.911785  0.881808  1
  Si  Si37  1  0.861540  0.411785  0.618192  1
  Si  Si38  1  0.361540  0.088215  0.381808  1
  Si  Si39  1  0.638460  0.588215  0.118192  1
  Si  Si40  1  0.389476  0.154938  0.596051  1
  Si  Si41  1  0.610524  0.654938  0.903949  1
  Si  Si42  1  0.110524  0.845062  0.096051  1
  Si  Si43  1  0.889476  0.345062  0.403949  1
  Si  Si44  1  0.610524  0.845062  0.403949  1
  Si  Si45  1  0.389476  0.345062  0.096051  1
  Si  Si46  1  0.889476  0.154938  0.903949  1
  Si  Si47  1  0.110524  0.654938  0.596051  1
  Si  Si48  1  0.680725  0.408959  0.371631  1
  Si  Si49  1  0.319275  0.908959  0.128369  1
  Si  Si50  1  0.819275  0.591041  0.871631  1
  Si  Si51  1  0.180725  0.091041  0.628369  1
  Si  Si52  1  0.319275  0.591041  0.628369  1
  Si  Si53  1  0.680725  0.091041  0.871631  1
  Si  Si54  1  0.180725  0.408959  0.128369  1
  Si  Si55  1  0.819275  0.908959  0.371631  1
  Si  Si56  1  0.148876  0.331714  0.920015  1
  Si  Si57  1  0.851124  0.831714  0.579985  1
  Si  Si58  1  0.351124  0.668286  0.420015  1
  Si  Si59  1  0.648876  0.168286  0.079985  1
  Si  Si60  1  0.851124  0.668286  0.079985  1
  Si  Si61  1  0.148876  0.168286  0.420015  1
  Si  Si62  1  0.648876  0.331714  0.579985  1
  Si  Si63  1  0.351124  0.831714  0.920015  1
  O  O64  1  0.345768  0.969544  0.373502  1
  O  O65  1  0.654232  0.469544  0.126498  1
  O  O66  1  0.154232  0.030456  0.873502  1
  O  O67  1  0.845768  0.530456  0.626498  1
  O  O68  1  0.654232  0.030456  0.626498  1
  O  O69  1  0.345768  0.530456  0.873502  1
  O  O70  1  0.845768  0.969544  0.126498  1
  O  O71  1  0.154232  0.469544  0.373502  1
  O  O72  1  0.093833  0.606365  0.489656  1
  O  O73  1  0.906167  0.106365  0.010344  1
  O  O74  1  0.406167  0.393635  0.989656  1
  O  O75  1  0.593833  0.893635  0.510344  1
  O  O76  1  0.906167  0.393635  0.510344  1
  O  O77  1  0.093833  0.893635  0.989656  1
  O  O78  1  0.593833  0.606365  0.010344  1
  O  O79  1  0.406167  0.106365  0.489656  1
  O  O80  1  0.017189  0.882405  0.161250  1
  O  O81  1  0.982811  0.382405  0.338750  1
  O  O82  1  0.482811  0.117595  0.661250  1
  O  O83  1  0.517189  0.617595  0.838750  1
  O  O84  1  0.982811  0.117595  0.838750  1
  O  O85  1  0.017189  0.617595  0.661250  1
  O  O86  1  0.517189  0.882405  0.338750  1
  O  O87  1  0.482811  0.382405  0.161250  1
  O  O88  1  0.876986  0.231606  0.406878  1
  O  O89  1  0.123014  0.731606  0.093122  1
  O  O90  1  0.623014  0.768394  0.906878  1
  O  O91  1  0.376986  0.268394  0.593122  1
  O  O92  1  0.123014  0.768394  0.593122  1
  O  O93  1  0.876986  0.268394  0.906878  1
  O  O94  1  0.376986  0.231606  0.093122  1
  O  O95  1  0.623014  0.731606  0.406878  1
  O  O96  1  0.127077  0.145207  0.720393  1
  O  O97  1  0.872923  0.645207  0.779607  1
  O  O98  1  0.372923  0.854793  0.220393  1
  O  O99  1  0.627077  0.354793  0.279607  1
  O  O100  1  0.872923  0.854793  0.279607  1
  O  O101  1  0.127077  0.354793  0.220393  1
  O  O102  1  0.627077  0.145207  0.779607  1
  O  O103  1  0.372923  0.645207  0.720393  1
  O  O104  1  0.746899  0.865224  0.624391  1
  O  O105  1  0.253101  0.365224  0.875609  1
  O  O106  1  0.753101  0.134776  0.124391  1
  O  O107  1  0.246899  0.634776  0.375609  1
  O  O108  1  0.253101  0.134776  0.375609  1
  O  O109  1  0.746899  0.634776  0.124391  1
  O  O110  1  0.246899  0.865224  0.875609  1
  O  O111  1  0.753101  0.365224  0.624391  1
  O  O112  1  0.852110  0.482852  0.887434  1
  O  O113  1  0.147890  0.982852  0.612566  1
  O  O114  1  0.647890  0.517148  0.387434  1
  O  O115  1  0.352110  0.017148  0.112566  1
  O  O116  1  0.147890  0.517148  0.112566  1
  O  O117  1  0.852110  0.017148  0.387434  1
  O  O118  1  0.352110  0.482852  0.612566  1
  O  O119  1  0.647890  0.982852  0.887434  1
  O  O120  1  0.653465  0.163631  0.961486  1
  O  O121  1  0.346535  0.663631  0.538514  1
  O  O122  1  0.846535  0.836369  0.461486  1
  O  O123  1  0.153465  0.336369  0.038514  1
  O  O124  1  0.346535  0.836369  0.038514  1
  O  O125  1  0.653465  0.336369  0.461486  1
  O  O126  1  0.153465  0.163631  0.538514  1
  O  O127  1  0.846535  0.663631  0.961486  1
  O  O128  1  0.564979  0.394019  0.626128  1
  O  O129  1  0.435021  0.894019  0.873872  1
  O  O130  1  0.935021  0.605981  0.126128  1
  O  O131  1  0.064979  0.105981  0.373872  1
  O  O132  1  0.435021  0.605981  0.373872  1
  O  O133  1  0.564979  0.105981  0.126128  1
  O  O134  1  0.064979  0.394019  0.873872  1
  O  O135  1  0.935021  0.894019  0.626128  1
  O  O136  1  0.359097  0.714371  0.899033  1
  O  O137  1  0.640903  0.214371  0.600967  1
  O  O138  1  0.140903  0.285629  0.399033  1
  O  O139  1  0.859097  0.785629  0.100967  1
  O  O140  1  0.640903  0.285629  0.100967  1
  O  O141  1  0.359097  0.785629  0.399033  1
  O  O142  1  0.859097  0.714371  0.600967  1
  O  O143  1  0.140903  0.214371  0.899033  1
  O  O144  1  0.569839  0.631280  0.198694  1
  O  O145  1  0.430161  0.131280  0.301306  1
  O  O146  1  0.930161  0.368720  0.698694  1
  O  O147  1  0.069839  0.868720  0.801306  1
  O  O148  1  0.430161  0.368720  0.801306  1
  O  O149  1  0.569839  0.868720  0.698694  1
  O  O150  1  0.069839  0.631280  0.301306  1
  O  O151  1  0.930161  0.131280  0.198694  1
  O  O152  1  0.298177  0.401729  0.148223  1
  O  O153  1  0.701823  0.901729  0.351777  1
  O  O154  1  0.201823  0.598271  0.648223  1
  O  O155  1  0.798177  0.098271  0.851777  1
  O  O156  1  0.701823  0.598271  0.851777  1
  O  O157  1  0.298177  0.098271  0.648223  1
  O  O158  1  0.798177  0.401729  0.351777  1
  O  O159  1  0.201823  0.901729  0.148223  1
