# generated using pymatgen
data_NaSiSbO5
_symmetry_space_group_name_H-M   'P 1'
_cell_length_a   6.41640694
_cell_length_b   10.75173604
_cell_length_c   12.99239211
_cell_angle_alpha   90.00000000
_cell_angle_beta   90.00000000
_cell_angle_gamma   90.00000000
_symmetry_Int_Tables_number   1
_chemical_formula_structural   NaSiSbO5
_chemical_formula_sum   'Na8 Si8 Sb8 O40'
_cell_volume   896.31282926
_cell_formula_units_Z   8
loop_
 _symmetry_equiv_pos_site_id
 _symmetry_equiv_pos_as_xyz
  1  'x, y, z'
loop_
 _atom_site_type_symbol
 _atom_site_label
 _atom_site_symmetry_multiplicity
 _atom_site_fract_x
 _atom_site_fract_y
 _atom_site_fract_z
 _atom_site_occupancy
  Na  Na0  1  0.245996  0.573882  0.394063  1
  Na  Na1  1  0.754004  0.073882  0.605937  1
  Na  Na2  1  0.254004  0.573882  0.894063  1
  Na  Na3  1  0.745996  0.073882  0.105937  1
  Na  Na4  1  0.289842  0.776037  0.154946  1
  Na  Na5  1  0.710158  0.276037  0.845054  1
  Na  Na6  1  0.210158  0.776037  0.654946  1
  Na  Na7  1  0.789842  0.276037  0.345054  1
  Si  Si8  1  0.024693  0.995598  0.315602  1
  Si  Si9  1  0.975307  0.495598  0.684398  1
  Si  Si10  1  0.475307  0.995598  0.815602  1
  Si  Si11  1  0.524693  0.495598  0.184398  1
  Si  Si12  1  0.825932  0.757875  0.014249  1
  Si  Si13  1  0.174068  0.257875  0.985751  1
  Si  Si14  1  0.674068  0.757875  0.514249  1
  Si  Si15  1  0.325932  0.257875  0.485751  1
  Sb  Sb16  1  0.768651  0.737292  0.267228  1
  Sb  Sb17  1  0.231349  0.237292  0.732772  1
  Sb  Sb18  1  0.731349  0.737292  0.767228  1
  Sb  Sb19  1  0.268651  0.237292  0.232772  1
  Sb  Sb20  1  0.020104  0.502834  0.117975  1
  Sb  Sb21  1  0.979896  0.002834  0.882025  1
  Sb  Sb22  1  0.479896  0.502834  0.617975  1
  Sb  Sb23  1  0.520104  0.002834  0.382025  1
  O  O24  1  0.535707  0.857586  0.288354  1
  O  O25  1  0.464293  0.357586  0.711646  1
  O  O26  1  0.964293  0.857586  0.788354  1
  O  O27  1  0.035707  0.357586  0.211646  1
  O  O28  1  0.501052  0.116699  0.258865  1
  O  O29  1  0.498948  0.616699  0.741135  1
  O  O30  1  0.998948  0.116699  0.758865  1
  O  O31  1  0.001052  0.616699  0.241135  1
  O  O32  1  0.985630  0.868209  0.248484  1
  O  O33  1  0.014370  0.368209  0.751516  1
  O  O34  1  0.514370  0.868209  0.748484  1
  O  O35  1  0.485630  0.368209  0.251516  1
  O  O36  1  0.057399  0.101254  0.224562  1
  O  O37  1  0.942601  0.601254  0.775438  1
  O  O38  1  0.442601  0.101254  0.724562  1
  O  O39  1  0.669538  0.726732  0.917318  1
  O  O40  1  0.557399  0.601254  0.275438  1
  O  O41  1  0.782470  0.479398  0.603746  1
  O  O42  1  0.282470  0.979398  0.896254  1
  O  O43  1  0.717530  0.479398  0.103746  1
  O  O44  1  0.825575  0.038180  0.385917  1
  O  O45  1  0.174425  0.538180  0.614083  1
  O  O46  1  0.674425  0.038180  0.885917  1
  O  O47  1  0.325575  0.538180  0.114083  1
  O  O48  1  0.517436  0.155182  0.475085  1
  O  O49  1  0.482564  0.655182  0.524915  1
  O  O50  1  0.982564  0.155182  0.975085  1
  O  O51  1  0.017436  0.655182  0.024915  1
  O  O52  1  0.433781  0.397551  0.493146  1
  O  O53  1  0.566219  0.897551  0.506854  1
  O  O54  1  0.066219  0.397551  0.993146  1
  O  O55  1  0.933781  0.897551  0.006854  1
  O  O56  1  0.180916  0.256594  0.381694  1
  O  O57  1  0.819084  0.756594  0.618306  1
  O  O58  1  0.319084  0.256594  0.881694  1
  O  O59  1  0.680916  0.756594  0.118306  1
  O  O60  1  0.169538  0.226732  0.582682  1
  O  O61  1  0.830462  0.726732  0.417318  1
  O  O62  1  0.330462  0.226732  0.082682  1
  O  O63  1  0.217530  0.979398  0.396254  1
