# generated using pymatgen
data_EuF3
_symmetry_space_group_name_H-M   'P 1'
_cell_length_a   4.46965759
_cell_length_b   6.68342776
_cell_length_c   7.12519017
_cell_angle_alpha   90.00000000
_cell_angle_beta   90.00000000
_cell_angle_gamma   90.00000000
_symmetry_Int_Tables_number   1
_chemical_formula_structural   EuF3
_chemical_formula_sum   'Eu4 F12'
_cell_volume   212.84819538
_cell_formula_units_Z   4
loop_
 _symmetry_equiv_pos_site_id
 _symmetry_equiv_pos_as_xyz
  1  'x, y, z'
loop_
 _atom_site_type_symbol
 _atom_site_label
 _atom_site_symmetry_multiplicity
 _atom_site_fract_x
 _atom_site_fract_y
 _atom_site_fract_z
 _atom_site_occupancy
  Eu  Eu0  1  0.942522  0.633873  0.750000  1
  Eu  Eu1  1  0.442522  0.866127  0.250000  1
  Eu  Eu2  1  0.557478  0.133873  0.750000  1
  Eu  Eu3  1  0.057478  0.366127  0.250000  1
  F  F4  1  0.390862  0.164547  0.434465  1
  F  F5  1  0.890862  0.335453  0.565535  1
  F  F6  1  0.109138  0.664547  0.065535  1
  F  F7  1  0.609138  0.835453  0.934465  1
  F  F8  1  0.578404  0.520413  0.250000  1
  F  F9  1  0.078404  0.979587  0.750000  1
  F  F10  1  0.921596  0.020413  0.250000  1
  F  F11  1  0.421596  0.479587  0.750000  1
  F  F12  1  0.390862  0.164547  0.065535  1
  F  F13  1  0.890862  0.335453  0.934465  1
  F  F14  1  0.109138  0.664547  0.434465  1
  F  F15  1  0.609138  0.835453  0.565535  1
