# generated using pymatgen
data_BaYMn2O6
_symmetry_space_group_name_H-M   'P 1'
_cell_length_a   5.55187095
_cell_length_b   5.59742327
_cell_length_c   7.83995354
_cell_angle_alpha   90.00000000
_cell_angle_beta   90.93607237
_cell_angle_gamma   90.00000000
_symmetry_Int_Tables_number   1
_chemical_formula_structural   BaYMn2O6
_chemical_formula_sum   'Ba2 Y2 Mn4 O12'
_cell_volume   243.60322758
_cell_formula_units_Z   2
loop_
 _symmetry_equiv_pos_site_id
 _symmetry_equiv_pos_as_xyz
  1  'x, y, z'
loop_
 _atom_site_type_symbol
 _atom_site_label
 _atom_site_symmetry_multiplicity
 _atom_site_fract_x
 _atom_site_fract_y
 _atom_site_fract_z
 _atom_site_occupancy
  Ba  Ba0  1  0.750000  0.243723  0.500000  1
  Ba  Ba1  1  0.250000  0.756277  0.500000  1
  Y  Y2  1  0.750000  0.237714  0.000000  1
  Y  Y3  1  0.250000  0.762286  0.000000  1
  Mn  Mn4  1  0.249872  0.250267  0.242161  1
  Mn  Mn5  1  0.250128  0.250267  0.757839  1
  Mn  Mn6  1  0.749872  0.749733  0.242161  1
  Mn  Mn7  1  0.750128  0.749733  0.757839  1
  O  O8  1  0.250000  0.179300  0.000000  1
  O  O9  1  0.750000  0.820700  0.000000  1
  O  O10  1  0.527346  0.474935  0.195874  1
  O  O11  1  0.972654  0.474935  0.804126  1
  O  O12  1  0.027346  0.525065  0.195874  1
  O  O13  1  0.472654  0.525065  0.804126  1
  O  O14  1  0.472627  0.971701  0.243892  1
  O  O15  1  0.027373  0.971701  0.756108  1
  O  O16  1  0.972627  0.028299  0.243892  1
  O  O17  1  0.527373  0.028299  0.756108  1
  O  O18  1  0.250000  0.280969  0.500000  1
  O  O19  1  0.750000  0.719031  0.500000  1
