# generated using pymatgen
data_K4SnO3
_symmetry_space_group_name_H-M   'P 1'
_cell_length_a   6.58896626
_cell_length_b   11.50697702
_cell_length_c   19.11567413
_cell_angle_alpha   90.00000000
_cell_angle_beta   90.00000000
_cell_angle_gamma   90.00000000
_symmetry_Int_Tables_number   1
_chemical_formula_structural   K4SnO3
_chemical_formula_sum   'K32 Sn8 O24'
_cell_volume   1449.33288995
_cell_formula_units_Z   8
loop_
 _symmetry_equiv_pos_site_id
 _symmetry_equiv_pos_as_xyz
  1  'x, y, z'
loop_
 _atom_site_type_symbol
 _atom_site_label
 _atom_site_symmetry_multiplicity
 _atom_site_fract_x
 _atom_site_fract_y
 _atom_site_fract_z
 _atom_site_occupancy
  K  K0  1  0.876183  0.323909  0.345192  1
  K  K1  1  0.376183  0.176091  0.654808  1
  K  K2  1  0.123817  0.823909  0.154808  1
  K  K3  1  0.623817  0.676091  0.845192  1
  K  K4  1  0.123817  0.676091  0.654808  1
  K  K5  1  0.623817  0.823909  0.345192  1
  K  K6  1  0.876183  0.176091  0.845192  1
  K  K7  1  0.376183  0.323909  0.154808  1
  K  K8  1  0.744615  0.054744  0.464210  1
  K  K9  1  0.244615  0.445256  0.535790  1
  K  K10  1  0.255385  0.554744  0.035790  1
  K  K11  1  0.755385  0.945256  0.964210  1
  K  K12  1  0.255385  0.945256  0.535790  1
  K  K13  1  0.755385  0.554744  0.464210  1
  K  K14  1  0.744615  0.445256  0.964210  1
  K  K15  1  0.244615  0.054744  0.035790  1
  K  K16  1  0.730963  0.188083  0.056759  1
  K  K17  1  0.230963  0.311917  0.943241  1
  K  K18  1  0.269037  0.688083  0.443241  1
  K  K19  1  0.769037  0.811917  0.556759  1
  K  K20  1  0.269037  0.811917  0.943241  1
  K  K21  1  0.769037  0.688083  0.056759  1
  K  K22  1  0.730963  0.311917  0.556759  1
  K  K23  1  0.230963  0.188083  0.443241  1
  K  K24  1  0.545133  0.110382  0.295839  1
  K  K25  1  0.045133  0.389618  0.704161  1
  K  K26  1  0.454867  0.610382  0.204161  1
  K  K27  1  0.954867  0.889618  0.795839  1
  K  K28  1  0.454867  0.889618  0.704161  1
  K  K29  1  0.954867  0.610382  0.295839  1
  K  K30  1  0.545133  0.389618  0.795839  1
  K  K31  1  0.045133  0.110382  0.204161  1
  Sn  Sn32  1  0.892451  0.433538  0.148852  1
  Sn  Sn33  1  0.392451  0.066462  0.851148  1
  Sn  Sn34  1  0.107549  0.933538  0.351148  1
  Sn  Sn35  1  0.607549  0.566462  0.648852  1
  Sn  Sn36  1  0.107549  0.566462  0.851148  1
  Sn  Sn37  1  0.607549  0.933538  0.148852  1
  Sn  Sn38  1  0.892451  0.066462  0.648852  1
  Sn  Sn39  1  0.392451  0.433538  0.351148  1
  O  O40  1  0.959408  0.094329  0.344353  1
  O  O41  1  0.459408  0.405671  0.655647  1
  O  O42  1  0.040592  0.594329  0.155647  1
  O  O43  1  0.540592  0.905671  0.844353  1
  O  O44  1  0.040592  0.905671  0.655647  1
  O  O45  1  0.540592  0.594329  0.344353  1
  O  O46  1  0.959408  0.405671  0.844353  1
  O  O47  1  0.459408  0.094329  0.155647  1
  O  O48  1  0.624261  0.481730  0.099317  1
  O  O49  1  0.124261  0.018270  0.900683  1
  O  O50  1  0.375739  0.981730  0.400683  1
  O  O51  1  0.875739  0.518270  0.599317  1
  O  O52  1  0.375739  0.518270  0.900683  1
  O  O53  1  0.875739  0.981730  0.099317  1
  O  O54  1  0.624261  0.018270  0.599317  1
  O  O55  1  0.124261  0.481730  0.400683  1
  O  O56  1  0.543696  0.352738  0.433723  1
  O  O57  1  0.043696  0.147262  0.566277  1
  O  O58  1  0.456304  0.852738  0.066277  1
  O  O59  1  0.956304  0.647262  0.933723  1
  O  O60  1  0.456304  0.647262  0.566277  1
  O  O61  1  0.956304  0.852738  0.433723  1
  O  O62  1  0.543696  0.147262  0.933723  1
  O  O63  1  0.043696  0.352738  0.066277  1
