# generated using pymatgen
data_Ca4Si3Pd4
_symmetry_space_group_name_H-M   'P 1'
_cell_length_a   10.88275752
_cell_length_b   10.88275752
_cell_length_c   7.87657126
_cell_angle_alpha   71.54920678
_cell_angle_beta   108.45079322
_cell_angle_gamma   149.60863005
_symmetry_Int_Tables_number   1
_chemical_formula_structural   Ca4Si3Pd4
_chemical_formula_sum   'Ca8 Si6 Pd8'
_cell_volume   445.83450411
_cell_formula_units_Z   2
loop_
 _symmetry_equiv_pos_site_id
 _symmetry_equiv_pos_as_xyz
  1  'x, y, z'
loop_
 _atom_site_type_symbol
 _atom_site_label
 _atom_site_symmetry_multiplicity
 _atom_site_fract_x
 _atom_site_fract_y
 _atom_site_fract_z
 _atom_site_occupancy
  Ca  Ca0  1  0.935158  0.799485  0.673305  1
  Ca  Ca1  1  0.064842  0.200515  0.326695  1
  Ca  Ca2  1  0.799485  0.935158  0.826695  1
  Ca  Ca3  1  0.456189  0.794638  0.094530  1
  Ca  Ca4  1  0.794638  0.456189  0.405470  1
  Ca  Ca5  1  0.205362  0.543811  0.594530  1
  Ca  Ca6  1  0.200515  0.064842  0.173305  1
  Ca  Ca7  1  0.543811  0.205362  0.905470  1
  Si  Si8  1  0.304241  0.960611  0.564917  1
  Si  Si9  1  0.384691  0.384691  0.750000  1
  Si  Si10  1  0.039389  0.695759  0.064917  1
  Si  Si11  1  0.695759  0.039389  0.435083  1
  Si  Si12  1  0.960611  0.304241  0.935083  1
  Si  Si13  1  0.615309  0.615309  0.250000  1
  Pd  Pd14  1  0.574439  0.698073  0.475820  1
  Pd  Pd15  1  0.698073  0.574439  0.024180  1
  Pd  Pd16  1  0.301927  0.425561  0.975820  1
  Pd  Pd17  1  0.425561  0.301927  0.524180  1
  Pd  Pd18  1  0.641841  0.085733  0.681107  1
  Pd  Pd19  1  0.914267  0.358159  0.181107  1
  Pd  Pd20  1  0.358159  0.914267  0.318893  1
  Pd  Pd21  1  0.085733  0.641841  0.818893  1
