# generated using pymatgen
data_BaLi(B3O5)3
_symmetry_space_group_name_H-M   'P 1'
_cell_length_a   8.64252473
_cell_length_b   8.64252473
_cell_length_c   8.64252473
_cell_angle_alpha   80.65567384
_cell_angle_beta   80.65567384
_cell_angle_gamma   80.65567384
_symmetry_Int_Tables_number   1
_chemical_formula_structural   BaLi(B3O5)3
_chemical_formula_sum   'Ba2 Li2 B18 O30'
_cell_volume   622.35755549
_cell_formula_units_Z   2
loop_
 _symmetry_equiv_pos_site_id
 _symmetry_equiv_pos_as_xyz
  1  'x, y, z'
loop_
 _atom_site_type_symbol
 _atom_site_label
 _atom_site_symmetry_multiplicity
 _atom_site_fract_x
 _atom_site_fract_y
 _atom_site_fract_z
 _atom_site_occupancy
  Ba  Ba0  1  0.502038  0.502038  0.502038  1
  Ba  Ba1  1  0.002038  0.002038  0.002038  1
  Li  Li2  1  0.753606  0.753606  0.753606  1
  Li  Li3  1  0.253606  0.253606  0.253606  1
  B  B4  1  0.256818  0.393773  0.919171  1
  B  B5  1  0.749876  0.319714  0.180784  1
  B  B6  1  0.249876  0.680784  0.819714  1
  B  B7  1  0.680784  0.819714  0.249876  1
  B  B8  1  0.893773  0.756818  0.419171  1
  B  B9  1  0.756818  0.419171  0.893773  1
  B  B10  1  0.419171  0.893773  0.756818  1
  B  B11  1  0.180784  0.749876  0.319714  1
  B  B12  1  0.919171  0.256818  0.393773  1
  B  B13  1  0.393773  0.919171  0.256818  1
  B  B14  1  0.081266  0.743481  0.606402  1
  B  B15  1  0.743481  0.606402  0.081266  1
  B  B16  1  0.606402  0.081266  0.743481  1
  B  B17  1  0.106402  0.243481  0.581266  1
  B  B18  1  0.243481  0.581266  0.106402  1
  B  B19  1  0.581266  0.106402  0.243481  1
  B  B20  1  0.319714  0.180784  0.749876  1
  B  B21  1  0.819714  0.249876  0.680784  1
  O  O22  1  0.243235  0.244368  0.897799  1
  O  O23  1  0.244368  0.897799  0.243235  1
  O  O24  1  0.512624  0.796696  0.278392  1
  O  O25  1  0.278392  0.512624  0.796696  1
  O  O26  1  0.897799  0.243235  0.244368  1
  O  O27  1  0.296696  0.012624  0.778392  1
  O  O28  1  0.778392  0.296696  0.012624  1
  O  O29  1  0.012624  0.778392  0.296696  1
  O  O30  1  0.757040  0.755982  0.102081  1
  O  O31  1  0.102081  0.757040  0.755982  1
  O  O32  1  0.755982  0.102081  0.757040  1
  O  O33  1  0.255982  0.257040  0.602081  1
  O  O34  1  0.602081  0.255982  0.257040  1
  O  O35  1  0.257040  0.602081  0.255982  1
  O  O36  1  0.397799  0.744368  0.743235  1
  O  O37  1  0.744368  0.743235  0.397799  1
  O  O38  1  0.203870  0.721542  0.487787  1
  O  O39  1  0.721542  0.487787  0.203870  1
  O  O40  1  0.487787  0.203870  0.721542  1
  O  O41  1  0.987787  0.221542  0.703870  1
  O  O42  1  0.221542  0.703870  0.987787  1
  O  O43  1  0.703870  0.987787  0.221542  1
  O  O44  1  0.924040  0.750383  0.576233  1
  O  O45  1  0.750383  0.576233  0.924040  1
  O  O46  1  0.576233  0.924040  0.750383  1
  O  O47  1  0.076233  0.250383  0.424040  1
  O  O48  1  0.250383  0.424040  0.076233  1
  O  O49  1  0.424040  0.076233  0.250383  1
  O  O50  1  0.796696  0.278392  0.512624  1
  O  O51  1  0.743235  0.397799  0.744368  1
