# generated using pymatgen
data_Cr7C3
_symmetry_space_group_name_H-M   'P 1'
_cell_length_a   4.50568719
_cell_length_b   6.94450310
_cell_length_c   12.03814850
_cell_angle_alpha   90.00000000
_cell_angle_beta   90.00000000
_cell_angle_gamma   90.00000000
_symmetry_Int_Tables_number   1
_chemical_formula_structural   Cr7C3
_chemical_formula_sum   'Cr28 C12'
_cell_volume   376.67076126
_cell_formula_units_Z   4
loop_
 _symmetry_equiv_pos_site_id
 _symmetry_equiv_pos_as_xyz
  1  'x, y, z'
loop_
 _atom_site_type_symbol
 _atom_site_label
 _atom_site_symmetry_multiplicity
 _atom_site_fract_x
 _atom_site_fract_y
 _atom_site_fract_z
 _atom_site_occupancy
  Cr  Cr0  1  0.058855  0.064905  0.811683  1
  Cr  Cr1  1  0.558855  0.435095  0.688317  1
  Cr  Cr2  1  0.941145  0.564905  0.188317  1
  Cr  Cr3  1  0.441145  0.935095  0.311683  1
  Cr  Cr4  1  0.941145  0.935095  0.188317  1
  Cr  Cr5  1  0.441145  0.564905  0.311683  1
  Cr  Cr6  1  0.058855  0.435095  0.811683  1
  Cr  Cr7  1  0.558855  0.064905  0.688317  1
  Cr  Cr8  1  0.250489  0.067019  0.021619  1
  Cr  Cr9  1  0.750489  0.432981  0.478381  1
  Cr  Cr10  1  0.749511  0.567019  0.978381  1
  Cr  Cr11  1  0.249511  0.932981  0.521619  1
  Cr  Cr12  1  0.749511  0.932981  0.978381  1
  Cr  Cr13  1  0.249511  0.567019  0.521619  1
  Cr  Cr14  1  0.250489  0.432981  0.021619  1
  Cr  Cr15  1  0.750489  0.067019  0.478381  1
  Cr  Cr16  1  0.241715  0.750000  0.916765  1
  Cr  Cr17  1  0.741715  0.750000  0.583235  1
  Cr  Cr18  1  0.758285  0.250000  0.083235  1
  Cr  Cr19  1  0.258285  0.250000  0.416765  1
  Cr  Cr20  1  0.257518  0.750000  0.704137  1
  Cr  Cr21  1  0.757518  0.750000  0.795863  1
  Cr  Cr22  1  0.742482  0.250000  0.295863  1
  Cr  Cr23  1  0.242482  0.250000  0.204137  1
  Cr  Cr24  1  0.442145  0.750000  0.126616  1
  Cr  Cr25  1  0.942145  0.750000  0.373384  1
  Cr  Cr26  1  0.557855  0.250000  0.873384  1
  Cr  Cr27  1  0.057855  0.250000  0.626616  1
  C  C28  1  0.531737  0.033447  0.155776  1
  C  C29  1  0.031737  0.466553  0.344224  1
  C  C30  1  0.468263  0.533447  0.844224  1
  C  C31  1  0.968263  0.966553  0.655776  1
  C  C32  1  0.468263  0.966553  0.844224  1
  C  C33  1  0.968263  0.533447  0.655776  1
  C  C34  1  0.531737  0.466553  0.155776  1
  C  C35  1  0.031737  0.033447  0.344224  1
  C  C36  1  0.033870  0.750000  0.062867  1
  C  C37  1  0.533870  0.750000  0.437133  1
  C  C38  1  0.966130  0.250000  0.937133  1
  C  C39  1  0.466130  0.250000  0.562867  1
