# generated using pymatgen
data_Mo3P
_symmetry_space_group_name_H-M   'P 1'
_cell_length_a   7.37836490
_cell_length_b   7.37836490
_cell_length_c   7.37836490
_cell_angle_alpha   96.20019743
_cell_angle_beta   96.20019743
_cell_angle_gamma   141.62777141
_symmetry_Int_Tables_number   1
_chemical_formula_structural   Mo3P
_chemical_formula_sum   'Mo12 P4'
_cell_volume   235.50024016
_cell_formula_units_Z   4
loop_
 _symmetry_equiv_pos_site_id
 _symmetry_equiv_pos_as_xyz
  1  'x, y, z'
loop_
 _atom_site_type_symbol
 _atom_site_label
 _atom_site_symmetry_multiplicity
 _atom_site_fract_x
 _atom_site_fract_y
 _atom_site_fract_z
 _atom_site_occupancy
  Mo  Mo0  1  0.568378  0.970349  0.000000  1
  Mo  Mo1  1  0.431622  0.431622  0.401971  1
  Mo  Mo2  1  0.029651  0.029651  0.598029  1
  Mo  Mo3  1  0.970349  0.568378  0.000000  1
  Mo  Mo4  1  0.500000  0.854763  0.354763  1
  Mo  Mo5  1  0.854763  0.500000  0.354763  1
  Mo  Mo6  1  0.145237  0.500000  0.645237  1
  Mo  Mo7  1  0.500000  0.145237  0.645237  1
  Mo  Mo8  1  0.360741  0.175326  0.000000  1
  Mo  Mo9  1  0.639259  0.639259  0.814585  1
  Mo  Mo10  1  0.824674  0.824674  0.185415  1
  Mo  Mo11  1  0.175326  0.360741  1.000000  1
  P  P12  1  1.000000  0.708392  0.708392  1
  P  P13  1  0.708392  1.000000  0.708392  1
  P  P14  1  0.291608  1.000000  0.291608  1
  P  P15  1  1.000000  0.291608  0.291608  1
