# generated using pymatgen
data_Ca3MnN3
_symmetry_space_group_name_H-M   'P 1'
_cell_length_a   6.63194785
_cell_length_b   6.63194785
_cell_length_c   5.03677500
_cell_angle_alpha   90.00000000
_cell_angle_beta   90.00000000
_cell_angle_gamma   101.46982445
_symmetry_Int_Tables_number   1
_chemical_formula_structural   Ca3MnN3
_chemical_formula_sum   'Ca6 Mn2 N6'
_cell_volume   217.10705449
_cell_formula_units_Z   2
loop_
 _symmetry_equiv_pos_site_id
 _symmetry_equiv_pos_as_xyz
  1  'x, y, z'
loop_
 _atom_site_type_symbol
 _atom_site_label
 _atom_site_symmetry_multiplicity
 _atom_site_fract_x
 _atom_site_fract_y
 _atom_site_fract_z
 _atom_site_occupancy
  Ca  Ca0  1  0.328534  0.095676  0.750000  1
  Ca  Ca1  1  0.607524  0.392476  0.250000  1
  Ca  Ca2  1  0.095676  0.328534  0.250000  1
  Ca  Ca3  1  0.392476  0.607524  0.750000  1
  Ca  Ca4  1  0.671466  0.904324  0.250000  1
  Ca  Ca5  1  0.904324  0.671466  0.750000  1
  Mn  Mn6  1  0.199355  0.800645  0.250000  1
  Mn  Mn7  1  0.800645  0.199355  0.750000  1
  N  N8  1  0.318077  0.066615  0.250000  1
  N  N9  1  0.625744  0.374256  0.750000  1
  N  N10  1  0.374256  0.625744  0.250000  1
  N  N11  1  0.066615  0.318077  0.750000  1
  N  N12  1  0.681923  0.933385  0.750000  1
  N  N13  1  0.933385  0.681923  0.250000  1
