# generated using pymatgen
data_Na2Au
_symmetry_space_group_name_H-M   'P 1'
_cell_length_a   5.96228174
_cell_length_b   5.96228174
_cell_length_c   5.96228174
_cell_angle_alpha   102.79885929
_cell_angle_beta   102.79885929
_cell_angle_gamma   123.84456789
_symmetry_Int_Tables_number   1
_chemical_formula_structural   Na2Au
_chemical_formula_sum   'Na4 Au2'
_cell_volume   155.31923602
_cell_formula_units_Z   2
loop_
 _symmetry_equiv_pos_site_id
 _symmetry_equiv_pos_as_xyz
  1  'x, y, z'
loop_
 _atom_site_type_symbol
 _atom_site_label
 _atom_site_symmetry_multiplicity
 _atom_site_fract_x
 _atom_site_fract_y
 _atom_site_fract_z
 _atom_site_occupancy
  Na  Na0  1  0.670260  0.829740  0.500000  1
  Na  Na1  1  0.170260  0.670260  0.840519  1
  Na  Na2  1  0.329740  0.170260  0.500000  1
  Na  Na3  1  0.829740  0.329740  0.159481  1
  Au  Au4  1  0.750000  0.750000  0.000000  1
  Au  Au5  1  0.250000  0.250000  0.000000  1
