# generated using pymatgen
data_Ca(Al5Cr)2
_symmetry_space_group_name_H-M   'P 1'
_cell_length_a   12.87810577
_cell_length_b   12.87810577
_cell_length_c   5.15916053
_cell_angle_alpha   90.00000000
_cell_angle_beta   90.00000000
_cell_angle_gamma   90.00000000
_symmetry_Int_Tables_number   1
_chemical_formula_structural   Ca(Al5Cr)2
_chemical_formula_sum   'Ca4 Al40 Cr8'
_cell_volume   855.62411602
_cell_formula_units_Z   4
loop_
 _symmetry_equiv_pos_site_id
 _symmetry_equiv_pos_as_xyz
  1  'x, y, z'
loop_
 _atom_site_type_symbol
 _atom_site_label
 _atom_site_symmetry_multiplicity
 _atom_site_fract_x
 _atom_site_fract_y
 _atom_site_fract_z
 _atom_site_occupancy
  Ca  Ca0  1  0.500000  0.500000  0.000000  1
  Ca  Ca1  1  0.000000  0.000000  0.000000  1
  Ca  Ca2  1  0.000000  0.500000  0.518846  1
  Ca  Ca3  1  0.500000  0.000000  0.481154  1
  Al  Al4  1  0.174196  0.174196  0.000000  1
  Al  Al5  1  0.674196  0.325804  0.000000  1
  Al  Al6  1  0.325804  0.674196  0.000000  1
  Al  Al7  1  0.825804  0.825804  0.000000  1
  Al  Al8  1  0.325804  0.325804  0.000000  1
  Al  Al9  1  0.825804  0.174196  0.000000  1
  Al  Al10  1  0.174196  0.825804  0.000000  1
  Al  Al11  1  0.674196  0.674196  0.000000  1
  Al  Al12  1  0.613566  0.613566  0.500000  1
  Al  Al13  1  0.113566  0.886434  0.500000  1
  Al  Al14  1  0.886434  0.113566  0.500000  1
  Al  Al15  1  0.386434  0.386434  0.500000  1
  Al  Al16  1  0.886434  0.886434  0.500000  1
  Al  Al17  1  0.386434  0.613566  0.500000  1
  Al  Al18  1  0.613566  0.386434  0.500000  1
  Al  Al19  1  0.113566  0.113566  0.500000  1
  Al  Al20  1  0.238897  0.500000  0.748875  1
  Al  Al21  1  0.000000  0.261103  0.748875  1
  Al  Al22  1  0.000000  0.738897  0.748875  1
  Al  Al23  1  0.761103  0.500000  0.748875  1
  Al  Al24  1  0.261103  0.000000  0.251125  1
  Al  Al25  1  0.738897  0.000000  0.251125  1
  Al  Al26  1  0.500000  0.238897  0.251125  1
  Al  Al27  1  0.500000  0.761103  0.251125  1
  Al  Al28  1  0.109207  0.609207  0.036855  1
  Al  Al29  1  0.109207  0.390793  0.036855  1
  Al  Al30  1  0.890793  0.609207  0.036855  1
  Al  Al31  1  0.890793  0.390793  0.036855  1
  Al  Al32  1  0.390793  0.109207  0.963145  1
  Al  Al33  1  0.609207  0.890793  0.963145  1
  Al  Al34  1  0.609207  0.109207  0.963145  1
  Al  Al35  1  0.390793  0.890793  0.963145  1
  Al  Al36  1  0.174637  0.674637  0.481427  1
  Al  Al37  1  0.174637  0.325363  0.481427  1
  Al  Al38  1  0.825363  0.674637  0.481427  1
  Al  Al39  1  0.825363  0.325363  0.481427  1
  Al  Al40  1  0.325363  0.174637  0.518573  1
  Al  Al41  1  0.674637  0.825363  0.518573  1
  Al  Al42  1  0.674637  0.174637  0.518573  1
  Al  Al43  1  0.325363  0.825363  0.518573  1
  Cr  Cr44  1  0.740406  0.500000  0.253808  1
  Cr  Cr45  1  0.000000  0.759594  0.253808  1
  Cr  Cr46  1  0.000000  0.240406  0.253808  1
  Cr  Cr47  1  0.259594  0.500000  0.253808  1
  Cr  Cr48  1  0.759594  0.000000  0.746192  1
  Cr  Cr49  1  0.240406  0.000000  0.746192  1
  Cr  Cr50  1  0.500000  0.740406  0.746192  1
  Cr  Cr51  1  0.500000  0.259594  0.746192  1
