# generated using pymatgen
data_Li3Pr2(BO3)3
_symmetry_space_group_name_H-M   'P 1'
_cell_length_a   5.88563598
_cell_length_b   14.27751593
_cell_length_c   9.46884458
_cell_angle_alpha   90.00000000
_cell_angle_beta   113.20177857
_cell_angle_gamma   90.00000000
_symmetry_Int_Tables_number   1
_chemical_formula_structural   Li3Pr2(BO3)3
_chemical_formula_sum   'Li12 Pr8 B12 O36'
_cell_volume   731.33561894
_cell_formula_units_Z   4
loop_
 _symmetry_equiv_pos_site_id
 _symmetry_equiv_pos_as_xyz
  1  'x, y, z'
loop_
 _atom_site_type_symbol
 _atom_site_label
 _atom_site_symmetry_multiplicity
 _atom_site_fract_x
 _atom_site_fract_y
 _atom_site_fract_z
 _atom_site_occupancy
  Li  Li0  1  0.948489  0.888246  0.791931  1
  Li  Li1  1  0.051511  0.388246  0.708069  1
  Li  Li2  1  0.051511  0.111754  0.208069  1
  Li  Li3  1  0.948489  0.611754  0.291931  1
  Li  Li4  1  0.425040  0.834710  0.996597  1
  Li  Li5  1  0.574960  0.334710  0.503403  1
  Li  Li6  1  0.574960  0.165290  0.003403  1
  Li  Li7  1  0.425040  0.665290  0.496597  1
  Li  Li8  1  0.579772  0.785092  0.789227  1
  Li  Li9  1  0.420228  0.285092  0.710773  1
  Li  Li10  1  0.420228  0.214908  0.210773  1
  Li  Li11  1  0.579772  0.714908  0.289227  1
  Pr  Pr12  1  0.653227  0.502926  0.841068  1
  Pr  Pr13  1  0.346773  0.002926  0.658932  1
  Pr  Pr14  1  0.346773  0.497074  0.158932  1
  Pr  Pr15  1  0.653227  0.997074  0.341068  1
  Pr  Pr16  1  0.058355  0.663974  0.692011  1
  Pr  Pr17  1  0.941645  0.163974  0.807989  1
  Pr  Pr18  1  0.941645  0.336026  0.307989  1
  Pr  Pr19  1  0.058355  0.836026  0.192011  1
  B  B20  1  0.736129  0.984988  0.986186  1
  B  B21  1  0.263871  0.484988  0.513814  1
  B  B22  1  0.263871  0.015012  0.013814  1
  B  B23  1  0.736129  0.515012  0.486186  1
  B  B24  1  0.113639  0.677159  0.016862  1
  B  B25  1  0.886361  0.177159  0.483138  1
  B  B26  1  0.886361  0.322841  0.983138  1
  B  B27  1  0.113639  0.822841  0.516862  1
  B  B28  1  0.615228  0.663550  0.028309  1
  B  B29  1  0.384772  0.163550  0.471691  1
  B  B30  1  0.384772  0.336450  0.971691  1
  B  B31  1  0.615228  0.836450  0.528309  1
  O  O32  1  0.690336  0.897257  0.919215  1
  O  O33  1  0.309664  0.397257  0.580785  1
  O  O34  1  0.309664  0.102743  0.080785  1
  O  O35  1  0.690336  0.602743  0.419215  1
  O  O36  1  0.842566  0.506849  0.645194  1
  O  O37  1  0.157434  0.006849  0.854806  1
  O  O38  1  0.157434  0.493151  0.354806  1
  O  O39  1  0.842566  0.993151  0.145194  1
  O  O40  1  0.322987  0.564601  0.605837  1
  O  O41  1  0.677013  0.064601  0.894163  1
  O  O42  1  0.677013  0.435399  0.394163  1
  O  O43  1  0.322987  0.935399  0.105837  1
  O  O44  1  0.212571  0.669682  0.176260  1
  O  O45  1  0.787429  0.169682  0.323740  1
  O  O46  1  0.787429  0.330318  0.823740  1
  O  O47  1  0.212571  0.830318  0.676260  1
  O  O48  1  0.094203  0.762476  0.944518  1
  O  O49  1  0.905797  0.262476  0.555482  1
  O  O50  1  0.905797  0.237524  0.055482  1
  O  O51  1  0.094203  0.737524  0.444518  1
  O  O52  1  0.042451  0.595185  0.930589  1
  O  O53  1  0.957549  0.095185  0.569411  1
  O  O54  1  0.957549  0.404815  0.069411  1
  O  O55  1  0.042451  0.904815  0.430589  1
  O  O56  1  0.681782  0.742159  0.121018  1
  O  O57  1  0.318218  0.242159  0.378982  1
  O  O58  1  0.318218  0.257841  0.878982  1
  O  O59  1  0.681782  0.757841  0.621018  1
  O  O60  1  0.662914  0.574679  0.093249  1
  O  O61  1  0.337086  0.074679  0.406751  1
  O  O62  1  0.337086  0.425321  0.906751  1
  O  O63  1  0.662914  0.925321  0.593249  1
  O  O64  1  0.504766  0.668771  0.869209  1
  O  O65  1  0.495234  0.168771  0.630791  1
  O  O66  1  0.495234  0.331229  0.130791  1
  O  O67  1  0.504766  0.831229  0.369209  1
