# generated using pymatgen
data_La6UO12
_symmetry_space_group_name_H-M   'P 1'
_cell_length_a   6.93098646
_cell_length_b   6.93098646
_cell_length_c   6.93098646
_cell_angle_alpha   98.68650130
_cell_angle_beta   98.68650130
_cell_angle_gamma   98.68650130
_symmetry_Int_Tables_number   1
_chemical_formula_structural   La6UO12
_chemical_formula_sum   'La6 U1 O12'
_cell_volume   320.17052398
_cell_formula_units_Z   1
loop_
 _symmetry_equiv_pos_site_id
 _symmetry_equiv_pos_as_xyz
  1  'x, y, z'
loop_
 _atom_site_type_symbol
 _atom_site_label
 _atom_site_symmetry_multiplicity
 _atom_site_fract_x
 _atom_site_fract_y
 _atom_site_fract_z
 _atom_site_occupancy
  La  La0  1  0.394051  0.689231  0.855838  1
  La  La1  1  0.855838  0.394051  0.689231  1
  La  La2  1  0.144162  0.605949  0.310769  1
  La  La3  1  0.605949  0.310769  0.144162  1
  La  La4  1  0.310769  0.144162  0.605949  1
  La  La5  1  0.689231  0.855838  0.394051  1
  U  U6  1  0.000000  0.000000  0.000000  1
  O  O7  1  0.822759  0.563379  0.407396  1
  O  O8  1  0.295230  0.070792  0.955829  1
  O  O9  1  0.407396  0.822759  0.563379  1
  O  O10  1  0.592604  0.177241  0.436621  1
  O  O11  1  0.177241  0.436621  0.592604  1
  O  O12  1  0.563379  0.407396  0.822759  1
  O  O13  1  0.436621  0.592604  0.177241  1
  O  O14  1  0.929208  0.044171  0.704770  1
  O  O15  1  0.070792  0.955829  0.295230  1
  O  O16  1  0.955829  0.295230  0.070792  1
  O  O17  1  0.704770  0.929208  0.044171  1
  O  O18  1  0.044171  0.704770  0.929208  1
