# generated using pymatgen
data_CrHgO4
_symmetry_space_group_name_H-M   'P 1'
_cell_length_a   5.41356238
_cell_length_b   5.41356238
_cell_length_c   7.24922531
_cell_angle_alpha   90.00000000
_cell_angle_beta   90.00000000
_cell_angle_gamma   115.29802999
_symmetry_Int_Tables_number   1
_chemical_formula_structural   CrHgO4
_chemical_formula_sum   'Cr2 Hg2 O8'
_cell_volume   192.07596956
_cell_formula_units_Z   2
loop_
 _symmetry_equiv_pos_site_id
 _symmetry_equiv_pos_as_xyz
  1  'x, y, z'
loop_
 _atom_site_type_symbol
 _atom_site_label
 _atom_site_symmetry_multiplicity
 _atom_site_fract_x
 _atom_site_fract_y
 _atom_site_fract_z
 _atom_site_occupancy
  Cr  Cr0  1  0.357092  0.642908  0.250000  1
  Cr  Cr1  1  0.642908  0.357092  0.750000  1
  Hg  Hg2  1  0.000000  0.000000  0.500000  1
  Hg  Hg3  1  0.000000  0.000000  0.000000  1
  O  O4  1  0.293505  0.221994  0.750000  1
  O  O5  1  0.706495  0.778006  0.250000  1
  O  O6  1  0.221994  0.293505  0.250000  1
  O  O7  1  0.778006  0.706495  0.750000  1
  O  O8  1  0.745510  0.254490  0.935391  1
  O  O9  1  0.254490  0.745510  0.435391  1
  O  O10  1  0.254490  0.745510  0.064609  1
  O  O11  1  0.745510  0.254490  0.564609  1
