# generated using pymatgen
data_ZnSnO3
_symmetry_space_group_name_H-M   'P 1'
_cell_length_a   5.68761421
_cell_length_b   5.68761421
_cell_length_c   5.68761421
_cell_angle_alpha   56.44175843
_cell_angle_beta   56.44175843
_cell_angle_gamma   56.44175843
_symmetry_Int_Tables_number   1
_chemical_formula_structural   ZnSnO3
_chemical_formula_sum   'Zn2 Sn2 O6'
_cell_volume   119.39663611
_cell_formula_units_Z   2
loop_
 _symmetry_equiv_pos_site_id
 _symmetry_equiv_pos_as_xyz
  1  'x, y, z'
loop_
 _atom_site_type_symbol
 _atom_site_label
 _atom_site_symmetry_multiplicity
 _atom_site_fract_x
 _atom_site_fract_y
 _atom_site_fract_z
 _atom_site_occupancy
  Zn  Zn0  1  0.634538  0.634538  0.634538  1
  Zn  Zn1  1  0.365462  0.365462  0.365462  1
  Sn  Sn2  1  0.850038  0.850038  0.850038  1
  Sn  Sn3  1  0.149962  0.149962  0.149962  1
  O  O4  1  0.240154  0.554238  0.950013  1
  O  O5  1  0.554238  0.950013  0.240154  1
  O  O6  1  0.950013  0.240154  0.554238  1
  O  O7  1  0.759846  0.445762  0.049987  1
  O  O8  1  0.049987  0.759846  0.445762  1
  O  O9  1  0.445762  0.049987  0.759846  1
