# generated using pymatgen
data_Li3Co2(GeO4)3
_symmetry_space_group_name_H-M   'P 1'
_cell_length_a   10.27259897
_cell_length_b   10.27259897
_cell_length_c   10.27259897
_cell_angle_alpha   109.47122063
_cell_angle_beta   109.47122063
_cell_angle_gamma   109.47122063
_symmetry_Int_Tables_number   1
_chemical_formula_structural   Li3Co2(GeO4)3
_chemical_formula_sum   'Li12 Co8 Ge12 O48'
_cell_volume   834.48610813
_cell_formula_units_Z   4
loop_
 _symmetry_equiv_pos_site_id
 _symmetry_equiv_pos_as_xyz
  1  'x, y, z'
loop_
 _atom_site_type_symbol
 _atom_site_label
 _atom_site_symmetry_multiplicity
 _atom_site_fract_x
 _atom_site_fract_y
 _atom_site_fract_z
 _atom_site_occupancy
  Li  Li0  1  0.625000  0.250000  0.875000  1
  Li  Li1  1  0.875000  0.750000  0.625000  1
  Li  Li2  1  0.750000  0.625000  0.875000  1
  Li  Li3  1  0.250000  0.875000  0.625000  1
  Li  Li4  1  0.875000  0.625000  0.250000  1
  Li  Li5  1  0.625000  0.875000  0.750000  1
  Li  Li6  1  0.375000  0.750000  0.125000  1
  Li  Li7  1  0.125000  0.250000  0.375000  1
  Li  Li8  1  0.250000  0.375000  0.125000  1
  Li  Li9  1  0.750000  0.125000  0.375000  1
  Li  Li10  1  0.125000  0.375000  0.750000  1
  Li  Li11  1  0.375000  0.125000  0.250000  1
  Co  Co12  1  0.500000  0.500000  0.500000  1
  Co  Co13  1  0.500000  0.500000  0.000000  1
  Co  Co14  1  0.500000  0.000000  0.500000  1
  Co  Co15  1  1.000000  0.500000  0.500000  1
  Co  Co16  1  0.500000  0.000000  1.000000  1
  Co  Co17  1  0.000000  0.000000  0.500000  1
  Co  Co18  1  0.000000  0.500000  0.000000  1
  Co  Co19  1  0.000000  0.000000  0.000000  1
  Ge  Ge20  1  0.875000  0.125000  0.750000  1
  Ge  Ge21  1  0.125000  0.875000  0.250000  1
  Ge  Ge22  1  0.250000  0.625000  0.375000  1
  Ge  Ge23  1  0.125000  0.750000  0.875000  1
  Ge  Ge24  1  0.750000  0.875000  0.125000  1
  Ge  Ge25  1  0.375000  0.250000  0.625000  1
  Ge  Ge26  1  0.625000  0.750000  0.375000  1
  Ge  Ge27  1  0.875000  0.250000  0.125000  1
  Ge  Ge28  1  0.250000  0.125000  0.875000  1
  Ge  Ge29  1  0.750000  0.375000  0.625000  1
  Ge  Ge30  1  0.375000  0.625000  0.750000  1
  Ge  Ge31  1  0.625000  0.375000  0.250000  1
  O  O32  1  0.802664  0.420809  0.824436  1
  O  O33  1  0.079191  0.881855  0.403626  1
  O  O34  1  0.675564  0.096374  0.978228  1
  O  O35  1  0.697336  0.521772  0.618145  1
  O  O36  1  0.697336  0.675564  0.079191  1
  O  O37  1  0.521772  0.618145  0.697336  1
  O  O38  1  0.096374  0.618145  0.420809  1
  O  O39  1  0.618145  0.697336  0.521772  1
  O  O40  1  0.403626  0.824436  0.521772  1
  O  O41  1  0.881855  0.978228  0.802664  1
  O  O42  1  0.978228  0.802664  0.881855  1
  O  O43  1  0.079191  0.697336  0.675564  1
  O  O44  1  0.618145  0.420809  0.096374  1
  O  O45  1  0.521772  0.403626  0.824436  1
  O  O46  1  0.675564  0.079191  0.697336  1
  O  O47  1  0.420809  0.096374  0.618145  1
  O  O48  1  0.824436  0.521772  0.403626  1
  O  O49  1  0.403626  0.079191  0.881855  1
  O  O50  1  0.096374  0.978228  0.675564  1
  O  O51  1  0.596374  0.175564  0.478228  1
  O  O52  1  0.978228  0.675564  0.096374  1
  O  O53  1  0.824436  0.802664  0.420809  1
  O  O54  1  0.881855  0.403626  0.079191  1
  O  O55  1  0.802664  0.881855  0.978228  1
  O  O56  1  0.197336  0.579191  0.175564  1
  O  O57  1  0.920809  0.118145  0.596374  1
  O  O58  1  0.324436  0.903626  0.021772  1
  O  O59  1  0.302664  0.478228  0.381855  1
  O  O60  1  0.302664  0.324436  0.920809  1
  O  O61  1  0.478228  0.381855  0.302664  1
  O  O62  1  0.903626  0.381855  0.579191  1
  O  O63  1  0.381855  0.302664  0.478228  1
  O  O64  1  0.197336  0.118145  0.021772  1
  O  O65  1  0.118145  0.596374  0.920809  1
  O  O66  1  0.175564  0.197336  0.579191  1
  O  O67  1  0.579191  0.175564  0.197336  1
  O  O68  1  0.021772  0.324436  0.903626  1
  O  O69  1  0.903626  0.021772  0.324436  1
  O  O70  1  0.596374  0.920809  0.118145  1
  O  O71  1  0.175564  0.478228  0.596374  1
  O  O72  1  0.579191  0.903626  0.381855  1
  O  O73  1  0.324436  0.920809  0.302664  1
  O  O74  1  0.478228  0.596374  0.175564  1
  O  O75  1  0.381855  0.579191  0.903626  1
  O  O76  1  0.920809  0.302664  0.324436  1
  O  O77  1  0.021772  0.197336  0.118145  1
  O  O78  1  0.118145  0.021772  0.197336  1
  O  O79  1  0.420809  0.824436  0.802664  1
