# generated using pymatgen
data_RbLa(MoO4)2
_symmetry_space_group_name_H-M   'P 1'
_cell_length_a   6.49589774
_cell_length_b   6.49589774
_cell_length_c   9.81151330
_cell_angle_alpha   90.00000000
_cell_angle_beta   90.00000000
_cell_angle_gamma   90.00000000
_symmetry_Int_Tables_number   1
_chemical_formula_structural   RbLa(MoO4)2
_chemical_formula_sum   'Rb2 La2 Mo4 O16'
_cell_volume   414.01336012
_cell_formula_units_Z   2
loop_
 _symmetry_equiv_pos_site_id
 _symmetry_equiv_pos_as_xyz
  1  'x, y, z'
loop_
 _atom_site_type_symbol
 _atom_site_label
 _atom_site_symmetry_multiplicity
 _atom_site_fract_x
 _atom_site_fract_y
 _atom_site_fract_z
 _atom_site_occupancy
  Rb  Rb0  1  0.000000  0.000000  0.500000  1
  Rb  Rb1  1  0.500000  0.500000  0.000000  1
  La  La2  1  0.000000  0.000000  0.000000  1
  La  La3  1  0.500000  0.500000  0.500000  1
  Mo  Mo4  1  0.000000  0.500000  0.750000  1
  Mo  Mo5  1  0.000000  0.500000  0.250000  1
  Mo  Mo6  1  0.500000  0.000000  0.750000  1
  Mo  Mo7  1  0.500000  0.000000  0.250000  1
  O  O8  1  0.806171  0.609475  0.640746  1
  O  O9  1  0.193829  0.390525  0.640746  1
  O  O10  1  0.609475  0.806171  0.359254  1
  O  O11  1  0.609475  0.193829  0.640746  1
  O  O12  1  0.390525  0.806171  0.640746  1
  O  O13  1  0.193829  0.609475  0.359254  1
  O  O14  1  0.806171  0.390525  0.359254  1
  O  O15  1  0.390525  0.193829  0.359254  1
  O  O16  1  0.109475  0.306171  0.140746  1
  O  O17  1  0.693829  0.109475  0.140746  1
  O  O18  1  0.306171  0.890525  0.140746  1
  O  O19  1  0.109475  0.693829  0.859254  1
  O  O20  1  0.890525  0.306171  0.859254  1
  O  O21  1  0.890525  0.693829  0.140746  1
  O  O22  1  0.306171  0.109475  0.859254  1
  O  O23  1  0.693829  0.890525  0.859254  1
