# generated using pymatgen
data_NdMn2O5
_symmetry_space_group_name_H-M   'P 1'
_cell_length_a   5.82923507
_cell_length_b   7.59866693
_cell_length_c   8.73170681
_cell_angle_alpha   90.00000000
_cell_angle_beta   90.00000000
_cell_angle_gamma   90.00000000
_symmetry_Int_Tables_number   1
_chemical_formula_structural   NdMn2O5
_chemical_formula_sum   'Nd4 Mn8 O20'
_cell_volume   386.76585168
_cell_formula_units_Z   4
loop_
 _symmetry_equiv_pos_site_id
 _symmetry_equiv_pos_as_xyz
  1  'x, y, z'
loop_
 _atom_site_type_symbol
 _atom_site_label
 _atom_site_symmetry_multiplicity
 _atom_site_fract_x
 _atom_site_fract_y
 _atom_site_fract_z
 _atom_site_occupancy
  Nd  Nd0  1  0.000000  0.358762  0.671904  1
  Nd  Nd1  1  0.000000  0.641238  0.328096  1
  Nd  Nd2  1  0.000000  0.858762  0.828096  1
  Nd  Nd3  1  0.000000  0.141238  0.171904  1
  Mn  Mn4  1  0.500000  0.090110  0.850454  1
  Mn  Mn5  1  0.500000  0.909890  0.149546  1
  Mn  Mn6  1  0.500000  0.590110  0.649546  1
  Mn  Mn7  1  0.500000  0.409890  0.350454  1
  Mn  Mn8  1  0.256591  0.500000  0.000000  1
  Mn  Mn9  1  0.743409  0.000000  0.500000  1
  Mn  Mn10  1  0.743409  0.500000  0.000000  1
  Mn  Mn11  1  0.256591  0.000000  0.500000  1
  O  O12  1  0.246878  0.900548  0.293191  1
  O  O13  1  0.246878  0.099452  0.706809  1
  O  O14  1  0.753122  0.400548  0.206809  1
  O  O15  1  0.753122  0.599452  0.793191  1
  O  O16  1  0.753122  0.099452  0.706809  1
  O  O17  1  0.753122  0.900548  0.293191  1
  O  O18  1  0.246878  0.599452  0.793191  1
  O  O19  1  0.246878  0.400548  0.206809  1
  O  O20  1  0.500000  0.348064  0.935454  1
  O  O21  1  0.500000  0.651936  0.064546  1
  O  O22  1  0.500000  0.848064  0.564546  1
  O  O23  1  0.500000  0.151936  0.435454  1
  O  O24  1  0.276357  0.000000  0.000000  1
  O  O25  1  0.723643  0.500000  0.500000  1
  O  O26  1  0.723643  0.000000  0.000000  1
  O  O27  1  0.276357  0.500000  0.500000  1
  O  O28  1  0.000000  0.158138  0.447174  1
  O  O29  1  0.000000  0.841862  0.552826  1
  O  O30  1  0.000000  0.658138  0.052826  1
  O  O31  1  0.000000  0.341862  0.947174  1
