# generated using pymatgen
data_SrGa4O7
_symmetry_space_group_name_H-M   'P 1'
_cell_length_a   8.26415841
_cell_length_b   8.26415841
_cell_length_c   5.77642147
_cell_angle_alpha   77.27040525
_cell_angle_beta   102.72959475
_cell_angle_gamma   111.35753775
_symmetry_Int_Tables_number   1
_chemical_formula_structural   SrGa4O7
_chemical_formula_sum   'Sr2 Ga8 O14'
_cell_volume   354.09736245
_cell_formula_units_Z   2
loop_
 _symmetry_equiv_pos_site_id
 _symmetry_equiv_pos_as_xyz
  1  'x, y, z'
loop_
 _atom_site_type_symbol
 _atom_site_label
 _atom_site_symmetry_multiplicity
 _atom_site_fract_x
 _atom_site_fract_y
 _atom_site_fract_z
 _atom_site_occupancy
  Sr  Sr0  1  0.310955  0.310955  0.250000  1
  Sr  Sr1  1  0.689045  0.689045  0.750000  1
  Ga  Ga2  1  0.755670  0.418928  0.300104  1
  Ga  Ga3  1  0.418928  0.755670  0.199896  1
  Ga  Ga4  1  0.244330  0.581072  0.699896  1
  Ga  Ga5  1  0.581072  0.244330  0.800104  1
  Ga  Ga6  1  0.057352  0.818608  0.258668  1
  Ga  Ga7  1  0.818608  0.057352  0.241332  1
  Ga  Ga8  1  0.181392  0.942648  0.758668  1
  Ga  Ga9  1  0.942648  0.181392  0.741332  1
  O  O10  1  0.033852  0.033852  0.250000  1
  O  O11  1  0.966148  0.966148  0.750000  1
  O  O12  1  0.875400  0.636003  0.146475  1
  O  O13  1  0.636003  0.875400  0.353525  1
  O  O14  1  0.124600  0.363997  0.853525  1
  O  O15  1  0.363997  0.124599  0.646475  1
  O  O16  1  0.335649  0.568789  0.441414  1
  O  O17  1  0.568789  0.335649  0.058586  1
  O  O18  1  0.749591  0.126960  0.906873  1
  O  O19  1  0.126960  0.749591  0.593127  1
  O  O20  1  0.250409  0.873040  0.093127  1
  O  O21  1  0.873040  0.250409  0.406873  1
  O  O22  1  0.431211  0.664351  0.941414  1
  O  O23  1  0.664351  0.431211  0.558586  1
