# generated using pymatgen
data_K2MgSiO4
_symmetry_space_group_name_H-M   'P 1'
_cell_length_a   5.53821553
_cell_length_b   11.11310192
_cell_length_c   15.78207218
_cell_angle_alpha   90.00000000
_cell_angle_beta   90.00000000
_cell_angle_gamma   90.00000000
_symmetry_Int_Tables_number   1
_chemical_formula_structural   K2MgSiO4
_chemical_formula_sum   'K16 Mg8 Si8 O32'
_cell_volume   971.33530839
_cell_formula_units_Z   8
loop_
 _symmetry_equiv_pos_site_id
 _symmetry_equiv_pos_as_xyz
  1  'x, y, z'
loop_
 _atom_site_type_symbol
 _atom_site_label
 _atom_site_symmetry_multiplicity
 _atom_site_fract_x
 _atom_site_fract_y
 _atom_site_fract_z
 _atom_site_occupancy
  K  K0  1  0.051432  0.235063  0.686032  1
  K  K1  1  0.948568  0.764937  0.186032  1
  K  K2  1  0.948568  0.735063  0.686032  1
  K  K3  1  0.051432  0.264937  0.186032  1
  K  K4  1  0.004602  0.490143  0.561821  1
  K  K5  1  0.995398  0.509857  0.061821  1
  K  K6  1  0.995398  0.990143  0.561821  1
  K  K7  1  0.004602  0.009857  0.061821  1
  K  K8  1  0.456885  0.760524  0.316407  1
  K  K9  1  0.543115  0.239476  0.816407  1
  K  K10  1  0.543115  0.260524  0.316407  1
  K  K11  1  0.456885  0.739476  0.816407  1
  K  K12  1  0.493633  0.508214  0.438709  1
  K  K13  1  0.506367  0.491786  0.938709  1
  K  K14  1  0.506367  0.008214  0.438709  1
  K  K15  1  0.493633  0.991786  0.938709  1
  Mg  Mg16  1  0.991668  0.990369  0.811251  1
  Mg  Mg17  1  0.008332  0.009631  0.311251  1
  Mg  Mg18  1  0.008332  0.490369  0.811251  1
  Mg  Mg19  1  0.991668  0.509631  0.311251  1
  Mg  Mg20  1  0.531460  0.260804  0.063666  1
  Mg  Mg21  1  0.468540  0.739196  0.563666  1
  Mg  Mg22  1  0.468540  0.760804  0.063666  1
  Mg  Mg23  1  0.531460  0.239196  0.563666  1
  Si  Si24  1  0.509065  0.007686  0.188928  1
  Si  Si25  1  0.490935  0.992314  0.688928  1
  Si  Si26  1  0.490935  0.507686  0.188928  1
  Si  Si27  1  0.509065  0.492314  0.688928  1
  Si  Si28  1  0.973431  0.735185  0.935542  1
  Si  Si29  1  0.026569  0.264815  0.435542  1
  Si  Si30  1  0.026569  0.235185  0.935542  1
  Si  Si31  1  0.973431  0.764815  0.435542  1
  O  O32  1  0.221073  0.512218  0.713228  1
  O  O33  1  0.778927  0.487782  0.213228  1
  O  O34  1  0.778927  0.012218  0.713228  1
  O  O35  1  0.221073  0.987782  0.213228  1
  O  O36  1  0.560914  0.352063  0.658225  1
  O  O37  1  0.439086  0.647937  0.158225  1
  O  O38  1  0.439086  0.852063  0.658225  1
  O  O39  1  0.560914  0.147937  0.158225  1
  O  O40  1  0.418645  0.084931  0.610683  1
  O  O41  1  0.581355  0.915069  0.110683  1
  O  O42  1  0.581355  0.584931  0.610683  1
  O  O43  1  0.418645  0.415069  0.110683  1
  O  O44  1  0.840280  0.207293  0.506931  1
  O  O45  1  0.159720  0.792707  0.006931  1
  O  O46  1  0.159720  0.707293  0.506931  1
  O  O47  1  0.706806  0.709357  0.979101  1
  O  O48  1  0.324824  0.478772  0.273891  1
  O  O49  1  0.675176  0.521228  0.773891  1
  O  O50  1  0.675176  0.978772  0.273891  1
  O  O51  1  0.324824  0.021228  0.773891  1
  O  O52  1  0.943667  0.673614  0.353503  1
  O  O53  1  0.056333  0.326386  0.853503  1
  O  O54  1  0.056333  0.173614  0.353503  1
  O  O55  1  0.943667  0.826386  0.853503  1
  O  O56  1  0.086890  0.894622  0.402084  1
  O  O57  1  0.913110  0.105378  0.902084  1
  O  O58  1  0.913110  0.394622  0.402084  1
  O  O59  1  0.086890  0.605378  0.902084  1
  O  O60  1  0.706806  0.790643  0.479101  1
  O  O61  1  0.293194  0.209357  0.979101  1
  O  O62  1  0.293194  0.290643  0.479101  1
  O  O63  1  0.840280  0.292707  0.006931  1
