# generated using pymatgen
data_HoNiO3
_symmetry_space_group_name_H-M   'P 1'
_cell_length_a   5.18422985
_cell_length_b   5.65831817
_cell_length_c   7.40740530
_cell_angle_alpha   90.00000000
_cell_angle_beta   90.00000000
_cell_angle_gamma   90.00000000
_symmetry_Int_Tables_number   1
_chemical_formula_structural   HoNiO3
_chemical_formula_sum   'Ho4 Ni4 O12'
_cell_volume   217.28898986
_cell_formula_units_Z   4
loop_
 _symmetry_equiv_pos_site_id
 _symmetry_equiv_pos_as_xyz
  1  'x, y, z'
loop_
 _atom_site_type_symbol
 _atom_site_label
 _atom_site_symmetry_multiplicity
 _atom_site_fract_x
 _atom_site_fract_y
 _atom_site_fract_z
 _atom_site_occupancy
  Ho  Ho0  1  0.477146  0.417697  0.750000  1
  Ho  Ho1  1  0.022854  0.917697  0.750000  1
  Ho  Ho2  1  0.522854  0.582303  0.250000  1
  Ho  Ho3  1  0.977146  0.082303  0.250000  1
  Ni  Ni4  1  0.000000  0.500000  0.000000  1
  Ni  Ni5  1  0.500000  0.000000  0.500000  1
  Ni  Ni6  1  0.000000  0.500000  0.500000  1
  Ni  Ni7  1  0.500000  0.000000  0.000000  1
  O  O8  1  0.696062  0.311860  0.447175  1
  O  O9  1  0.803938  0.811860  0.052825  1
  O  O10  1  0.303938  0.688140  0.552825  1
  O  O11  1  0.196062  0.188140  0.947175  1
  O  O12  1  0.196062  0.188140  0.552825  1
  O  O13  1  0.303938  0.688140  0.947175  1
  O  O14  1  0.803938  0.811860  0.447175  1
  O  O15  1  0.696062  0.311860  0.052825  1
  O  O16  1  0.109036  0.467342  0.250000  1
  O  O17  1  0.390964  0.967342  0.250000  1
  O  O18  1  0.890964  0.532658  0.750000  1
  O  O19  1  0.609036  0.032658  0.750000  1
