# generated using pymatgen
data_Si(NiO2)2
_symmetry_space_group_name_H-M   'P 1'
_cell_length_a   4.77121700
_cell_length_b   5.97122300
_cell_length_c   10.25234900
_cell_angle_alpha   90.00000000
_cell_angle_beta   90.00000000
_cell_angle_gamma   90.00000000
_symmetry_Int_Tables_number   1
_chemical_formula_structural   Si(NiO2)2
_chemical_formula_sum   'Si4 Ni8 O16'
_cell_volume   292.08943007
_cell_formula_units_Z   4
loop_
 _symmetry_equiv_pos_site_id
 _symmetry_equiv_pos_as_xyz
  1  'x, y, z'
loop_
 _atom_site_type_symbol
 _atom_site_label
 _atom_site_symmetry_multiplicity
 _atom_site_fract_x
 _atom_site_fract_y
 _atom_site_fract_z
 _atom_site_occupancy
  Si  Si0  1  0.927015  0.750000  0.594090  1
  Si  Si1  1  0.427015  0.250000  0.905910  1
  Si  Si2  1  0.072985  0.250000  0.405910  1
  Si  Si3  1  0.572985  0.750000  0.094090  1
  Ni  Ni4  1  0.506457  0.250000  0.226530  1
  Ni  Ni5  1  0.993543  0.250000  0.726530  1
  Ni  Ni6  1  0.493543  0.750000  0.773470  1
  Ni  Ni7  1  0.006457  0.750000  0.273470  1
  Ni  Ni8  1  0.500000  0.500000  0.500000  1
  Ni  Ni9  1  0.000000  0.500000  0.000000  1
  Ni  Ni10  1  0.500000  0.000000  0.500000  1
  Ni  Ni11  1  0.000000  0.000000  0.000000  1
  O  O12  1  0.225291  0.470058  0.337070  1
  O  O13  1  0.725291  0.529942  0.162930  1
  O  O14  1  0.774709  0.970058  0.662930  1
  O  O15  1  0.274709  0.029942  0.837070  1
  O  O16  1  0.774709  0.529942  0.662930  1
  O  O17  1  0.274709  0.470058  0.837070  1
  O  O18  1  0.225291  0.029942  0.337070  1
  O  O19  1  0.725291  0.970058  0.162930  1
  O  O20  1  0.717185  0.750000  0.945206  1
  O  O21  1  0.217185  0.250000  0.554794  1
  O  O22  1  0.282815  0.250000  0.054794  1
  O  O23  1  0.782815  0.750000  0.445206  1
  O  O24  1  0.230604  0.750000  0.093835  1
  O  O25  1  0.730604  0.250000  0.406165  1
  O  O26  1  0.269396  0.750000  0.593835  1
  O  O27  1  0.769396  0.250000  0.906165  1
