# generated using pymatgen
data_Al9Ir2
_symmetry_space_group_name_H-M   'P 1'
_cell_length_a   6.40484557
_cell_length_b   6.46291893
_cell_length_c   8.77897770
_cell_angle_alpha   90.00000000
_cell_angle_beta   94.98986092
_cell_angle_gamma   90.00000000
_symmetry_Int_Tables_number   1
_chemical_formula_structural   Al9Ir2
_chemical_formula_sum   'Al18 Ir4'
_cell_volume   362.01974617
_cell_formula_units_Z   2
loop_
 _symmetry_equiv_pos_site_id
 _symmetry_equiv_pos_as_xyz
  1  'x, y, z'
loop_
 _atom_site_type_symbol
 _atom_site_label
 _atom_site_symmetry_multiplicity
 _atom_site_fract_x
 _atom_site_fract_y
 _atom_site_fract_z
 _atom_site_occupancy
  Al  Al0  1  0.000000  0.500000  0.500000  1
  Al  Al1  1  0.000000  0.000000  0.000000  1
  Al  Al2  1  0.213156  0.603841  0.039550  1
  Al  Al3  1  0.786844  0.103841  0.460450  1
  Al  Al4  1  0.400421  0.519848  0.770083  1
  Al  Al5  1  0.599579  0.019848  0.729917  1
  Al  Al6  1  0.599579  0.480152  0.229917  1
  Al  Al7  1  0.400421  0.980152  0.270083  1
  Al  Al8  1  0.388091  0.305369  0.498506  1
  Al  Al9  1  0.611909  0.805369  0.001494  1
  Al  Al10  1  0.611909  0.694631  0.501494  1
  Al  Al11  1  0.388091  0.194631  0.998506  1
  Al  Al12  1  0.098094  0.215411  0.727003  1
  Al  Al13  1  0.901906  0.715411  0.772997  1
  Al  Al14  1  0.901906  0.784589  0.272997  1
  Al  Al15  1  0.098094  0.284589  0.227003  1
  Al  Al16  1  0.213156  0.896159  0.539550  1
  Al  Al17  1  0.786844  0.396159  0.960450  1
  Ir  Ir18  1  0.264182  0.622848  0.331569  1
  Ir  Ir19  1  0.735818  0.122848  0.168431  1
  Ir  Ir20  1  0.735818  0.377152  0.668431  1
  Ir  Ir21  1  0.264182  0.877152  0.831569  1
