# generated using pymatgen
data_YSnF7
_symmetry_space_group_name_H-M   'P 1'
_cell_length_a   9.00543598
_cell_length_b   5.67851676
_cell_length_c   12.12798893
_cell_angle_alpha   90.00000000
_cell_angle_beta   117.49907735
_cell_angle_gamma   90.00000000
_symmetry_Int_Tables_number   1
_chemical_formula_structural   YSnF7
_chemical_formula_sum   'Y4 Sn4 F28'
_cell_volume   550.12453095
_cell_formula_units_Z   4
loop_
 _symmetry_equiv_pos_site_id
 _symmetry_equiv_pos_as_xyz
  1  'x, y, z'
loop_
 _atom_site_type_symbol
 _atom_site_label
 _atom_site_symmetry_multiplicity
 _atom_site_fract_x
 _atom_site_fract_y
 _atom_site_fract_z
 _atom_site_occupancy
  Y  Y0  1  0.813649  0.757788  0.234430  1
  Y  Y1  1  0.186351  0.257788  0.265570  1
  Y  Y2  1  0.186351  0.242212  0.765570  1
  Y  Y3  1  0.813649  0.742212  0.734430  1
  Sn  Sn4  1  0.272581  0.756788  0.043412  1
  Sn  Sn5  1  0.727419  0.256788  0.456588  1
  Sn  Sn6  1  0.727419  0.243212  0.956588  1
  Sn  Sn7  1  0.272581  0.743212  0.543412  1
  F  F8  1  0.707120  0.454686  0.080552  1
  F  F9  1  0.292880  0.954686  0.419448  1
  F  F10  1  0.292880  0.545314  0.919448  1
  F  F11  1  0.707120  0.045314  0.580552  1
  F  F12  1  0.280926  0.449655  0.453691  1
  F  F13  1  0.719074  0.949655  0.046309  1
  F  F14  1  0.719074  0.550345  0.546309  1
  F  F15  1  0.280926  0.050345  0.953691  1
  F  F16  1  0.521032  0.771835  0.141205  1
  F  F17  1  0.478968  0.271835  0.358795  1
  F  F18  1  0.478968  0.228165  0.858795  1
  F  F19  1  0.521032  0.728165  0.641205  1
  F  F20  1  0.023638  0.758578  0.946411  1
  F  F21  1  0.976362  0.258578  0.553589  1
  F  F22  1  0.976362  0.241422  0.053589  1
  F  F23  1  0.023638  0.741422  0.446411  1
  F  F24  1  0.729820  0.979849  0.355379  1
  F  F25  1  0.270180  0.479849  0.144621  1
  F  F26  1  0.270180  0.020151  0.644621  1
  F  F27  1  0.729820  0.520151  0.855379  1
  F  F28  1  0.744983  0.040663  0.827121  1
  F  F29  1  0.255017  0.540663  0.672879  1
  F  F30  1  0.255017  0.959337  0.172879  1
  F  F31  1  0.744983  0.459337  0.327121  1
  F  F32  1  0.971701  0.423828  0.765700  1
  F  F33  1  0.028299  0.923828  0.734300  1
  F  F34  1  0.028299  0.576172  0.234300  1
  F  F35  1  0.971701  0.076172  0.265700  1
