# generated using pymatgen
data_CeNiC2
_symmetry_space_group_name_H-M   'P 1'
_cell_length_a   3.76805523
_cell_length_b   3.76805523
_cell_length_c   3.82281583
_cell_angle_alpha   90.00000000
_cell_angle_beta   90.00000000
_cell_angle_gamma   105.76604510
_symmetry_Int_Tables_number   1
_chemical_formula_structural   CeNiC2
_chemical_formula_sum   'Ce1 Ni1 C2'
_cell_volume   52.23530277
_cell_formula_units_Z   1
loop_
 _symmetry_equiv_pos_site_id
 _symmetry_equiv_pos_as_xyz
  1  'x, y, z'
loop_
 _atom_site_type_symbol
 _atom_site_label
 _atom_site_symmetry_multiplicity
 _atom_site_fract_x
 _atom_site_fract_y
 _atom_site_fract_z
 _atom_site_occupancy
  Ce  Ce0  1  0.005744  0.994256  0.000000  1
  Ni  Ni1  1  0.399911  0.600089  0.500000  1
  C  C2  1  0.864125  0.441380  0.500000  1
  C  C3  1  0.558620  0.135875  0.500000  1
