# generated using pymatgen
data_BaAl2(SiO4)2
_symmetry_space_group_name_H-M   'P 1'
_cell_length_a   9.43422975
_cell_length_b   9.43422975
_cell_length_c   8.74930211
_cell_angle_alpha   82.19742130
_cell_angle_beta   97.80257870
_cell_angle_gamma   91.07320383
_symmetry_Int_Tables_number   1
_chemical_formula_structural   BaAl2(SiO4)2
_chemical_formula_sum   'Ba4 Al8 Si8 O32'
_cell_volume   764.37628089
_cell_formula_units_Z   4
loop_
 _symmetry_equiv_pos_site_id
 _symmetry_equiv_pos_as_xyz
  1  'x, y, z'
loop_
 _atom_site_type_symbol
 _atom_site_label
 _atom_site_symmetry_multiplicity
 _atom_site_fract_x
 _atom_site_fract_y
 _atom_site_fract_z
 _atom_site_occupancy
  Ba  Ba0  1  0.435137  0.064076  0.717006  1
  Ba  Ba1  1  0.064076  0.435137  0.782994  1
  Ba  Ba2  1  0.564863  0.935924  0.282994  1
  Ba  Ba3  1  0.935924  0.564863  0.217006  1
  Al  Al4  1  0.933808  0.199885  0.108562  1
  Al  Al5  1  0.199885  0.933808  0.391438  1
  Al  Al6  1  0.800115  0.066192  0.608562  1
  Al  Al7  1  0.066192  0.800115  0.891438  1
  Al  Al8  1  0.448780  0.295989  0.035157  1
  Al  Al9  1  0.295989  0.448780  0.464843  1
  Al  Al10  1  0.551220  0.704011  0.964843  1
  Al  Al11  1  0.704011  0.551220  0.535157  1
  Si  Si12  1  0.940665  0.788751  0.526210  1
  Si  Si13  1  0.059335  0.211249  0.473790  1
  Si  Si14  1  0.427786  0.710268  0.597586  1
  Si  Si15  1  0.788751  0.940665  0.973790  1
  Si  Si16  1  0.572214  0.289732  0.402414  1
  Si  Si17  1  0.289732  0.572214  0.097586  1
  Si  Si18  1  0.710268  0.427786  0.902414  1
  Si  Si19  1  0.211249  0.059335  0.026210  1
  O  O20  1  0.917667  0.823719  0.989088  1
  O  O21  1  0.823719  0.917667  0.510912  1
  O  O22  1  0.082333  0.176281  0.010912  1
  O  O23  1  0.176281  0.082333  0.489088  1
  O  O24  1  0.434992  0.323225  0.489147  1
  O  O25  1  0.323225  0.434992  0.010853  1
  O  O26  1  0.565008  0.676775  0.510853  1
  O  O27  1  0.676775  0.565008  0.989147  1
  O  O28  1  0.181434  0.946989  0.898464  1
  O  O29  1  0.946989  0.181434  0.601536  1
  O  O30  1  0.818566  0.053011  0.101536  1
  O  O31  1  0.053011  0.818566  0.398464  1
  O  O32  1  0.683011  0.424131  0.403500  1
  O  O33  1  0.424131  0.683011  0.096500  1
  O  O34  1  0.316989  0.575869  0.596500  1
  O  O35  1  0.575869  0.316989  0.903500  1
  O  O36  1  0.020851  0.751289  0.704467  1
  O  O37  1  0.751289  0.020851  0.795533  1
  O  O38  1  0.979149  0.248711  0.295533  1
  O  O39  1  0.248711  0.979149  0.204467  1
  O  O40  1  0.861585  0.362544  0.003176  1
  O  O41  1  0.362544  0.861585  0.496824  1
  O  O42  1  0.138415  0.637456  0.996824  1
  O  O43  1  0.637456  0.138415  0.503176  1
  O  O44  1  0.857048  0.643132  0.476821  1
  O  O45  1  0.643132  0.857048  0.023179  1
  O  O46  1  0.142952  0.356868  0.523179  1
  O  O47  1  0.356868  0.142952  0.976821  1
  O  O48  1  0.753201  0.473626  0.728055  1
  O  O49  1  0.473626  0.753201  0.771945  1
  O  O50  1  0.246799  0.526374  0.271945  1
  O  O51  1  0.526374  0.246799  0.228055  1
