# generated using pymatgen
data_Ba2LaTaO6
_symmetry_space_group_name_H-M   'P 1'
_cell_length_a   6.13586864
_cell_length_b   6.13586864
_cell_length_c   6.13586864
_cell_angle_alpha   60.69693751
_cell_angle_beta   60.69693751
_cell_angle_gamma   60.69693751
_symmetry_Int_Tables_number   1
_chemical_formula_structural   Ba2LaTaO6
_chemical_formula_sum   'Ba2 La1 Ta1 O6'
_cell_volume   165.91726428
_cell_formula_units_Z   1
loop_
 _symmetry_equiv_pos_site_id
 _symmetry_equiv_pos_as_xyz
  1  'x, y, z'
loop_
 _atom_site_type_symbol
 _atom_site_label
 _atom_site_symmetry_multiplicity
 _atom_site_fract_x
 _atom_site_fract_y
 _atom_site_fract_z
 _atom_site_occupancy
  Ba  Ba0  1  0.747676  0.747676  0.747676  1
  Ba  Ba1  1  0.252324  0.252324  0.252324  1
  La  La2  1  0.000000  0.000000  0.000000  1
  Ta  Ta3  1  0.500000  0.500000  0.500000  1
  O  O4  1  0.329105  0.723203  0.214416  1
  O  O5  1  0.723203  0.214416  0.329105  1
  O  O6  1  0.214416  0.329105  0.723203  1
  O  O7  1  0.670895  0.276797  0.785584  1
  O  O8  1  0.785584  0.670895  0.276797  1
  O  O9  1  0.276797  0.785584  0.670895  1
