# generated using pymatgen
data_Cs2Al2B2O7
_symmetry_space_group_name_H-M   'P 1'
_cell_length_a   6.80485709
_cell_length_b   7.22978602
_cell_length_c   9.74717828
_cell_angle_alpha   90.00000000
_cell_angle_beta   115.22495394
_cell_angle_gamma   90.00000000
_symmetry_Int_Tables_number   1
_chemical_formula_structural   Cs2Al2B2O7
_chemical_formula_sum   'Cs4 Al4 B4 O14'
_cell_volume   433.81032291
_cell_formula_units_Z   2
loop_
 _symmetry_equiv_pos_site_id
 _symmetry_equiv_pos_as_xyz
  1  'x, y, z'
loop_
 _atom_site_type_symbol
 _atom_site_label
 _atom_site_symmetry_multiplicity
 _atom_site_fract_x
 _atom_site_fract_y
 _atom_site_fract_z
 _atom_site_occupancy
  Cs  Cs0  1  0.777405  0.862810  0.617305  1
  Cs  Cs1  1  0.222595  0.362810  0.882695  1
  Cs  Cs2  1  0.222595  0.137190  0.382695  1
  Cs  Cs3  1  0.777405  0.637190  0.117305  1
  Al  Al4  1  0.239429  0.619198  0.540082  1
  Al  Al5  1  0.760571  0.119198  0.959918  1
  Al  Al6  1  0.760571  0.380802  0.459918  1
  Al  Al7  1  0.239429  0.880802  0.040082  1
  B  B8  1  0.353963  0.888650  0.775477  1
  B  B9  1  0.646037  0.388650  0.724523  1
  B  B10  1  0.646037  0.111350  0.224523  1
  B  B11  1  0.353963  0.611350  0.275477  1
  O  O12  1  0.255223  0.840139  0.623032  1
  O  O13  1  0.744777  0.340139  0.876968  1
  O  O14  1  0.744777  0.159861  0.376968  1
  O  O15  1  0.255223  0.659861  0.123032  1
  O  O16  1  0.259372  0.831761  0.868571  1
  O  O17  1  0.740628  0.331761  0.631429  1
  O  O18  1  0.740628  0.168239  0.131429  1
  O  O19  1  0.259372  0.668239  0.368571  1
  O  O20  1  0.000000  0.500000  0.500000  1
  O  O21  1  0.000000  0.000000  0.000000  1
  O  O22  1  0.538746  0.994225  0.827694  1
  O  O23  1  0.461254  0.494225  0.672306  1
  O  O24  1  0.461254  0.005775  0.172306  1
  O  O25  1  0.538746  0.505775  0.327694  1
