# generated using pymatgen
data_AlAu
_symmetry_space_group_name_H-M   'P 1'
_cell_length_a   6.41211782
_cell_length_b   3.41142917
_cell_length_c   6.45642524
_cell_angle_alpha   90.00000000
_cell_angle_beta   92.49225979
_cell_angle_gamma   90.00000000
_symmetry_Int_Tables_number   1
_chemical_formula_structural   AlAu
_chemical_formula_sum   'Al4 Au4'
_cell_volume   141.09739222
_cell_formula_units_Z   4
loop_
 _symmetry_equiv_pos_site_id
 _symmetry_equiv_pos_as_xyz
  1  'x, y, z'
loop_
 _atom_site_type_symbol
 _atom_site_label
 _atom_site_symmetry_multiplicity
 _atom_site_fract_x
 _atom_site_fract_y
 _atom_site_fract_z
 _atom_site_occupancy
  Al  Al0  1  0.450440  0.250000  0.179713  1
  Al  Al1  1  0.549560  0.750000  0.820287  1
  Al  Al2  1  0.078392  0.250000  0.680662  1
  Al  Al3  1  0.921608  0.750000  0.319338  1
  Au  Au4  1  0.692352  0.250000  0.522159  1
  Au  Au5  1  0.307648  0.750000  0.477841  1
  Au  Au6  1  0.811419  0.250000  0.996817  1
  Au  Au7  1  0.188581  0.750000  0.003183  1
