# generated using pymatgen
data_Na5InO4
_symmetry_space_group_name_H-M   'P 1'
_cell_length_a   10.69586274
_cell_length_b   10.83039693
_cell_length_c   10.89529524
_cell_angle_alpha   90.00000000
_cell_angle_beta   90.00000000
_cell_angle_gamma   90.00000000
_symmetry_Int_Tables_number   1
_chemical_formula_structural   Na5InO4
_chemical_formula_sum   'Na40 In8 O32'
_cell_volume   1262.11578345
_cell_formula_units_Z   8
loop_
 _symmetry_equiv_pos_site_id
 _symmetry_equiv_pos_as_xyz
  1  'x, y, z'
loop_
 _atom_site_type_symbol
 _atom_site_label
 _atom_site_symmetry_multiplicity
 _atom_site_fract_x
 _atom_site_fract_y
 _atom_site_fract_z
 _atom_site_occupancy
  Na  Na0  1  0.103300  0.119148  0.338559  1
  Na  Na1  1  0.603300  0.880852  0.161441  1
  Na  Na2  1  0.396700  0.619148  0.661441  1
  Na  Na3  1  0.896700  0.380852  0.838559  1
  Na  Na4  1  0.896700  0.880852  0.661441  1
  Na  Na5  1  0.396700  0.119148  0.838559  1
  Na  Na6  1  0.603300  0.380852  0.338559  1
  Na  Na7  1  0.103300  0.619148  0.161441  1
  Na  Na8  1  0.643319  0.886925  0.896635  1
  Na  Na9  1  0.143319  0.113075  0.603365  1
  Na  Na10  1  0.856681  0.386925  0.103365  1
  Na  Na11  1  0.356681  0.613075  0.396635  1
  Na  Na12  1  0.356681  0.113075  0.103365  1
  Na  Na13  1  0.856681  0.886925  0.396635  1
  Na  Na14  1  0.143319  0.613075  0.896635  1
  Na  Na15  1  0.643319  0.386925  0.603365  1
  Na  Na16  1  0.595008  0.624228  0.852711  1
  Na  Na17  1  0.095008  0.375772  0.647289  1
  Na  Na18  1  0.904992  0.124228  0.147289  1
  Na  Na19  1  0.404992  0.875772  0.352711  1
  Na  Na20  1  0.404992  0.375772  0.147289  1
  Na  Na21  1  0.904992  0.624228  0.352711  1
  Na  Na22  1  0.095008  0.875772  0.852711  1
  Na  Na23  1  0.595008  0.124228  0.647289  1
  Na  Na24  1  0.666103  0.106424  0.382777  1
  Na  Na25  1  0.166103  0.893576  0.117223  1
  Na  Na26  1  0.833897  0.606424  0.617223  1
  Na  Na27  1  0.333897  0.393576  0.882777  1
  Na  Na28  1  0.333897  0.893576  0.617223  1
  Na  Na29  1  0.833897  0.106424  0.882777  1
  Na  Na30  1  0.166103  0.393576  0.382777  1
  Na  Na31  1  0.666103  0.606424  0.117223  1
  Na  Na32  1  0.131949  0.849527  0.381685  1
  Na  Na33  1  0.631949  0.150473  0.118315  1
  Na  Na34  1  0.368051  0.349527  0.618315  1
  Na  Na35  1  0.868051  0.650473  0.881685  1
  Na  Na36  1  0.868051  0.150473  0.618315  1
  Na  Na37  1  0.368051  0.849527  0.881685  1
  Na  Na38  1  0.631949  0.650473  0.381685  1
  Na  Na39  1  0.131949  0.349527  0.118315  1
  In  In40  1  0.884655  0.352402  0.377909  1
  In  In41  1  0.384655  0.647598  0.122091  1
  In  In42  1  0.615345  0.852402  0.622091  1
  In  In43  1  0.115345  0.147598  0.877909  1
  In  In44  1  0.115345  0.647598  0.622091  1
  In  In45  1  0.615345  0.352402  0.877909  1
  In  In46  1  0.384655  0.147598  0.377909  1
  In  In47  1  0.884655  0.852402  0.122091  1
  O  O48  1  0.509620  0.747177  0.011852  1
  O  O49  1  0.009620  0.252823  0.488148  1
  O  O50  1  0.990380  0.247177  0.988148  1
  O  O51  1  0.490380  0.752823  0.511852  1
  O  O52  1  0.490380  0.252823  0.988148  1
  O  O53  1  0.990380  0.747177  0.511852  1
  O  O54  1  0.009620  0.752823  0.011852  1
  O  O55  1  0.509620  0.247177  0.488148  1
  O  O56  1  0.237589  0.515202  0.543679  1
  O  O57  1  0.737589  0.484798  0.956321  1
  O  O58  1  0.262411  0.015202  0.456321  1
  O  O59  1  0.762411  0.984798  0.043679  1
  O  O60  1  0.762411  0.484798  0.456321  1
  O  O61  1  0.262411  0.515202  0.043679  1
  O  O62  1  0.737589  0.984798  0.543679  1
  O  O63  1  0.237589  0.015202  0.956321  1
  O  O64  1  0.768019  0.252417  0.257022  1
  O  O65  1  0.268019  0.747583  0.242978  1
  O  O66  1  0.731981  0.752417  0.742978  1
  O  O67  1  0.231981  0.247583  0.757022  1
  O  O68  1  0.231981  0.747583  0.742978  1
  O  O69  1  0.731981  0.252417  0.757022  1
  O  O70  1  0.268019  0.247583  0.257022  1
  O  O71  1  0.768019  0.752417  0.242978  1
  O  O72  1  0.999402  0.456691  0.255873  1
  O  O73  1  0.499402  0.543309  0.244127  1
  O  O74  1  0.500598  0.956691  0.744127  1
  O  O75  1  0.000598  0.043309  0.755873  1
  O  O76  1  0.000598  0.543309  0.744127  1
  O  O77  1  0.500598  0.456691  0.755873  1
  O  O78  1  0.499402  0.043309  0.255873  1
  O  O79  1  0.999402  0.956691  0.244127  1
