# generated using pymatgen
data_Sb(MoS)2
_symmetry_space_group_name_H-M   'P 1'
_cell_length_a   6.61612276
_cell_length_b   3.20360895
_cell_length_c   9.52774904
_cell_angle_alpha   90.00000000
_cell_angle_beta   106.02897918
_cell_angle_gamma   90.00000000
_symmetry_Int_Tables_number   1
_chemical_formula_structural   Sb(MoS)2
_chemical_formula_sum   'Sb2 Mo4 S4'
_cell_volume   194.09392992
_cell_formula_units_Z   2
loop_
 _symmetry_equiv_pos_site_id
 _symmetry_equiv_pos_as_xyz
  1  'x, y, z'
loop_
 _atom_site_type_symbol
 _atom_site_label
 _atom_site_symmetry_multiplicity
 _atom_site_fract_x
 _atom_site_fract_y
 _atom_site_fract_z
 _atom_site_occupancy
  Sb  Sb0  1  0.996180  0.750000  0.338811  1
  Sb  Sb1  1  0.003820  0.250000  0.661189  1
  Mo  Mo2  1  0.894578  0.750000  0.885128  1
  Mo  Mo3  1  0.661698  0.750000  0.479180  1
  Mo  Mo4  1  0.105422  0.250000  0.114872  1
  Mo  Mo5  1  0.338302  0.250000  0.520820  1
  S  S6  1  0.737708  0.250000  0.007041  1
  S  S7  1  0.470312  0.250000  0.311316  1
  S  S8  1  0.262292  0.750000  0.992959  1
  S  S9  1  0.529688  0.750000  0.688684  1
