# generated using pymatgen
data_AlPO4
_symmetry_space_group_name_H-M   'P 1'
_cell_length_a   6.19983238
_cell_length_b   7.60132685
_cell_length_c   8.69773283
_cell_angle_alpha   98.36879575
_cell_angle_beta   104.48430719
_cell_angle_gamma   102.25244780
_symmetry_Int_Tables_number   1
_chemical_formula_structural   AlPO4
_chemical_formula_sum   'Al6 P6 O24'
_cell_volume   379.18780143
_cell_formula_units_Z   6
loop_
 _symmetry_equiv_pos_site_id
 _symmetry_equiv_pos_as_xyz
  1  'x, y, z'
loop_
 _atom_site_type_symbol
 _atom_site_label
 _atom_site_symmetry_multiplicity
 _atom_site_fract_x
 _atom_site_fract_y
 _atom_site_fract_z
 _atom_site_occupancy
  Al  Al0  1  0.238106  0.311615  0.580808  1
  Al  Al1  1  0.761894  0.688385  0.419192  1
  Al  Al2  1  0.531725  0.105207  0.789881  1
  Al  Al3  1  0.468275  0.894793  0.210119  1
  Al  Al4  1  0.015725  0.701049  0.977908  1
  Al  Al5  1  0.984275  0.298951  0.022092  1
  P  P6  1  0.990935  0.992782  0.740126  1
  P  P7  1  0.009065  0.007218  0.259874  1
  P  P8  1  0.800540  0.403652  0.656908  1
  P  P9  1  0.199460  0.596348  0.343092  1
  P  P10  1  0.477952  0.699310  0.869603  1
  P  P11  1  0.522048  0.300690  0.130397  1
  O  O12  1  0.053606  0.859688  0.845158  1
  O  O13  1  0.946394  0.140312  0.154842  1
  O  O14  1  0.224324  0.121167  0.732711  1
  O  O15  1  0.775676  0.878833  0.267289  1
  O  O16  1  0.863616  0.119735  0.826654  1
  O  O17  1  0.136384  0.880265  0.173346  1
  O  O18  1  0.828690  0.905100  0.573219  1
  O  O19  1  0.171310  0.094900  0.426781  1
  O  O20  1  0.937345  0.470005  0.844782  1
  O  O21  1  0.062655  0.529995  0.155218  1
  O  O22  1  0.738697  0.560991  0.583317  1
  O  O23  1  0.261303  0.439009  0.416683  1
  O  O24  1  0.934272  0.300579  0.569258  1
  O  O25  1  0.065728  0.699421  0.430742  1
  O  O26  1  0.561361  0.266063  0.649636  1
  O  O27  1  0.438639  0.733937  0.350364  1
  O  O28  1  0.644930  0.268640  0.989085  1
  O  O29  1  0.355070  0.731360  0.010915  1
  O  O30  1  0.479028  0.866701  0.788490  1
  O  O31  1  0.520972  0.133299  0.211510  1
  O  O32  1  0.719035  0.695515  0.961126  1
  O  O33  1  0.280965  0.304485  0.038874  1
  O  O34  1  0.344254  0.521531  0.749368  1
  O  O35  1  0.655746  0.478469  0.250632  1
