# generated using pymatgen
data_Er5Ge3
_symmetry_space_group_name_H-M   'P 1'
_cell_length_a   8.42540757
_cell_length_b   8.42540757
_cell_length_c   6.33998846
_cell_angle_alpha   90.00000000
_cell_angle_beta   90.00000000
_cell_angle_gamma   120.00000000
_symmetry_Int_Tables_number   1
_chemical_formula_structural   Er5Ge3
_chemical_formula_sum   'Er10 Ge6'
_cell_volume   389.76329310
_cell_formula_units_Z   2
loop_
 _symmetry_equiv_pos_site_id
 _symmetry_equiv_pos_as_xyz
  1  'x, y, z'
loop_
 _atom_site_type_symbol
 _atom_site_label
 _atom_site_symmetry_multiplicity
 _atom_site_fract_x
 _atom_site_fract_y
 _atom_site_fract_z
 _atom_site_occupancy
  Er  Er0  1  0.000000  0.758638  0.750000  1
  Er  Er1  1  0.000000  0.241362  0.250000  1
  Er  Er2  1  0.758638  0.758638  0.250000  1
  Er  Er3  1  0.758638  0.000000  0.750000  1
  Er  Er4  1  0.241362  0.241362  0.750000  1
  Er  Er5  1  0.241362  0.000000  0.250000  1
  Er  Er6  1  0.333333  0.666667  0.500000  1
  Er  Er7  1  0.666667  0.333333  0.000000  1
  Er  Er8  1  0.666667  0.333333  0.500000  1
  Er  Er9  1  0.333333  0.666667  0.000000  1
  Ge  Ge10  1  0.393997  0.000000  0.750000  1
  Ge  Ge11  1  0.393997  0.393997  0.250000  1
  Ge  Ge12  1  0.000000  0.606003  0.250000  1
  Ge  Ge13  1  0.000000  0.393997  0.750000  1
  Ge  Ge14  1  0.606003  0.606003  0.750000  1
  Ge  Ge15  1  0.606003  0.000000  0.250000  1
