# generated using pymatgen
data_Sr5Cr3O12F
_symmetry_space_group_name_H-M   'P 1'
_cell_length_a   10.09373519
_cell_length_b   10.09373519
_cell_length_c   7.50367910
_cell_angle_alpha   90.00000000
_cell_angle_beta   90.00000000
_cell_angle_gamma   120.00000000
_symmetry_Int_Tables_number   1
_chemical_formula_structural   Sr5Cr3O12F
_chemical_formula_sum   'Sr10 Cr6 O24 F2'
_cell_volume   662.07729981
_cell_formula_units_Z   2
loop_
 _symmetry_equiv_pos_site_id
 _symmetry_equiv_pos_as_xyz
  1  'x, y, z'
loop_
 _atom_site_type_symbol
 _atom_site_label
 _atom_site_symmetry_multiplicity
 _atom_site_fract_x
 _atom_site_fract_y
 _atom_site_fract_z
 _atom_site_occupancy
  Sr  Sr0  1  0.993747  0.242369  0.250000  1
  Sr  Sr1  1  0.757631  0.751378  0.250000  1
  Sr  Sr2  1  0.751378  0.993747  0.750000  1
  Sr  Sr3  1  0.006253  0.757631  0.750000  1
  Sr  Sr4  1  0.242369  0.248622  0.750000  1
  Sr  Sr5  1  0.248622  0.006253  0.250000  1
  Sr  Sr6  1  0.333333  0.666667  0.500031  1
  Sr  Sr7  1  0.666667  0.333333  0.000031  1
  Sr  Sr8  1  0.666667  0.333333  0.499969  1
  Sr  Sr9  1  0.333333  0.666667  0.999969  1
  Cr  Cr10  1  0.630493  0.601065  0.750000  1
  Cr  Cr11  1  0.029427  0.630493  0.250000  1
  Cr  Cr12  1  0.601065  0.970573  0.250000  1
  Cr  Cr13  1  0.398935  0.029427  0.750000  1
  Cr  Cr14  1  0.970573  0.369507  0.750000  1
  Cr  Cr15  1  0.369507  0.398935  0.250000  1
  O  O16  1  0.521464  0.689241  0.750000  1
  O  O17  1  0.597024  0.129097  0.750000  1
  O  O18  1  0.252558  0.342988  0.434338  1
  O  O19  1  0.909570  0.252558  0.934338  1
  O  O20  1  0.342988  0.090430  0.934338  1
  O  O21  1  0.657012  0.909570  0.434338  1
  O  O22  1  0.090430  0.747442  0.434338  1
  O  O23  1  0.747442  0.657012  0.934338  1
  O  O24  1  0.747442  0.657012  0.565662  1
  O  O25  1  0.090430  0.747442  0.065662  1
  O  O26  1  0.657012  0.909570  0.065662  1
  O  O27  1  0.342988  0.090430  0.565662  1
  O  O28  1  0.870903  0.467927  0.750000  1
  O  O29  1  0.252558  0.342988  0.065662  1
  O  O30  1  0.532073  0.402976  0.750000  1
  O  O31  1  0.129097  0.532073  0.250000  1
  O  O32  1  0.478536  0.310759  0.250000  1
  O  O33  1  0.167776  0.478536  0.750000  1
  O  O34  1  0.310759  0.832224  0.750000  1
  O  O35  1  0.689241  0.167776  0.250000  1
  O  O36  1  0.832224  0.521464  0.250000  1
  O  O37  1  0.402976  0.870903  0.250000  1
  O  O38  1  0.467927  0.597024  0.250000  1
  O  O39  1  0.909570  0.252558  0.565662  1
  F  F40  1  0.000000  0.000000  0.250000  1
  F  F41  1  0.000000  0.000000  0.750000  1
