# generated using pymatgen
data_Co4SnSb12
_symmetry_space_group_name_H-M   'P 1'
_cell_length_a   7.96543391
_cell_length_b   7.96543391
_cell_length_c   7.96543391
_cell_angle_alpha   109.47122063
_cell_angle_beta   109.47122063
_cell_angle_gamma   109.47122063
_symmetry_Int_Tables_number   1
_chemical_formula_structural   Co4SnSb12
_chemical_formula_sum   'Co4 Sn1 Sb12'
_cell_volume   389.05089993
_cell_formula_units_Z   1
loop_
 _symmetry_equiv_pos_site_id
 _symmetry_equiv_pos_as_xyz
  1  'x, y, z'
loop_
 _atom_site_type_symbol
 _atom_site_label
 _atom_site_symmetry_multiplicity
 _atom_site_fract_x
 _atom_site_fract_y
 _atom_site_fract_z
 _atom_site_occupancy
  Co  Co0  1  0.500000  1.000000  1.000000  1
  Co  Co1  1  0.500000  0.500000  0.500000  1
  Co  Co2  1  1.000000  0.500000  0.000000  1
  Co  Co3  1  1.000000  1.000000  0.500000  1
  Sn  Sn4  1  0.000000  0.000000  0.000000  1
  Sb  Sb5  1  0.491225  0.159698  0.331527  1
  Sb  Sb6  1  0.159698  0.668473  0.828170  1
  Sb  Sb7  1  0.331527  0.171830  0.840302  1
  Sb  Sb8  1  0.840302  0.668473  0.508775  1
  Sb  Sb9  1  0.668473  0.828170  0.159698  1
  Sb  Sb10  1  0.840302  0.331527  0.171830  1
  Sb  Sb11  1  0.668473  0.508775  0.840302  1
  Sb  Sb12  1  0.331527  0.491225  0.159698  1
  Sb  Sb13  1  0.159698  0.331527  0.491225  1
  Sb  Sb14  1  0.828170  0.159698  0.668473  1
  Sb  Sb15  1  0.171830  0.840302  0.331527  1
  Sb  Sb16  1  0.508775  0.840302  0.668473  1
