# generated using pymatgen
data_MgNb2O6
_symmetry_space_group_name_H-M   'P 1'
_cell_length_a   5.09533384
_cell_length_b   5.82050003
_cell_length_c   14.40727821
_cell_angle_alpha   90.00000000
_cell_angle_beta   90.00000000
_cell_angle_gamma   90.00000000
_symmetry_Int_Tables_number   1
_chemical_formula_structural   MgNb2O6
_chemical_formula_sum   'Mg4 Nb8 O24'
_cell_volume   427.28227979
_cell_formula_units_Z   4
loop_
 _symmetry_equiv_pos_site_id
 _symmetry_equiv_pos_as_xyz
  1  'x, y, z'
loop_
 _atom_site_type_symbol
 _atom_site_label
 _atom_site_symmetry_multiplicity
 _atom_site_fract_x
 _atom_site_fract_y
 _atom_site_fract_z
 _atom_site_occupancy
  Mg  Mg0  1  0.750000  0.834594  0.000000  1
  Mg  Mg1  1  0.250000  0.665406  0.500000  1
  Mg  Mg2  1  0.250000  0.165406  0.000000  1
  Mg  Mg3  1  0.750000  0.334594  0.500000  1
  Nb  Nb4  1  0.753146  0.816642  0.659813  1
  Nb  Nb5  1  0.253146  0.683358  0.840187  1
  Nb  Nb6  1  0.746854  0.816642  0.340187  1
  Nb  Nb7  1  0.246854  0.683358  0.159813  1
  Nb  Nb8  1  0.753146  0.316642  0.840187  1
  Nb  Nb9  1  0.253146  0.183358  0.659813  1
  Nb  Nb10  1  0.746854  0.316642  0.159813  1
  Nb  Nb11  1  0.246854  0.183358  0.340187  1
  O  O12  1  0.418240  0.374045  0.244519  1
  O  O13  1  0.918240  0.125955  0.255481  1
  O  O14  1  0.081760  0.374045  0.755481  1
  O  O15  1  0.581760  0.125955  0.744519  1
  O  O16  1  0.581760  0.625955  0.755481  1
  O  O17  1  0.081760  0.874045  0.744519  1
  O  O18  1  0.918240  0.625955  0.244519  1
  O  O19  1  0.418240  0.874045  0.255481  1
  O  O20  1  0.090474  0.383985  0.421284  1
  O  O21  1  0.590474  0.116015  0.078716  1
  O  O22  1  0.409526  0.383985  0.578716  1
  O  O23  1  0.909526  0.116015  0.921284  1
  O  O24  1  0.571293  0.605939  0.095917  1
  O  O25  1  0.071293  0.894061  0.404083  1
  O  O26  1  0.928707  0.605939  0.904083  1
  O  O27  1  0.428707  0.894061  0.595917  1
  O  O28  1  0.428707  0.394061  0.904083  1
  O  O29  1  0.928707  0.105939  0.595917  1
  O  O30  1  0.071293  0.394061  0.095917  1
  O  O31  1  0.571293  0.105939  0.404083  1
  O  O32  1  0.090474  0.883985  0.078716  1
  O  O33  1  0.590474  0.616015  0.421284  1
  O  O34  1  0.409526  0.883985  0.921284  1
  O  O35  1  0.909526  0.616015  0.578716  1
