# generated using pymatgen
data_KAlTe2
_symmetry_space_group_name_H-M   'P 1'
_cell_length_a   8.46451841
_cell_length_b   8.46451841
_cell_length_c   16.82087400
_cell_angle_alpha   82.76304165
_cell_angle_beta   97.23695835
_cell_angle_gamma   90.04043084
_symmetry_Int_Tables_number   1
_chemical_formula_structural   KAlTe2
_chemical_formula_sum   'K8 Al8 Te16'
_cell_volume   1185.91705037
_cell_formula_units_Z   8
loop_
 _symmetry_equiv_pos_site_id
 _symmetry_equiv_pos_as_xyz
  1  'x, y, z'
loop_
 _atom_site_type_symbol
 _atom_site_label
 _atom_site_symmetry_multiplicity
 _atom_site_fract_x
 _atom_site_fract_y
 _atom_site_fract_z
 _atom_site_occupancy
  K  K0  1  0.220915  0.150975  0.391011  1
  K  K1  1  0.849025  0.779085  0.891011  1
  K  K2  1  0.779085  0.849025  0.608989  1
  K  K3  1  0.220720  0.654160  0.382315  1
  K  K4  1  0.654160  0.220720  0.117685  1
  K  K5  1  0.779280  0.345840  0.617685  1
  K  K6  1  0.150975  0.220915  0.108989  1
  K  K7  1  0.345840  0.779280  0.882315  1
  Al  Al8  1  0.912178  0.709819  0.161884  1
  Al  Al9  1  0.087822  0.290181  0.838116  1
  Al  Al10  1  0.290181  0.087822  0.661884  1
  Al  Al11  1  0.709398  0.418525  0.337396  1
  Al  Al12  1  0.418525  0.709398  0.162604  1
  Al  Al13  1  0.290602  0.581475  0.662604  1
  Al  Al14  1  0.581475  0.290602  0.837396  1
  Al  Al15  1  0.709819  0.912178  0.338116  1
  Te  Te16  1  0.359882  0.265102  0.935933  1
  Te  Te17  1  0.265102  0.359882  0.564067  1
  Te  Te18  1  0.640118  0.734898  0.064067  1
  Te  Te19  1  0.734898  0.640118  0.435933  1
  Te  Te20  1  0.571661  0.053491  0.749471  1
  Te  Te21  1  0.053491  0.571661  0.750529  1
  Te  Te22  1  0.428339  0.946509  0.250529  1
  Te  Te23  1  0.946509  0.428339  0.249471  1
  Te  Te24  1  0.265681  0.857752  0.566981  1
  Te  Te25  1  0.857752  0.265681  0.933019  1
  Te  Te26  1  0.734319  0.142248  0.433019  1
  Te  Te27  1  0.142248  0.734319  0.066981  1
  Te  Te28  1  0.053242  0.053242  0.750000  1
  Te  Te29  1  0.946758  0.946758  0.250000  1
  Te  Te30  1  0.572339  0.572339  0.750000  1
  Te  Te31  1  0.427661  0.427661  0.250000  1
