# generated using pymatgen
data_YbP5O14
_symmetry_space_group_name_H-M   'P 1'
_cell_length_a   9.26586342
_cell_length_b   9.26586342
_cell_length_c   12.85977912
_cell_angle_alpha   88.45953260
_cell_angle_beta   91.54046740
_cell_angle_gamma   90.87996320
_symmetry_Int_Tables_number   1
_chemical_formula_structural   YbP5O14
_chemical_formula_sum   'Yb4 P20 O56'
_cell_volume   1103.17583562
_cell_formula_units_Z   4
loop_
 _symmetry_equiv_pos_site_id
 _symmetry_equiv_pos_as_xyz
  1  'x, y, z'
loop_
 _atom_site_type_symbol
 _atom_site_label
 _atom_site_symmetry_multiplicity
 _atom_site_fract_x
 _atom_site_fract_y
 _atom_site_fract_z
 _atom_site_occupancy
  Yb  Yb0  1  0.463345  0.463345  0.250000  1
  Yb  Yb1  1  0.536655  0.536655  0.750000  1
  Yb  Yb2  1  0.017985  0.017985  0.250000  1
  Yb  Yb3  1  0.982015  0.982015  0.750000  1
  P  P4  1  0.975712  0.682774  0.113057  1
  P  P5  1  0.682774  0.975712  0.386943  1
  P  P6  1  0.024288  0.317226  0.886943  1
  P  P7  1  0.317226  0.024288  0.613057  1
  P  P8  1  0.062051  0.426905  0.244231  1
  P  P9  1  0.426905  0.062051  0.255769  1
  P  P10  1  0.937949  0.573095  0.755769  1
  P  P11  1  0.573095  0.937949  0.744231  1
  P  P12  1  0.674102  0.629928  0.032446  1
  P  P13  1  0.629928  0.674102  0.467554  1
  P  P14  1  0.325898  0.370072  0.967554  1
  P  P15  1  0.370072  0.325898  0.532446  1
  P  P16  1  0.813606  0.454204  0.387340  1
  P  P17  1  0.454204  0.813606  0.112660  1
  P  P18  1  0.186394  0.545796  0.612660  1
  P  P19  1  0.545796  0.186394  0.887340  1
  P  P20  1  0.879929  0.176130  0.491162  1
  P  P21  1  0.176130  0.879929  0.008838  1
  P  P22  1  0.120071  0.823870  0.508838  1
  P  P23  1  0.823870  0.120071  0.991162  1
  O  O24  1  0.106842  0.719734  0.039015  1
  O  O25  1  0.719734  0.106842  0.460985  1
  O  O26  1  0.893158  0.280266  0.960985  1
  O  O27  1  0.280266  0.893158  0.539015  1
  O  O28  1  0.961509  0.777886  0.201583  1
  O  O29  1  0.777886  0.961509  0.298417  1
  O  O30  1  0.038491  0.222114  0.798417  1
  O  O31  1  0.222114  0.038491  0.701583  1
  O  O32  1  0.787388  0.601401  0.443470  1
  O  O33  1  0.601401  0.787388  0.056530  1
  O  O34  1  0.212612  0.398599  0.556530  1
  O  O35  1  0.398599  0.212612  0.943470  1
  O  O36  1  0.645952  0.527478  0.121539  1
  O  O37  1  0.527478  0.645952  0.378461  1
  O  O38  1  0.354048  0.472522  0.878461  1
  O  O39  1  0.472522  0.354048  0.621539  1
  O  O40  1  0.984950  0.143103  0.408726  1
  O  O41  1  0.143103  0.984950  0.091274  1
  O  O42  1  0.015050  0.856897  0.591274  1
  O  O43  1  0.364883  0.409952  0.076240  1
  O  O44  1  0.856897  0.015050  0.908726  1
  O  O45  1  0.861319  0.081419  0.101497  1
  O  O46  1  0.918581  0.138681  0.601497  1
  O  O47  1  0.138681  0.918581  0.898503  1
  O  O48  1  0.597128  0.300579  0.815190  1
  O  O49  1  0.300579  0.597128  0.684810  1
  O  O50  1  0.402872  0.699421  0.184810  1
  O  O51  1  0.699421  0.402872  0.315190  1
  O  O52  1  0.653155  0.156633  0.984725  1
  O  O53  1  0.156633  0.653155  0.515275  1
  O  O54  1  0.346845  0.843367  0.015275  1
  O  O55  1  0.843367  0.346845  0.484725  1
  O  O56  1  0.727489  0.973505  0.724302  1
  O  O57  1  0.973505  0.727489  0.775698  1
  O  O58  1  0.272511  0.026495  0.275698  1
  O  O59  1  0.026495  0.272511  0.224302  1
  O  O60  1  0.513624  0.033694  0.839126  1
  O  O61  1  0.033694  0.513624  0.660874  1
  O  O62  1  0.486376  0.966306  0.160874  1
  O  O63  1  0.966306  0.486376  0.339126  1
  O  O64  1  0.318923  0.157080  0.532192  1
  O  O65  1  0.157080  0.318923  0.967808  1
  O  O66  1  0.681077  0.842920  0.467808  1
  O  O67  1  0.842920  0.681077  0.032192  1
  O  O68  1  0.482839  0.004358  0.642570  1
  O  O69  1  0.004358  0.482839  0.857430  1
  O  O70  1  0.517161  0.995642  0.357430  1
  O  O71  1  0.995642  0.517161  0.142570  1
  O  O72  1  0.523907  0.787335  0.767206  1
  O  O73  1  0.787335  0.523907  0.732794  1
  O  O74  1  0.476093  0.212665  0.232794  1
  O  O75  1  0.212665  0.476093  0.267206  1
  O  O76  1  0.590048  0.635117  0.576240  1
  O  O77  1  0.635117  0.590048  0.923760  1
  O  O78  1  0.409952  0.364883  0.423760  1
  O  O79  1  0.081419  0.861319  0.398503  1
