# generated using pymatgen
data_CdSnSb2
_symmetry_space_group_name_H-M   'P 1'
_cell_length_a   8.07568106
_cell_length_b   8.07568106
_cell_length_c   8.07568106
_cell_angle_alpha   131.41816971
_cell_angle_beta   131.41816971
_cell_angle_gamma   71.14953159
_symmetry_Int_Tables_number   1
_chemical_formula_structural   CdSnSb2
_chemical_formula_sum   'Cd2 Sn2 Sb4'
_cell_volume   289.96368172
_cell_formula_units_Z   2
loop_
 _symmetry_equiv_pos_site_id
 _symmetry_equiv_pos_as_xyz
  1  'x, y, z'
loop_
 _atom_site_type_symbol
 _atom_site_label
 _atom_site_symmetry_multiplicity
 _atom_site_fract_x
 _atom_site_fract_y
 _atom_site_fract_z
 _atom_site_occupancy
  Cd  Cd0  1  0.750000  0.250000  0.500000  1
  Cd  Cd1  1  0.000000  0.000000  0.000000  1
  Sn  Sn2  1  0.250000  0.750000  0.500000  1
  Sn  Sn3  1  0.500000  0.500000  0.000000  1
  Sb  Sb4  1  0.122926  0.125000  0.497926  1
  Sb  Sb5  1  0.875000  0.372926  0.997926  1
  Sb  Sb6  1  0.375000  0.877074  0.002074  1
  Sb  Sb7  1  0.627074  0.625000  0.502074  1
