# generated using pymatgen
data_AlPO4
_symmetry_space_group_name_H-M   'P 1'
_cell_length_a   8.85697778
_cell_length_b   8.88534701
_cell_length_c   12.90831365
_cell_angle_alpha   70.14644469
_cell_angle_beta   71.32906044
_cell_angle_gamma   74.91025253
_symmetry_Int_Tables_number   1
_chemical_formula_structural   AlPO4
_chemical_formula_sum   'Al8 P8 O32'
_cell_volume   891.98923817
_cell_formula_units_Z   8
loop_
 _symmetry_equiv_pos_site_id
 _symmetry_equiv_pos_as_xyz
  1  'x, y, z'
loop_
 _atom_site_type_symbol
 _atom_site_label
 _atom_site_symmetry_multiplicity
 _atom_site_fract_x
 _atom_site_fract_y
 _atom_site_fract_z
 _atom_site_occupancy
  Al  Al0  1  0.302125  0.582855  0.630837  1
  Al  Al1  1  0.697875  0.417145  0.369163  1
  Al  Al2  1  0.680949  0.385433  0.814534  1
  Al  Al3  1  0.319051  0.614567  0.185466  1
  Al  Al4  1  0.021809  0.737397  0.941673  1
  Al  Al5  1  0.978191  0.262603  0.058327  1
  Al  Al6  1  0.486462  0.026812  0.175863  1
  Al  Al7  1  0.513538  0.973188  0.824137  1
  P  P8  1  0.603536  0.326581  0.187342  1
  P  P9  1  0.396464  0.673419  0.812658  1
  P  P10  1  0.600787  0.291336  0.628374  1
  P  P11  1  0.399213  0.708664  0.371626  1
  P  P12  1  0.740492  0.007537  0.955966  1
  P  P13  1  0.259508  0.992463  0.044034  1
  P  P14  1  0.981376  0.513455  0.819333  1
  P  P15  1  0.018624  0.486545  0.180667  1
  O  O16  1  0.703833  0.294013  0.506888  1
  O  O17  1  0.296167  0.705987  0.493112  1
  O  O18  1  0.571958  0.117055  0.694084  1
  O  O19  1  0.428042  0.882945  0.305916  1
  O  O20  1  0.113808  0.527238  0.707302  1
  O  O21  1  0.886192  0.472762  0.292698  1
  O  O22  1  0.692698  0.351278  0.685794  1
  O  O23  1  0.307302  0.648722  0.314206  1
  O  O24  1  0.502275  0.198659  0.206226  1
  O  O25  1  0.497725  0.801341  0.793774  1
  O  O26  1  0.510582  0.498145  0.141811  1
  O  O27  1  0.489418  0.501855  0.858189  1
  O  O28  1  0.435741  0.400885  0.624271  1
  O  O29  1  0.564259  0.599115  0.375729  1
  O  O30  1  0.635114  0.310931  0.301621  1
  O  O31  1  0.364886  0.689069  0.698379  1
  O  O32  1  0.948926  0.668484  0.857018  1
  O  O33  1  0.051074  0.331516  0.142982  1
  O  O34  1  0.765812  0.298756  0.099555  1
  O  O35  1  0.234188  0.701244  0.900445  1
  O  O36  1  0.827360  0.495510  0.798035  1
  O  O37  1  0.172640  0.504490  0.201965  1
  O  O38  1  0.658417  0.934124  0.900234  1
  O  O39  1  0.341583  0.065876  0.099766  1
  O  O40  1  0.923424  0.940459  0.927529  1
  O  O41  1  0.076576  0.059541  0.072471  1
  O  O42  1  0.711897  0.194135  0.911810  1
  O  O43  1  0.288103  0.805865  0.088190  1
  O  O44  1  0.671333  0.958320  0.086688  1
  O  O45  1  0.328667  0.041680  0.913312  1
  O  O46  1  0.036399  0.365651  0.912783  1
  O  O47  1  0.963601  0.634349  0.087217  1
