# generated using pymatgen
data_CsMgBO3
_symmetry_space_group_name_H-M   'P 1'
_cell_length_a   16.91670763
_cell_length_b   4.94028128
_cell_length_c   20.50868220
_cell_angle_alpha   90.00000000
_cell_angle_beta   114.32037774
_cell_angle_gamma   90.00000000
_symmetry_Int_Tables_number   1
_chemical_formula_structural   CsMgBO3
_chemical_formula_sum   'Cs16 Mg16 B16 O48'
_cell_volume   1561.87432753
_cell_formula_units_Z   16
loop_
 _symmetry_equiv_pos_site_id
 _symmetry_equiv_pos_as_xyz
  1  'x, y, z'
loop_
 _atom_site_type_symbol
 _atom_site_label
 _atom_site_symmetry_multiplicity
 _atom_site_fract_x
 _atom_site_fract_y
 _atom_site_fract_z
 _atom_site_occupancy
  Cs  Cs0  1  0.858377  0.263330  0.728334  1
  Cs  Cs1  1  0.641623  0.763330  0.271666  1
  Cs  Cs2  1  0.141623  0.736670  0.271666  1
  Cs  Cs3  1  0.358377  0.236670  0.728334  1
  Cs  Cs4  1  0.599621  0.277290  0.557956  1
  Cs  Cs5  1  0.900379  0.777290  0.442044  1
  Cs  Cs6  1  0.400379  0.722710  0.442044  1
  Cs  Cs7  1  0.099621  0.222710  0.557956  1
  Cs  Cs8  1  0.041523  0.274578  0.942288  1
  Cs  Cs9  1  0.458477  0.774578  0.057712  1
  Cs  Cs10  1  0.958477  0.725422  0.057712  1
  Cs  Cs11  1  0.541523  0.225422  0.942288  1
  Cs  Cs12  1  0.629901  0.245299  0.771876  1
  Cs  Cs13  1  0.870099  0.745299  0.228124  1
  Cs  Cs14  1  0.370099  0.754701  0.228124  1
  Cs  Cs15  1  0.129901  0.254701  0.771876  1
  Mg  Mg16  1  0.719182  0.726999  0.941420  1
  Mg  Mg17  1  0.780818  0.226999  0.058580  1
  Mg  Mg18  1  0.280818  0.273001  0.058580  1
  Mg  Mg19  1  0.219182  0.773001  0.941420  1
  Mg  Mg20  1  0.509277  0.265656  0.344651  1
  Mg  Mg21  1  0.990723  0.765656  0.655349  1
  Mg  Mg22  1  0.490723  0.734344  0.655349  1
  Mg  Mg23  1  0.009277  0.234344  0.344651  1
  Mg  Mg24  1  0.778064  0.780783  0.558748  1
  Mg  Mg25  1  0.721936  0.280783  0.441252  1
  Mg  Mg26  1  0.221936  0.219217  0.441252  1
  Mg  Mg27  1  0.278064  0.719217  0.558748  1
  Mg  Mg28  1  0.834895  0.743044  0.844794  1
  Mg  Mg29  1  0.665105  0.243044  0.155206  1
  Mg  Mg30  1  0.165105  0.256956  0.155206  1
  Mg  Mg31  1  0.334895  0.756956  0.844794  1
  B  B32  1  0.485124  0.267240  0.176669  1
  B  B33  1  0.014876  0.767240  0.823331  1
  B  B34  1  0.514876  0.732760  0.823331  1
  B  B35  1  0.985124  0.232760  0.176669  1
  B  B36  1  0.615307  0.782598  0.419620  1
  B  B37  1  0.884693  0.282598  0.580380  1
  B  B38  1  0.384693  0.217402  0.580380  1
  B  B39  1  0.115307  0.717402  0.419620  1
  B  B40  1  0.307918  0.224695  0.323056  1
  B  B41  1  0.192082  0.724695  0.676944  1
  B  B42  1  0.692082  0.775305  0.676944  1
  B  B43  1  0.807918  0.275305  0.323056  1
  B  B44  1  0.804223  0.225444  0.919446  1
  B  B45  1  0.695777  0.725444  0.080554  1
  B  B46  1  0.195777  0.774556  0.080554  1
  B  B47  1  0.304223  0.274556  0.919446  1
  O  O48  1  0.398573  0.264222  0.127301  1
  O  O49  1  0.101427  0.764222  0.872699  1
  O  O50  1  0.601427  0.735778  0.872699  1
  O  O51  1  0.898573  0.235778  0.127301  1
  O  O52  1  0.506486  0.242893  0.249164  1
  O  O53  1  0.993514  0.742893  0.750836  1
  O  O54  1  0.493514  0.757107  0.750836  1
  O  O55  1  0.006486  0.257107  0.249164  1
  O  O56  1  0.730779  0.770640  0.628673  1
  O  O57  1  0.769221  0.270640  0.371327  1
  O  O58  1  0.269221  0.229360  0.371327  1
  O  O59  1  0.230779  0.729360  0.628673  1
  O  O60  1  0.741917  0.770721  0.749913  1
  O  O61  1  0.758083  0.270721  0.250087  1
  O  O62  1  0.258083  0.229279  0.250087  1
  O  O63  1  0.241917  0.729279  0.749913  1
  O  O64  1  0.950954  0.795056  0.849146  1
  O  O65  1  0.549046  0.295056  0.150854  1
  O  O66  1  0.049046  0.204944  0.150854  1
  O  O67  1  0.450954  0.704944  0.849146  1
  O  O68  1  0.398185  0.212171  0.350391  1
  O  O69  1  0.101815  0.712171  0.649609  1
  O  O70  1  0.601815  0.787829  0.649609  1
  O  O71  1  0.898185  0.287829  0.350391  1
  O  O72  1  0.886393  0.565964  0.583506  1
  O  O73  1  0.613607  0.065964  0.416494  1
  O  O74  1  0.113607  0.434036  0.416494  1
  O  O75  1  0.386393  0.934036  0.583506  1
  O  O76  1  0.542576  0.636969  0.381481  1
  O  O77  1  0.957424  0.136969  0.618519  1
  O  O78  1  0.457424  0.363031  0.618519  1
  O  O79  1  0.042576  0.863031  0.381481  1
  O  O80  1  0.838354  0.370688  0.880870  1
  O  O81  1  0.661646  0.870688  0.119130  1
  O  O82  1  0.161646  0.629312  0.119130  1
  O  O83  1  0.338354  0.129312  0.880870  1
  O  O84  1  0.802859  0.942084  0.916676  1
  O  O85  1  0.697141  0.442084  0.083324  1
  O  O86  1  0.197141  0.057916  0.083324  1
  O  O87  1  0.302859  0.557916  0.916676  1
  O  O88  1  0.766889  0.351295  0.961649  1
  O  O89  1  0.733111  0.851295  0.038351  1
  O  O90  1  0.233111  0.648705  0.038351  1
  O  O91  1  0.266889  0.148705  0.961649  1
  O  O92  1  0.805044  0.157049  0.538325  1
  O  O93  1  0.694956  0.657049  0.461675  1
  O  O94  1  0.194956  0.842951  0.461675  1
  O  O95  1  0.305044  0.342951  0.538325  1
