# generated using pymatgen
data_SrVSi2O7
_symmetry_space_group_name_H-M   'P 1'
_cell_length_a   7.89161461
_cell_length_b   7.89161461
_cell_length_c   7.11380100
_cell_angle_alpha   90.00000000
_cell_angle_beta   90.00000000
_cell_angle_gamma   140.11998874
_symmetry_Int_Tables_number   1
_chemical_formula_structural   SrVSi2O7
_chemical_formula_sum   'Sr2 V2 Si4 O14'
_cell_volume   284.06304514
_cell_formula_units_Z   2
loop_
 _symmetry_equiv_pos_site_id
 _symmetry_equiv_pos_as_xyz
  1  'x, y, z'
loop_
 _atom_site_type_symbol
 _atom_site_label
 _atom_site_symmetry_multiplicity
 _atom_site_fract_x
 _atom_site_fract_y
 _atom_site_fract_z
 _atom_site_occupancy
  Sr  Sr0  1  0.795837  0.204163  0.250000  1
  Sr  Sr1  1  0.204163  0.795837  0.750000  1
  V  V2  1  0.107902  0.892098  0.250000  1
  V  V3  1  0.892098  0.107902  0.750000  1
  Si  Si4  1  0.607830  0.392170  0.524014  1
  Si  Si5  1  0.392171  0.607830  0.475986  1
  Si  Si6  1  0.392171  0.607830  0.024014  1
  Si  Si7  1  0.607830  0.392170  0.975986  1
  O  O8  1  0.362707  0.637293  0.250000  1
  O  O9  1  0.637293  0.362707  0.750000  1
  O  O10  1  0.500000  0.500000  0.500000  1
  O  O11  1  0.500000  0.500000  0.000000  1
  O  O12  1  0.904607  0.598294  0.439271  1
  O  O13  1  0.598294  0.904607  0.560729  1
  O  O14  1  0.095393  0.401706  0.939271  1
  O  O15  1  0.401706  0.095393  0.060729  1
  O  O16  1  0.003034  0.996966  0.750000  1
  O  O17  1  0.996966  0.003034  0.250000  1
  O  O18  1  0.598294  0.904607  0.939271  1
  O  O19  1  0.904607  0.598294  0.060729  1
  O  O20  1  0.401706  0.095393  0.439271  1
  O  O21  1  0.095393  0.401706  0.560729  1
