# generated using pymatgen
data_Sr3La2(BO3)4
_symmetry_space_group_name_H-M   'P 1'
_cell_length_a   7.44139898
_cell_length_b   8.94730148
_cell_length_c   16.83569808
_cell_angle_alpha   90.00000000
_cell_angle_beta   90.00000000
_cell_angle_gamma   90.00000000
_symmetry_Int_Tables_number   1
_chemical_formula_structural   Sr3La2(BO3)4
_chemical_formula_sum   'Sr12 La8 B16 O48'
_cell_volume   1120.92818768
_cell_formula_units_Z   4
loop_
 _symmetry_equiv_pos_site_id
 _symmetry_equiv_pos_as_xyz
  1  'x, y, z'
loop_
 _atom_site_type_symbol
 _atom_site_label
 _atom_site_symmetry_multiplicity
 _atom_site_fract_x
 _atom_site_fract_y
 _atom_site_fract_z
 _atom_site_occupancy
  Sr  Sr0  1  0.681599  0.348497  0.924581  1
  Sr  Sr1  1  0.318401  0.651503  0.424581  1
  Sr  Sr2  1  0.818401  0.848497  0.424581  1
  Sr  Sr3  1  0.181599  0.151503  0.924581  1
  Sr  Sr4  1  0.966037  0.325495  0.719098  1
  Sr  Sr5  1  0.033963  0.674505  0.219098  1
  Sr  Sr6  1  0.533963  0.825495  0.219098  1
  Sr  Sr7  1  0.466037  0.174505  0.719098  1
  Sr  Sr8  1  0.691447  0.352524  0.172957  1
  Sr  Sr9  1  0.308553  0.647476  0.672957  1
  Sr  Sr10  1  0.808553  0.852524  0.672957  1
  Sr  Sr11  1  0.191447  0.147476  0.172957  1
  La  La12  1  0.967930  0.331153  0.380027  1
  La  La13  1  0.032070  0.668847  0.880027  1
  La  La14  1  0.532070  0.831153  0.880027  1
  La  La15  1  0.467930  0.168847  0.380027  1
  La  La16  1  0.682912  0.466612  0.552296  1
  La  La17  1  0.317088  0.533388  0.052296  1
  La  La18  1  0.817088  0.966612  0.052296  1
  La  La19  1  0.182912  0.033388  0.552296  1
  B  B20  1  0.983998  0.370890  0.047224  1
  B  B21  1  0.016002  0.629110  0.547224  1
  B  B22  1  0.516002  0.870890  0.547224  1
  B  B23  1  0.483998  0.129110  0.047224  1
  B  B24  1  0.277992  0.356387  0.549438  1
  B  B25  1  0.722008  0.643613  0.049438  1
  B  B26  1  0.222008  0.856387  0.049438  1
  B  B27  1  0.777992  0.143613  0.549438  1
  B  B28  1  0.336513  0.439847  0.258398  1
  B  B29  1  0.663487  0.560153  0.758398  1
  B  B30  1  0.163487  0.939847  0.758398  1
  B  B31  1  0.836513  0.060153  0.258398  1
  B  B32  1  0.328191  0.450668  0.842419  1
  B  B33  1  0.671809  0.549332  0.342419  1
  B  B34  1  0.171809  0.950668  0.342419  1
  B  B35  1  0.828191  0.049332  0.842419  1
  O  O36  1  0.382633  0.259341  0.044646  1
  O  O37  1  0.617367  0.740659  0.544646  1
  O  O38  1  0.117367  0.759341  0.544646  1
  O  O39  1  0.882633  0.240659  0.044646  1
  O  O40  1  0.045613  0.427416  0.119206  1
  O  O41  1  0.954387  0.572584  0.619206  1
  O  O42  1  0.454387  0.927416  0.619206  1
  O  O43  1  0.545613  0.072584  0.119206  1
  O  O44  1  0.037453  0.442347  0.976683  1
  O  O45  1  0.962547  0.557653  0.476683  1
  O  O46  1  0.462547  0.942347  0.476683  1
  O  O47  1  0.537453  0.057653  0.976683  1
  O  O48  1  0.235164  0.281962  0.618561  1
  O  O49  1  0.764836  0.718038  0.118561  1
  O  O50  1  0.264836  0.781962  0.118561  1
  O  O51  1  0.735164  0.218038  0.618561  1
  O  O52  1  0.247199  0.281542  0.477959  1
  O  O53  1  0.752801  0.718458  0.977959  1
  O  O54  1  0.252801  0.781542  0.977959  1
  O  O55  1  0.747199  0.218458  0.477959  1
  O  O56  1  0.638906  0.506212  0.049497  1
  O  O57  1  0.361094  0.493788  0.549497  1
  O  O58  1  0.861094  0.006212  0.549497  1
  O  O59  1  0.138906  0.993788  0.049497  1
  O  O60  1  0.207270  0.474544  0.315307  1
  O  O61  1  0.792730  0.525456  0.815307  1
  O  O62  1  0.292730  0.974544  0.815307  1
  O  O63  1  0.707270  0.025456  0.315307  1
  O  O64  1  0.412395  0.296774  0.258126  1
  O  O65  1  0.587605  0.703226  0.758126  1
  O  O66  1  0.087605  0.796774  0.758126  1
  O  O67  1  0.912395  0.203226  0.258126  1
  O  O68  1  0.612741  0.460323  0.700110  1
  O  O69  1  0.387259  0.539677  0.200110  1
  O  O70  1  0.887259  0.960323  0.200110  1
  O  O71  1  0.112741  0.039677  0.700110  1
  O  O72  1  0.806479  0.510922  0.288904  1
  O  O73  1  0.193521  0.489078  0.788904  1
  O  O74  1  0.693521  0.010922  0.788904  1
  O  O75  1  0.306479  0.989078  0.288904  1
  O  O76  1  0.398534  0.308403  0.845408  1
  O  O77  1  0.601466  0.691597  0.345408  1
  O  O78  1  0.101466  0.808403  0.345408  1
  O  O79  1  0.898534  0.191597  0.845408  1
  O  O80  1  0.618162  0.440127  0.397155  1
  O  O81  1  0.381838  0.559873  0.897155  1
  O  O82  1  0.881838  0.940127  0.897155  1
  O  O83  1  0.118162  0.059873  0.397155  1
