# generated using pymatgen
data_TaAgP4O13
_symmetry_space_group_name_H-M   'P 1'
_cell_length_a   7.20819699
_cell_length_b   8.41290510
_cell_length_c   18.05070935
_cell_angle_alpha   90.00000000
_cell_angle_beta   90.00000000
_cell_angle_gamma   90.00000000
_symmetry_Int_Tables_number   1
_chemical_formula_structural   TaAgP4O13
_chemical_formula_sum   'Ta4 Ag4 P16 O52'
_cell_volume   1094.62890012
_cell_formula_units_Z   4
loop_
 _symmetry_equiv_pos_site_id
 _symmetry_equiv_pos_as_xyz
  1  'x, y, z'
loop_
 _atom_site_type_symbol
 _atom_site_label
 _atom_site_symmetry_multiplicity
 _atom_site_fract_x
 _atom_site_fract_y
 _atom_site_fract_z
 _atom_site_occupancy
  Ta  Ta0  1  0.238524  0.273835  0.710910  1
  Ta  Ta1  1  0.738524  0.226165  0.289090  1
  Ta  Ta2  1  0.761476  0.773835  0.789090  1
  Ta  Ta3  1  0.261476  0.726165  0.210910  1
  Ag  Ag4  1  0.205716  0.722807  0.484903  1
  Ag  Ag5  1  0.705716  0.777193  0.515097  1
  Ag  Ag6  1  0.794284  0.222807  0.015097  1
  Ag  Ag7  1  0.294284  0.277193  0.984903  1
  P  P8  1  0.403411  0.653806  0.671612  1
  P  P9  1  0.903411  0.846194  0.328388  1
  P  P10  1  0.596589  0.153806  0.828388  1
  P  P11  1  0.096589  0.346194  0.171612  1
  P  P12  1  0.097226  0.894971  0.666466  1
  P  P13  1  0.597226  0.605029  0.333534  1
  P  P14  1  0.902774  0.394971  0.833534  1
  P  P15  1  0.402774  0.105029  0.166466  1
  P  P16  1  0.073087  0.317994  0.424766  1
  P  P17  1  0.573087  0.182006  0.575234  1
  P  P18  1  0.926913  0.817994  0.075234  1
  P  P19  1  0.426913  0.682006  0.924766  1
  P  P20  1  0.920958  0.388880  0.573130  1
  P  P21  1  0.420958  0.111120  0.426870  1
  P  P22  1  0.079042  0.888880  0.926870  1
  P  P23  1  0.579042  0.611120  0.073130  1
  O  O24  1  0.433333  0.655526  0.590377  1
  O  O25  1  0.933333  0.844474  0.409623  1
  O  O26  1  0.566667  0.155526  0.909623  1
  O  O27  1  0.066667  0.344474  0.090377  1
  O  O28  1  0.336065  0.492732  0.704585  1
  O  O29  1  0.836065  0.007268  0.295415  1
  O  O30  1  0.663935  0.992732  0.795415  1
  O  O31  1  0.163935  0.507268  0.204585  1
  O  O32  1  0.574556  0.702942  0.718901  1
  O  O33  1  0.074556  0.797058  0.281099  1
  O  O34  1  0.425444  0.202942  0.781099  1
  O  O35  1  0.925444  0.297058  0.218901  1
  O  O36  1  0.092739  0.899805  0.584825  1
  O  O37  1  0.592739  0.600195  0.415175  1
  O  O38  1  0.907261  0.399805  0.915175  1
  O  O39  1  0.407261  0.100195  0.084825  1
  O  O40  1  0.919395  0.832307  0.706103  1
  O  O41  1  0.419395  0.667693  0.293897  1
  O  O42  1  0.252210  0.778373  0.701179  1
  O  O43  1  0.080605  0.332307  0.793897  1
  O  O44  1  0.142104  0.055674  0.705603  1
  O  O45  1  0.642104  0.444326  0.294397  1
  O  O46  1  0.857896  0.555674  0.794397  1
  O  O47  1  0.357896  0.944326  0.205603  1
  O  O48  1  0.465094  0.667758  0.140028  1
  O  O49  1  0.965094  0.832242  0.859972  1
  O  O50  1  0.534906  0.167758  0.359972  1
  O  O51  1  0.034906  0.332242  0.640028  1
  O  O52  1  0.787254  0.671254  0.087124  1
  O  O53  1  0.287254  0.828746  0.912876  1
  O  O54  1  0.212746  0.171254  0.412876  1
  O  O55  1  0.712746  0.328746  0.587124  1
  O  O56  1  0.505982  0.721788  0.006448  1
  O  O57  1  0.005982  0.778212  0.993552  1
  O  O58  1  0.494018  0.221788  0.493552  1
  O  O59  1  0.994018  0.278212  0.506448  1
  O  O60  1  0.577788  0.438886  0.057686  1
  O  O61  1  0.077788  0.061114  0.942314  1
  O  O62  1  0.422212  0.938886  0.442314  1
  O  O63  1  0.922212  0.561114  0.557686  1
  O  O64  1  0.589962  0.722418  0.873484  1
  O  O65  1  0.089962  0.777582  0.126516  1
  O  O66  1  0.410038  0.222418  0.626516  1
  O  O67  1  0.910038  0.277582  0.373484  1
  O  O68  1  0.338916  0.524859  0.917180  1
  O  O69  1  0.838916  0.975141  0.082820  1
  O  O70  1  0.661084  0.024859  0.582820  1
  O  O71  1  0.161084  0.475141  0.417180  1
  O  O72  1  0.247790  0.221627  0.201179  1
  O  O73  1  0.747790  0.278373  0.798821  1
  O  O74  1  0.752210  0.721627  0.298821  1
  O  O75  1  0.580605  0.167693  0.206103  1
