# generated using pymatgen
data_YbSn2Pd
_symmetry_space_group_name_H-M   'P 1'
_cell_length_a   5.98153219
_cell_length_b   5.98153219
_cell_length_c   7.55748308
_cell_angle_alpha   90.00000000
_cell_angle_beta   90.00000000
_cell_angle_gamma   136.41125085
_symmetry_Int_Tables_number   1
_chemical_formula_structural   YbSn2Pd
_chemical_formula_sum   'Yb2 Sn4 Pd2'
_cell_volume   186.43268839
_cell_formula_units_Z   2
loop_
 _symmetry_equiv_pos_site_id
 _symmetry_equiv_pos_as_xyz
  1  'x, y, z'
loop_
 _atom_site_type_symbol
 _atom_site_label
 _atom_site_symmetry_multiplicity
 _atom_site_fract_x
 _atom_site_fract_y
 _atom_site_fract_z
 _atom_site_occupancy
  Yb  Yb0  1  0.428881  0.571119  0.250000  1
  Yb  Yb1  1  0.571119  0.428881  0.750000  1
  Sn  Sn2  1  0.859978  0.140022  0.543613  1
  Sn  Sn3  1  0.140022  0.859978  0.456387  1
  Sn  Sn4  1  0.859978  0.140022  0.956386  1
  Sn  Sn5  1  0.140022  0.859978  0.043613  1
  Pd  Pd6  1  0.297465  0.702535  0.750000  1
  Pd  Pd7  1  0.702535  0.297465  0.250000  1
