# generated using pymatgen
data_Lu3O2F5
_symmetry_space_group_name_H-M   'P 1'
_cell_length_a   5.27470427
_cell_length_b   5.53347384
_cell_length_c   17.01402264
_cell_angle_alpha   90.00000000
_cell_angle_beta   90.00000000
_cell_angle_gamma   90.00000000
_symmetry_Int_Tables_number   1
_chemical_formula_structural   Lu3O2F5
_chemical_formula_sum   'Lu12 O8 F20'
_cell_volume   496.59573250
_cell_formula_units_Z   4
loop_
 _symmetry_equiv_pos_site_id
 _symmetry_equiv_pos_as_xyz
  1  'x, y, z'
loop_
 _atom_site_type_symbol
 _atom_site_label
 _atom_site_symmetry_multiplicity
 _atom_site_fract_x
 _atom_site_fract_y
 _atom_site_fract_z
 _atom_site_occupancy
  Lu  Lu0  1  0.959895  0.670515  0.597694  1
  Lu  Lu1  1  0.459895  0.829485  0.402306  1
  Lu  Lu2  1  0.456551  0.265658  0.250000  1
  Lu  Lu3  1  0.540105  0.170515  0.597694  1
  Lu  Lu4  1  0.540105  0.170515  0.902306  1
  Lu  Lu5  1  0.956551  0.234342  0.750000  1
  Lu  Lu6  1  0.040105  0.329485  0.402306  1
  Lu  Lu7  1  0.543449  0.734342  0.750000  1
  Lu  Lu8  1  0.040105  0.329485  0.097694  1
  Lu  Lu9  1  0.959895  0.670515  0.902306  1
  Lu  Lu10  1  0.459895  0.829485  0.097694  1
  Lu  Lu11  1  0.043449  0.765658  0.250000  1
  O  O12  1  0.295410  0.540811  0.331138  1
  O  O13  1  0.795410  0.959189  0.668862  1
  O  O14  1  0.704590  0.459189  0.831138  1
  O  O15  1  0.204590  0.040811  0.331138  1
  O  O16  1  0.704590  0.459189  0.668862  1
  O  O17  1  0.204590  0.040811  0.168862  1
  O  O18  1  0.795410  0.959189  0.831138  1
  O  O19  1  0.295410  0.540811  0.168862  1
  F  F20  1  0.711196  0.878803  0.515746  1
  F  F21  1  0.820388  0.662103  0.374544  1
  F  F22  1  0.179612  0.337897  0.625456  1
  F  F23  1  0.852778  0.396372  0.250000  1
  F  F24  1  0.647222  0.896372  0.250000  1
  F  F25  1  0.211196  0.621197  0.484254  1
  F  F26  1  0.288804  0.121197  0.484254  1
  F  F27  1  0.288804  0.121197  0.015746  1
  F  F28  1  0.320388  0.837897  0.625456  1
  F  F29  1  0.788804  0.378803  0.515746  1
  F  F30  1  0.211196  0.621197  0.015746  1
  F  F31  1  0.788804  0.378803  0.984254  1
  F  F32  1  0.320388  0.837897  0.874544  1
  F  F33  1  0.147222  0.603628  0.750000  1
  F  F34  1  0.679612  0.162103  0.374544  1
  F  F35  1  0.179612  0.337897  0.874544  1
  F  F36  1  0.711196  0.878803  0.984254  1
  F  F37  1  0.820388  0.662103  0.125456  1
  F  F38  1  0.679612  0.162103  0.125456  1
  F  F39  1  0.352778  0.103628  0.750000  1
