# generated using pymatgen
data_TiSCl
_symmetry_space_group_name_H-M   'P 1'
_cell_length_a   3.43905247
_cell_length_b   4.83423945
_cell_length_c   7.57864176
_cell_angle_alpha   90.00000000
_cell_angle_beta   90.00000000
_cell_angle_gamma   90.00000000
_symmetry_Int_Tables_number   1
_chemical_formula_structural   TiSCl
_chemical_formula_sum   'Ti2 S2 Cl2'
_cell_volume   125.99645872
_cell_formula_units_Z   2
loop_
 _symmetry_equiv_pos_site_id
 _symmetry_equiv_pos_as_xyz
  1  'x, y, z'
loop_
 _atom_site_type_symbol
 _atom_site_label
 _atom_site_symmetry_multiplicity
 _atom_site_fract_x
 _atom_site_fract_y
 _atom_site_fract_z
 _atom_site_occupancy
  Ti  Ti0  1  0.500000  0.000000  0.396223  1
  Ti  Ti1  1  0.000000  0.500000  0.603777  1
  S  S2  1  0.000000  0.000000  0.625438  1
  S  S3  1  0.500000  0.500000  0.374562  1
  Cl  Cl4  1  0.000000  0.000000  0.164590  1
  Cl  Cl5  1  0.500000  0.500000  0.835410  1
