# generated using pymatgen
data_Sn5(S2Cl)2
_symmetry_space_group_name_H-M   'P 1'
_cell_length_a   7.31650657
_cell_length_b   9.22341800
_cell_length_c   10.58993754
_cell_angle_alpha   67.57336254
_cell_angle_beta   69.99204192
_cell_angle_gamma   66.74330806
_symmetry_Int_Tables_number   1
_chemical_formula_structural   Sn5(S2Cl)2
_chemical_formula_sum   'Sn10 S8 Cl4'
_cell_volume   591.28367129
_cell_formula_units_Z   2
loop_
 _symmetry_equiv_pos_site_id
 _symmetry_equiv_pos_as_xyz
  1  'x, y, z'
loop_
 _atom_site_type_symbol
 _atom_site_label
 _atom_site_symmetry_multiplicity
 _atom_site_fract_x
 _atom_site_fract_y
 _atom_site_fract_z
 _atom_site_occupancy
  Sn  Sn0  1  0.162024  0.747671  0.746056  1
  Sn  Sn1  1  0.837976  0.252329  0.253944  1
  Sn  Sn2  1  0.246037  0.133335  0.431599  1
  Sn  Sn3  1  0.306106  0.367084  0.067023  1
  Sn  Sn4  1  0.753963  0.866665  0.568401  1
  Sn  Sn5  1  0.693894  0.632916  0.932977  1
  Sn  Sn6  1  0.095492  0.711899  0.256590  1
  Sn  Sn7  1  0.904508  0.288101  0.743410  1
  Sn  Sn8  1  0.563991  0.788799  0.242162  1
  Sn  Sn9  1  0.436009  0.211201  0.757838  1
  S  S10  1  0.499202  0.491822  0.185954  1
  S  S11  1  0.776669  0.141733  0.562437  1
  S  S12  1  0.674369  0.011940  0.314533  1
  S  S13  1  0.981439  0.357006  0.939698  1
  S  S14  1  0.500798  0.508178  0.814046  1
  S  S15  1  0.223331  0.858267  0.437563  1
  S  S16  1  0.325631  0.988060  0.685467  1
  S  S17  1  0.018561  0.642994  0.060302  1
  Cl  Cl18  1  0.242853  0.946216  0.065417  1
  Cl  Cl19  1  0.757147  0.053784  0.934583  1
  Cl  Cl20  1  0.754326  0.552662  0.433961  1
  Cl  Cl21  1  0.245674  0.447338  0.566039  1
