# generated using pymatgen
data_PrNiGe3
_symmetry_space_group_name_H-M   'P 1'
_cell_length_a   11.18504271
_cell_length_b   11.18504271
_cell_length_c   4.20152300
_cell_angle_alpha   90.00000000
_cell_angle_beta   90.00000000
_cell_angle_gamma   158.48586489
_symmetry_Int_Tables_number   1
_chemical_formula_structural   PrNiGe3
_chemical_formula_sum   'Pr2 Ni2 Ge6'
_cell_volume   192.76552695
_cell_formula_units_Z   2
loop_
 _symmetry_equiv_pos_site_id
 _symmetry_equiv_pos_as_xyz
  1  'x, y, z'
loop_
 _atom_site_type_symbol
 _atom_site_label
 _atom_site_symmetry_multiplicity
 _atom_site_fract_x
 _atom_site_fract_y
 _atom_site_fract_z
 _atom_site_occupancy
  Pr  Pr0  1  0.668666  0.331334  0.500000  1
  Pr  Pr1  1  0.331334  0.668666  0.500000  1
  Ni  Ni2  1  0.891530  0.108470  1.000000  1
  Ni  Ni3  1  0.108470  0.891530  0.000000  1
  Ge  Ge4  1  0.443327  0.556673  1.000000  1
  Ge  Ge5  1  0.556673  0.443327  0.000000  1
  Ge  Ge6  1  0.056675  0.943325  0.500000  1
  Ge  Ge7  1  0.943325  0.056675  0.500000  1
  Ge  Ge8  1  0.215896  0.784104  1.000000  1
  Ge  Ge9  1  0.784104  0.215896  0.000000  1
