# generated using pymatgen
data_LuAl4Ni
_symmetry_space_group_name_H-M   'P 1'
_cell_length_a   7.83473520
_cell_length_b   7.83473520
_cell_length_c   6.68005697
_cell_angle_alpha   90.00000000
_cell_angle_beta   90.00000000
_cell_angle_gamma   150.36849391
_symmetry_Int_Tables_number   1
_chemical_formula_structural   LuAl4Ni
_chemical_formula_sum   'Lu2 Al8 Ni2'
_cell_volume   202.73314929
_cell_formula_units_Z   2
loop_
 _symmetry_equiv_pos_site_id
 _symmetry_equiv_pos_as_xyz
  1  'x, y, z'
loop_
 _atom_site_type_symbol
 _atom_site_label
 _atom_site_symmetry_multiplicity
 _atom_site_fract_x
 _atom_site_fract_y
 _atom_site_fract_z
 _atom_site_occupancy
  Lu  Lu0  1  0.879334  0.120666  0.250000  1
  Lu  Lu1  1  0.120666  0.879334  0.750000  1
  Al  Al2  1  0.500000  0.500000  0.000000  1
  Al  Al3  1  0.500000  0.500000  0.500000  1
  Al  Al4  1  0.925478  0.074522  0.750000  1
  Al  Al5  1  0.074522  0.925478  0.250000  1
  Al  Al6  1  0.312946  0.687054  0.946388  1
  Al  Al7  1  0.687054  0.312946  0.053612  1
  Al  Al8  1  0.687054  0.312946  0.446388  1
  Al  Al9  1  0.312946  0.687054  0.553612  1
  Ni  Ni10  1  0.228599  0.771401  0.250000  1
  Ni  Ni11  1  0.771401  0.228599  0.750000  1
