# generated using pymatgen
data_ScGa2Ni
_symmetry_space_group_name_H-M   'P 1'
_cell_length_a   5.20278166
_cell_length_b   5.20278166
_cell_length_c   6.47056229
_cell_angle_alpha   90.00000000
_cell_angle_beta   90.00000000
_cell_angle_gamma   134.16567234
_symmetry_Int_Tables_number   1
_chemical_formula_structural   ScGa2Ni
_chemical_formula_sum   'Sc2 Ga4 Ni2'
_cell_volume   125.64092093
_cell_formula_units_Z   2
loop_
 _symmetry_equiv_pos_site_id
 _symmetry_equiv_pos_as_xyz
  1  'x, y, z'
loop_
 _atom_site_type_symbol
 _atom_site_label
 _atom_site_symmetry_multiplicity
 _atom_site_fract_x
 _atom_site_fract_y
 _atom_site_fract_z
 _atom_site_occupancy
  Sc  Sc0  1  0.924561  0.075439  0.250000  1
  Sc  Sc1  1  0.075439  0.924561  0.750000  1
  Ga  Ga2  1  0.637142  0.362858  0.450613  1
  Ga  Ga3  1  0.362858  0.637142  0.549387  1
  Ga  Ga4  1  0.362858  0.637142  0.950613  1
  Ga  Ga5  1  0.637142  0.362858  0.049387  1
  Ni  Ni6  1  0.205812  0.794188  0.250000  1
  Ni  Ni7  1  0.794188  0.205812  0.750000  1
