# generated using pymatgen
data_Ba(Cu2As)4
_symmetry_space_group_name_H-M   'P 1'
_cell_length_a   7.69707112
_cell_length_b   7.69707112
_cell_length_c   7.69707112
_cell_angle_alpha   93.78871903
_cell_angle_beta   93.78871903
_cell_angle_gamma   150.20918555
_symmetry_Int_Tables_number   1
_chemical_formula_structural   Ba(Cu2As)4
_chemical_formula_sum   'Ba1 Cu8 As4'
_cell_volume   218.94950660
_cell_formula_units_Z   1
loop_
 _symmetry_equiv_pos_site_id
 _symmetry_equiv_pos_as_xyz
  1  'x, y, z'
loop_
 _atom_site_type_symbol
 _atom_site_label
 _atom_site_symmetry_multiplicity
 _atom_site_fract_x
 _atom_site_fract_y
 _atom_site_fract_z
 _atom_site_occupancy
  Ba  Ba0  1  0.000000  0.000000  0.000000  1
  Cu  Cu1  1  0.982111  0.625954  0.608065  1
  Cu  Cu2  1  0.328229  0.214436  0.542665  1
  Cu  Cu3  1  0.785564  0.328229  0.113793  1
  Cu  Cu4  1  0.214436  0.671771  0.886207  1
  Cu  Cu5  1  0.671771  0.785564  0.457335  1
  Cu  Cu6  1  0.017889  0.374046  0.391935  1
  Cu  Cu7  1  0.625954  0.017889  0.643843  1
  Cu  Cu8  1  0.374046  0.982111  0.356157  1
  As  As9  1  0.243259  0.429011  0.672271  1
  As  As10  1  0.570989  0.243259  0.814248  1
  As  As11  1  0.429011  0.756741  0.185752  1
  As  As12  1  0.756741  0.570989  0.327729  1
