# generated using pymatgen
data_TiMnO3
_symmetry_space_group_name_H-M   'P 1'
_cell_length_a   5.57625613
_cell_length_b   5.57625613
_cell_length_c   5.57625613
_cell_angle_alpha   56.13209786
_cell_angle_beta   56.13209786
_cell_angle_gamma   56.13209786
_symmetry_Int_Tables_number   1
_chemical_formula_structural   TiMnO3
_chemical_formula_sum   'Ti2 Mn2 O6'
_cell_volume   111.62648792
_cell_formula_units_Z   2
loop_
 _symmetry_equiv_pos_site_id
 _symmetry_equiv_pos_as_xyz
  1  'x, y, z'
loop_
 _atom_site_type_symbol
 _atom_site_label
 _atom_site_symmetry_multiplicity
 _atom_site_fract_x
 _atom_site_fract_y
 _atom_site_fract_z
 _atom_site_occupancy
  Ti  Ti0  1  0.502705  0.502705  0.502705  1
  Ti  Ti1  1  0.002705  0.002705  0.002705  1
  Mn  Mn2  1  0.780594  0.780594  0.780594  1
  Mn  Mn3  1  0.280594  0.280594  0.280594  1
  O  O4  1  0.619759  0.846624  0.224219  1
  O  O5  1  0.224219  0.619759  0.846624  1
  O  O6  1  0.846624  0.224219  0.619759  1
  O  O7  1  0.724219  0.346624  0.119759  1
  O  O8  1  0.119759  0.724219  0.346624  1
  O  O9  1  0.346624  0.119759  0.724219  1
