# generated using pymatgen
data_Li2S2O7
_symmetry_space_group_name_H-M   'P 1'
_cell_length_a   4.93159157
_cell_length_b   8.36992265
_cell_length_c   13.35716614
_cell_angle_alpha   90.00000000
_cell_angle_beta   90.00000000
_cell_angle_gamma   90.00000000
_symmetry_Int_Tables_number   1
_chemical_formula_structural   Li2S2O7
_chemical_formula_sum   'Li8 S8 O28'
_cell_volume   551.34428081
_cell_formula_units_Z   4
loop_
 _symmetry_equiv_pos_site_id
 _symmetry_equiv_pos_as_xyz
  1  'x, y, z'
loop_
 _atom_site_type_symbol
 _atom_site_label
 _atom_site_symmetry_multiplicity
 _atom_site_fract_x
 _atom_site_fract_y
 _atom_site_fract_z
 _atom_site_occupancy
  Li  Li0  1  0.399025  0.431455  0.396152  1
  Li  Li1  1  0.100975  0.068545  0.896152  1
  Li  Li2  1  0.600975  0.931455  0.603848  1
  Li  Li3  1  0.899025  0.568545  0.103848  1
  Li  Li4  1  0.600975  0.568545  0.603848  1
  Li  Li5  1  0.899025  0.931455  0.103848  1
  Li  Li6  1  0.399025  0.068545  0.396152  1
  Li  Li7  1  0.100975  0.431455  0.896152  1
  S  S8  1  0.222016  0.750000  0.283774  1
  S  S9  1  0.277984  0.750000  0.783774  1
  S  S10  1  0.777984  0.250000  0.716226  1
  S  S11  1  0.722016  0.250000  0.216226  1
  S  S12  1  0.114540  0.750000  0.496049  1
  S  S13  1  0.385460  0.750000  0.996049  1
  S  S14  1  0.885460  0.250000  0.503951  1
  S  S15  1  0.614540  0.250000  0.003951  1
  O  O16  1  0.375549  0.603354  0.293876  1
  O  O17  1  0.124451  0.896646  0.793876  1
  O  O18  1  0.624451  0.103354  0.706124  1
  O  O19  1  0.875549  0.396646  0.206124  1
  O  O20  1  0.624451  0.396646  0.706124  1
  O  O21  1  0.875549  0.103354  0.206124  1
  O  O22  1  0.375549  0.896646  0.293876  1
  O  O23  1  0.124451  0.603354  0.793876  1
  O  O24  1  0.029725  0.750000  0.200787  1
  O  O25  1  0.470275  0.750000  0.700787  1
  O  O26  1  0.970275  0.250000  0.799213  1
  O  O27  1  0.529725  0.250000  0.299213  1
  O  O28  1  0.000437  0.750000  0.381859  1
  O  O29  1  0.499563  0.750000  0.881859  1
  O  O30  1  0.999563  0.250000  0.618141  1
  O  O31  1  0.500437  0.250000  0.118141  1
  O  O32  1  0.274205  0.603726  0.507758  1
  O  O33  1  0.225795  0.896274  0.007758  1
  O  O34  1  0.725795  0.103726  0.492242  1
  O  O35  1  0.774205  0.396274  0.992242  1
  O  O36  1  0.725795  0.396274  0.492242  1
  O  O37  1  0.774205  0.103726  0.992242  1
  O  O38  1  0.274205  0.896274  0.507758  1
  O  O39  1  0.225795  0.603726  0.007758  1
  O  O40  1  0.863614  0.750000  0.554160  1
  O  O41  1  0.636386  0.750000  0.054160  1
  O  O42  1  0.136386  0.250000  0.445840  1
  O  O43  1  0.363614  0.250000  0.945840  1
