# generated using pymatgen
data_Gd(BO2)3
_symmetry_space_group_name_H-M   'P 1'
_cell_length_a   6.38318047
_cell_length_b   6.38318047
_cell_length_c   6.31488538
_cell_angle_alpha   62.52406633
_cell_angle_beta   117.47593367
_cell_angle_gamma   100.66442435
_symmetry_Int_Tables_number   1
_chemical_formula_structural   Gd(BO2)3
_chemical_formula_sum   'Gd2 B6 O12'
_cell_volume   202.40262432
_cell_formula_units_Z   2
loop_
 _symmetry_equiv_pos_site_id
 _symmetry_equiv_pos_as_xyz
  1  'x, y, z'
loop_
 _atom_site_type_symbol
 _atom_site_label
 _atom_site_symmetry_multiplicity
 _atom_site_fract_x
 _atom_site_fract_y
 _atom_site_fract_z
 _atom_site_occupancy
  Gd  Gd0  1  0.291256  0.291256  0.250000  1
  Gd  Gd1  1  0.708744  0.708744  0.750000  1
  B  B2  1  0.293570  0.836658  0.090865  1
  B  B3  1  0.836658  0.293570  0.409135  1
  B  B4  1  0.724085  0.724085  0.250000  1
  B  B5  1  0.275915  0.275915  0.750000  1
  B  B6  1  0.706430  0.163342  0.909135  1
  B  B7  1  0.163342  0.706430  0.590865  1
  O  O8  1  0.512427  0.718989  0.293671  1
  O  O9  1  0.716931  0.918588  0.004573  1
  O  O10  1  0.918588  0.716931  0.495427  1
  O  O11  1  0.283069  0.081412  0.995427  1
  O  O12  1  0.297619  0.884845  0.511054  1
  O  O13  1  0.884845  0.297619  0.988946  1
  O  O14  1  0.702381  0.115155  0.488946  1
  O  O15  1  0.115155  0.702381  0.011054  1
  O  O16  1  0.487573  0.281011  0.706329  1
  O  O17  1  0.281011  0.487573  0.793671  1
  O  O18  1  0.081412  0.283069  0.504573  1
  O  O19  1  0.718989  0.512427  0.206329  1
