# generated using pymatgen
data_K3TaS4
_symmetry_space_group_name_H-M   'P 1'
_cell_length_a   9.37747818
_cell_length_b   9.61136354
_cell_length_c   10.91136967
_cell_angle_alpha   90.00000000
_cell_angle_beta   90.00000000
_cell_angle_gamma   90.00000000
_symmetry_Int_Tables_number   1
_chemical_formula_structural   K3TaS4
_chemical_formula_sum   'K12 Ta4 S16'
_cell_volume   983.44558781
_cell_formula_units_Z   4
loop_
 _symmetry_equiv_pos_site_id
 _symmetry_equiv_pos_as_xyz
  1  'x, y, z'
loop_
 _atom_site_type_symbol
 _atom_site_label
 _atom_site_symmetry_multiplicity
 _atom_site_fract_x
 _atom_site_fract_y
 _atom_site_fract_z
 _atom_site_occupancy
  K  K0  1  0.560989  0.287017  0.045258  1
  K  K1  1  0.132727  0.425653  0.750000  1
  K  K2  1  0.867273  0.574347  0.250000  1
  K  K3  1  0.367273  0.925653  0.250000  1
  K  K4  1  0.439011  0.712983  0.954742  1
  K  K5  1  0.939011  0.787017  0.545258  1
  K  K6  1  0.060989  0.212983  0.045258  1
  K  K7  1  0.560989  0.287017  0.454742  1
  K  K8  1  0.439011  0.712983  0.545258  1
  K  K9  1  0.060989  0.212983  0.454742  1
  K  K10  1  0.939011  0.787017  0.954742  1
  K  K11  1  0.632727  0.074347  0.750000  1
  Ta  Ta12  1  0.713019  0.511935  0.750000  1
  Ta  Ta13  1  0.213019  0.988065  0.750000  1
  Ta  Ta14  1  0.786981  0.011935  0.250000  1
  Ta  Ta15  1  0.286981  0.488065  0.250000  1
  S  S16  1  0.166091  0.551201  0.077043  1
  S  S17  1  0.666091  0.948799  0.422957  1
  S  S18  1  0.333909  0.051201  0.922957  1
  S  S19  1  0.833909  0.448799  0.577043  1
  S  S20  1  0.833909  0.448799  0.922957  1
  S  S21  1  0.333909  0.051201  0.577043  1
  S  S22  1  0.666091  0.948799  0.077043  1
  S  S23  1  0.166091  0.551201  0.422957  1
  S  S24  1  0.687835  0.748979  0.750000  1
  S  S25  1  0.187835  0.751021  0.750000  1
  S  S26  1  0.812165  0.248979  0.250000  1
  S  S27  1  0.312165  0.251021  0.250000  1
  S  S28  1  0.491843  0.411236  0.750000  1
  S  S29  1  0.508157  0.588764  0.250000  1
  S  S30  1  0.008157  0.911236  0.250000  1
  S  S31  1  0.991843  0.088764  0.750000  1
