# generated using pymatgen
data_LiV3P3O13
_symmetry_space_group_name_H-M   'P 1'
_cell_length_a   7.42085446
_cell_length_b   6.35188929
_cell_length_c   10.72925515
_cell_angle_alpha   90.00000000
_cell_angle_beta   99.31843037
_cell_angle_gamma   90.00000000
_symmetry_Int_Tables_number   1
_chemical_formula_structural   LiV3P3O13
_chemical_formula_sum   'Li2 V6 P6 O26'
_cell_volume   499.06506396
_cell_formula_units_Z   2
loop_
 _symmetry_equiv_pos_site_id
 _symmetry_equiv_pos_as_xyz
  1  'x, y, z'
loop_
 _atom_site_type_symbol
 _atom_site_label
 _atom_site_symmetry_multiplicity
 _atom_site_fract_x
 _atom_site_fract_y
 _atom_site_fract_z
 _atom_site_occupancy
  Li  Li0  1  0.390320  0.750000  0.867441  1
  Li  Li1  1  0.609680  0.250000  0.132559  1
  V  V2  1  0.641440  0.250000  0.801037  1
  V  V3  1  0.358560  0.750000  0.198963  1
  V  V4  1  0.227853  0.250000  0.552379  1
  V  V5  1  0.000000  0.500000  0.000000  1
  V  V6  1  0.772147  0.750000  0.447621  1
  V  V7  1  0.000000  0.000000  0.000000  1
  P  P8  1  0.778508  0.250000  0.522922  1
  P  P9  1  0.221492  0.750000  0.477078  1
  P  P10  1  0.262677  0.250000  0.229010  1
  P  P11  1  0.737323  0.750000  0.770990  1
  P  P12  1  0.693977  0.750000  0.123182  1
  P  P13  1  0.306023  0.250000  0.876818  1
  O  O14  1  0.650617  0.750000  0.259952  1
  O  O15  1  0.273269  0.553589  0.558693  1
  O  O16  1  0.202730  0.250000  0.357012  1
  O  O17  1  0.794757  0.545761  0.097326  1
  O  O18  1  0.342720  0.750000  0.370451  1
  O  O19  1  0.138939  0.750000  0.095746  1
  O  O20  1  0.657280  0.250000  0.629549  1
  O  O21  1  0.205243  0.045761  0.902674  1
  O  O22  1  0.980568  0.250000  0.586691  1
  O  O23  1  0.019432  0.750000  0.413309  1
  O  O24  1  0.382329  0.059892  0.202149  1
  O  O25  1  0.861061  0.250000  0.904254  1
  O  O26  1  0.617671  0.559892  0.797851  1
  O  O27  1  0.495433  0.750000  0.048304  1
  O  O28  1  0.797270  0.750000  0.642988  1
  O  O29  1  0.205243  0.454239  0.902674  1
  O  O30  1  0.273269  0.946411  0.558693  1
  O  O31  1  0.726731  0.446411  0.441307  1
  O  O32  1  0.382329  0.440108  0.202149  1
  O  O33  1  0.349383  0.250000  0.740048  1
  O  O34  1  0.910921  0.750000  0.879550  1
  O  O35  1  0.089079  0.250000  0.120450  1
  O  O36  1  0.617671  0.940108  0.797851  1
  O  O37  1  0.794757  0.954239  0.097326  1
  O  O38  1  0.726731  0.053589  0.441307  1
  O  O39  1  0.504567  0.250000  0.951696  1
