# generated using pymatgen
data_Ac2O3
_symmetry_space_group_name_H-M   'P 1'
_cell_length_a   4.10056548
_cell_length_b   4.10056548
_cell_length_c   6.37845029
_cell_angle_alpha   90.00000000
_cell_angle_beta   90.00000000
_cell_angle_gamma   120.00000000
_symmetry_Int_Tables_number   1
_chemical_formula_structural   Ac2O3
_chemical_formula_sum   'Ac2 O3'
_cell_volume   92.88237462
_cell_formula_units_Z   1
loop_
 _symmetry_equiv_pos_site_id
 _symmetry_equiv_pos_as_xyz
  1  'x, y, z'
loop_
 _atom_site_type_symbol
 _atom_site_label
 _atom_site_symmetry_multiplicity
 _atom_site_fract_x
 _atom_site_fract_y
 _atom_site_fract_z
 _atom_site_occupancy
  Ac  Ac0  1  0.666667  0.333333  0.753360  1
  Ac  Ac1  1  0.333333  0.666667  0.246640  1
  O  O2  1  0.666667  0.333333  0.356273  1
  O  O3  1  0.333333  0.666667  0.643727  1
  O  O4  1  0.000000  0.000000  0.000000  1
