# generated using pymatgen
data_Cs4KLiGa2F12
_symmetry_space_group_name_H-M   'P 1'
_cell_length_a   11.05654176
_cell_length_b   11.05654176
_cell_length_c   11.05654176
_cell_angle_alpha   33.83235338
_cell_angle_beta   33.83235338
_cell_angle_gamma   33.83235338
_symmetry_Int_Tables_number   1
_chemical_formula_structural   Cs4KLiGa2F12
_chemical_formula_sum   'Cs4 K1 Li1 Ga2 F12'
_cell_volume   373.37179925
_cell_formula_units_Z   1
loop_
 _symmetry_equiv_pos_site_id
 _symmetry_equiv_pos_as_xyz
  1  'x, y, z'
loop_
 _atom_site_type_symbol
 _atom_site_label
 _atom_site_symmetry_multiplicity
 _atom_site_fract_x
 _atom_site_fract_y
 _atom_site_fract_z
 _atom_site_occupancy
  Cs  Cs0  1  0.714442  0.714442  0.714442  1
  Cs  Cs1  1  0.285558  0.285558  0.285558  1
  Cs  Cs2  1  0.132999  0.132999  0.132999  1
  Cs  Cs3  1  0.867001  0.867001  0.867001  1
  K  K4  1  0.000000  1.000000  0.000000  1
  Li  Li5  1  0.500000  0.500000  0.500000  1
  Ga  Ga6  1  0.584364  0.584364  0.584364  1
  Ga  Ga7  1  0.415636  0.415636  0.415636  1
  F  F8  1  0.667557  0.238876  0.238876  1
  F  F9  1  0.761124  0.761124  0.332443  1
  F  F10  1  0.238876  0.238876  0.667557  1
  F  F11  1  0.238876  0.667557  0.238876  1
  F  F12  1  0.761124  0.332443  0.761124  1
  F  F13  1  0.332443  0.761124  0.761124  1
  F  F14  1  0.591914  0.181941  0.591914  1
  F  F15  1  0.818059  0.408086  0.408086  1
  F  F16  1  0.408086  0.818059  0.408086  1
  F  F17  1  0.408086  0.408086  0.818059  1
  F  F18  1  0.591914  0.591914  0.181941  1
  F  F19  1  0.181941  0.591914  0.591914  1
