# generated using pymatgen
data_Ba5P4
_symmetry_space_group_name_H-M   'P 1'
_cell_length_a   8.43656922
_cell_length_b   8.52545881
_cell_length_c   16.73818253
_cell_angle_alpha   90.00000000
_cell_angle_beta   90.00000000
_cell_angle_gamma   90.00000000
_symmetry_Int_Tables_number   1
_chemical_formula_structural   Ba5P4
_chemical_formula_sum   'Ba20 P16'
_cell_volume   1203.90421277
_cell_formula_units_Z   4
loop_
 _symmetry_equiv_pos_site_id
 _symmetry_equiv_pos_as_xyz
  1  'x, y, z'
loop_
 _atom_site_type_symbol
 _atom_site_label
 _atom_site_symmetry_multiplicity
 _atom_site_fract_x
 _atom_site_fract_y
 _atom_site_fract_z
 _atom_site_occupancy
  Ba  Ba0  1  0.745871  0.995004  0.250000  1
  Ba  Ba1  1  0.245871  0.504996  0.250000  1
  Ba  Ba2  1  0.754129  0.495004  0.750000  1
  Ba  Ba3  1  0.254129  0.004996  0.750000  1
  Ba  Ba4  1  0.573955  0.334285  0.102634  1
  Ba  Ba5  1  0.073955  0.165715  0.397366  1
  Ba  Ba6  1  0.926045  0.834285  0.897366  1
  Ba  Ba7  1  0.426045  0.665715  0.602634  1
  Ba  Ba8  1  0.426045  0.665715  0.897366  1
  Ba  Ba9  1  0.926045  0.834285  0.602634  1
  Ba  Ba10  1  0.073955  0.165715  0.102634  1
  Ba  Ba11  1  0.573955  0.334285  0.397366  1
  Ba  Ba12  1  0.408346  0.842608  0.397344  1
  Ba  Ba13  1  0.908346  0.657392  0.102656  1
  Ba  Ba14  1  0.091654  0.342608  0.602656  1
  Ba  Ba15  1  0.591654  0.157392  0.897344  1
  Ba  Ba16  1  0.591654  0.157392  0.602656  1
  Ba  Ba17  1  0.091654  0.342608  0.897344  1
  Ba  Ba18  1  0.908346  0.657392  0.397344  1
  Ba  Ba19  1  0.408346  0.842608  0.102656  1
  P  P20  1  0.352510  0.411605  0.750000  1
  P  P21  1  0.852510  0.088395  0.750000  1
  P  P22  1  0.147490  0.911605  0.250000  1
  P  P23  1  0.647490  0.588395  0.250000  1
  P  P24  1  0.158136  0.601124  0.750000  1
  P  P25  1  0.658136  0.898876  0.750000  1
  P  P26  1  0.341864  0.101124  0.250000  1
  P  P27  1  0.841864  0.398876  0.250000  1
  P  P28  1  0.746531  0.993410  0.053442  1
  P  P29  1  0.246531  0.506590  0.446558  1
  P  P30  1  0.753469  0.493410  0.946558  1
  P  P31  1  0.253469  0.006590  0.553442  1
  P  P32  1  0.253469  0.006590  0.946558  1
  P  P33  1  0.753469  0.493410  0.553442  1
  P  P34  1  0.246531  0.506590  0.053442  1
  P  P35  1  0.746531  0.993410  0.446558  1
