# generated using pymatgen
data_IrO2
_symmetry_space_group_name_H-M   'P 1'
_cell_length_a   5.62305447
_cell_length_b   5.62305447
_cell_length_c   5.62305447
_cell_angle_alpha   139.14380943
_cell_angle_beta   139.14380943
_cell_angle_gamma   59.15563943
_symmetry_Int_Tables_number   1
_chemical_formula_structural   IrO2
_chemical_formula_sum   'Ir2 O4'
_cell_volume   75.34750810
_cell_formula_units_Z   2
loop_
 _symmetry_equiv_pos_site_id
 _symmetry_equiv_pos_as_xyz
  1  'x, y, z'
loop_
 _atom_site_type_symbol
 _atom_site_label
 _atom_site_symmetry_multiplicity
 _atom_site_fract_x
 _atom_site_fract_y
 _atom_site_fract_z
 _atom_site_occupancy
  Ir  Ir0  1  0.500000  0.500000  0.000000  1
  Ir  Ir1  1  0.250000  0.750000  0.500000  1
  O  O2  1  0.459604  0.959604  0.500000  1
  O  O3  1  0.709604  0.709604  0.000000  1
  O  O4  1  0.040396  0.540396  0.500000  1
  O  O5  1  0.290396  0.290396  0.000000  1
