# generated using pymatgen
data_Li3CuO3
_symmetry_space_group_name_H-M   'P 1'
_cell_length_a   8.79586064
_cell_length_b   8.79586064
_cell_length_c   3.62957033
_cell_angle_alpha   90.00000000
_cell_angle_beta   90.00000000
_cell_angle_gamma   90.00000000
_symmetry_Int_Tables_number   1
_chemical_formula_structural   Li3CuO3
_chemical_formula_sum   'Li12 Cu4 O12'
_cell_volume   280.80956442
_cell_formula_units_Z   4
loop_
 _symmetry_equiv_pos_site_id
 _symmetry_equiv_pos_as_xyz
  1  'x, y, z'
loop_
 _atom_site_type_symbol
 _atom_site_label
 _atom_site_symmetry_multiplicity
 _atom_site_fract_x
 _atom_site_fract_y
 _atom_site_fract_z
 _atom_site_occupancy
  Li  Li0  1  0.834669  0.165331  0.500000  1
  Li  Li1  1  0.334669  0.334669  0.000000  1
  Li  Li2  1  0.165331  0.834669  0.500000  1
  Li  Li3  1  0.665331  0.665331  0.000000  1
  Li  Li4  1  0.641493  0.103006  0.000000  1
  Li  Li5  1  0.603006  0.858507  0.500000  1
  Li  Li6  1  0.396994  0.141493  0.500000  1
  Li  Li7  1  0.358507  0.896994  0.000000  1
  Li  Li8  1  0.858507  0.603006  0.500000  1
  Li  Li9  1  0.141493  0.396994  0.500000  1
  Li  Li10  1  0.103006  0.641493  0.000000  1
  Li  Li11  1  0.896994  0.358507  0.000000  1
  Cu  Cu12  1  0.113624  0.113624  0.000000  1
  Cu  Cu13  1  0.613624  0.386376  0.500000  1
  Cu  Cu14  1  0.386376  0.613624  0.500000  1
  Cu  Cu15  1  0.886376  0.886376  0.000000  1
  O  O16  1  0.101047  0.898953  0.000000  1
  O  O17  1  0.398953  0.398953  0.500000  1
  O  O18  1  0.898953  0.101047  0.000000  1
  O  O19  1  0.601047  0.601047  0.500000  1
  O  O20  1  0.887083  0.677069  0.000000  1
  O  O21  1  0.177069  0.612917  0.500000  1
  O  O22  1  0.822931  0.387083  0.500000  1
  O  O23  1  0.112917  0.322931  0.000000  1
  O  O24  1  0.612917  0.177069  0.500000  1
  O  O25  1  0.387083  0.822931  0.500000  1
  O  O26  1  0.677069  0.887083  0.000000  1
  O  O27  1  0.322931  0.112917  0.000000  1
