# generated using pymatgen
data_Li2B3PO8
_symmetry_space_group_name_H-M   'P 1'
_cell_length_a   8.78569660
_cell_length_b   10.84229195
_cell_length_c   13.07686818
_cell_angle_alpha   90.71543705
_cell_angle_beta   90.58862537
_cell_angle_gamma   90.07424040
_symmetry_Int_Tables_number   1
_chemical_formula_structural   Li2B3PO8
_chemical_formula_sum   'Li16 B24 P8 O64'
_cell_volume   1245.50027290
_cell_formula_units_Z   8
loop_
 _symmetry_equiv_pos_site_id
 _symmetry_equiv_pos_as_xyz
  1  'x, y, z'
loop_
 _atom_site_type_symbol
 _atom_site_label
 _atom_site_symmetry_multiplicity
 _atom_site_fract_x
 _atom_site_fract_y
 _atom_site_fract_z
 _atom_site_occupancy
  Li  Li0  1  0.879986  0.654755  0.285625  1
  Li  Li1  1  0.120014  0.345245  0.714375  1
  Li  Li2  1  0.864925  0.227657  0.736476  1
  Li  Li3  1  0.135075  0.772343  0.263524  1
  Li  Li4  1  0.782155  0.722322  0.961172  1
  Li  Li5  1  0.217845  0.277678  0.038828  1
  Li  Li6  1  0.744708  0.456105  0.670977  1
  Li  Li7  1  0.255292  0.543895  0.329023  1
  Li  Li8  1  0.740164  0.940375  0.172678  1
  Li  Li9  1  0.259836  0.059625  0.827322  1
  Li  Li10  1  0.636654  0.457947  0.990503  1
  Li  Li11  1  0.363346  0.542053  0.009497  1
  Li  Li12  1  0.564377  0.958233  0.585545  1
  Li  Li13  1  0.435623  0.041767  0.414455  1
  Li  Li14  1  0.237201  0.830227  0.603882  1
  Li  Li15  1  0.762799  0.169773  0.396118  1
  B  B16  1  0.951602  0.673230  0.606300  1
  B  B17  1  0.048398  0.326770  0.393700  1
  B  B18  1  0.881006  0.889662  0.574032  1
  B  B19  1  0.118994  0.110338  0.425968  1
  B  B20  1  0.809665  0.988486  0.854977  1
  B  B21  1  0.190335  0.011514  0.145023  1
  B  B22  1  0.799529  0.445249  0.386469  1
  B  B23  1  0.200471  0.554751  0.613531  1
  B  B24  1  0.698679  0.739504  0.647939  1
  B  B25  1  0.301321  0.260496  0.352061  1
  B  B26  1  0.606415  0.605011  0.352487  1
  B  B27  1  0.393585  0.394989  0.647513  1
  B  B28  1  0.553511  0.913849  0.878755  1
  B  B29  1  0.446489  0.086151  0.121245  1
  B  B30  1  0.456071  0.617914  0.660205  1
  B  B31  1  0.543929  0.382086  0.339795  1
  B  B32  1  0.409390  0.884960  0.207493  1
  B  B33  1  0.590610  0.115040  0.792507  1
  B  B34  1  0.310022  0.803659  0.923014  1
  B  B35  1  0.689978  0.196341  0.076986  1
  B  B36  1  0.092548  0.659344  0.943078  1
  B  B37  1  0.907452  0.340656  0.056922  1
  B  B38  1  0.053042  0.879776  0.899124  1
  B  B39  1  0.946958  0.120224  0.100876  1
  P  P40  1  0.921997  0.470737  0.872574  1
  P  P41  1  0.078003  0.529263  0.127426  1
  P  P42  1  0.901568  0.934223  0.363346  1
  P  P43  1  0.098432  0.065777  0.636654  1
  P  P44  1  0.408643  0.792094  0.406864  1
  P  P45  1  0.591357  0.207906  0.593136  1
  P  P46  1  0.408178  0.307811  0.856566  1
  P  P47  1  0.591822  0.692189  0.143434  1
  O  O48  1  0.996527  0.790124  0.586444  1
  O  O49  1  0.003473  0.209876  0.413556  1
  O  O50  1  0.996481  0.764950  0.910583  1
  O  O51  1  0.003519  0.235050  0.089417  1
  O  O52  1  0.964188  0.979709  0.873950  1
  O  O53  1  0.035812  0.020291  0.126050  1
  O  O54  1  0.957403  0.365909  0.952048  1
  O  O55  1  0.042597  0.634091  0.047952  1
  O  O56  1  0.951495  0.424891  0.399666  1
  O  O57  1  0.048505  0.575109  0.600334  1
  O  O58  1  0.937556  0.007375  0.611604  1
  O  O59  1  0.062444  0.992625  0.388396  1
  O  O60  1  0.932397  0.819907  0.298895  1
  O  O61  1  0.067603  0.180093  0.701105  1
  O  O62  1  0.930967  0.444596  0.128707  1
  O  O63  1  0.069033  0.555404  0.871293  1
  O  O64  1  0.915040  0.406773  0.767450  1
  O  O65  1  0.084960  0.593227  0.232550  1
  O  O66  1  0.827028  0.897788  0.467800  1
  O  O67  1  0.172972  0.102212  0.532200  1
  O  O68  1  0.802251  0.643280  0.635087  1
  O  O69  1  0.197749  0.356720  0.364913  1
  O  O70  1  0.782022  0.544675  0.902539  1
  O  O71  1  0.217978  0.455325  0.097461  1
  O  O72  1  0.754838  0.092098  0.810185  1
  O  O73  1  0.245162  0.907902  0.189815  1
  O  O74  1  0.751431  0.563283  0.398087  1
  O  O75  1  0.248569  0.436717  0.601913  1
  O  O76  1  0.740275  0.858679  0.632870  1
  O  O77  1  0.259725  0.141321  0.367130  1
  O  O78  1  0.733531  0.281587  0.619919  1
  O  O79  1  0.266469  0.718413  0.380081  1
  O  O80  1  0.711839  0.777127  0.099602  1
  O  O81  1  0.288161  0.222873  0.900398  1
  O  O82  1  0.710978  0.894417  0.885212  1
  O  O83  1  0.289022  0.105583  0.114788  1
  O  O84  1  0.656009  0.652151  0.252214  1
  O  O85  1  0.343991  0.347849  0.747786  1
  O  O86  1  0.562786  0.237695  0.834975  1
  O  O87  1  0.437214  0.762305  0.165025  1
  O  O88  1  0.550809  0.717381  0.676544  1
  O  O89  1  0.449191  0.282619  0.323456  1
  O  O90  1  0.547565  0.702078  0.419660  1
  O  O91  1  0.452435  0.297922  0.580340  1
  O  O92  1  0.505023  0.498737  0.659531  1
  O  O93  1  0.494977  0.501263  0.340469  1
  O  O94  1  0.504962  0.981123  0.161521  1
  O  O95  1  0.495038  0.018877  0.838479  1
  O  O96  1  0.464690  0.820446  0.915526  1
  O  O97  1  0.535310  0.179554  0.084474  1
  O  O98  1  0.445964  0.889769  0.319933  1
  O  O99  1  0.554036  0.110231  0.680067  1
  O  O100  1  0.448048  0.419664  0.921076  1
  O  O101  1  0.551952  0.580337  0.078924  1
  O  O102  1  0.402558  0.873710  0.503350  1
  O  O103  1  0.597442  0.126290  0.496650  1
  O  O104  1  0.302151  0.648999  0.642403  1
  O  O105  1  0.697849  0.351001  0.357597  1
  O  O106  1  0.256516  0.688845  0.941766  1
  O  O107  1  0.743484  0.311155  0.058234  1
  O  O108  1  0.209732  0.903347  0.910148  1
  O  O109  1  0.790268  0.096653  0.089852  1
  O  O110  1  0.204467  0.975047  0.689970  1
  O  O111  1  0.795533  0.024953  0.310030  1
