# generated using pymatgen
data_Ni3S4
_symmetry_space_group_name_H-M   'P 1'
_cell_length_a   6.65781420
_cell_length_b   6.65781420
_cell_length_c   6.65781420
_cell_angle_alpha   60.00000000
_cell_angle_beta   60.00000000
_cell_angle_gamma   60.00000000
_symmetry_Int_Tables_number   1
_chemical_formula_structural   Ni3S4
_chemical_formula_sum   'Ni6 S8'
_cell_volume   208.67960939
_cell_formula_units_Z   2
loop_
 _symmetry_equiv_pos_site_id
 _symmetry_equiv_pos_as_xyz
  1  'x, y, z'
loop_
 _atom_site_type_symbol
 _atom_site_label
 _atom_site_symmetry_multiplicity
 _atom_site_fract_x
 _atom_site_fract_y
 _atom_site_fract_z
 _atom_site_occupancy
  Ni  Ni0  1  0.500000  0.500000  0.500000  1
  Ni  Ni1  1  0.125000  0.125000  0.125000  1
  Ni  Ni2  1  0.125000  0.625000  0.125000  1
  Ni  Ni3  1  0.125000  0.125000  0.625000  1
  Ni  Ni4  1  0.750000  0.750000  0.750000  1
  Ni  Ni5  1  0.625000  0.125000  0.125000  1
  S  S6  1  0.883250  0.350250  0.883250  1
  S  S7  1  0.883250  0.883250  0.883250  1
  S  S8  1  0.366750  0.899750  0.366750  1
  S  S9  1  0.366750  0.366750  0.366750  1
  S  S10  1  0.883250  0.883250  0.350250  1
  S  S11  1  0.366750  0.366750  0.899750  1
  S  S12  1  0.899750  0.366750  0.366750  1
  S  S13  1  0.350250  0.883250  0.883250  1
