# generated using pymatgen
data_HoAgTe2
_symmetry_space_group_name_H-M   'P 1'
_cell_length_a   7.09801418
_cell_length_b   7.09801418
_cell_length_c   4.72184985
_cell_angle_alpha   90.00000000
_cell_angle_beta   90.00000000
_cell_angle_gamma   90.00000000
_symmetry_Int_Tables_number   1
_chemical_formula_structural   HoAgTe2
_chemical_formula_sum   'Ho2 Ag2 Te4'
_cell_volume   237.89531980
_cell_formula_units_Z   2
loop_
 _symmetry_equiv_pos_site_id
 _symmetry_equiv_pos_as_xyz
  1  'x, y, z'
loop_
 _atom_site_type_symbol
 _atom_site_label
 _atom_site_symmetry_multiplicity
 _atom_site_fract_x
 _atom_site_fract_y
 _atom_site_fract_z
 _atom_site_occupancy
  Ho  Ho0  1  0.500000  0.000000  0.191376  1
  Ho  Ho1  1  0.000000  0.500000  0.808624  1
  Ag  Ag2  1  0.000000  0.000000  0.000000  1
  Ag  Ag3  1  0.500000  0.500000  0.000000  1
  Te  Te4  1  0.201589  0.298411  0.290865  1
  Te  Te5  1  0.701589  0.201589  0.709135  1
  Te  Te6  1  0.798411  0.701589  0.290865  1
  Te  Te7  1  0.298411  0.798411  0.709135  1
