# generated using pymatgen
data_ScCuSn
_symmetry_space_group_name_H-M   'P 1'
_cell_length_a   4.41746133
_cell_length_b   4.41746133
_cell_length_c   6.86953727
_cell_angle_alpha   90.00000000
_cell_angle_beta   90.00000000
_cell_angle_gamma   120.00000000
_symmetry_Int_Tables_number   1
_chemical_formula_structural   ScCuSn
_chemical_formula_sum   'Sc2 Cu2 Sn2'
_cell_volume   116.09235688
_cell_formula_units_Z   2
loop_
 _symmetry_equiv_pos_site_id
 _symmetry_equiv_pos_as_xyz
  1  'x, y, z'
loop_
 _atom_site_type_symbol
 _atom_site_label
 _atom_site_symmetry_multiplicity
 _atom_site_fract_x
 _atom_site_fract_y
 _atom_site_fract_z
 _atom_site_occupancy
  Sc  Sc0  1  0.000000  0.000000  0.998149  1
  Sc  Sc1  1  0.000000  0.000000  0.498149  1
  Cu  Cu2  1  0.333333  0.666667  0.827838  1
  Cu  Cu3  1  0.666667  0.333333  0.327838  1
  Sn  Sn4  1  0.333333  0.666667  0.229623  1
  Sn  Sn5  1  0.666667  0.333333  0.729623  1
