# generated using pymatgen
data_LiVO3
_symmetry_space_group_name_H-M   'P 1'
_cell_length_a   6.77240003
_cell_length_b   6.77240003
_cell_length_c   5.94367310
_cell_angle_alpha   73.60027337
_cell_angle_beta   106.39972663
_cell_angle_gamma   100.83578595
_symmetry_Int_Tables_number   1
_chemical_formula_structural   LiVO3
_chemical_formula_sum   'Li4 V4 O12'
_cell_volume   249.13556569
_cell_formula_units_Z   4
loop_
 _symmetry_equiv_pos_site_id
 _symmetry_equiv_pos_as_xyz
  1  'x, y, z'
loop_
 _atom_site_type_symbol
 _atom_site_label
 _atom_site_symmetry_multiplicity
 _atom_site_fract_x
 _atom_site_fract_y
 _atom_site_fract_z
 _atom_site_occupancy
  Li  Li0  1  0.082101  0.082101  0.250000  1
  Li  Li1  1  0.917899  0.917899  0.750000  1
  Li  Li2  1  0.727600  0.727600  0.250000  1
  Li  Li3  1  0.272400  0.272400  0.750000  1
  V  V4  1  0.193713  0.619272  0.270924  1
  V  V5  1  0.380728  0.806287  0.770924  1
  V  V6  1  0.806287  0.380728  0.729076  1
  V  V7  1  0.619272  0.193713  0.229076  1
  O  O8  1  0.678727  0.384361  0.413916  1
  O  O9  1  0.321273  0.615639  0.586084  1
  O  O10  1  0.615639  0.321273  0.913916  1
  O  O11  1  0.995023  0.221905  0.834340  1
  O  O12  1  0.004977  0.778095  0.165660  1
  O  O13  1  0.778095  0.004977  0.334340  1
  O  O14  1  0.087507  0.375223  0.284830  1
  O  O15  1  0.221905  0.995023  0.665660  1
  O  O16  1  0.624777  0.912493  0.784830  1
  O  O17  1  0.375223  0.087507  0.215170  1
  O  O18  1  0.912493  0.624777  0.715170  1
  O  O19  1  0.384361  0.678727  0.086084  1
