# generated using pymatgen
data_SrSn3
_symmetry_space_group_name_H-M   'P 1'
_cell_length_a   12.10527769
_cell_length_b   12.10527769
_cell_length_c   12.10527769
_cell_angle_alpha   33.32510140
_cell_angle_beta   33.32510140
_cell_angle_gamma   33.32510140
_symmetry_Int_Tables_number   1
_chemical_formula_structural   SrSn3
_chemical_formula_sum   'Sr4 Sn12'
_cell_volume   476.71816343
_cell_formula_units_Z   4
loop_
 _symmetry_equiv_pos_site_id
 _symmetry_equiv_pos_as_xyz
  1  'x, y, z'
loop_
 _atom_site_type_symbol
 _atom_site_label
 _atom_site_symmetry_multiplicity
 _atom_site_fract_x
 _atom_site_fract_y
 _atom_site_fract_z
 _atom_site_occupancy
  Sr  Sr0  1  0.132886  0.132886  0.132886  1
  Sr  Sr1  1  0.867114  0.867114  0.867114  1
  Sr  Sr2  1  0.292768  0.292768  0.292768  1
  Sr  Sr3  1  0.707232  0.707232  0.707232  1
  Sn  Sn4  1  0.718333  0.206303  0.206303  1
  Sn  Sn5  1  0.206303  0.718333  0.206303  1
  Sn  Sn6  1  0.160820  0.601425  0.601425  1
  Sn  Sn7  1  0.601425  0.160820  0.601425  1
  Sn  Sn8  1  0.601425  0.601425  0.160820  1
  Sn  Sn9  1  0.398575  0.398575  0.839180  1
  Sn  Sn10  1  0.839180  0.398575  0.398575  1
  Sn  Sn11  1  0.398575  0.839180  0.398575  1
  Sn  Sn12  1  0.206303  0.206303  0.718333  1
  Sn  Sn13  1  0.793697  0.793697  0.281667  1
  Sn  Sn14  1  0.793697  0.281667  0.793697  1
  Sn  Sn15  1  0.281667  0.793697  0.793697  1
