# generated using pymatgen
data_Ba3NbAs3O
_symmetry_space_group_name_H-M   'P 1'
_cell_length_a   6.82036250
_cell_length_b   11.25460668
_cell_length_c   13.67749544
_cell_angle_alpha   90.00000000
_cell_angle_beta   90.00000000
_cell_angle_gamma   90.00000000
_symmetry_Int_Tables_number   1
_chemical_formula_structural   Ba3NbAs3O
_chemical_formula_sum   'Ba12 Nb4 As12 O4'
_cell_volume   1049.89135251
_cell_formula_units_Z   4
loop_
 _symmetry_equiv_pos_site_id
 _symmetry_equiv_pos_as_xyz
  1  'x, y, z'
loop_
 _atom_site_type_symbol
 _atom_site_label
 _atom_site_symmetry_multiplicity
 _atom_site_fract_x
 _atom_site_fract_y
 _atom_site_fract_z
 _atom_site_occupancy
  Ba  Ba0  1  0.243299  0.045220  0.130826  1
  Ba  Ba1  1  0.256701  0.545220  0.630826  1
  Ba  Ba2  1  0.243299  0.454780  0.130826  1
  Ba  Ba3  1  0.743299  0.045220  0.369174  1
  Ba  Ba4  1  0.756701  0.954780  0.869174  1
  Ba  Ba5  1  0.743299  0.454780  0.369174  1
  Ba  Ba6  1  0.756701  0.545220  0.869174  1
  Ba  Ba7  1  0.256701  0.954780  0.630826  1
  Ba  Ba8  1  0.273272  0.250000  0.872007  1
  Ba  Ba9  1  0.773272  0.250000  0.627993  1
  Ba  Ba10  1  0.726728  0.750000  0.127993  1
  Ba  Ba11  1  0.226728  0.750000  0.372006  1
  Nb  Nb12  1  0.660318  0.750000  0.545437  1
  Nb  Nb13  1  0.339682  0.250000  0.454563  1
  Nb  Nb14  1  0.160318  0.750000  0.954563  1
  Nb  Nb15  1  0.839682  0.250000  0.045437  1
  As  As16  1  0.272917  0.250000  0.633313  1
  As  As17  1  0.772917  0.250000  0.866687  1
  As  As18  1  0.727083  0.750000  0.366687  1
  As  As19  1  0.227083  0.750000  0.133313  1
  As  As20  1  0.736580  0.443942  0.117355  1
  As  As21  1  0.236580  0.443942  0.382645  1
  As  As22  1  0.263420  0.943942  0.882645  1
  As  As23  1  0.763420  0.556058  0.617355  1
  As  As24  1  0.263420  0.556058  0.882645  1
  As  As25  1  0.763420  0.943942  0.617355  1
  As  As26  1  0.736580  0.056058  0.117355  1
  As  As27  1  0.236580  0.056058  0.382645  1
  O  O28  1  0.118555  0.250000  0.053380  1
  O  O29  1  0.618555  0.250000  0.446620  1
  O  O30  1  0.881445  0.750000  0.946620  1
  O  O31  1  0.381445  0.750000  0.553380  1
