# generated using pymatgen
data_Ba6Mg7F26
_symmetry_space_group_name_H-M   'P 1'
_cell_length_a   10.28876921
_cell_length_b   10.28876921
_cell_length_c   10.28876921
_cell_angle_alpha   146.55163866
_cell_angle_beta   106.48213567
_cell_angle_gamma   83.21757933
_symmetry_Int_Tables_number   1
_chemical_formula_structural   Ba6Mg7F26
_chemical_formula_sum   'Ba6 Mg7 F26'
_cell_volume   560.97115288
_cell_formula_units_Z   1
loop_
 _symmetry_equiv_pos_site_id
 _symmetry_equiv_pos_as_xyz
  1  'x, y, z'
loop_
 _atom_site_type_symbol
 _atom_site_label
 _atom_site_symmetry_multiplicity
 _atom_site_fract_x
 _atom_site_fract_y
 _atom_site_fract_z
 _atom_site_occupancy
  Ba  Ba0  1  0.352803  0.852803  0.500000  1
  Ba  Ba1  1  0.647197  0.147197  0.500000  1
  Ba  Ba2  1  0.089204  0.350917  0.738287  1
  Ba  Ba3  1  0.612630  0.350917  0.261713  1
  Ba  Ba4  1  0.387370  0.649083  0.738287  1
  Ba  Ba5  1  0.910796  0.649083  0.261713  1
  Mg  Mg6  1  1.000000  0.747357  0.747357  1
  Mg  Mg7  1  0.268524  1.000000  0.268524  1
  Mg  Mg8  1  1.000000  0.252643  0.252643  1
  Mg  Mg9  1  0.731476  1.000000  0.731476  1
  Mg  Mg10  1  0.779452  0.779452  0.000000  1
  Mg  Mg11  1  0.220548  0.220548  0.000000  1
  Mg  Mg12  1  0.500000  0.500000  0.000000  1
  F  F13  1  0.644304  0.989505  0.118246  1
  F  F14  1  0.355696  0.473942  0.345201  1
  F  F15  1  0.128741  0.010495  0.654799  1
  F  F16  1  0.871259  0.526058  0.881754  1
  F  F17  1  0.355696  0.010495  0.881754  1
  F  F18  1  0.644304  0.526058  0.654799  1
  F  F19  1  0.871259  0.989505  0.345201  1
  F  F20  1  0.128741  0.473942  0.118246  1
  F  F21  1  0.611860  0.250803  0.862662  1
  F  F22  1  0.388140  0.250803  0.638943  1
  F  F23  1  0.611860  0.749197  0.361057  1
  F  F24  1  0.388140  0.749197  0.137338  1
  F  F25  1  0.836552  0.255737  0.092289  1
  F  F26  1  0.163448  0.255737  0.419185  1
  F  F27  1  0.836552  0.744263  0.580815  1
  F  F28  1  0.163448  0.744263  0.907711  1
  F  F29  1  0.089073  0.089073  0.000000  1
  F  F30  1  0.910927  0.910927  0.000000  1
  F  F31  1  0.370549  0.370549  0.000000  1
  F  F32  1  0.087497  0.587497  0.500000  1
  F  F33  1  0.592019  0.874055  0.717964  1
  F  F34  1  0.407981  0.125945  0.282036  1
  F  F35  1  0.843909  0.125945  0.717964  1
  F  F36  1  0.156091  0.874055  0.282036  1
  F  F37  1  0.912503  0.412503  0.500000  1
  F  F38  1  0.629451  0.629451  0.000000  1
