# generated using pymatgen
data_Zr2Fe
_symmetry_space_group_name_H-M   'P 1'
_cell_length_a   8.59643276
_cell_length_b   8.59643276
_cell_length_c   8.59643276
_cell_angle_alpha   60.00000000
_cell_angle_beta   60.00000000
_cell_angle_gamma   60.00000000
_symmetry_Int_Tables_number   1
_chemical_formula_structural   Zr2Fe
_chemical_formula_sum   'Zr16 Fe8'
_cell_volume   449.20006878
_cell_formula_units_Z   8
loop_
 _symmetry_equiv_pos_site_id
 _symmetry_equiv_pos_as_xyz
  1  'x, y, z'
loop_
 _atom_site_type_symbol
 _atom_site_label
 _atom_site_symmetry_multiplicity
 _atom_site_fract_x
 _atom_site_fract_y
 _atom_site_fract_z
 _atom_site_occupancy
  Zr  Zr0  1  0.625000  0.625000  0.625000  1
  Zr  Zr1  1  0.125000  0.625000  0.625000  1
  Zr  Zr2  1  0.625000  0.625000  0.125000  1
  Zr  Zr3  1  0.625000  0.125000  0.625000  1
  Zr  Zr4  1  0.811804  0.188196  0.188196  1
  Zr  Zr5  1  0.188196  0.811804  0.811804  1
  Zr  Zr6  1  0.188196  0.188196  0.811804  1
  Zr  Zr7  1  0.811804  0.811804  0.188196  1
  Zr  Zr8  1  0.811804  0.188196  0.811804  1
  Zr  Zr9  1  0.188196  0.811804  0.188196  1
  Zr  Zr10  1  0.438196  0.061804  0.061804  1
  Zr  Zr11  1  0.061804  0.438196  0.438196  1
  Zr  Zr12  1  0.061804  0.061804  0.438196  1
  Zr  Zr13  1  0.438196  0.438196  0.061804  1
  Zr  Zr14  1  0.438196  0.061804  0.438196  1
  Zr  Zr15  1  0.061804  0.438196  0.061804  1
  Fe  Fe16  1  0.406223  0.406223  0.406223  1
  Fe  Fe17  1  0.781331  0.406223  0.406223  1
  Fe  Fe18  1  0.406223  0.406223  0.781331  1
  Fe  Fe19  1  0.406223  0.781331  0.406223  1
  Fe  Fe20  1  0.843777  0.843777  0.843777  1
  Fe  Fe21  1  0.468669  0.843777  0.843777  1
  Fe  Fe22  1  0.843777  0.843777  0.468669  1
  Fe  Fe23  1  0.843777  0.468669  0.843777  1
