# generated using pymatgen
data_Ba3YRu2O9
_symmetry_space_group_name_H-M   'P 1'
_cell_length_a   5.96212268
_cell_length_b   5.96212268
_cell_length_c   14.61735585
_cell_angle_alpha   90.00000000
_cell_angle_beta   90.00000000
_cell_angle_gamma   120.00000000
_symmetry_Int_Tables_number   1
_chemical_formula_structural   Ba3YRu2O9
_chemical_formula_sum   'Ba6 Y2 Ru4 O18'
_cell_volume   449.98834714
_cell_formula_units_Z   2
loop_
 _symmetry_equiv_pos_site_id
 _symmetry_equiv_pos_as_xyz
  1  'x, y, z'
loop_
 _atom_site_type_symbol
 _atom_site_label
 _atom_site_symmetry_multiplicity
 _atom_site_fract_x
 _atom_site_fract_y
 _atom_site_fract_z
 _atom_site_occupancy
  Ba  Ba0  1  0.333333  0.666667  0.594635  1
  Ba  Ba1  1  0.666667  0.333333  0.094635  1
  Ba  Ba2  1  0.666667  0.333333  0.405365  1
  Ba  Ba3  1  0.333333  0.666667  0.905365  1
  Ba  Ba4  1  0.000000  0.000000  0.750000  1
  Ba  Ba5  1  0.000000  0.000000  0.250000  1
  Y  Y6  1  0.000000  0.000000  0.000000  1
  Y  Y7  1  0.000000  0.000000  0.500000  1
  Ru  Ru8  1  0.666667  0.333333  0.664399  1
  Ru  Ru9  1  0.333333  0.666667  0.164399  1
  Ru  Ru10  1  0.666667  0.333333  0.835601  1
  Ru  Ru11  1  0.333333  0.666667  0.335601  1
  O  O12  1  0.176226  0.823774  0.088348  1
  O  O13  1  0.176226  0.352453  0.088348  1
  O  O14  1  0.647547  0.823774  0.088348  1
  O  O15  1  0.352453  0.176226  0.588348  1
  O  O16  1  0.823774  0.647547  0.911652  1
  O  O17  1  0.823774  0.176226  0.588348  1
  O  O18  1  0.823774  0.647547  0.588348  1
  O  O19  1  0.176226  0.823774  0.411652  1
  O  O20  1  0.647547  0.823774  0.411652  1
  O  O21  1  0.352453  0.176226  0.911652  1
  O  O22  1  0.823774  0.176226  0.911652  1
  O  O23  1  0.176226  0.352453  0.411652  1
  O  O24  1  0.490111  0.980222  0.250000  1
  O  O25  1  0.509889  0.490111  0.750000  1
  O  O26  1  0.980222  0.490111  0.750000  1
  O  O27  1  0.019778  0.509889  0.250000  1
  O  O28  1  0.490111  0.509889  0.250000  1
  O  O29  1  0.509889  0.019778  0.750000  1
