# generated using pymatgen
data_Pr2Au5F21
_symmetry_space_group_name_H-M   'P 1'
_cell_length_a   8.45678719
_cell_length_b   8.45678719
_cell_length_c   26.34041984
_cell_angle_alpha   90.00000000
_cell_angle_beta   90.00000000
_cell_angle_gamma   90.00000000
_symmetry_Int_Tables_number   1
_chemical_formula_structural   Pr2Au5F21
_chemical_formula_sum   'Pr8 Au20 F84'
_cell_volume   1883.79437966
_cell_formula_units_Z   4
loop_
 _symmetry_equiv_pos_site_id
 _symmetry_equiv_pos_as_xyz
  1  'x, y, z'
loop_
 _atom_site_type_symbol
 _atom_site_label
 _atom_site_symmetry_multiplicity
 _atom_site_fract_x
 _atom_site_fract_y
 _atom_site_fract_z
 _atom_site_occupancy
  Pr  Pr0  1  0.551324  0.928544  0.998030  1
  Pr  Pr1  1  0.448676  0.071456  0.498030  1
  Pr  Pr2  1  0.928544  0.551324  0.001970  1
  Pr  Pr3  1  0.428544  0.948676  0.748030  1
  Pr  Pr4  1  0.571456  0.051324  0.248030  1
  Pr  Pr5  1  0.948676  0.428544  0.251970  1
  Pr  Pr6  1  0.051324  0.571456  0.751970  1
  Pr  Pr7  1  0.071456  0.448676  0.501970  1
  Au  Au8  1  0.404736  0.356633  0.844385  1
  Au  Au9  1  0.595264  0.643367  0.344385  1
  Au  Au10  1  0.356633  0.404736  0.155615  1
  Au  Au11  1  0.856633  0.095264  0.594385  1
  Au  Au12  1  0.143367  0.904736  0.094385  1
  Au  Au13  1  0.095264  0.856633  0.405615  1
  Au  Au14  1  0.904736  0.143367  0.905615  1
  Au  Au15  1  0.643367  0.595264  0.655615  1
  Au  Au16  1  0.204605  0.821451  0.889125  1
  Au  Au17  1  0.795395  0.178549  0.389125  1
  Au  Au18  1  0.821451  0.204605  0.110875  1
  Au  Au19  1  0.321451  0.295395  0.639125  1
  Au  Au20  1  0.678549  0.704605  0.139125  1
  Au  Au21  1  0.295395  0.321451  0.360875  1
  Au  Au22  1  0.704605  0.678549  0.860875  1
  Au  Au23  1  0.178549  0.795395  0.610875  1
  Au  Au24  1  0.564775  0.564775  0.500000  1
  Au  Au25  1  0.935225  0.064775  0.750000  1
  Au  Au26  1  0.064775  0.935225  0.250000  1
  Au  Au27  1  0.435225  0.435225  0.000000  1
  F  F28  1  0.590395  0.783859  0.805028  1
  F  F29  1  0.409605  0.216141  0.305028  1
  F  F30  1  0.783859  0.590395  0.194972  1
  F  F31  1  0.283859  0.909605  0.555028  1
  F  F32  1  0.716141  0.090396  0.055028  1
  F  F33  1  0.909605  0.283859  0.444972  1
  F  F34  1  0.090396  0.716141  0.944972  1
  F  F35  1  0.216141  0.409605  0.694972  1
  F  F36  1  0.038257  0.689432  0.454655  1
  F  F37  1  0.961743  0.310568  0.954655  1
  F  F38  1  0.689432  0.038257  0.545345  1
  F  F39  1  0.189432  0.461743  0.204655  1
  F  F40  1  0.810568  0.538257  0.704655  1
  F  F41  1  0.461743  0.189432  0.795345  1
  F  F42  1  0.538257  0.810568  0.295345  1
  F  F43  1  0.310568  0.961743  0.045345  1
  F  F44  1  0.913124  0.801856  0.364832  1
  F  F45  1  0.086876  0.198144  0.864832  1
  F  F46  1  0.801856  0.913124  0.635168  1
  F  F47  1  0.301856  0.586876  0.114832  1
  F  F48  1  0.698144  0.413124  0.614832  1
  F  F49  1  0.586876  0.301856  0.885168  1
  F  F50  1  0.413124  0.698144  0.385168  1
  F  F51  1  0.198144  0.086876  0.135168  1
  F  F52  1  0.934662  0.296926  0.752296  1
  F  F53  1  0.065338  0.703074  0.252296  1
  F  F54  1  0.296926  0.934662  0.247704  1
  F  F55  1  0.203074  0.434662  0.002296  1
  F  F56  1  0.796926  0.565338  0.502296  1
  F  F57  1  0.064440  0.681887  0.664508  1
  F  F58  1  0.935560  0.318113  0.164508  1
  F  F59  1  0.681887  0.064440  0.335492  1
  F  F60  1  0.318113  0.935560  0.835492  1
  F  F61  1  0.818113  0.564440  0.914508  1
  F  F62  1  0.435560  0.181887  0.585492  1
  F  F63  1  0.564440  0.818113  0.085492  1
  F  F64  1  0.918528  0.300769  0.339018  1
  F  F65  1  0.199231  0.418528  0.589018  1
  F  F66  1  0.800769  0.581472  0.089018  1
  F  F67  1  0.418528  0.199231  0.410982  1
  F  F68  1  0.581472  0.800769  0.910982  1
  F  F69  1  0.081472  0.699231  0.839018  1
  F  F70  1  0.300769  0.918528  0.660982  1
  F  F71  1  0.699231  0.081472  0.160982  1
  F  F72  1  0.450317  0.181253  0.689778  1
  F  F73  1  0.318747  0.950317  0.939778  1
  F  F74  1  0.681253  0.049683  0.439778  1
  F  F75  1  0.950317  0.318747  0.060222  1
  F  F76  1  0.049683  0.681253  0.560222  1
  F  F77  1  0.549683  0.818747  0.189778  1
  F  F78  1  0.181253  0.450317  0.310222  1
  F  F79  1  0.818747  0.549683  0.810222  1
  F  F80  1  0.331705  0.569417  0.500097  1
  F  F81  1  0.930583  0.831705  0.750097  1
  F  F82  1  0.069417  0.168295  0.250097  1
  F  F83  1  0.831705  0.930583  0.249903  1
  F  F84  1  0.168295  0.069417  0.749903  1
  F  F85  1  0.668295  0.430583  0.000097  1
  F  F86  1  0.569417  0.331705  0.499903  1
  F  F87  1  0.430583  0.668295  0.999903  1
  F  F88  1  0.912689  0.279694  0.551191  1
  F  F89  1  0.220306  0.412689  0.801191  1
  F  F90  1  0.779694  0.587311  0.301191  1
  F  F91  1  0.412689  0.220306  0.198809  1
  F  F92  1  0.587311  0.779694  0.698809  1
  F  F93  1  0.087311  0.720306  0.051191  1
  F  F94  1  0.279694  0.912689  0.448809  1
  F  F95  1  0.720306  0.087311  0.948809  1
  F  F96  1  0.777624  0.777624  0.000000  1
  F  F97  1  0.722376  0.277624  0.250000  1
  F  F98  1  0.277624  0.722376  0.750000  1
  F  F99  1  0.222376  0.222376  0.500000  1
  F  F100  1  0.525988  0.356405  0.107865  1
  F  F101  1  0.143595  0.025988  0.357865  1
  F  F102  1  0.856405  0.974012  0.857865  1
  F  F103  1  0.025988  0.143595  0.642135  1
  F  F104  1  0.974012  0.856405  0.142135  1
  F  F105  1  0.474012  0.643595  0.607865  1
  F  F106  1  0.356405  0.525988  0.892135  1
  F  F107  1  0.643595  0.474012  0.392135  1
  F  F108  1  0.703074  0.065338  0.747704  1
  F  F109  1  0.434662  0.203074  0.997704  1
  F  F110  1  0.565338  0.796926  0.497704  1
  F  F111  1  0.181887  0.435560  0.414508  1
