# generated using pymatgen
data_Li3Ti2(GeO4)3
_symmetry_space_group_name_H-M   'P 1'
_cell_length_a   10.54827900
_cell_length_b   10.54827900
_cell_length_c   10.54827900
_cell_angle_alpha   109.47122063
_cell_angle_beta   109.47122063
_cell_angle_gamma   109.47122063
_symmetry_Int_Tables_number   1
_chemical_formula_structural   Li3Ti2(GeO4)3
_chemical_formula_sum   'Li12 Ti8 Ge12 O48'
_cell_volume   903.48913526
_cell_formula_units_Z   4
loop_
 _symmetry_equiv_pos_site_id
 _symmetry_equiv_pos_as_xyz
  1  'x, y, z'
loop_
 _atom_site_type_symbol
 _atom_site_label
 _atom_site_symmetry_multiplicity
 _atom_site_fract_x
 _atom_site_fract_y
 _atom_site_fract_z
 _atom_site_occupancy
  Li  Li0  1  0.625000  0.250000  0.875000  1
  Li  Li1  1  0.875000  0.750000  0.625000  1
  Li  Li2  1  0.750000  0.625000  0.875000  1
  Li  Li3  1  0.250000  0.875000  0.625000  1
  Li  Li4  1  0.875000  0.625000  0.250000  1
  Li  Li5  1  0.625000  0.875000  0.750000  1
  Li  Li6  1  0.375000  0.750000  0.125000  1
  Li  Li7  1  0.125000  0.250000  0.375000  1
  Li  Li8  1  0.250000  0.375000  0.125000  1
  Li  Li9  1  0.750000  0.125000  0.375000  1
  Li  Li10  1  0.125000  0.375000  0.750000  1
  Li  Li11  1  0.375000  0.125000  0.250000  1
  Ti  Ti12  1  0.500000  0.500000  0.500000  1
  Ti  Ti13  1  0.500000  0.500000  0.000000  1
  Ti  Ti14  1  0.500000  1.000000  0.500000  1
  Ti  Ti15  1  1.000000  0.500000  0.500000  1
  Ti  Ti16  1  0.500000  1.000000  0.000000  1
  Ti  Ti17  1  1.000000  1.000000  0.500000  1
  Ti  Ti18  1  1.000000  0.500000  0.000000  1
  Ti  Ti19  1  1.000000  1.000000  0.000000  1
  Ge  Ge20  1  0.875000  0.125000  0.750000  1
  Ge  Ge21  1  0.125000  0.875000  0.250000  1
  Ge  Ge22  1  0.250000  0.625000  0.375000  1
  Ge  Ge23  1  0.125000  0.750000  0.875000  1
  Ge  Ge24  1  0.750000  0.875000  0.125000  1
  Ge  Ge25  1  0.375000  0.250000  0.625000  1
  Ge  Ge26  1  0.625000  0.750000  0.375000  1
  Ge  Ge27  1  0.875000  0.250000  0.125000  1
  Ge  Ge28  1  0.250000  0.125000  0.875000  1
  Ge  Ge29  1  0.750000  0.375000  0.625000  1
  Ge  Ge30  1  0.375000  0.625000  0.750000  1
  Ge  Ge31  1  0.625000  0.375000  0.250000  1
  O  O32  1  0.800336  0.417885  0.817851  1
  O  O33  1  0.082115  0.882451  0.399966  1
  O  O34  1  0.682149  0.100034  0.982485  1
  O  O35  1  0.699664  0.517515  0.617549  1
  O  O36  1  0.699664  0.682149  0.082115  1
  O  O37  1  0.517515  0.617549  0.699664  1
  O  O38  1  0.100034  0.617549  0.417885  1
  O  O39  1  0.617549  0.699664  0.517515  1
  O  O40  1  0.399966  0.817851  0.517515  1
  O  O41  1  0.882451  0.982485  0.800336  1
  O  O42  1  0.982485  0.800336  0.882451  1
  O  O43  1  0.082115  0.699664  0.682149  1
  O  O44  1  0.617549  0.417885  0.100034  1
  O  O45  1  0.517515  0.399966  0.817851  1
  O  O46  1  0.682149  0.082115  0.699664  1
  O  O47  1  0.417885  0.100034  0.617549  1
  O  O48  1  0.817851  0.517515  0.399966  1
  O  O49  1  0.399966  0.082115  0.882451  1
  O  O50  1  0.100034  0.982485  0.682149  1
  O  O51  1  0.600034  0.182149  0.482485  1
  O  O52  1  0.982485  0.682149  0.100034  1
  O  O53  1  0.817851  0.800336  0.417885  1
  O  O54  1  0.882451  0.399966  0.082115  1
  O  O55  1  0.800336  0.882451  0.982485  1
  O  O56  1  0.199664  0.582115  0.182149  1
  O  O57  1  0.917885  0.117549  0.600034  1
  O  O58  1  0.317851  0.899966  0.017515  1
  O  O59  1  0.300336  0.482485  0.382451  1
  O  O60  1  0.300336  0.317851  0.917885  1
  O  O61  1  0.482485  0.382451  0.300336  1
  O  O62  1  0.899966  0.382451  0.582115  1
  O  O63  1  0.382451  0.300336  0.482485  1
  O  O64  1  0.199664  0.117549  0.017515  1
  O  O65  1  0.117549  0.600034  0.917885  1
  O  O66  1  0.182149  0.199664  0.582115  1
  O  O67  1  0.582115  0.182149  0.199664  1
  O  O68  1  0.017515  0.317851  0.899966  1
  O  O69  1  0.899966  0.017515  0.317851  1
  O  O70  1  0.600034  0.917885  0.117549  1
  O  O71  1  0.182149  0.482485  0.600034  1
  O  O72  1  0.582115  0.899966  0.382451  1
  O  O73  1  0.317851  0.917885  0.300336  1
  O  O74  1  0.482485  0.600034  0.182149  1
  O  O75  1  0.382451  0.582115  0.899966  1
  O  O76  1  0.917885  0.300336  0.317851  1
  O  O77  1  0.017515  0.199664  0.117549  1
  O  O78  1  0.117549  0.017515  0.199664  1
  O  O79  1  0.417885  0.817851  0.800336  1
