# generated using pymatgen
data_Co3W
_symmetry_space_group_name_H-M   'P 1'
_cell_length_a   3.60245623
_cell_length_b   3.60245623
_cell_length_c   3.60245623
_cell_angle_alpha   90.00000000
_cell_angle_beta   90.00000000
_cell_angle_gamma   90.00000000
_symmetry_Int_Tables_number   1
_chemical_formula_structural   Co3W
_chemical_formula_sum   'Co3 W1'
_cell_volume   46.75156339
_cell_formula_units_Z   1
loop_
 _symmetry_equiv_pos_site_id
 _symmetry_equiv_pos_as_xyz
  1  'x, y, z'
loop_
 _atom_site_type_symbol
 _atom_site_label
 _atom_site_symmetry_multiplicity
 _atom_site_fract_x
 _atom_site_fract_y
 _atom_site_fract_z
 _atom_site_occupancy
  Co  Co0  1  0.500000  0.500000  0.000000  1
  Co  Co1  1  0.500000  0.000000  0.500000  1
  Co  Co2  1  0.000000  0.500000  0.500000  1
  W  W3  1  0.000000  0.000000  0.000000  1
