# generated using pymatgen
data_NdAs2
_symmetry_space_group_name_H-M   'P 1'
_cell_length_a   4.14422590
_cell_length_b   6.91185174
_cell_length_c   10.61718736
_cell_angle_alpha   90.00000000
_cell_angle_beta   106.80439490
_cell_angle_gamma   90.00000000
_symmetry_Int_Tables_number   1
_chemical_formula_structural   NdAs2
_chemical_formula_sum   'Nd4 As8'
_cell_volume   291.13482668
_cell_formula_units_Z   4
loop_
 _symmetry_equiv_pos_site_id
 _symmetry_equiv_pos_as_xyz
  1  'x, y, z'
loop_
 _atom_site_type_symbol
 _atom_site_label
 _atom_site_symmetry_multiplicity
 _atom_site_fract_x
 _atom_site_fract_y
 _atom_site_fract_z
 _atom_site_occupancy
  Nd  Nd0  1  0.089726  0.812576  0.359673  1
  Nd  Nd1  1  0.910274  0.312576  0.140327  1
  Nd  Nd2  1  0.910274  0.187424  0.640327  1
  Nd  Nd3  1  0.089726  0.687424  0.859673  1
  As  As4  1  0.729308  0.876997  0.049702  1
  As  As5  1  0.270692  0.376997  0.450298  1
  As  As6  1  0.270692  0.123003  0.950298  1
  As  As7  1  0.729308  0.623003  0.549702  1
  As  As8  1  0.538443  0.355953  0.828823  1
  As  As9  1  0.461557  0.855953  0.671177  1
  As  As10  1  0.461557  0.644047  0.171177  1
  As  As11  1  0.538443  0.144047  0.328823  1
