# generated using pymatgen
data_Tb2Si2O7
_symmetry_space_group_name_H-M   'P 1'
_cell_length_a   6.68614001
_cell_length_b   6.71931066
_cell_length_c   12.18556629
_cell_angle_alpha   94.24139603
_cell_angle_beta   91.20502268
_cell_angle_gamma   91.85688448
_symmetry_Int_Tables_number   1
_chemical_formula_structural   Tb2Si2O7
_chemical_formula_sum   'Tb8 Si8 O28'
_cell_volume   545.51509195
_cell_formula_units_Z   4
loop_
 _symmetry_equiv_pos_site_id
 _symmetry_equiv_pos_as_xyz
  1  'x, y, z'
loop_
 _atom_site_type_symbol
 _atom_site_label
 _atom_site_symmetry_multiplicity
 _atom_site_fract_x
 _atom_site_fract_y
 _atom_site_fract_z
 _atom_site_occupancy
  Tb  Tb0  1  0.672411  0.173792  0.891546  1
  Tb  Tb1  1  0.327589  0.826208  0.108454  1
  Tb  Tb2  1  0.366786  0.222121  0.633263  1
  Tb  Tb3  1  0.633214  0.777879  0.366737  1
  Tb  Tb4  1  0.881769  0.911462  0.642701  1
  Tb  Tb5  1  0.118231  0.088538  0.357299  1
  Tb  Tb6  1  0.948319  0.673215  0.884687  1
  Tb  Tb7  1  0.051681  0.326785  0.115313  1
  Si  Si8  1  0.146116  0.624945  0.379940  1
  Si  Si9  1  0.853884  0.375055  0.620060  1
  Si  Si10  1  0.376367  0.727303  0.594356  1
  Si  Si11  1  0.623633  0.272697  0.405644  1
  Si  Si12  1  0.487505  0.667400  0.824741  1
  Si  Si13  1  0.512495  0.332600  0.175259  1
  Si  Si14  1  0.154150  0.149201  0.884576  1
  Si  Si15  1  0.845850  0.850799  0.115424  1
  O  O16  1  0.000695  0.987477  0.814942  1
  O  O17  1  0.999305  0.012523  0.185058  1
  O  O18  1  0.999734  0.333396  0.918355  1
  O  O19  1  0.000266  0.666604  0.081645  1
  O  O20  1  0.346948  0.210399  0.814376  1
  O  O21  1  0.653052  0.789601  0.185624  1
  O  O22  1  0.230388  0.084889  0.004196  1
  O  O23  1  0.769612  0.915111  0.995804  1
  O  O24  1  0.077409  0.416003  0.312002  1
  O  O25  1  0.922591  0.583997  0.687998  1
  O  O26  1  0.964254  0.770289  0.421258  1
  O  O27  1  0.035746  0.229711  0.578742  1
  O  O28  1  0.290220  0.779961  0.313241  1
  O  O29  1  0.709780  0.220039  0.686759  1
  O  O30  1  0.285223  0.574887  0.490193  1
  O  O31  1  0.714777  0.425113  0.509807  1
  O  O32  1  0.356522  0.487940  0.126778  1
  O  O33  1  0.643478  0.512060  0.873222  1
  O  O34  1  0.380866  0.137088  0.210652  1
  O  O35  1  0.619134  0.862912  0.789348  1
  O  O36  1  0.699389  0.292381  0.094384  1
  O  O37  1  0.300611  0.707619  0.905616  1
  O  O38  1  0.600648  0.427803  0.305109  1
  O  O39  1  0.399352  0.572197  0.694891  1
  O  O40  1  0.414615  0.173933  0.446965  1
  O  O41  1  0.585385  0.826067  0.553035  1
  O  O42  1  0.773430  0.093698  0.377900  1
  O  O43  1  0.226570  0.906302  0.622100  1
