# generated using pymatgen
data_YbSiAu
_symmetry_space_group_name_H-M   'P 1'
_cell_length_a   5.65179036
_cell_length_b   5.65179036
_cell_length_c   5.65179036
_cell_angle_alpha   133.48653780
_cell_angle_beta   103.20031424
_cell_angle_gamma   94.78745556
_symmetry_Int_Tables_number   1
_chemical_formula_structural   YbSiAu
_chemical_formula_sum   'Yb2 Si2 Au2'
_cell_volume   119.89648939
_cell_formula_units_Z   2
loop_
 _symmetry_equiv_pos_site_id
 _symmetry_equiv_pos_as_xyz
  1  'x, y, z'
loop_
 _atom_site_type_symbol
 _atom_site_label
 _atom_site_symmetry_multiplicity
 _atom_site_fract_x
 _atom_site_fract_y
 _atom_site_fract_z
 _atom_site_occupancy
  Yb  Yb0  1  0.206602  0.706602  0.500000  1
  Yb  Yb1  1  0.636062  0.636062  0.000000  1
  Si  Si2  1  0.659494  0.339919  0.319575  1
  Si  Si3  1  0.020344  0.339919  0.680425  1
  Au  Au4  1  0.782264  0.007849  0.774415  1
  Au  Au5  1  0.233434  0.007849  0.225585  1
