# generated using pymatgen
data_Ba3Si4
_symmetry_space_group_name_H-M   'P 1'
_cell_length_a   8.58223302
_cell_length_b   8.58223302
_cell_length_c   11.96361039
_cell_angle_alpha   90.00000000
_cell_angle_beta   90.00000000
_cell_angle_gamma   90.00000000
_symmetry_Int_Tables_number   1
_chemical_formula_structural   Ba3Si4
_chemical_formula_sum   'Ba12 Si16'
_cell_volume   881.17641665
_cell_formula_units_Z   4
loop_
 _symmetry_equiv_pos_site_id
 _symmetry_equiv_pos_as_xyz
  1  'x, y, z'
loop_
 _atom_site_type_symbol
 _atom_site_label
 _atom_site_symmetry_multiplicity
 _atom_site_fract_x
 _atom_site_fract_y
 _atom_site_fract_z
 _atom_site_occupancy
  Ba  Ba0  1  0.500000  0.000000  0.750000  1
  Ba  Ba1  1  0.500000  0.000000  0.250000  1
  Ba  Ba2  1  0.000000  0.500000  0.750000  1
  Ba  Ba3  1  0.000000  0.500000  0.250000  1
  Ba  Ba4  1  0.000000  0.000000  0.830928  1
  Ba  Ba5  1  0.500000  0.500000  0.330928  1
  Ba  Ba6  1  0.500000  0.500000  0.669072  1
  Ba  Ba7  1  0.000000  0.000000  0.169072  1
  Ba  Ba8  1  0.663863  0.663863  0.000000  1
  Ba  Ba9  1  0.836137  0.163863  0.500000  1
  Ba  Ba10  1  0.163863  0.836137  0.500000  1
  Ba  Ba11  1  0.336137  0.336137  0.000000  1
  Si  Si12  1  0.800493  0.800493  0.644380  1
  Si  Si13  1  0.199507  0.199507  0.644380  1
  Si  Si14  1  0.800493  0.800493  0.355620  1
  Si  Si15  1  0.300493  0.699507  0.144380  1
  Si  Si16  1  0.699507  0.300493  0.144380  1
  Si  Si17  1  0.699507  0.300493  0.855620  1
  Si  Si18  1  0.300493  0.699507  0.855620  1
  Si  Si19  1  0.199507  0.199507  0.355620  1
  Si  Si20  1  0.699371  0.100710  0.000000  1
  Si  Si21  1  0.300629  0.899290  0.000000  1
  Si  Si22  1  0.100710  0.699371  0.000000  1
  Si  Si23  1  0.600710  0.800629  0.500000  1
  Si  Si24  1  0.899290  0.300629  0.000000  1
  Si  Si25  1  0.199371  0.399290  0.500000  1
  Si  Si26  1  0.800629  0.600710  0.500000  1
  Si  Si27  1  0.399290  0.199371  0.500000  1
