# generated using pymatgen
data_CeAl4Co
_symmetry_space_group_name_H-M   'P 1'
_cell_length_a   4.04543421
_cell_length_b   6.82124572
_cell_length_c   7.61485576
_cell_angle_alpha   90.00000000
_cell_angle_beta   90.00000000
_cell_angle_gamma   90.00000000
_symmetry_Int_Tables_number   1
_chemical_formula_structural   CeAl4Co
_chemical_formula_sum   'Ce2 Al8 Co2'
_cell_volume   210.13118923
_cell_formula_units_Z   2
loop_
 _symmetry_equiv_pos_site_id
 _symmetry_equiv_pos_as_xyz
  1  'x, y, z'
loop_
 _atom_site_type_symbol
 _atom_site_label
 _atom_site_symmetry_multiplicity
 _atom_site_fract_x
 _atom_site_fract_y
 _atom_site_fract_z
 _atom_site_occupancy
  Ce  Ce0  1  0.000000  0.615503  0.750000  1
  Ce  Ce1  1  0.000000  0.384497  0.250000  1
  Al  Al2  1  0.500000  0.302142  0.569044  1
  Al  Al3  1  0.500000  0.697858  0.430956  1
  Al  Al4  1  0.500000  0.302142  0.930956  1
  Al  Al5  1  0.500000  0.697858  0.069044  1
  Al  Al6  1  0.000000  0.000000  0.000000  1
  Al  Al7  1  0.000000  0.000000  0.500000  1
  Al  Al8  1  0.500000  0.044908  0.250000  1
  Al  Al9  1  0.500000  0.955093  0.750000  1
  Co  Co10  1  0.000000  0.193624  0.750000  1
  Co  Co11  1  0.000000  0.806376  0.250000  1
