# generated using pymatgen
data_K3Ce(PO4)2
_symmetry_space_group_name_H-M   'P 1'
_cell_length_a   7.55773050
_cell_length_b   5.70658611
_cell_length_c   9.68644802
_cell_angle_alpha   90.00000000
_cell_angle_beta   90.85932061
_cell_angle_gamma   90.00000000
_symmetry_Int_Tables_number   1
_chemical_formula_structural   K3Ce(PO4)2
_chemical_formula_sum   'K6 Ce2 P4 O16'
_cell_volume   417.71828090
_cell_formula_units_Z   2
loop_
 _symmetry_equiv_pos_site_id
 _symmetry_equiv_pos_as_xyz
  1  'x, y, z'
loop_
 _atom_site_type_symbol
 _atom_site_label
 _atom_site_symmetry_multiplicity
 _atom_site_fract_x
 _atom_site_fract_y
 _atom_site_fract_z
 _atom_site_occupancy
  K  K0  1  0.796196  0.250000  0.416574  1
  K  K1  1  0.508010  0.250000  0.691433  1
  K  K2  1  0.203804  0.750000  0.583426  1
  K  K3  1  0.639393  0.750000  0.905663  1
  K  K4  1  0.491990  0.750000  0.308567  1
  K  K5  1  0.360607  0.250000  0.094337  1
  Ce  Ce6  1  0.991427  0.750000  0.208840  1
  Ce  Ce7  1  0.008573  0.250000  0.791160  1
  P  P8  1  0.800162  0.250000  0.073881  1
  P  P9  1  0.764037  0.750000  0.585661  1
  P  P10  1  0.235963  0.250000  0.414339  1
  P  P11  1  0.199838  0.750000  0.926119  1
  O  O12  1  0.257971  0.973441  0.845661  1
  O  O13  1  0.284546  0.750000  0.074188  1
  O  O14  1  0.843414  0.973288  0.657789  1
  O  O15  1  0.257971  0.526559  0.845661  1
  O  O16  1  0.561739  0.750000  0.600045  1
  O  O17  1  0.715454  0.250000  0.925812  1
  O  O18  1  0.742029  0.026559  0.154339  1
  O  O19  1  0.819226  0.750000  0.430750  1
  O  O20  1  0.843414  0.526712  0.657789  1
  O  O21  1  0.156586  0.473288  0.342211  1
  O  O22  1  0.742029  0.473441  0.154339  1
  O  O23  1  0.156586  0.026712  0.342211  1
  O  O24  1  0.180774  0.250000  0.569250  1
  O  O25  1  0.995586  0.750000  0.943351  1
  O  O26  1  0.438261  0.250000  0.399955  1
  O  O27  1  0.004414  0.250000  0.056649  1
