# generated using pymatgen
data_Cu2PO4
_symmetry_space_group_name_H-M   'P 1'
_cell_length_a   6.05083584
_cell_length_b   6.34097286
_cell_length_c   9.39529056
_cell_angle_alpha   73.92303122
_cell_angle_beta   84.27762976
_cell_angle_gamma   79.37482761
_symmetry_Int_Tables_number   1
_chemical_formula_structural   Cu2PO4
_chemical_formula_sum   'Cu8 P4 O16'
_cell_volume   339.99119998
_cell_formula_units_Z   4
loop_
 _symmetry_equiv_pos_site_id
 _symmetry_equiv_pos_as_xyz
  1  'x, y, z'
loop_
 _atom_site_type_symbol
 _atom_site_label
 _atom_site_symmetry_multiplicity
 _atom_site_fract_x
 _atom_site_fract_y
 _atom_site_fract_z
 _atom_site_occupancy
  Cu  Cu0  1  0.807573  0.673989  0.029578  1
  Cu  Cu1  1  0.192427  0.326011  0.970422  1
  Cu  Cu2  1  0.975256  0.892720  0.269602  1
  Cu  Cu3  1  0.024744  0.107280  0.730398  1
  Cu  Cu4  1  0.449189  0.616041  0.365771  1
  Cu  Cu5  1  0.550811  0.383959  0.634229  1
  Cu  Cu6  1  0.568491  0.810530  0.654914  1
  Cu  Cu7  1  0.431509  0.189470  0.345086  1
  P  P8  1  0.125246  0.700489  0.615260  1
  P  P9  1  0.874754  0.299511  0.384740  1
  P  P10  1  0.288333  0.804765  0.001561  1
  P  P11  1  0.711667  0.195235  0.998439  1
  O  O12  1  0.805415  0.952433  0.091220  1
  O  O13  1  0.194585  0.047567  0.908780  1
  O  O14  1  0.754146  0.535240  0.302338  1
  O  O15  1  0.245854  0.464760  0.697662  1
  O  O16  1  0.133467  0.646763  0.977996  1
  O  O17  1  0.866533  0.353237  0.022004  1
  O  O18  1  0.152844  0.716919  0.444247  1
  O  O19  1  0.847156  0.283081  0.555753  1
  O  O20  1  0.880335  0.745036  0.668442  1
  O  O21  1  0.119665  0.254964  0.331558  1
  O  O22  1  0.525966  0.738792  0.939166  1
  O  O23  1  0.474034  0.261208  0.060834  1
  O  O24  1  0.277634  0.801760  0.167908  1
  O  O25  1  0.722366  0.198240  0.832092  1
  O  O26  1  0.249618  0.883513  0.644159  1
  O  O27  1  0.750382  0.116487  0.355841  1
