# generated using pymatgen
data_KHgC3(NO)3
_symmetry_space_group_name_H-M   'P 1'
_cell_length_a   4.10312158
_cell_length_b   10.57210742
_cell_length_c   17.93094014
_cell_angle_alpha   90.00000000
_cell_angle_beta   90.00000000
_cell_angle_gamma   90.00000000
_symmetry_Int_Tables_number   1
_chemical_formula_structural   KHgC3(NO)3
_chemical_formula_sum   'K4 Hg4 C12 N12 O12'
_cell_volume   777.81983487
_cell_formula_units_Z   4
loop_
 _symmetry_equiv_pos_site_id
 _symmetry_equiv_pos_as_xyz
  1  'x, y, z'
loop_
 _atom_site_type_symbol
 _atom_site_label
 _atom_site_symmetry_multiplicity
 _atom_site_fract_x
 _atom_site_fract_y
 _atom_site_fract_z
 _atom_site_occupancy
  K  K0  1  0.750000  0.416276  0.337790  1
  K  K1  1  0.250000  0.583724  0.662210  1
  K  K2  1  0.750000  0.916276  0.162210  1
  K  K3  1  0.250000  0.083724  0.837790  1
  Hg  Hg4  1  0.750000  0.843310  0.536820  1
  Hg  Hg5  1  0.250000  0.156690  0.463180  1
  Hg  Hg6  1  0.750000  0.343310  0.963180  1
  Hg  Hg7  1  0.250000  0.656690  0.036820  1
  C  C8  1  0.250000  0.622561  0.466894  1
  C  C9  1  0.750000  0.877439  0.966894  1
  C  C10  1  0.250000  0.122561  0.033106  1
  C  C11  1  0.750000  0.377439  0.533106  1
  C  C12  1  0.250000  0.124172  0.627487  1
  C  C13  1  0.750000  0.875828  0.372513  1
  C  C14  1  0.250000  0.624172  0.872513  1
  C  C15  1  0.750000  0.375828  0.127487  1
  C  C16  1  0.250000  0.626396  0.200859  1
  C  C17  1  0.750000  0.373604  0.799141  1
  C  C18  1  0.250000  0.126396  0.299141  1
  C  C19  1  0.750000  0.873604  0.700859  1
  N  N20  1  0.250000  0.706305  0.152291  1
  N  N21  1  0.750000  0.293695  0.847709  1
  N  N22  1  0.250000  0.206305  0.347709  1
  N  N23  1  0.750000  0.793695  0.652291  1
  N  N24  1  0.750000  0.294168  0.487102  1
  N  N25  1  0.250000  0.705832  0.512898  1
  N  N26  1  0.750000  0.433482  0.068915  1
  N  N27  1  0.250000  0.566518  0.931085  1
  N  N28  1  0.750000  0.794168  0.012898  1
  N  N29  1  0.250000  0.205832  0.987102  1
  N  N30  1  0.750000  0.933482  0.431085  1
  N  N31  1  0.250000  0.066518  0.568915  1
  O  O32  1  0.250000  0.552503  0.251590  1
  O  O33  1  0.750000  0.447497  0.748410  1
  O  O34  1  0.750000  0.947497  0.751590  1
  O  O35  1  0.750000  0.325963  0.187552  1
  O  O36  1  0.750000  0.962210  0.921378  1
  O  O37  1  0.250000  0.037790  0.078622  1
  O  O38  1  0.750000  0.462210  0.578622  1
  O  O39  1  0.250000  0.537790  0.421378  1
  O  O40  1  0.250000  0.674037  0.812448  1
  O  O41  1  0.750000  0.825963  0.312448  1
  O  O42  1  0.250000  0.174037  0.687552  1
  O  O43  1  0.250000  0.052503  0.248410  1
