# generated using pymatgen
data_Hf3(CuSi)4
_symmetry_space_group_name_H-M   'P 1'
_cell_length_a   7.50748767
_cell_length_b   7.50748767
_cell_length_c   7.50748767
_cell_angle_alpha   149.74038803
_cell_angle_beta   129.76779907
_cell_angle_gamma   59.77289240
_symmetry_Int_Tables_number   1
_chemical_formula_structural   Hf3(CuSi)4
_chemical_formula_sum   'Hf3 Cu4 Si4'
_cell_volume   162.57453055
_cell_formula_units_Z   1
loop_
 _symmetry_equiv_pos_site_id
 _symmetry_equiv_pos_as_xyz
  1  'x, y, z'
loop_
 _atom_site_type_symbol
 _atom_site_label
 _atom_site_symmetry_multiplicity
 _atom_site_fract_x
 _atom_site_fract_y
 _atom_site_fract_z
 _atom_site_occupancy
  Hf  Hf0  1  0.876678  0.876678  0.000000  1
  Hf  Hf1  1  0.123322  0.123322  0.000000  1
  Hf  Hf2  1  0.500000  1.000000  0.500000  1
  Cu  Cu3  1  0.523358  0.329835  0.193523  1
  Cu  Cu4  1  0.863688  0.670165  0.193523  1
  Cu  Cu5  1  0.136312  0.329835  0.806477  1
  Cu  Cu6  1  0.476642  0.670165  0.806477  1
  Si  Si7  1  0.808225  0.500000  0.308225  1
  Si  Si8  1  0.191775  0.500000  0.691775  1
  Si  Si9  1  0.284259  0.784259  0.500000  1
  Si  Si10  1  0.715741  0.215741  0.500000  1
