# generated using pymatgen
data_Ti2Ni
_symmetry_space_group_name_H-M   'P 1'
_cell_length_a   7.97261220
_cell_length_b   7.97261220
_cell_length_c   7.97261220
_cell_angle_alpha   60.00000000
_cell_angle_beta   60.00000000
_cell_angle_gamma   60.00000000
_symmetry_Int_Tables_number   1
_chemical_formula_structural   Ti2Ni
_chemical_formula_sum   'Ti16 Ni8'
_cell_volume   358.33309582
_cell_formula_units_Z   8
loop_
 _symmetry_equiv_pos_site_id
 _symmetry_equiv_pos_as_xyz
  1  'x, y, z'
loop_
 _atom_site_type_symbol
 _atom_site_label
 _atom_site_symmetry_multiplicity
 _atom_site_fract_x
 _atom_site_fract_y
 _atom_site_fract_z
 _atom_site_occupancy
  Ti  Ti0  1  0.625000  0.625000  0.625000  1
  Ti  Ti1  1  0.125000  0.625000  0.625000  1
  Ti  Ti2  1  0.625000  0.625000  0.125000  1
  Ti  Ti3  1  0.625000  0.125000  0.625000  1
  Ti  Ti4  1  0.812621  0.187379  0.187379  1
  Ti  Ti5  1  0.187379  0.812621  0.812621  1
  Ti  Ti6  1  0.187379  0.187379  0.812621  1
  Ti  Ti7  1  0.812621  0.812621  0.187379  1
  Ti  Ti8  1  0.812621  0.187379  0.812621  1
  Ti  Ti9  1  0.187379  0.812621  0.187379  1
  Ti  Ti10  1  0.437379  0.062621  0.062621  1
  Ti  Ti11  1  0.062621  0.437379  0.437379  1
  Ti  Ti12  1  0.062621  0.062621  0.437379  1
  Ti  Ti13  1  0.437379  0.437379  0.062621  1
  Ti  Ti14  1  0.437379  0.062621  0.437379  1
  Ti  Ti15  1  0.062621  0.437379  0.062621  1
  Ni  Ni16  1  0.411519  0.411519  0.411519  1
  Ni  Ni17  1  0.765444  0.411519  0.411519  1
  Ni  Ni18  1  0.411519  0.411519  0.765444  1
  Ni  Ni19  1  0.411519  0.765444  0.411519  1
  Ni  Ni20  1  0.838481  0.838481  0.838481  1
  Ni  Ni21  1  0.484556  0.838481  0.838481  1
  Ni  Ni22  1  0.838481  0.838481  0.484556  1
  Ni  Ni23  1  0.838481  0.484556  0.838481  1
