# generated using pymatgen
data_BaAl2(SiO4)2
_symmetry_space_group_name_H-M   'P 1'
_cell_length_a   5.34500960
_cell_length_b   5.34500960
_cell_length_c   7.96328925
_cell_angle_alpha   90.00000000
_cell_angle_beta   90.00000000
_cell_angle_gamma   120.00000000
_symmetry_Int_Tables_number   1
_chemical_formula_structural   BaAl2(SiO4)2
_chemical_formula_sum   'Ba1 Al2 Si2 O8'
_cell_volume   197.02443962
_cell_formula_units_Z   1
loop_
 _symmetry_equiv_pos_site_id
 _symmetry_equiv_pos_as_xyz
  1  'x, y, z'
loop_
 _atom_site_type_symbol
 _atom_site_label
 _atom_site_symmetry_multiplicity
 _atom_site_fract_x
 _atom_site_fract_y
 _atom_site_fract_z
 _atom_site_occupancy
  Ba  Ba0  1  0.000000  0.000000  0.000000  1
  Al  Al1  1  0.666667  0.333333  0.703067  1
  Al  Al2  1  0.333333  0.666667  0.296933  1
  Si  Si3  1  0.666667  0.333333  0.286472  1
  Si  Si4  1  0.333333  0.666667  0.713528  1
  O  O5  1  0.666667  0.333333  0.487414  1
  O  O6  1  0.333333  0.666667  0.512586  1
  O  O7  1  0.562372  0.988771  0.790429  1
  O  O8  1  0.426400  0.437628  0.790429  1
  O  O9  1  0.011229  0.573600  0.790429  1
  O  O10  1  0.437628  0.011229  0.209571  1
  O  O11  1  0.573600  0.562372  0.209571  1
  O  O12  1  0.988771  0.426400  0.209571  1
