# generated using pymatgen
data_PrCrO4
_symmetry_space_group_name_H-M   'P 1'
_cell_length_a   6.20393182
_cell_length_b   6.20393182
_cell_length_c   6.20393182
_cell_angle_alpha   105.83989963
_cell_angle_beta   105.83989963
_cell_angle_gamma   117.00700941
_symmetry_Int_Tables_number   1
_chemical_formula_structural   PrCrO4
_chemical_formula_sum   'Pr2 Cr2 O8'
_cell_volume   181.39984990
_cell_formula_units_Z   2
loop_
 _symmetry_equiv_pos_site_id
 _symmetry_equiv_pos_as_xyz
  1  'x, y, z'
loop_
 _atom_site_type_symbol
 _atom_site_label
 _atom_site_symmetry_multiplicity
 _atom_site_fract_x
 _atom_site_fract_y
 _atom_site_fract_z
 _atom_site_occupancy
  Pr  Pr0  1  0.000000  0.000000  0.000000  1
  Pr  Pr1  1  0.250000  0.750000  0.500000  1
  Cr  Cr2  1  0.750000  0.250000  0.500000  1
  Cr  Cr3  1  0.500000  0.500000  0.000000  1
  O  O4  1  0.846980  0.667449  0.179530  1
  O  O5  1  0.917449  0.237919  0.320470  1
  O  O6  1  0.917449  0.596980  0.679530  1
  O  O7  1  0.487919  0.667449  0.820470  1
  O  O8  1  0.332551  0.512081  0.179530  1
  O  O9  1  0.403020  0.082551  0.320470  1
  O  O10  1  0.762081  0.082551  0.679530  1
  O  O11  1  0.332551  0.153020  0.820470  1
