# generated using pymatgen
data_LiRh3
_symmetry_space_group_name_H-M   'P 1'
_cell_length_a   5.11760393
_cell_length_b   5.11760393
_cell_length_c   5.11760393
_cell_angle_alpha   149.43402591
_cell_angle_beta   125.52487634
_cell_angle_gamma   63.76201881
_symmetry_Int_Tables_number   1
_chemical_formula_structural   LiRh3
_chemical_formula_sum   'Li1 Rh3'
_cell_volume   54.91980092
_cell_formula_units_Z   1
loop_
 _symmetry_equiv_pos_site_id
 _symmetry_equiv_pos_as_xyz
  1  'x, y, z'
loop_
 _atom_site_type_symbol
 _atom_site_label
 _atom_site_symmetry_multiplicity
 _atom_site_fract_x
 _atom_site_fract_y
 _atom_site_fract_z
 _atom_site_occupancy
  Li  Li0  1  0.984735  0.000000  0.984735  1
  Rh  Rh1  1  0.494548  0.500000  0.994548  1
  Rh  Rh2  1  0.064495  0.755636  0.308859  1
  Rh  Rh3  1  0.553223  0.244364  0.308859  1
