# generated using pymatgen
data_K2ThF6
_symmetry_space_group_name_H-M   'P 1'
_cell_length_a   6.68069169
_cell_length_b   6.68069169
_cell_length_c   3.85777641
_cell_angle_alpha   90.00000000
_cell_angle_beta   90.00000000
_cell_angle_gamma   120.00000000
_symmetry_Int_Tables_number   1
_chemical_formula_structural   K2ThF6
_chemical_formula_sum   'K2 Th1 F6'
_cell_volume   149.11129579
_cell_formula_units_Z   1
loop_
 _symmetry_equiv_pos_site_id
 _symmetry_equiv_pos_as_xyz
  1  'x, y, z'
loop_
 _atom_site_type_symbol
 _atom_site_label
 _atom_site_symmetry_multiplicity
 _atom_site_fract_x
 _atom_site_fract_y
 _atom_site_fract_z
 _atom_site_occupancy
  K  K0  1  0.333333  0.666667  0.500000  1
  K  K1  1  0.666667  0.333333  0.500000  1
  Th  Th2  1  0.000000  0.000000  0.000000  1
  F  F3  1  0.000000  0.227981  0.500000  1
  F  F4  1  0.772019  0.772019  0.500000  1
  F  F5  1  0.227981  0.000000  0.500000  1
  F  F6  1  0.655971  0.000000  0.000000  1
  F  F7  1  0.344029  0.344029  0.000000  1
  F  F8  1  0.000000  0.655971  0.000000  1
