# generated using pymatgen
data_TmCu(BO2)5
_symmetry_space_group_name_H-M   'P 1'
_cell_length_a   8.27216139
_cell_length_b   8.27216139
_cell_length_c   8.27216139
_cell_angle_alpha   135.18798496
_cell_angle_beta   117.75476584
_cell_angle_gamma   79.91487712
_symmetry_Int_Tables_number   1
_chemical_formula_structural   TmCu(BO2)5
_chemical_formula_sum   'Tm2 Cu2 B10 O20'
_cell_volume   341.93181954
_cell_formula_units_Z   2
loop_
 _symmetry_equiv_pos_site_id
 _symmetry_equiv_pos_as_xyz
  1  'x, y, z'
loop_
 _atom_site_type_symbol
 _atom_site_label
 _atom_site_symmetry_multiplicity
 _atom_site_fract_x
 _atom_site_fract_y
 _atom_site_fract_z
 _atom_site_occupancy
  Tm  Tm0  1  0.250000  0.750000  0.500000  1
  Tm  Tm1  1  0.750000  0.250000  0.500000  1
  Cu  Cu2  1  0.000000  0.500000  0.500000  1
  Cu  Cu3  1  0.500000  0.000000  0.500000  1
  B  B4  1  0.709077  0.016783  0.924366  1
  B  B5  1  0.250000  0.250000  0.000000  1
  B  B6  1  0.750000  0.750000  0.000000  1
  B  B7  1  0.907583  0.215290  0.924366  1
  B  B8  1  0.290923  0.983217  0.075634  1
  B  B9  1  0.092417  0.784710  0.075634  1
  B  B10  1  0.209077  0.284710  0.692293  1
  B  B11  1  0.592417  0.516783  0.307707  1
  B  B12  1  0.790923  0.715290  0.307707  1
  B  B13  1  0.407583  0.483217  0.692293  1
  O  O14  1  0.769322  0.173800  0.717359  1
  O  O15  1  0.956441  0.673800  0.404479  1
  O  O16  1  0.269322  0.551962  0.595521  1
  O  O17  1  0.456441  0.051962  0.282641  1
  O  O18  1  0.543559  0.948038  0.717359  1
  O  O19  1  0.230678  0.826200  0.282641  1
  O  O20  1  0.043559  0.326200  0.595521  1
  O  O21  1  0.730678  0.448038  0.404479  1
  O  O22  1  0.719949  0.963754  0.055719  1
  O  O23  1  0.908035  0.664231  0.944281  1
  O  O24  1  0.219949  0.164231  0.756195  1
  O  O25  1  0.408035  0.463754  0.243805  1
  O  O26  1  0.626104  0.647757  0.273861  1
  O  O27  1  0.373896  0.352243  0.726139  1
  O  O28  1  0.126104  0.852243  0.978346  1
  O  O29  1  0.873896  0.147757  0.021654  1
  O  O30  1  0.780051  0.835769  0.243805  1
  O  O31  1  0.591965  0.536246  0.756195  1
  O  O32  1  0.280051  0.036246  0.944281  1
  O  O33  1  0.091965  0.335769  0.055719  1
