# generated using pymatgen
data_Sb7Mo3
_symmetry_space_group_name_H-M   'P 1'
_cell_length_a   8.36984750
_cell_length_b   8.36984750
_cell_length_c   8.36984750
_cell_angle_alpha   109.47122063
_cell_angle_beta   109.47122063
_cell_angle_gamma   109.47122063
_symmetry_Int_Tables_number   1
_chemical_formula_structural   Sb7Mo3
_chemical_formula_sum   'Sb14 Mo6'
_cell_volume   451.36797716
_cell_formula_units_Z   2
loop_
 _symmetry_equiv_pos_site_id
 _symmetry_equiv_pos_as_xyz
  1  'x, y, z'
loop_
 _atom_site_type_symbol
 _atom_site_label
 _atom_site_symmetry_multiplicity
 _atom_site_fract_x
 _atom_site_fract_y
 _atom_site_fract_z
 _atom_site_occupancy
  Sb  Sb0  1  0.500000  0.750000  0.250000  1
  Sb  Sb1  1  0.750000  0.500000  0.250000  1
  Sb  Sb2  1  0.250000  0.500000  0.750000  1
  Sb  Sb3  1  0.750000  0.250000  0.500000  1
  Sb  Sb4  1  0.250000  0.750000  0.500000  1
  Sb  Sb5  1  0.500000  0.250000  0.750000  1
  Sb  Sb6  1  0.321585  0.321585  0.321585  1
  Sb  Sb7  1  0.321585  0.000000  0.000000  1
  Sb  Sb8  1  0.000000  0.321585  0.000000  1
  Sb  Sb9  1  0.000000  0.000000  0.321585  1
  Sb  Sb10  1  0.000000  0.678415  0.000000  1
  Sb  Sb11  1  1.000000  0.000000  0.678415  1
  Sb  Sb12  1  0.678415  0.000000  0.000000  1
  Sb  Sb13  1  0.678415  0.678415  0.678415  1
  Mo  Mo14  1  1.000000  0.342200  0.342200  1
  Mo  Mo15  1  0.342200  1.000000  0.342200  1
  Mo  Mo16  1  0.657800  1.000000  0.657800  1
  Mo  Mo17  1  0.657800  0.657800  0.000000  1
  Mo  Mo18  1  0.342200  0.342200  0.000000  1
  Mo  Mo19  1  1.000000  0.657800  0.657800  1
