# generated using pymatgen
data_K3NdV2O8
_symmetry_space_group_name_H-M   'P 1'
_cell_length_a   7.68588771
_cell_length_b   6.06988705
_cell_length_c   10.04907691
_cell_angle_alpha   90.00000000
_cell_angle_beta   90.98207125
_cell_angle_gamma   90.00000000
_symmetry_Int_Tables_number   1
_chemical_formula_structural   K3NdV2O8
_chemical_formula_sum   'K6 Nd2 V4 O16'
_cell_volume   468.74539664
_cell_formula_units_Z   2
loop_
 _symmetry_equiv_pos_site_id
 _symmetry_equiv_pos_as_xyz
  1  'x, y, z'
loop_
 _atom_site_type_symbol
 _atom_site_label
 _atom_site_symmetry_multiplicity
 _atom_site_fract_x
 _atom_site_fract_y
 _atom_site_fract_z
 _atom_site_occupancy
  K  K0  1  0.141028  0.250000  0.916174  1
  K  K1  1  0.858972  0.750000  0.083826  1
  K  K2  1  0.692388  0.250000  0.581906  1
  K  K3  1  0.307612  0.750000  0.418094  1
  K  K4  1  0.998371  0.250000  0.307284  1
  K  K5  1  0.001629  0.750000  0.692716  1
  Nd  Nd6  1  0.506290  0.750000  0.788606  1
  Nd  Nd7  1  0.493710  0.250000  0.211394  1
  V  V8  1  0.261045  0.250000  0.587346  1
  V  V9  1  0.738955  0.750000  0.412654  1
  V  V10  1  0.689992  0.250000  0.925194  1
  V  V11  1  0.310008  0.750000  0.074806  1
  O  O12  1  0.659502  0.986937  0.331371  1
  O  O13  1  0.340498  0.486937  0.668629  1
  O  O14  1  0.340498  0.013063  0.668629  1
  O  O15  1  0.659502  0.513063  0.331371  1
  O  O16  1  0.329269  0.250000  0.421940  1
  O  O17  1  0.670731  0.750000  0.578060  1
  O  O18  1  0.038983  0.250000  0.592466  1
  O  O19  1  0.961017  0.750000  0.407534  1
  O  O20  1  0.258630  0.986290  0.166328  1
  O  O21  1  0.741370  0.486290  0.833672  1
  O  O22  1  0.741370  0.013710  0.833672  1
  O  O23  1  0.258630  0.513710  0.166328  1
  O  O24  1  0.527558  0.750000  0.034878  1
  O  O25  1  0.472442  0.250000  0.965122  1
  O  O26  1  0.205959  0.750000  0.919442  1
  O  O27  1  0.794041  0.250000  0.080558  1
