# generated using pymatgen
data_Ho2Al
_symmetry_space_group_name_H-M   'P 1'
_cell_length_a   5.07785626
_cell_length_b   6.52911648
_cell_length_c   9.41207285
_cell_angle_alpha   90.00000000
_cell_angle_beta   90.00000000
_cell_angle_gamma   90.00000000
_symmetry_Int_Tables_number   1
_chemical_formula_structural   Ho2Al
_chemical_formula_sum   'Ho8 Al4'
_cell_volume   312.04706315
_cell_formula_units_Z   4
loop_
 _symmetry_equiv_pos_site_id
 _symmetry_equiv_pos_as_xyz
  1  'x, y, z'
loop_
 _atom_site_type_symbol
 _atom_site_label
 _atom_site_symmetry_multiplicity
 _atom_site_fract_x
 _atom_site_fract_y
 _atom_site_fract_z
 _atom_site_occupancy
  Ho  Ho0  1  0.750000  0.187823  0.072795  1
  Ho  Ho1  1  0.250000  0.812177  0.927205  1
  Ho  Ho2  1  0.750000  0.687823  0.427205  1
  Ho  Ho3  1  0.250000  0.312177  0.572795  1
  Ho  Ho4  1  0.750000  0.026991  0.710089  1
  Ho  Ho5  1  0.250000  0.973009  0.289911  1
  Ho  Ho6  1  0.750000  0.526991  0.789911  1
  Ho  Ho7  1  0.250000  0.473009  0.210089  1
  Al  Al8  1  0.750000  0.708429  0.102724  1
  Al  Al9  1  0.250000  0.291571  0.897276  1
  Al  Al10  1  0.750000  0.208429  0.397276  1
  Al  Al11  1  0.250000  0.791571  0.602724  1
