# generated using pymatgen
data_YTlPd
_symmetry_space_group_name_H-M   'P 1'
_cell_length_a   7.89348974
_cell_length_b   7.89348974
_cell_length_c   3.79249641
_cell_angle_alpha   90.00000000
_cell_angle_beta   90.00000000
_cell_angle_gamma   120.00000000
_symmetry_Int_Tables_number   1
_chemical_formula_structural   YTlPd
_chemical_formula_sum   'Y3 Tl3 Pd3'
_cell_volume   204.64159293
_cell_formula_units_Z   3
loop_
 _symmetry_equiv_pos_site_id
 _symmetry_equiv_pos_as_xyz
  1  'x, y, z'
loop_
 _atom_site_type_symbol
 _atom_site_label
 _atom_site_symmetry_multiplicity
 _atom_site_fract_x
 _atom_site_fract_y
 _atom_site_fract_z
 _atom_site_occupancy
  Y  Y0  1  0.000000  0.598869  0.500000  1
  Y  Y1  1  0.401131  0.401131  0.500000  1
  Y  Y2  1  0.598869  0.000000  0.500000  1
  Tl  Tl3  1  0.000000  0.267868  0.000000  1
  Tl  Tl4  1  0.267868  0.000000  0.000000  1
  Tl  Tl5  1  0.732132  0.732132  0.000000  1
  Pd  Pd6  1  0.333333  0.666667  0.000000  1
  Pd  Pd7  1  0.000000  0.000000  0.500000  1
  Pd  Pd8  1  0.666667  0.333333  0.000000  1
