# generated using pymatgen
data_Rb5Ti6AgSe27
_symmetry_space_group_name_H-M   'P 1'
_cell_length_a   13.74126061
_cell_length_b   13.74126061
_cell_length_c   14.06205813
_cell_angle_alpha   90.00000000
_cell_angle_beta   90.00000000
_cell_angle_gamma   120.00000000
_symmetry_Int_Tables_number   1
_chemical_formula_structural   Rb5Ti6AgSe27
_chemical_formula_sum   'Rb10 Ti12 Ag2 Se54'
_cell_volume   2299.49607653
_cell_formula_units_Z   2
loop_
 _symmetry_equiv_pos_site_id
 _symmetry_equiv_pos_as_xyz
  1  'x, y, z'
loop_
 _atom_site_type_symbol
 _atom_site_label
 _atom_site_symmetry_multiplicity
 _atom_site_fract_x
 _atom_site_fract_y
 _atom_site_fract_z
 _atom_site_occupancy
  Rb  Rb0  1  0.661384  0.624921  0.738449  1
  Rb  Rb1  1  0.375079  0.036463  0.738449  1
  Rb  Rb2  1  0.333333  0.666667  0.063700  1
  Rb  Rb3  1  0.666667  0.333333  0.563700  1
  Rb  Rb4  1  0.333333  0.666667  0.425116  1
  Rb  Rb5  1  0.666667  0.333333  0.925116  1
  Rb  Rb6  1  0.963537  0.338616  0.738449  1
  Rb  Rb7  1  0.036463  0.375079  0.238449  1
  Rb  Rb8  1  0.624921  0.661384  0.238449  1
  Rb  Rb9  1  0.338616  0.963537  0.238449  1
  Ti  Ti10  1  0.986577  0.666668  0.615196  1
  Ti  Ti11  1  0.016218  0.670748  0.374365  1
  Ti  Ti12  1  0.329252  0.345470  0.374365  1
  Ti  Ti13  1  0.654530  0.983782  0.374365  1
  Ti  Ti14  1  0.670748  0.016218  0.874365  1
  Ti  Ti15  1  0.345470  0.329252  0.874365  1
  Ti  Ti16  1  0.983782  0.654530  0.874365  1
  Ti  Ti17  1  0.013423  0.680091  0.115196  1
  Ti  Ti18  1  0.319909  0.333332  0.115196  1
  Ti  Ti19  1  0.666668  0.986577  0.115196  1
  Ti  Ti20  1  0.680091  0.013423  0.615196  1
  Ti  Ti21  1  0.333332  0.319909  0.615196  1
  Ag  Ag22  1  0.000000  0.000000  0.988194  1
  Ag  Ag23  1  0.000000  0.000000  0.488194  1
  Se  Se24  1  0.846230  0.660826  0.990270  1
  Se  Se25  1  0.508342  0.816164  0.657375  1
  Se  Se26  1  0.183836  0.692178  0.657375  1
  Se  Se27  1  0.307822  0.491658  0.657375  1
  Se  Se28  1  0.816164  0.508342  0.157375  1
  Se  Se29  1  0.692178  0.183836  0.157375  1
  Se  Se30  1  0.491658  0.307822  0.157375  1
  Se  Se31  1  0.460690  0.872387  0.880446  1
  Se  Se32  1  0.127613  0.588303  0.880446  1
  Se  Se33  1  0.411697  0.539310  0.880446  1
  Se  Se34  1  0.872387  0.460690  0.380446  1
  Se  Se35  1  0.588303  0.127613  0.380446  1
  Se  Se36  1  0.985012  0.513194  0.001124  1
  Se  Se37  1  0.486806  0.471818  0.001124  1
  Se  Se38  1  0.528182  0.014988  0.001124  1
  Se  Se39  1  0.513194  0.985012  0.501124  1
  Se  Se40  1  0.471818  0.486806  0.501124  1
  Se  Se41  1  0.014988  0.528182  0.501124  1
  Se  Se42  1  0.922794  0.804638  0.869379  1
  Se  Se43  1  0.195362  0.118156  0.869379  1
  Se  Se44  1  0.881844  0.077206  0.869379  1
  Se  Se45  1  0.804638  0.922794  0.369379  1
  Se  Se46  1  0.118156  0.195362  0.369379  1
  Se  Se47  1  0.077206  0.881844  0.369379  1
  Se  Se48  1  0.902763  0.793891  0.599357  1
  Se  Se49  1  0.206109  0.108872  0.599357  1
  Se  Se50  1  0.891128  0.097237  0.599357  1
  Se  Se51  1  0.793891  0.902763  0.099357  1
  Se  Se52  1  0.108872  0.206109  0.099357  1
  Se  Se53  1  0.097237  0.891128  0.099357  1
  Se  Se54  1  0.861831  0.526577  0.741017  1
  Se  Se55  1  0.473423  0.335254  0.741017  1
  Se  Se56  1  0.664746  0.138169  0.741017  1
  Se  Se57  1  0.526577  0.861831  0.241017  1
  Se  Se58  1  0.335254  0.473423  0.241017  1
  Se  Se59  1  0.138169  0.664746  0.241017  1
  Se  Se60  1  0.539310  0.411697  0.380446  1
  Se  Se61  1  0.339174  0.185404  0.990270  1
  Se  Se62  1  0.814596  0.153770  0.990270  1
  Se  Se63  1  0.660826  0.846230  0.490270  1
  Se  Se64  1  0.185404  0.339174  0.490270  1
  Se  Se65  1  0.153770  0.814596  0.490270  1
  Se  Se66  1  0.681320  0.885347  0.745700  1
  Se  Se67  1  0.114653  0.795973  0.745700  1
  Se  Se68  1  0.204027  0.318680  0.745700  1
  Se  Se69  1  0.885347  0.681320  0.245700  1
  Se  Se70  1  0.358966  0.200784  0.490578  1
  Se  Se71  1  0.318680  0.204027  0.245700  1
  Se  Se72  1  0.641034  0.841818  0.990578  1
  Se  Se73  1  0.158182  0.799216  0.990578  1
  Se  Se74  1  0.200784  0.358966  0.990578  1
  Se  Se75  1  0.841818  0.641034  0.490578  1
  Se  Se76  1  0.799216  0.158182  0.490578  1
  Se  Se77  1  0.795973  0.114653  0.245700  1
