# generated using pymatgen
data_Mg3Pt
_symmetry_space_group_name_H-M   'P 1'
_cell_length_a   7.94881984
_cell_length_b   7.94881984
_cell_length_c   8.42997687
_cell_angle_alpha   90.00000000
_cell_angle_beta   90.00000000
_cell_angle_gamma   120.00000000
_symmetry_Int_Tables_number   1
_chemical_formula_structural   Mg3Pt
_chemical_formula_sum   'Mg18 Pt6'
_cell_volume   461.27755414
_cell_formula_units_Z   6
loop_
 _symmetry_equiv_pos_site_id
 _symmetry_equiv_pos_as_xyz
  1  'x, y, z'
loop_
 _atom_site_type_symbol
 _atom_site_label
 _atom_site_symmetry_multiplicity
 _atom_site_fract_x
 _atom_site_fract_y
 _atom_site_fract_z
 _atom_site_occupancy
  Mg  Mg0  1  0.000000  0.000000  0.324587  1
  Mg  Mg1  1  0.000000  0.000000  0.824587  1
  Mg  Mg2  1  0.333333  0.666667  0.213093  1
  Mg  Mg3  1  0.666667  0.333333  0.713093  1
  Mg  Mg4  1  0.333333  0.666667  0.713093  1
  Mg  Mg5  1  0.666667  0.333333  0.213093  1
  Mg  Mg6  1  0.282733  0.282733  0.085478  1
  Mg  Mg7  1  0.000000  0.282733  0.585478  1
  Mg  Mg8  1  0.282733  0.000000  0.585478  1
  Mg  Mg9  1  0.717267  0.000000  0.085478  1
  Mg  Mg10  1  0.000000  0.717267  0.085478  1
  Mg  Mg11  1  0.717267  0.717267  0.585478  1
  Mg  Mg12  1  0.374747  0.374747  0.429160  1
  Mg  Mg13  1  0.000000  0.374747  0.929160  1
  Mg  Mg14  1  0.374747  0.000000  0.929160  1
  Mg  Mg15  1  0.625253  0.000000  0.429160  1
  Mg  Mg16  1  0.000000  0.625253  0.429160  1
  Mg  Mg17  1  0.625253  0.625253  0.929160  1
  Pt  Pt18  1  0.327628  0.327628  0.757037  1
  Pt  Pt19  1  0.000000  0.327628  0.257037  1
  Pt  Pt20  1  0.327628  0.000000  0.257037  1
  Pt  Pt21  1  0.672372  0.000000  0.757037  1
  Pt  Pt22  1  0.000000  0.672372  0.757037  1
  Pt  Pt23  1  0.672372  0.672372  0.257037  1
