# generated using pymatgen
data_ScMnO3
_symmetry_space_group_name_H-M   'P 1'
_cell_length_a   5.94047360
_cell_length_b   5.94047360
_cell_length_c   11.29346683
_cell_angle_alpha   90.00000000
_cell_angle_beta   90.00000000
_cell_angle_gamma   120.00000000
_symmetry_Int_Tables_number   1
_chemical_formula_structural   ScMnO3
_chemical_formula_sum   'Sc6 Mn6 O18'
_cell_volume   345.14378130
_cell_formula_units_Z   6
loop_
 _symmetry_equiv_pos_site_id
 _symmetry_equiv_pos_as_xyz
  1  'x, y, z'
loop_
 _atom_site_type_symbol
 _atom_site_label
 _atom_site_symmetry_multiplicity
 _atom_site_fract_x
 _atom_site_fract_y
 _atom_site_fract_z
 _atom_site_occupancy
  Sc  Sc0  1  0.000000  0.000000  0.274204  1
  Sc  Sc1  1  0.000000  0.000000  0.774204  1
  Sc  Sc2  1  0.333333  0.666667  0.230055  1
  Sc  Sc3  1  0.666667  0.333333  0.730055  1
  Sc  Sc4  1  0.333333  0.666667  0.730055  1
  Sc  Sc5  1  0.666667  0.333333  0.230055  1
  Mn  Mn6  1  0.332916  0.000000  0.000047  1
  Mn  Mn7  1  0.332916  0.332916  0.500047  1
  Mn  Mn8  1  0.000000  0.667084  0.500047  1
  Mn  Mn9  1  0.000000  0.332916  0.000047  1
  Mn  Mn10  1  0.667084  0.667084  0.000047  1
  Mn  Mn11  1  0.667084  0.000000  0.500047  1
  O  O12  1  0.666667  0.333333  0.028037  1
  O  O13  1  0.333333  0.666667  0.528037  1
  O  O14  1  0.666667  0.333333  0.528037  1
  O  O15  1  0.333333  0.666667  0.028037  1
  O  O16  1  0.000000  0.000000  0.966597  1
  O  O17  1  0.000000  0.000000  0.466597  1
  O  O18  1  0.365863  0.000000  0.831648  1
  O  O19  1  0.365863  0.365863  0.331648  1
  O  O20  1  0.000000  0.634137  0.331648  1
  O  O21  1  0.000000  0.365863  0.831648  1
  O  O22  1  0.634137  0.634137  0.831648  1
  O  O23  1  0.634137  0.000000  0.331648  1
  O  O24  1  0.302350  0.000000  0.169410  1
  O  O25  1  0.302350  0.302350  0.669410  1
  O  O26  1  0.000000  0.697650  0.669410  1
  O  O27  1  0.000000  0.302350  0.169410  1
  O  O28  1  0.697650  0.697650  0.169410  1
  O  O29  1  0.697650  0.000000  0.669410  1
