# generated using pymatgen
data_Rb2NaHoF6
_symmetry_space_group_name_H-M   'P 1'
_cell_length_a   6.35752103
_cell_length_b   6.35752103
_cell_length_c   6.35752103
_cell_angle_alpha   120.24685240
_cell_angle_beta   120.24685240
_cell_angle_gamma   89.57296823
_symmetry_Int_Tables_number   1
_chemical_formula_structural   Rb2NaHoF6
_chemical_formula_sum   'Rb2 Na1 Ho1 F6'
_cell_volume   181.01388462
_cell_formula_units_Z   1
loop_
 _symmetry_equiv_pos_site_id
 _symmetry_equiv_pos_as_xyz
  1  'x, y, z'
loop_
 _atom_site_type_symbol
 _atom_site_label
 _atom_site_symmetry_multiplicity
 _atom_site_fract_x
 _atom_site_fract_y
 _atom_site_fract_z
 _atom_site_occupancy
  Rb  Rb0  1  0.750000  0.250000  0.500000  1
  Rb  Rb1  1  0.250000  0.750000  0.500000  1
  Na  Na2  1  0.000000  0.000000  0.000000  1
  Ho  Ho3  1  0.500000  0.500000  0.000000  1
  F  F4  1  0.740940  0.740940  0.000000  1
  F  F5  1  0.259060  0.259060  0.000000  1
  F  F6  1  0.710656  0.770907  0.481564  1
  F  F7  1  0.770907  0.289344  0.060251  1
  F  F8  1  0.289344  0.229093  0.518436  1
  F  F9  1  0.229093  0.710656  0.939749  1
