# generated using pymatgen
data_Al4Co(BO5)2
_symmetry_space_group_name_H-M   'P 1'
_cell_length_a   7.26860435
_cell_length_b   4.39909960
_cell_length_c   9.61798209
_cell_angle_alpha   90.00000000
_cell_angle_beta   108.43613975
_cell_angle_gamma   90.00000000
_symmetry_Int_Tables_number   1
_chemical_formula_structural   Al4Co(BO5)2
_chemical_formula_sum   'Al8 Co2 B4 O20'
_cell_volume   291.75414444
_cell_formula_units_Z   2
loop_
 _symmetry_equiv_pos_site_id
 _symmetry_equiv_pos_as_xyz
  1  'x, y, z'
loop_
 _atom_site_type_symbol
 _atom_site_label
 _atom_site_symmetry_multiplicity
 _atom_site_fract_x
 _atom_site_fract_y
 _atom_site_fract_z
 _atom_site_occupancy
  Al  Al0  1  0.296778  0.521581  0.668081  1
  Al  Al1  1  0.703222  0.478419  0.331919  1
  Al  Al2  1  0.925101  0.005617  0.608672  1
  Al  Al3  1  0.074899  0.994383  0.391328  1
  Al  Al4  1  0.074899  0.505617  0.891328  1
  Al  Al5  1  0.925101  0.494383  0.108672  1
  Al  Al6  1  0.703222  0.021581  0.831919  1
  Al  Al7  1  0.296778  0.978419  0.168081  1
  Co  Co8  1  0.500000  0.000000  0.500000  1
  Co  Co9  1  0.500000  0.500000  0.000000  1
  B  B10  1  0.708869  0.571222  0.648744  1
  B  B11  1  0.291131  0.428778  0.351256  1
  B  B12  1  0.708869  0.928778  0.148744  1
  B  B13  1  0.291131  0.071222  0.851256  1
  O  O14  1  0.281106  0.741870  0.844342  1
  O  O15  1  0.541316  0.708569  0.684986  1
  O  O16  1  0.281106  0.758130  0.344342  1
  O  O17  1  0.112718  0.784662  0.561359  1
  O  O18  1  0.711772  0.698989  0.504377  1
  O  O19  1  0.541316  0.791431  0.184986  1
  O  O20  1  0.887282  0.215338  0.438641  1
  O  O21  1  0.718894  0.258130  0.155658  1
  O  O22  1  0.887282  0.284662  0.938641  1
  O  O23  1  0.112718  0.715338  0.061359  1
  O  O24  1  0.458684  0.291431  0.315014  1
  O  O25  1  0.288228  0.198989  0.995623  1
  O  O26  1  0.879188  0.757457  0.256950  1
  O  O27  1  0.718894  0.241870  0.655658  1
  O  O28  1  0.458684  0.208569  0.815014  1
  O  O29  1  0.711772  0.801011  0.004377  1
  O  O30  1  0.120812  0.257457  0.243050  1
  O  O31  1  0.879188  0.742543  0.756950  1
  O  O32  1  0.288228  0.301011  0.495623  1
  O  O33  1  0.120812  0.242543  0.743050  1
