# generated using pymatgen
data_Cs2P3
_symmetry_space_group_name_H-M   'P 1'
_cell_length_a   9.19851144
_cell_length_b   9.03955682
_cell_length_c   6.98115919
_cell_angle_alpha   68.70464384
_cell_angle_beta   66.29394252
_cell_angle_gamma   45.00141364
_symmetry_Int_Tables_number   1
_chemical_formula_structural   Cs2P3
_chemical_formula_sum   'Cs4 P6'
_cell_volume   373.03954975
_cell_formula_units_Z   2
loop_
 _symmetry_equiv_pos_site_id
 _symmetry_equiv_pos_as_xyz
  1  'x, y, z'
loop_
 _atom_site_type_symbol
 _atom_site_label
 _atom_site_symmetry_multiplicity
 _atom_site_fract_x
 _atom_site_fract_y
 _atom_site_fract_z
 _atom_site_occupancy
  Cs  Cs0  1  0.250000  0.250000  0.250000  1
  Cs  Cs1  1  0.750000  0.750000  0.750000  1
  Cs  Cs2  1  0.781772  0.218228  0.781772  1
  Cs  Cs3  1  0.218228  0.781772  0.218228  1
  P  P4  1  0.625090  0.233566  0.374910  1
  P  P5  1  0.766434  0.374910  0.233566  1
  P  P6  1  0.374910  0.766434  0.625090  1
  P  P7  1  0.233566  0.625090  0.766434  1
  P  P8  1  0.357941  0.357941  0.642059  1
  P  P9  1  0.642059  0.642059  0.357941  1
