# generated using pymatgen
data_Sc2(WO4)3
_symmetry_space_group_name_H-M   'P 1'
_cell_length_a   9.77388622
_cell_length_b   9.86646490
_cell_length_c   13.67643096
_cell_angle_alpha   90.00000000
_cell_angle_beta   90.00000000
_cell_angle_gamma   90.00000000
_symmetry_Int_Tables_number   1
_chemical_formula_structural   Sc2(WO4)3
_chemical_formula_sum   'Sc8 W12 O48'
_cell_volume   1318.86891311
_cell_formula_units_Z   4
loop_
 _symmetry_equiv_pos_site_id
 _symmetry_equiv_pos_as_xyz
  1  'x, y, z'
loop_
 _atom_site_type_symbol
 _atom_site_label
 _atom_site_symmetry_multiplicity
 _atom_site_fract_x
 _atom_site_fract_y
 _atom_site_fract_z
 _atom_site_occupancy
  Sc  Sc0  1  0.249569  0.467623  0.382098  1
  Sc  Sc1  1  0.249569  0.032377  0.617902  1
  Sc  Sc2  1  0.250431  0.967623  0.117902  1
  Sc  Sc3  1  0.250431  0.532377  0.882098  1
  Sc  Sc4  1  0.750431  0.532377  0.617902  1
  Sc  Sc5  1  0.750431  0.967623  0.382098  1
  Sc  Sc6  1  0.749569  0.032377  0.882098  1
  Sc  Sc7  1  0.749569  0.467623  0.117902  1
  W  W8  1  0.973644  0.250000  0.500000  1
  W  W9  1  0.526356  0.750000  0.000000  1
  W  W10  1  0.026356  0.750000  0.500000  1
  W  W11  1  0.473644  0.250000  0.000000  1
  W  W12  1  0.392193  0.114635  0.356053  1
  W  W13  1  0.392193  0.385365  0.643947  1
  W  W14  1  0.107807  0.614635  0.143947  1
  W  W15  1  0.107807  0.885365  0.856053  1
  W  W16  1  0.607807  0.885365  0.643947  1
  W  W17  1  0.607807  0.614635  0.356053  1
  W  W18  1  0.892193  0.385365  0.856053  1
  W  W19  1  0.892193  0.114635  0.143947  1
  O  O20  1  0.858934  0.293465  0.163106  1
  O  O21  1  0.858934  0.206535  0.836894  1
  O  O22  1  0.641066  0.793465  0.336894  1
  O  O23  1  0.641066  0.706535  0.663106  1
  O  O24  1  0.141066  0.706535  0.836894  1
  O  O25  1  0.141066  0.793465  0.163106  1
  O  O26  1  0.358934  0.206535  0.663106  1
  O  O27  1  0.358934  0.293465  0.336894  1
  O  O28  1  0.817811  0.064811  0.028463  1
  O  O29  1  0.817811  0.435189  0.971537  1
  O  O30  1  0.682189  0.564811  0.471537  1
  O  O31  1  0.682189  0.935189  0.528463  1
  O  O32  1  0.182189  0.935189  0.971537  1
  O  O33  1  0.182189  0.564811  0.028463  1
  O  O34  1  0.317811  0.435189  0.528463  1
  O  O35  1  0.317811  0.064811  0.471537  1
  O  O36  1  0.418614  0.661705  0.913015  1
  O  O37  1  0.581386  0.338295  0.086985  1
  O  O38  1  0.918614  0.838295  0.413015  1
  O  O39  1  0.918614  0.661705  0.586985  1
  O  O40  1  0.075431  0.087280  0.140081  1
  O  O41  1  0.075431  0.412720  0.859919  1
  O  O42  1  0.424569  0.587280  0.359919  1
  O  O43  1  0.424569  0.912720  0.640081  1
  O  O44  1  0.924569  0.912720  0.859919  1
  O  O45  1  0.924569  0.587280  0.140081  1
  O  O46  1  0.575431  0.412720  0.640081  1
  O  O47  1  0.575431  0.087280  0.359919  1
  O  O48  1  0.367013  0.130491  0.065338  1
  O  O49  1  0.367013  0.369509  0.934662  1
  O  O50  1  0.132987  0.630491  0.434662  1
  O  O51  1  0.132987  0.869509  0.565338  1
  O  O52  1  0.632987  0.869509  0.934662  1
  O  O53  1  0.632987  0.630491  0.065338  1
  O  O54  1  0.867013  0.369509  0.565338  1
  O  O55  1  0.867013  0.130491  0.434662  1
  O  O56  1  0.316981  0.014202  0.258792  1
  O  O57  1  0.316981  0.485798  0.741208  1
  O  O58  1  0.183019  0.514202  0.241208  1
  O  O59  1  0.183019  0.985798  0.758792  1
  O  O60  1  0.683019  0.985798  0.741208  1
  O  O61  1  0.683019  0.514202  0.258792  1
  O  O62  1  0.816981  0.485798  0.758792  1
  O  O63  1  0.816981  0.014202  0.241208  1
  O  O64  1  0.081386  0.338295  0.413015  1
  O  O65  1  0.081386  0.161705  0.586985  1
  O  O66  1  0.418614  0.838295  0.086985  1
  O  O67  1  0.581386  0.161705  0.913015  1
