# generated using pymatgen
data_V5S4
_symmetry_space_group_name_H-M   'P 1'
_cell_length_a   6.55071659
_cell_length_b   6.55071659
_cell_length_c   6.55071659
_cell_angle_alpha   93.32811848
_cell_angle_beta   93.32811848
_cell_angle_gamma   152.11548562
_symmetry_Int_Tables_number   1
_chemical_formula_structural   V5S4
_chemical_formula_sum   'V5 S4'
_cell_volume   127.59639272
_cell_formula_units_Z   1
loop_
 _symmetry_equiv_pos_site_id
 _symmetry_equiv_pos_as_xyz
  1  'x, y, z'
loop_
 _atom_site_type_symbol
 _atom_site_label
 _atom_site_symmetry_multiplicity
 _atom_site_fract_x
 _atom_site_fract_y
 _atom_site_fract_z
 _atom_site_occupancy
  V  V0  1  0.379014  0.700091  0.079105  1
  V  V1  1  0.299909  0.379014  0.678923  1
  V  V2  1  0.000000  0.000000  0.000000  1
  V  V3  1  0.620986  0.299909  0.920895  1
  V  V4  1  0.700091  0.620986  0.321077  1
  S  S5  1  0.728425  0.063788  0.792213  1
  S  S6  1  0.936212  0.728425  0.664638  1
  S  S7  1  0.271575  0.936212  0.207787  1
  S  S8  1  0.063788  0.271575  0.335362  1
