# generated using pymatgen
data_Al3Pt5
_symmetry_space_group_name_H-M   'P 1'
_cell_length_a   4.00528463
_cell_length_b   5.46790763
_cell_length_c   10.89304434
_cell_angle_alpha   90.00000000
_cell_angle_beta   90.00000000
_cell_angle_gamma   90.00000000
_symmetry_Int_Tables_number   1
_chemical_formula_structural   Al3Pt5
_chemical_formula_sum   'Al6 Pt10'
_cell_volume   238.56340502
_cell_formula_units_Z   2
loop_
 _symmetry_equiv_pos_site_id
 _symmetry_equiv_pos_as_xyz
  1  'x, y, z'
loop_
 _atom_site_type_symbol
 _atom_site_label
 _atom_site_symmetry_multiplicity
 _atom_site_fract_x
 _atom_site_fract_y
 _atom_site_fract_z
 _atom_site_occupancy
  Al  Al0  1  0.500000  0.181425  0.639918  1
  Al  Al1  1  0.500000  0.818575  0.360082  1
  Al  Al2  1  0.500000  0.681425  0.860082  1
  Al  Al3  1  0.500000  0.318575  0.139918  1
  Al  Al4  1  0.000000  0.500000  0.500000  1
  Al  Al5  1  0.000000  0.000000  0.000000  1
  Pt  Pt6  1  0.500000  0.292922  0.392753  1
  Pt  Pt7  1  0.500000  0.707078  0.607247  1
  Pt  Pt8  1  0.500000  0.792922  0.107247  1
  Pt  Pt9  1  0.500000  0.207078  0.892753  1
  Pt  Pt10  1  0.000000  0.428609  0.730918  1
  Pt  Pt11  1  0.000000  0.571391  0.269082  1
  Pt  Pt12  1  0.000000  0.928609  0.769082  1
  Pt  Pt13  1  0.000000  0.071391  0.230918  1
  Pt  Pt14  1  0.000000  0.500000  0.000000  1
  Pt  Pt15  1  0.000000  0.000000  0.500000  1
