# generated using pymatgen
data_Ba9Y2(SiO4)6
_symmetry_space_group_name_H-M   'P 1'
_cell_length_a   9.52298500
_cell_length_b   9.52298500
_cell_length_c   9.52298500
_cell_angle_alpha   64.58005807
_cell_angle_beta   64.58005807
_cell_angle_gamma   64.58005807
_symmetry_Int_Tables_number   1
_chemical_formula_structural   Ba9Y2(SiO4)6
_chemical_formula_sum   'Ba9 Y2 Si6 O24'
_cell_volume   671.96516456
_cell_formula_units_Z   1
loop_
 _symmetry_equiv_pos_site_id
 _symmetry_equiv_pos_as_xyz
  1  'x, y, z'
loop_
 _atom_site_type_symbol
 _atom_site_label
 _atom_site_symmetry_multiplicity
 _atom_site_fract_x
 _atom_site_fract_y
 _atom_site_fract_z
 _atom_site_occupancy
  Ba  Ba0  1  0.000000  0.000000  0.000000  1
  Ba  Ba1  1  0.337841  0.337841  0.337841  1
  Ba  Ba2  1  0.662159  0.662159  0.662159  1
  Ba  Ba3  1  0.140066  0.748225  0.438007  1
  Ba  Ba4  1  0.748225  0.438007  0.140066  1
  Ba  Ba5  1  0.438007  0.140066  0.748225  1
  Ba  Ba6  1  0.859934  0.251775  0.561993  1
  Ba  Ba7  1  0.251775  0.561993  0.859934  1
  Ba  Ba8  1  0.561993  0.859934  0.251775  1
  Y  Y9  1  0.164049  0.164049  0.164049  1
  Y  Y10  1  0.835951  0.835951  0.835951  1
  Si  Si11  1  0.412716  0.755906  0.052603  1
  Si  Si12  1  0.755906  0.052603  0.412716  1
  Si  Si13  1  0.052603  0.412716  0.755906  1
  Si  Si14  1  0.587284  0.244094  0.947397  1
  Si  Si15  1  0.244094  0.947397  0.587284  1
  Si  Si16  1  0.947397  0.587284  0.244094  1
  O  O17  1  0.364689  0.708728  0.938287  1
  O  O18  1  0.708728  0.938287  0.364689  1
  O  O19  1  0.938287  0.364689  0.708728  1
  O  O20  1  0.635311  0.291272  0.061713  1
  O  O21  1  0.291272  0.061713  0.635311  1
  O  O22  1  0.061713  0.635311  0.291272  1
  O  O23  1  0.596069  0.786482  0.952451  1
  O  O24  1  0.786482  0.952451  0.596069  1
  O  O25  1  0.952451  0.596069  0.786482  1
  O  O26  1  0.403931  0.213518  0.047549  1
  O  O27  1  0.213518  0.047549  0.403931  1
  O  O28  1  0.047549  0.403931  0.213518  1
  O  O29  1  0.092615  0.280993  0.929590  1
  O  O30  1  0.280993  0.929590  0.092615  1
  O  O31  1  0.929590  0.092615  0.280993  1
  O  O32  1  0.907385  0.719007  0.070410  1
  O  O33  1  0.719007  0.070410  0.907385  1
  O  O34  1  0.070410  0.907385  0.719007  1
  O  O35  1  0.229238  0.429389  0.619464  1
  O  O36  1  0.429389  0.619464  0.229238  1
  O  O37  1  0.619464  0.229238  0.429389  1
  O  O38  1  0.770762  0.570611  0.380536  1
  O  O39  1  0.570611  0.380536  0.770762  1
  O  O40  1  0.380536  0.770762  0.570611  1
