# generated using pymatgen
data_NaMn7O12
_symmetry_space_group_name_H-M   'P 1'
_cell_length_a   6.44860481
_cell_length_b   6.44860481
_cell_length_c   6.44860481
_cell_angle_alpha   109.47122063
_cell_angle_beta   109.47122063
_cell_angle_gamma   109.47122063
_symmetry_Int_Tables_number   1
_chemical_formula_structural   NaMn7O12
_chemical_formula_sum   'Na1 Mn7 O12'
_cell_volume   206.43122887
_cell_formula_units_Z   1
loop_
 _symmetry_equiv_pos_site_id
 _symmetry_equiv_pos_as_xyz
  1  'x, y, z'
loop_
 _atom_site_type_symbol
 _atom_site_label
 _atom_site_symmetry_multiplicity
 _atom_site_fract_x
 _atom_site_fract_y
 _atom_site_fract_z
 _atom_site_occupancy
  Na  Na0  1  0.000000  0.000000  0.000000  1
  Mn  Mn1  1  1.000000  0.500000  0.000000  1
  Mn  Mn2  1  0.000000  0.000000  0.500000  1
  Mn  Mn3  1  0.500000  0.000000  0.500000  1
  Mn  Mn4  1  0.500000  0.500000  0.500000  1
  Mn  Mn5  1  0.500000  0.000000  0.000000  1
  Mn  Mn6  1  0.000000  0.500000  0.500000  1
  Mn  Mn7  1  0.500000  0.500000  0.000000  1
  O  O8  1  0.314314  0.814819  0.129133  1
  O  O9  1  0.685686  0.814819  0.500505  1
  O  O10  1  0.185181  0.870867  0.685686  1
  O  O11  1  0.185181  0.499495  0.314314  1
  O  O12  1  0.129133  0.314314  0.814819  1
  O  O13  1  0.685686  0.185181  0.870867  1
  O  O14  1  0.500505  0.685686  0.814819  1
  O  O15  1  0.314314  0.185181  0.499495  1
  O  O16  1  0.814819  0.129133  0.314314  1
  O  O17  1  0.499495  0.314314  0.185181  1
  O  O18  1  0.870867  0.685686  0.185181  1
  O  O19  1  0.814819  0.500505  0.685686  1
