# generated using pymatgen
data_CaAl2SiO6
_symmetry_space_group_name_H-M   'P 1'
_cell_length_a   5.33382743
_cell_length_b   8.74307535
_cell_length_c   9.70514454
_cell_angle_alpha   89.60576998
_cell_angle_beta   74.62184014
_cell_angle_gamma   89.32110157
_symmetry_Int_Tables_number   1
_chemical_formula_structural   CaAl2SiO6
_chemical_formula_sum   'Ca4 Al8 Si4 O24'
_cell_volume   436.35204328
_cell_formula_units_Z   4
loop_
 _symmetry_equiv_pos_site_id
 _symmetry_equiv_pos_as_xyz
  1  'x, y, z'
loop_
 _atom_site_type_symbol
 _atom_site_label
 _atom_site_symmetry_multiplicity
 _atom_site_fract_x
 _atom_site_fract_y
 _atom_site_fract_z
 _atom_site_occupancy
  Ca  Ca0  1  0.238411  0.689086  0.004315  1
  Ca  Ca1  1  0.751718  0.188070  0.488940  1
  Ca  Ca2  1  0.747936  0.311331  0.003876  1
  Ca  Ca3  1  0.262931  0.812089  0.484524  1
  Al  Al4  1  0.920622  0.905128  0.289088  1
  Al  Al5  1  0.076825  0.403609  0.214873  1
  Al  Al6  1  0.416435  0.100088  0.288392  1
  Al  Al7  1  0.924681  0.597388  0.786689  1
  Al  Al8  1  0.246851  0.090646  0.002170  1
  Al  Al9  1  0.776956  0.591430  0.492842  1
  Al  Al10  1  0.750062  0.908279  0.004886  1
  Al  Al11  1  0.248196  0.407595  0.501506  1
  Si  Si12  1  0.424164  0.402312  0.789518  1
  Si  Si13  1  0.568492  0.901601  0.714171  1
  Si  Si14  1  0.065372  0.093315  0.713623  1
  Si  Si15  1  0.578125  0.597744  0.211426  1
  O  O16  1  0.019950  0.922982  0.098321  1
  O  O17  1  0.964422  0.727720  0.364114  1
  O  O18  1  0.608833  0.977420  0.364212  1
  O  O19  1  0.509300  0.419029  0.611933  1
  O  O20  1  0.448534  0.232407  0.856700  1
  O  O21  1  0.131750  0.474050  0.856993  1
  O  O22  1  0.479716  0.913081  0.889469  1
  O  O23  1  0.576390  0.739892  0.633302  1
  O  O24  1  0.853815  0.987477  0.655185  1
  O  O25  1  0.976367  0.414666  0.403001  1
  O  O26  1  0.062763  0.235731  0.123075  1
  O  O27  1  0.382967  0.489859  0.148148  1
  O  O28  1  0.983738  0.086965  0.888198  1
  O  O29  1  0.062431  0.255342  0.634283  1
  O  O30  1  0.353376  0.006923  0.654019  1
  O  O31  1  0.500880  0.587029  0.389430  1
  O  O32  1  0.554487  0.765350  0.139908  1
  O  O33  1  0.868617  0.525005  0.143294  1
  O  O34  1  0.520244  0.077007  0.095984  1
  O  O35  1  0.448393  0.276347  0.368111  1
  O  O36  1  0.107475  0.027422  0.364786  1
  O  O37  1  0.032966  0.578033  0.599272  1
  O  O38  1  0.937850  0.768835  0.873769  1
  O  O39  1  0.616959  0.511716  0.853656  1
