# generated using pymatgen
data_V2CdO4
_symmetry_space_group_name_H-M   'P 1'
_cell_length_a   6.24083927
_cell_length_b   6.24083927
_cell_length_c   6.24083927
_cell_angle_alpha   60.00000000
_cell_angle_beta   60.00000000
_cell_angle_gamma   60.00000000
_symmetry_Int_Tables_number   1
_chemical_formula_structural   V2CdO4
_chemical_formula_sum   'V4 Cd2 O8'
_cell_volume   171.87550798
_cell_formula_units_Z   2
loop_
 _symmetry_equiv_pos_site_id
 _symmetry_equiv_pos_as_xyz
  1  'x, y, z'
loop_
 _atom_site_type_symbol
 _atom_site_label
 _atom_site_symmetry_multiplicity
 _atom_site_fract_x
 _atom_site_fract_y
 _atom_site_fract_z
 _atom_site_occupancy
  V  V0  1  0.625000  0.125000  0.125000  1
  V  V1  1  0.125000  0.125000  0.625000  1
  V  V2  1  0.125000  0.125000  0.125000  1
  V  V3  1  0.125000  0.625000  0.125000  1
  Cd  Cd4  1  0.500000  0.500000  0.500000  1
  Cd  Cd5  1  0.750000  0.750000  0.750000  1
  O  O6  1  0.892157  0.323529  0.892157  1
  O  O7  1  0.357843  0.357843  0.357843  1
  O  O8  1  0.926471  0.357843  0.357843  1
  O  O9  1  0.357843  0.357843  0.926471  1
  O  O10  1  0.323529  0.892157  0.892157  1
  O  O11  1  0.892157  0.892157  0.323529  1
  O  O12  1  0.357843  0.926471  0.357843  1
  O  O13  1  0.892157  0.892157  0.892157  1
