# generated using pymatgen
data_K3CrO4
_symmetry_space_group_name_H-M   'P 1'
_cell_length_a   6.08071932
_cell_length_b   6.08071932
_cell_length_c   6.08071932
_cell_angle_alpha   119.30767247
_cell_angle_beta   119.30767247
_cell_angle_gamma   91.20338853
_symmetry_Int_Tables_number   1
_chemical_formula_structural   K3CrO4
_chemical_formula_sum   'K3 Cr1 O4'
_cell_volume   160.60803789
_cell_formula_units_Z   1
loop_
 _symmetry_equiv_pos_site_id
 _symmetry_equiv_pos_as_xyz
  1  'x, y, z'
loop_
 _atom_site_type_symbol
 _atom_site_label
 _atom_site_symmetry_multiplicity
 _atom_site_fract_x
 _atom_site_fract_y
 _atom_site_fract_z
 _atom_site_occupancy
  K  K0  1  0.750000  0.250000  0.500000  1
  K  K1  1  0.250000  0.750000  0.500000  1
  K  K2  1  0.500000  0.500000  0.000000  1
  Cr  Cr3  1  0.000000  0.000000  0.000000  1
  O  O4  1  0.939569  0.939569  0.662241  1
  O  O5  1  0.060431  0.722672  0.000000  1
  O  O6  1  0.722672  0.060431  1.000000  1
  O  O7  1  0.277328  0.277328  0.337759  1
