# generated using pymatgen
data_Li3AlN2
_symmetry_space_group_name_H-M   'P 1'
_cell_length_a   8.24513117
_cell_length_b   8.24513117
_cell_length_c   8.24513117
_cell_angle_alpha   109.47122063
_cell_angle_beta   109.47122063
_cell_angle_gamma   109.47122063
_symmetry_Int_Tables_number   1
_chemical_formula_structural   Li3AlN2
_chemical_formula_sum   'Li24 Al8 N16'
_cell_volume   431.49008119
_cell_formula_units_Z   8
loop_
 _symmetry_equiv_pos_site_id
 _symmetry_equiv_pos_as_xyz
  1  'x, y, z'
loop_
 _atom_site_type_symbol
 _atom_site_label
 _atom_site_symmetry_multiplicity
 _atom_site_fract_x
 _atom_site_fract_y
 _atom_site_fract_z
 _atom_site_occupancy
  Li  Li0  1  0.986206  0.458720  0.223488  1
  Li  Li1  1  0.735232  0.762717  0.276512  1
  Li  Li2  1  0.764768  0.041280  0.027485  1
  Li  Li3  1  0.737283  0.472515  0.513794  1
  Li  Li4  1  0.472515  0.513794  0.737283  1
  Li  Li5  1  0.223488  0.986206  0.458720  1
  Li  Li6  1  0.762717  0.276512  0.735232  1
  Li  Li7  1  0.027485  0.764768  0.041280  1
  Li  Li8  1  0.458720  0.223488  0.986206  1
  Li  Li9  1  0.276512  0.735232  0.762717  1
  Li  Li10  1  0.041280  0.027485  0.764768  1
  Li  Li11  1  0.513794  0.737283  0.472515  1
  Li  Li12  1  0.013794  0.541280  0.776512  1
  Li  Li13  1  0.264768  0.237283  0.723488  1
  Li  Li14  1  0.235232  0.958720  0.972515  1
  Li  Li15  1  0.262717  0.527485  0.486206  1
  Li  Li16  1  0.527485  0.486206  0.262717  1
  Li  Li17  1  0.776512  0.013794  0.541280  1
  Li  Li18  1  0.237283  0.723488  0.264768  1
  Li  Li19  1  0.486206  0.262717  0.527485  1
  Li  Li20  1  0.541280  0.776512  0.013794  1
  Li  Li21  1  0.723488  0.264768  0.237283  1
  Li  Li22  1  0.958720  0.972515  0.235232  1
  Li  Li23  1  0.972515  0.235232  0.958720  1
  Al  Al24  1  0.230216  0.230216  0.230216  1
  Al  Al25  1  1.000000  0.269784  0.500000  1
  Al  Al26  1  0.500000  1.000000  0.269784  1
  Al  Al27  1  0.269784  0.500000  1.000000  1
  Al  Al28  1  0.769784  0.769784  0.769784  1
  Al  Al29  1  1.000000  0.730216  0.500000  1
  Al  Al30  1  0.500000  1.000000  0.730216  1
  Al  Al31  1  0.730216  0.500000  0.000000  1
  N  N32  1  0.966062  0.716062  0.250000  1
  N  N33  1  1.000000  0.500000  0.500000  1
  N  N34  1  0.500000  1.000000  0.500000  1
  N  N35  1  0.500000  0.500000  0.000000  1
  N  N36  1  0.250000  0.466062  0.216062  1
  N  N37  1  0.033938  0.283938  0.750000  1
  N  N38  1  0.283938  0.750000  0.033938  1
  N  N39  1  0.466062  0.216062  0.250000  1
  N  N40  1  0.250000  0.966062  0.716062  1
  N  N41  1  0.783938  0.750000  0.533938  1
  N  N42  1  0.533938  0.783938  0.750000  1
  N  N43  1  0.716062  0.250000  0.966062  1
  N  N44  1  0.216062  0.250000  0.466062  1
  N  N45  1  0.750000  0.533938  0.783938  1
  N  N46  1  0.750000  0.033938  0.283938  1
  N  N47  1  0.000000  0.000000  0.000000  1
