# generated using pymatgen
data_Sm(ErS2)3
_symmetry_space_group_name_H-M   'P 1'
_cell_length_a   10.99931098
_cell_length_b   3.94832504
_cell_length_c   11.26554709
_cell_angle_alpha   90.00000000
_cell_angle_beta   108.78698177
_cell_angle_gamma   90.00000000
_symmetry_Int_Tables_number   1
_chemical_formula_structural   Sm(ErS2)3
_chemical_formula_sum   'Sm2 Er6 S12'
_cell_volume   463.18378306
_cell_formula_units_Z   2
loop_
 _symmetry_equiv_pos_site_id
 _symmetry_equiv_pos_as_xyz
  1  'x, y, z'
loop_
 _atom_site_type_symbol
 _atom_site_label
 _atom_site_symmetry_multiplicity
 _atom_site_fract_x
 _atom_site_fract_y
 _atom_site_fract_z
 _atom_site_occupancy
  Sm  Sm0  1  0.452836  0.250000  0.806527  1
  Sm  Sm1  1  0.547164  0.750000  0.193473  1
  Er  Er2  1  0.339199  0.250000  0.414299  1
  Er  Er3  1  0.660801  0.750000  0.585701  1
  Er  Er4  1  0.818993  0.250000  0.997861  1
  Er  Er5  1  0.181007  0.750000  0.002139  1
  Er  Er6  1  0.062093  0.250000  0.667673  1
  Er  Er7  1  0.937907  0.750000  0.332327  1
  S  S8  1  0.695016  0.250000  0.748995  1
  S  S9  1  0.304984  0.750000  0.251005  1
  S  S10  1  0.582076  0.250000  0.404703  1
  S  S11  1  0.417924  0.750000  0.595297  1
  S  S12  1  0.384226  0.250000  0.036697  1
  S  S13  1  0.615774  0.750000  0.963303  1
  S  S14  1  0.022478  0.250000  0.887997  1
  S  S15  1  0.977522  0.750000  0.112003  1
  S  S16  1  0.895973  0.750000  0.560539  1
  S  S17  1  0.104027  0.250000  0.439461  1
  S  S18  1  0.238815  0.750000  0.773769  1
  S  S19  1  0.761185  0.250000  0.226231  1
