# generated using pymatgen
data_Sr8Fe8O23
_symmetry_space_group_name_H-M   'P 1'
_cell_length_a   8.76665478
_cell_length_b   8.76665478
_cell_length_c   8.76665478
_cell_angle_alpha   101.52393811
_cell_angle_beta   101.52393811
_cell_angle_gamma   126.90179966
_symmetry_Int_Tables_number   1
_chemical_formula_structural   Sr8Fe8O23
_chemical_formula_sum   'Sr8 Fe8 O23'
_cell_volume   481.96517855
_cell_formula_units_Z   1
loop_
 _symmetry_equiv_pos_site_id
 _symmetry_equiv_pos_as_xyz
  1  'x, y, z'
loop_
 _atom_site_type_symbol
 _atom_site_label
 _atom_site_symmetry_multiplicity
 _atom_site_fract_x
 _atom_site_fract_y
 _atom_site_fract_z
 _atom_site_occupancy
  Sr  Sr0  1  0.500000  0.247625  0.747625  1
  Sr  Sr1  1  0.752375  0.500000  0.252375  1
  Sr  Sr2  1  0.247625  0.500000  0.747625  1
  Sr  Sr3  1  0.500000  0.752375  0.252375  1
  Sr  Sr4  1  1.000000  0.740596  0.740596  1
  Sr  Sr5  1  0.259404  1.000000  0.259404  1
  Sr  Sr6  1  0.740596  1.000000  0.740596  1
  Sr  Sr7  1  1.000000  0.259404  0.259404  1
  Fe  Fe8  1  0.750000  0.250000  0.500000  1
  Fe  Fe9  1  0.250000  0.750000  0.500000  1
  Fe  Fe10  1  0.500000  1.000000  0.000000  1
  Fe  Fe11  1  0.500000  0.500000  0.500000  1
  Fe  Fe12  1  0.000000  1.000000  0.500000  1
  Fe  Fe13  1  0.000000  0.500000  0.000000  1
  Fe  Fe14  1  0.744547  0.744547  0.000000  1
  Fe  Fe15  1  0.255453  0.255453  0.000000  1
  O  O16  1  0.500000  1.000000  0.500000  1
  O  O17  1  1.000000  0.500000  0.500000  1
  O  O18  1  0.124748  0.875252  0.500000  1
  O  O19  1  0.624748  0.124748  0.249497  1
  O  O20  1  0.875252  0.375252  0.750503  1
  O  O21  1  0.375252  0.624748  0.500000  1
  O  O22  1  0.875252  0.124748  0.500000  1
  O  O23  1  0.375252  0.875252  0.750503  1
  O  O24  1  0.124748  0.624748  0.249497  1
  O  O25  1  0.624748  0.375252  0.500000  1
  O  O26  1  0.736268  0.263732  0.000000  1
  O  O27  1  0.736268  0.736268  0.472536  1
  O  O28  1  0.263732  0.263732  0.527464  1
  O  O29  1  0.263732  0.736268  0.000000  1
  O  O30  1  0.901898  0.901898  0.240528  1
  O  O31  1  0.661370  0.661370  0.759472  1
  O  O32  1  0.500000  0.500000  0.000000  1
  O  O33  1  0.098102  0.338630  0.000000  1
  O  O34  1  0.098102  0.098102  0.759472  1
  O  O35  1  0.338630  0.338630  0.240528  1
  O  O36  1  0.338630  0.098102  0.000000  1
  O  O37  1  0.901898  0.661370  0.000000  1
  O  O38  1  0.661370  0.901898  0.000000  1
