# generated using pymatgen
data_K2SnO3
_symmetry_space_group_name_H-M   'P 1'
_cell_length_a   5.84266470
_cell_length_b   7.13521988
_cell_length_c   10.54465659
_cell_angle_alpha   90.00000000
_cell_angle_beta   90.00000000
_cell_angle_gamma   90.00000000
_symmetry_Int_Tables_number   1
_chemical_formula_structural   K2SnO3
_chemical_formula_sum   'K8 Sn4 O12'
_cell_volume   439.59299692
_cell_formula_units_Z   4
loop_
 _symmetry_equiv_pos_site_id
 _symmetry_equiv_pos_as_xyz
  1  'x, y, z'
loop_
 _atom_site_type_symbol
 _atom_site_label
 _atom_site_symmetry_multiplicity
 _atom_site_fract_x
 _atom_site_fract_y
 _atom_site_fract_z
 _atom_site_occupancy
  K  K0  1  0.235625  0.885060  0.911895  1
  K  K1  1  0.764375  0.114940  0.088105  1
  K  K2  1  0.235625  0.885060  0.588105  1
  K  K3  1  0.735625  0.614940  0.911895  1
  K  K4  1  0.264375  0.385060  0.088105  1
  K  K5  1  0.764375  0.114940  0.411895  1
  K  K6  1  0.735625  0.614940  0.588105  1
  K  K7  1  0.264375  0.385060  0.411895  1
  Sn  Sn8  1  0.727306  0.659912  0.250000  1
  Sn  Sn9  1  0.227306  0.840088  0.250000  1
  Sn  Sn10  1  0.772694  0.159912  0.750000  1
  Sn  Sn11  1  0.272694  0.340088  0.750000  1
  O  O12  1  0.989088  0.724355  0.121036  1
  O  O13  1  0.489088  0.775645  0.378964  1
  O  O14  1  0.510912  0.224355  0.878964  1
  O  O15  1  0.010912  0.275645  0.621036  1
  O  O16  1  0.010912  0.275645  0.878964  1
  O  O17  1  0.510912  0.224355  0.621036  1
  O  O18  1  0.489088  0.775645  0.121036  1
  O  O19  1  0.989088  0.724355  0.378964  1
  O  O20  1  0.347403  0.607511  0.750000  1
  O  O21  1  0.652597  0.392489  0.250000  1
  O  O22  1  0.152597  0.107511  0.250000  1
  O  O23  1  0.847403  0.892489  0.750000  1
