# generated using pymatgen
data_SrAs
_symmetry_space_group_name_H-M   'P 1'
_cell_length_a   8.36331771
_cell_length_b   8.36331771
_cell_length_c   6.22438200
_cell_angle_alpha   90.00000000
_cell_angle_beta   90.00000000
_cell_angle_gamma   120.00000000
_symmetry_Int_Tables_number   1
_chemical_formula_structural   SrAs
_chemical_formula_sum   'Sr6 As6'
_cell_volume   377.03707749
_cell_formula_units_Z   6
loop_
 _symmetry_equiv_pos_site_id
 _symmetry_equiv_pos_as_xyz
  1  'x, y, z'
loop_
 _atom_site_type_symbol
 _atom_site_label
 _atom_site_symmetry_multiplicity
 _atom_site_fract_x
 _atom_site_fract_y
 _atom_site_fract_z
 _atom_site_occupancy
  Sr  Sr0  1  0.000000  0.647527  0.500000  1
  Sr  Sr1  1  0.352473  0.352473  0.500000  1
  Sr  Sr2  1  0.647527  0.000000  0.500000  1
  Sr  Sr3  1  0.000000  0.313207  0.000000  1
  Sr  Sr4  1  0.686793  0.686793  0.000000  1
  Sr  Sr5  1  0.313207  0.000000  0.000000  1
  As  As6  1  0.666667  0.333333  0.209145  1
  As  As7  1  0.666667  0.333333  0.790855  1
  As  As8  1  0.333333  0.666667  0.790855  1
  As  As9  1  0.333333  0.666667  0.209145  1
  As  As10  1  0.000000  0.000000  0.703916  1
  As  As11  1  0.000000  0.000000  0.296084  1
