# generated using pymatgen
data_SmSi2
_symmetry_space_group_name_H-M   'P 1'
_cell_length_a   7.76518844
_cell_length_b   7.76518844
_cell_length_c   7.76518844
_cell_angle_alpha   149.37741861
_cell_angle_beta   149.37741861
_cell_angle_gamma   43.85605951
_symmetry_Int_Tables_number   1
_chemical_formula_structural   SmSi2
_chemical_formula_sum   'Sm2 Si4'
_cell_volume   121.14830993
_cell_formula_units_Z   2
loop_
 _symmetry_equiv_pos_site_id
 _symmetry_equiv_pos_as_xyz
  1  'x, y, z'
loop_
 _atom_site_type_symbol
 _atom_site_label
 _atom_site_symmetry_multiplicity
 _atom_site_fract_x
 _atom_site_fract_y
 _atom_site_fract_z
 _atom_site_occupancy
  Sm  Sm0  1  0.750000  0.250000  0.500000  1
  Sm  Sm1  1  0.000000  0.000000  0.000000  1
  Si  Si2  1  0.166773  0.666773  0.500000  1
  Si  Si3  1  0.583227  0.583227  0.000000  1
  Si  Si4  1  0.333227  0.833227  0.500000  1
  Si  Si5  1  0.416773  0.416773  0.000000  1
