# generated using pymatgen
data_Y5Mg24
_symmetry_space_group_name_H-M   'P 1'
_cell_length_a   9.76658646
_cell_length_b   9.76658646
_cell_length_c   9.76658646
_cell_angle_alpha   109.47122063
_cell_angle_beta   109.47122063
_cell_angle_gamma   109.47122063
_symmetry_Int_Tables_number   1
_chemical_formula_structural   Y5Mg24
_chemical_formula_sum   'Y5 Mg24'
_cell_volume   717.14422643
_cell_formula_units_Z   1
loop_
 _symmetry_equiv_pos_site_id
 _symmetry_equiv_pos_as_xyz
  1  'x, y, z'
loop_
 _atom_site_type_symbol
 _atom_site_label
 _atom_site_symmetry_multiplicity
 _atom_site_fract_x
 _atom_site_fract_y
 _atom_site_fract_z
 _atom_site_occupancy
  Y  Y0  1  0.000000  0.000000  0.376120  1
  Y  Y1  1  0.000000  0.376120  0.000000  1
  Y  Y2  1  0.376120  0.000000  0.000000  1
  Y  Y3  1  0.623880  0.623880  0.623880  1
  Y  Y4  1  0.000000  0.000000  0.000000  1
  Mg  Mg5  1  0.190868  0.190868  0.820048  1
  Mg  Mg6  1  0.370819  0.179952  0.370819  1
  Mg  Mg7  1  0.179952  0.370819  0.370819  1
  Mg  Mg8  1  0.000000  0.629181  0.809132  1
  Mg  Mg9  1  0.629181  0.000000  0.809132  1
  Mg  Mg10  1  0.388103  0.388103  0.712323  1
  Mg  Mg11  1  0.611897  0.324221  1.000000  1
  Mg  Mg12  1  0.324221  0.611897  0.000000  1
  Mg  Mg13  1  0.000000  0.324221  0.611897  1
  Mg  Mg14  1  0.287677  0.675779  0.675779  1
  Mg  Mg15  1  0.675779  0.287677  0.675779  1
  Mg  Mg16  1  0.324221  0.000000  0.611897  1
  Mg  Mg17  1  0.611897  0.000000  0.324221  1
  Mg  Mg18  1  0.000000  0.611897  0.324221  1
  Mg  Mg19  1  0.712323  0.388103  0.388103  1
  Mg  Mg20  1  0.388103  0.712323  0.388103  1
  Mg  Mg21  1  0.675779  0.675779  0.287677  1
  Mg  Mg22  1  0.370819  0.370819  0.179952  1
  Mg  Mg23  1  0.629181  0.809132  0.000000  1
  Mg  Mg24  1  0.809132  0.629181  0.000000  1
  Mg  Mg25  1  0.000000  0.809132  0.629181  1
  Mg  Mg26  1  0.820048  0.190868  0.190868  1
  Mg  Mg27  1  0.190868  0.820048  0.190868  1
  Mg  Mg28  1  0.809132  0.000000  0.629181  1
