# generated using pymatgen
data_Na2Si(S2O7)3
_symmetry_space_group_name_H-M   'P 1'
_cell_length_a   9.73662200
_cell_length_b   12.96903900
_cell_length_c   14.72686300
_cell_angle_alpha   90.00000000
_cell_angle_beta   90.00000000
_cell_angle_gamma   90.00000000
_symmetry_Int_Tables_number   1
_chemical_formula_structural   Na2Si(S2O7)3
_chemical_formula_sum   'Na8 Si4 S24 O84'
_cell_volume   1859.62918296
_cell_formula_units_Z   4
loop_
 _symmetry_equiv_pos_site_id
 _symmetry_equiv_pos_as_xyz
  1  'x, y, z'
loop_
 _atom_site_type_symbol
 _atom_site_label
 _atom_site_symmetry_multiplicity
 _atom_site_fract_x
 _atom_site_fract_y
 _atom_site_fract_z
 _atom_site_occupancy
  Na  Na0  1  0.558289  0.301292  0.959913  1
  Na  Na1  1  0.941711  0.698708  0.459913  1
  Na  Na2  1  0.058289  0.198708  0.040087  1
  Na  Na3  1  0.441711  0.801292  0.540087  1
  Na  Na4  1  0.112387  0.815233  0.114450  1
  Na  Na5  1  0.387613  0.184767  0.614450  1
  Na  Na6  1  0.612387  0.684767  0.885550  1
  Na  Na7  1  0.887613  0.315233  0.385550  1
  Si  Si8  1  0.563888  0.968438  0.224841  1
  Si  Si9  1  0.936112  0.031562  0.724841  1
  Si  Si10  1  0.063888  0.531562  0.775159  1
  Si  Si11  1  0.436112  0.468438  0.275159  1
  S  S12  1  0.841916  0.882492  0.274219  1
  S  S13  1  0.658084  0.117508  0.774219  1
  S  S14  1  0.341916  0.617508  0.725781  1
  S  S15  1  0.158084  0.382492  0.225781  1
  S  S16  1  0.827295  0.096881  0.225271  1
  S  S17  1  0.672705  0.903119  0.725271  1
  S  S18  1  0.327295  0.403119  0.774729  1
  S  S19  1  0.172705  0.596881  0.274729  1
  S  S20  1  0.299648  0.896231  0.319109  1
  S  S21  1  0.200352  0.103769  0.819109  1
  S  S22  1  0.799648  0.603769  0.680891  1
  S  S23  1  0.700352  0.396231  0.180891  1
  S  S24  1  0.479585  0.031966  0.412867  1
  S  S25  1  0.020415  0.968034  0.912867  1
  S  S26  1  0.979585  0.468034  0.587133  1
  S  S27  1  0.520415  0.531966  0.087133  1
  S  S28  1  0.475342  0.887194  0.041557  1
  S  S29  1  0.024658  0.112806  0.541557  1
  S  S30  1  0.975342  0.612806  0.958443  1
  S  S31  1  0.524658  0.387194  0.458443  1
  S  S32  1  0.387277  0.091752  0.086000  1
  S  S33  1  0.112723  0.908248  0.586000  1
  S  S34  1  0.887277  0.408248  0.914000  1
  S  S35  1  0.612723  0.591752  0.414000  1
  O  O36  1  0.436031  0.882957  0.269013  1
  O  O37  1  0.063969  0.117043  0.769013  1
  O  O38  1  0.936031  0.617043  0.730987  1
  O  O39  1  0.563969  0.382957  0.230987  1
  O  O40  1  0.572891  0.894324  0.122564  1
  O  O41  1  0.927109  0.105676  0.622564  1
  O  O42  1  0.072891  0.605676  0.877436  1
  O  O43  1  0.427109  0.394324  0.377436  1
  O  O44  1  0.876676  0.004154  0.296211  1
  O  O45  1  0.623324  0.995846  0.796211  1
  O  O46  1  0.376676  0.495846  0.703789  1
  O  O47  1  0.123324  0.504154  0.203789  1
  O  O48  1  0.799125  0.181586  0.284662  1
  O  O49  1  0.700875  0.818414  0.784662  1
  O  O50  1  0.299125  0.318414  0.715338  1
  O  O51  1  0.200875  0.681586  0.215338  1
  O  O52  1  0.435840  0.052132  0.177585  1
  O  O53  1  0.064160  0.947868  0.677585  1
  O  O54  1  0.935840  0.447868  0.822415  1
  O  O55  1  0.564160  0.552132  0.322415  1
  O  O56  1  0.698240  0.050534  0.182288  1
  O  O57  1  0.801760  0.949466  0.682288  1
  O  O58  1  0.198240  0.449466  0.817712  1
  O  O59  1  0.301760  0.550534  0.317712  1
  O  O60  1  0.558160  0.048365  0.324376  1
  O  O61  1  0.941840  0.951635  0.824376  1
  O  O62  1  0.058160  0.451635  0.675624  1
  O  O63  1  0.441840  0.548365  0.175624  1
  O  O64  1  0.685124  0.881874  0.274056  1
  O  O65  1  0.814876  0.118126  0.774056  1
  O  O66  1  0.185124  0.618126  0.725944  1
  O  O67  1  0.314876  0.381874  0.225944  1
  O  O68  1  0.529989  0.943761  0.461173  1
  O  O69  1  0.970011  0.056239  0.961173  1
  O  O70  1  0.029989  0.556239  0.538827  1
  O  O71  1  0.470011  0.443761  0.038827  1
  O  O72  1  0.458087  0.010713  0.013492  1
  O  O73  1  0.041913  0.989287  0.513492  1
  O  O74  1  0.958087  0.489287  0.986508  1
  O  O75  1  0.541913  0.510713  0.486508  1
  O  O76  1  0.546014  0.845154  0.965286  1
  O  O77  1  0.953986  0.154846  0.465286  1
  O  O78  1  0.046014  0.654846  0.034714  1
  O  O79  1  0.453986  0.345154  0.534714  1
  O  O80  1  0.897229  0.856208  0.186872  1
  O  O81  1  0.602771  0.143792  0.686872  1
  O  O82  1  0.397229  0.643792  0.813128  1
  O  O83  1  0.102771  0.356208  0.313128  1
  O  O84  1  0.463125  0.127976  0.459272  1
  O  O85  1  0.036875  0.872024  0.959272  1
  O  O86  1  0.963125  0.372024  0.540728  1
  O  O87  1  0.536875  0.627976  0.040728  1
  O  O88  1  0.240793  0.081423  0.080588  1
  O  O89  1  0.259207  0.918577  0.580588  1
  O  O90  1  0.740793  0.418577  0.919412  1
  O  O91  1  0.759207  0.581423  0.419412  1
  O  O92  1  0.323522  0.006722  0.374602  1
  O  O93  1  0.176478  0.993278  0.874602  1
  O  O94  1  0.823522  0.493278  0.625398  1
  O  O95  1  0.676478  0.506722  0.125398  1
  O  O96  1  0.342494  0.848754  0.066284  1
  O  O97  1  0.157506  0.151246  0.566284  1
  O  O98  1  0.842494  0.651246  0.933716  1
  O  O99  1  0.657506  0.348754  0.433716  1
  O  O100  1  0.931135  0.107714  0.157357  1
  O  O101  1  0.568865  0.892286  0.657357  1
  O  O102  1  0.431135  0.392286  0.842643  1
  O  O103  1  0.068865  0.607714  0.342643  1
  O  O104  1  0.890046  0.830087  0.353414  1
  O  O105  1  0.609954  0.169913  0.853414  1
  O  O106  1  0.390046  0.669913  0.646586  1
  O  O107  1  0.109954  0.330087  0.146586  1
  O  O108  1  0.447787  0.188737  0.062647  1
  O  O109  1  0.052213  0.811263  0.562647  1
  O  O110  1  0.947787  0.311263  0.937353  1
  O  O111  1  0.552213  0.688737  0.437353  1
  O  O112  1  0.284965  0.816856  0.386096  1
  O  O113  1  0.215035  0.183144  0.886096  1
  O  O114  1  0.784965  0.683144  0.613904  1
  O  O115  1  0.715035  0.316856  0.113904  1
  O  O116  1  0.188260  0.918618  0.258860  1
  O  O117  1  0.311740  0.081382  0.758860  1
  O  O118  1  0.688260  0.581382  0.741140  1
  O  O119  1  0.811740  0.418618  0.241140  1
