# generated using pymatgen
data_La2TeO6
_symmetry_space_group_name_H-M   'P 1'
_cell_length_a   5.55507312
_cell_length_b   9.54754994
_cell_length_c   10.48410032
_cell_angle_alpha   90.00000000
_cell_angle_beta   90.00000000
_cell_angle_gamma   90.00000000
_symmetry_Int_Tables_number   1
_chemical_formula_structural   La2TeO6
_chemical_formula_sum   'La8 Te4 O24'
_cell_volume   556.04877265
_cell_formula_units_Z   4
loop_
 _symmetry_equiv_pos_site_id
 _symmetry_equiv_pos_as_xyz
  1  'x, y, z'
loop_
 _atom_site_type_symbol
 _atom_site_label
 _atom_site_symmetry_multiplicity
 _atom_site_fract_x
 _atom_site_fract_y
 _atom_site_fract_z
 _atom_site_occupancy
  La  La0  1  0.524363  0.104334  0.955714  1
  La  La1  1  0.024363  0.395666  0.044286  1
  La  La2  1  0.475637  0.604334  0.544286  1
  La  La3  1  0.975637  0.895666  0.455714  1
  La  La4  1  0.529575  0.217372  0.359002  1
  La  La5  1  0.029575  0.282628  0.640998  1
  La  La6  1  0.470425  0.717372  0.140998  1
  La  La7  1  0.970425  0.782628  0.859002  1
  Te  Te8  1  0.460584  0.995978  0.640796  1
  Te  Te9  1  0.960584  0.504022  0.359204  1
  Te  Te10  1  0.539416  0.495978  0.859204  1
  Te  Te11  1  0.039416  0.004022  0.140796  1
  O  O12  1  0.300667  0.137448  0.175174  1
  O  O13  1  0.800667  0.362552  0.824826  1
  O  O14  1  0.699333  0.637448  0.324826  1
  O  O15  1  0.199333  0.862552  0.675174  1
  O  O16  1  0.719144  0.112210  0.564217  1
  O  O17  1  0.219144  0.387790  0.435783  1
  O  O18  1  0.280856  0.612210  0.935783  1
  O  O19  1  0.780856  0.887790  0.064217  1
  O  O20  1  0.677882  0.635309  0.746737  1
  O  O21  1  0.177882  0.864691  0.253263  1
  O  O22  1  0.322118  0.135309  0.753263  1
  O  O23  1  0.822118  0.364691  0.246737  1
  O  O24  1  0.668564  0.947682  0.782269  1
  O  O25  1  0.168564  0.552318  0.217731  1
  O  O26  1  0.331436  0.447682  0.717731  1
  O  O27  1  0.831436  0.052318  0.282269  1
  O  O28  1  0.255054  0.084116  0.508068  1
  O  O29  1  0.755054  0.415884  0.491932  1
  O  O30  1  0.744946  0.584116  0.991932  1
  O  O31  1  0.244946  0.915884  0.008068  1
  O  O32  1  0.073745  0.648556  0.476796  1
  O  O33  1  0.573745  0.851444  0.523204  1
  O  O34  1  0.926255  0.148556  0.023204  1
  O  O35  1  0.426255  0.351444  0.976796  1
