# generated using pymatgen
data_Nb5(CuSi)4
_symmetry_space_group_name_H-M   'P 1'
_cell_length_a   7.46630238
_cell_length_b   7.46630238
_cell_length_c   7.46630238
_cell_angle_alpha   93.35561497
_cell_angle_beta   93.35561497
_cell_angle_gamma   151.99832783
_symmetry_Int_Tables_number   1
_chemical_formula_structural   Nb5(CuSi)4
_chemical_formula_sum   'Nb5 Cu4 Si4'
_cell_volume   189.60613704
_cell_formula_units_Z   1
loop_
 _symmetry_equiv_pos_site_id
 _symmetry_equiv_pos_as_xyz
  1  'x, y, z'
loop_
 _atom_site_type_symbol
 _atom_site_label
 _atom_site_symmetry_multiplicity
 _atom_site_fract_x
 _atom_site_fract_y
 _atom_site_fract_z
 _atom_site_occupancy
  Nb  Nb0  1  0.500000  0.500000  0.000000  1
  Nb  Nb1  1  0.129170  0.804151  0.933321  1
  Nb  Nb2  1  0.195849  0.129170  0.325019  1
  Nb  Nb3  1  0.804151  0.870830  0.674981  1
  Nb  Nb4  1  0.870830  0.195849  0.066679  1
  Cu  Cu5  1  0.396317  0.917929  0.314246  1
  Cu  Cu6  1  0.603683  0.082071  0.685754  1
  Cu  Cu7  1  0.917929  0.603683  0.521612  1
  Cu  Cu8  1  0.082071  0.396317  0.478388  1
  Si  Si9  1  0.247374  0.559149  0.806523  1
  Si  Si10  1  0.440851  0.247374  0.688225  1
  Si  Si11  1  0.559149  0.752626  0.311775  1
  Si  Si12  1  0.752626  0.440851  0.193477  1
