# generated using pymatgen
data_CeSe2
_symmetry_space_group_name_H-M   'P 1'
_cell_length_a   5.96503576
_cell_length_b   5.96503576
_cell_length_c   5.96503576
_cell_angle_alpha   118.60124299
_cell_angle_beta   108.48846314
_cell_angle_gamma   101.78123177
_symmetry_Int_Tables_number   1
_chemical_formula_structural   CeSe2
_chemical_formula_sum   'Ce2 Se4'
_cell_volume   159.76305433
_cell_formula_units_Z   2
loop_
 _symmetry_equiv_pos_site_id
 _symmetry_equiv_pos_as_xyz
  1  'x, y, z'
loop_
 _atom_site_type_symbol
 _atom_site_label
 _atom_site_symmetry_multiplicity
 _atom_site_fract_x
 _atom_site_fract_y
 _atom_site_fract_z
 _atom_site_occupancy
  Ce  Ce0  1  0.750000  0.750000  0.000000  1
  Ce  Ce1  1  0.250000  0.250000  0.000000  1
  Se  Se2  1  0.210880  0.691423  0.902303  1
  Se  Se3  1  0.789120  0.308577  0.097697  1
  Se  Se4  1  0.710880  0.808577  0.519458  1
  Se  Se5  1  0.289120  0.191423  0.480542  1
