# generated using pymatgen
data_RbBe2B3O7
_symmetry_space_group_name_H-M   'P 1'
_cell_length_a   4.43480748
_cell_length_b   7.76057144
_cell_length_c   17.93222844
_cell_angle_alpha   90.00000000
_cell_angle_beta   90.00000000
_cell_angle_gamma   90.00000000
_symmetry_Int_Tables_number   1
_chemical_formula_structural   RbBe2B3O7
_chemical_formula_sum   'Rb4 Be8 B12 O28'
_cell_volume   617.16705548
_cell_formula_units_Z   4
loop_
 _symmetry_equiv_pos_site_id
 _symmetry_equiv_pos_as_xyz
  1  'x, y, z'
loop_
 _atom_site_type_symbol
 _atom_site_label
 _atom_site_symmetry_multiplicity
 _atom_site_fract_x
 _atom_site_fract_y
 _atom_site_fract_z
 _atom_site_occupancy
  Rb  Rb0  1  0.947913  0.500000  0.857654  1
  Rb  Rb1  1  0.447913  0.000000  0.142346  1
  Rb  Rb2  1  0.925277  0.000000  0.649674  1
  Rb  Rb3  1  0.425277  0.500000  0.350326  1
  Be  Be4  1  0.431086  0.187049  0.959534  1
  Be  Be5  1  0.431086  0.812951  0.959534  1
  Be  Be6  1  0.931086  0.312951  0.040466  1
  Be  Be7  1  0.931086  0.687049  0.040466  1
  Be  Be8  1  0.357979  0.324471  0.536910  1
  Be  Be9  1  0.357979  0.675529  0.536910  1
  Be  Be10  1  0.857979  0.175529  0.463090  1
  Be  Be11  1  0.857979  0.824471  0.463090  1
  B  B12  1  0.932713  0.000000  0.981120  1
  B  B13  1  0.432713  0.500000  0.018880  1
  B  B14  1  0.861533  0.500000  0.508640  1
  B  B15  1  0.361533  0.000000  0.491360  1
  B  B16  1  0.517942  0.158069  0.817699  1
  B  B17  1  0.517942  0.841931  0.817699  1
  B  B18  1  0.017942  0.341931  0.182301  1
  B  B19  1  0.017942  0.658069  0.182301  1
  B  B20  1  0.426366  0.335580  0.693659  1
  B  B21  1  0.426366  0.664420  0.693659  1
  B  B22  1  0.926366  0.164420  0.306341  1
  B  B23  1  0.926366  0.835580  0.306341  1
  O  O24  1  0.244171  0.000000  0.973783  1
  O  O25  1  0.744171  0.500000  0.026217  1
  O  O26  1  0.781666  0.156224  0.987915  1
  O  O27  1  0.781666  0.843776  0.987915  1
  O  O28  1  0.281666  0.343776  0.012085  1
  O  O29  1  0.281666  0.656224  0.012085  1
  O  O30  1  0.172607  0.500000  0.510250  1
  O  O31  1  0.672607  0.000000  0.489750  1
  O  O32  1  0.207731  0.154804  0.493781  1
  O  O33  1  0.207731  0.845196  0.493781  1
  O  O34  1  0.707731  0.345196  0.506219  1
  O  O35  1  0.707731  0.654804  0.506219  1
  O  O36  1  0.421217  0.256094  0.874280  1
  O  O37  1  0.421217  0.743906  0.874280  1
  O  O38  1  0.921217  0.243906  0.125720  1
  O  O39  1  0.921217  0.756094  0.125720  1
  O  O40  1  0.660199  0.000000  0.832100  1
  O  O41  1  0.160199  0.500000  0.167900  1
  O  O42  1  0.489530  0.197979  0.742073  1
  O  O43  1  0.489530  0.802021  0.742073  1
  O  O44  1  0.989530  0.302021  0.257927  1
  O  O45  1  0.989530  0.697979  0.257927  1
  O  O46  1  0.457778  0.500000  0.725199  1
  O  O47  1  0.957778  0.000000  0.274801  1
  O  O48  1  0.350243  0.295752  0.624063  1
  O  O49  1  0.350243  0.704248  0.624063  1
  O  O50  1  0.850243  0.204248  0.375937  1
  O  O51  1  0.850243  0.795752  0.375937  1
