# generated using pymatgen
data_Ca2CoWO6
_symmetry_space_group_name_H-M   'P 1'
_cell_length_a   5.47878509
_cell_length_b   5.67181536
_cell_length_c   9.49962381
_cell_angle_alpha   90.00000000
_cell_angle_beta   124.69214496
_cell_angle_gamma   90.00000000
_symmetry_Int_Tables_number   1
_chemical_formula_structural   Ca2CoWO6
_chemical_formula_sum   'Ca4 Co2 W2 O12'
_cell_volume   242.71794811
_cell_formula_units_Z   2
loop_
 _symmetry_equiv_pos_site_id
 _symmetry_equiv_pos_as_xyz
  1  'x, y, z'
loop_
 _atom_site_type_symbol
 _atom_site_label
 _atom_site_symmetry_multiplicity
 _atom_site_fract_x
 _atom_site_fract_y
 _atom_site_fract_z
 _atom_site_occupancy
  Ca  Ca0  1  0.268163  0.056159  0.253438  1
  Ca  Ca1  1  0.731837  0.556159  0.246562  1
  Ca  Ca2  1  0.731837  0.943841  0.746562  1
  Ca  Ca3  1  0.268163  0.443841  0.753438  1
  Co  Co4  1  0.500000  0.000000  0.000000  1
  Co  Co5  1  0.500000  0.500000  0.500000  1
  W  W6  1  0.000000  0.000000  0.500000  1
  W  W7  1  0.000000  0.500000  0.000000  1
  O  O8  1  0.757987  0.283003  0.446697  1
  O  O9  1  0.242013  0.783003  0.053303  1
  O  O10  1  0.242013  0.716997  0.553303  1
  O  O11  1  0.757987  0.216997  0.946697  1
  O  O12  1  0.333571  0.193251  0.545085  1
  O  O13  1  0.666429  0.693251  0.954915  1
  O  O14  1  0.666429  0.806749  0.454915  1
  O  O15  1  0.333571  0.306749  0.045085  1
  O  O16  1  0.146045  0.468609  0.240974  1
  O  O17  1  0.853955  0.968609  0.259026  1
  O  O18  1  0.146045  0.031391  0.740974  1
  O  O19  1  0.853955  0.531391  0.759026  1
