# generated using pymatgen
data_KNa2Si12(BO10)3
_symmetry_space_group_name_H-M   'P 1'
_cell_length_a   10.37433712
_cell_length_b   10.37433712
_cell_length_c   13.68719980
_cell_angle_alpha   90.00000000
_cell_angle_beta   90.00000000
_cell_angle_gamma   120.00000000
_symmetry_Int_Tables_number   1
_chemical_formula_structural   KNa2Si12(BO10)3
_chemical_formula_sum   'K2 Na4 Si24 B6 O60'
_cell_volume   1275.75110022
_cell_formula_units_Z   2
loop_
 _symmetry_equiv_pos_site_id
 _symmetry_equiv_pos_as_xyz
  1  'x, y, z'
loop_
 _atom_site_type_symbol
 _atom_site_label
 _atom_site_symmetry_multiplicity
 _atom_site_fract_x
 _atom_site_fract_y
 _atom_site_fract_z
 _atom_site_occupancy
  K  K0  1  0.000000  0.000000  0.750000  1
  K  K1  1  0.000000  0.000000  0.250000  1
  Na  Na2  1  0.666667  0.333333  0.250000  1
  Na  Na3  1  0.666667  0.333333  0.750000  1
  Na  Na4  1  0.333333  0.666667  0.750000  1
  Na  Na5  1  0.333333  0.666667  0.250000  1
  Si  Si6  1  0.269209  0.337812  0.387039  1
  Si  Si7  1  0.068603  0.730791  0.612961  1
  Si  Si8  1  0.269209  0.337812  0.612961  1
  Si  Si9  1  0.730791  0.068603  0.887039  1
  Si  Si10  1  0.337812  0.269209  0.887039  1
  Si  Si11  1  0.662188  0.730791  0.887039  1
  Si  Si12  1  0.269209  0.931397  0.887039  1
  Si  Si13  1  0.931397  0.662188  0.887039  1
  Si  Si14  1  0.068603  0.730791  0.387039  1
  Si  Si15  1  0.068603  0.337812  0.887039  1
  Si  Si16  1  0.662188  0.931397  0.387039  1
  Si  Si17  1  0.662188  0.931397  0.612961  1
  Si  Si18  1  0.931397  0.662188  0.112961  1
  Si  Si19  1  0.931397  0.269209  0.387039  1
  Si  Si20  1  0.730791  0.662188  0.387039  1
  Si  Si21  1  0.269209  0.931397  0.112961  1
  Si  Si22  1  0.662188  0.730791  0.112961  1
  Si  Si23  1  0.337812  0.269209  0.112961  1
  Si  Si24  1  0.730791  0.068603  0.112961  1
  Si  Si25  1  0.068603  0.337812  0.112961  1
  Si  Si26  1  0.337812  0.068603  0.612961  1
  Si  Si27  1  0.730791  0.662188  0.612961  1
  Si  Si28  1  0.931397  0.269209  0.612961  1
  Si  Si29  1  0.337812  0.068603  0.387039  1
  B  B30  1  0.000000  0.500000  0.250000  1
  B  B31  1  0.500000  0.500000  0.750000  1
  B  B32  1  0.500000  0.000000  0.750000  1
  B  B33  1  0.000000  0.500000  0.750000  1
  B  B34  1  0.500000  0.500000  0.250000  1
  B  B35  1  0.500000  0.000000  0.250000  1
  O  O36  1  0.189032  0.282225  0.132072  1
  O  O37  1  0.099773  0.628963  0.687817  1
  O  O38  1  0.099773  0.470811  0.812183  1
  O  O39  1  0.529189  0.900227  0.687817  1
  O  O40  1  0.470811  0.099773  0.687817  1
  O  O41  1  0.628963  0.529189  0.687817  1
  O  O42  1  0.371037  0.470811  0.687817  1
  O  O43  1  0.628963  0.099773  0.812183  1
  O  O44  1  0.470811  0.371037  0.812183  1
  O  O45  1  0.529189  0.628963  0.812183  1
  O  O46  1  0.371037  0.900227  0.812183  1
  O  O47  1  0.900227  0.529189  0.812183  1
  O  O48  1  0.099773  0.628963  0.312183  1
  O  O49  1  0.371037  0.470811  0.312183  1
  O  O50  1  0.529189  0.900227  0.312183  1
  O  O51  1  0.470811  0.099773  0.312183  1
  O  O52  1  0.900227  0.529189  0.187817  1
  O  O53  1  0.900227  0.371037  0.312183  1
  O  O54  1  0.628963  0.529189  0.312183  1
  O  O55  1  0.371037  0.900227  0.187817  1
  O  O56  1  0.529189  0.628963  0.187817  1
  O  O57  1  0.470811  0.371037  0.187817  1
  O  O58  1  0.628963  0.099773  0.187817  1
  O  O59  1  0.093193  0.282225  0.632072  1
  O  O60  1  0.810968  0.093193  0.632072  1
  O  O61  1  0.906807  0.717775  0.632072  1
  O  O62  1  0.282225  0.189032  0.632072  1
  O  O63  1  0.717775  0.810968  0.632072  1
  O  O64  1  0.189032  0.282225  0.867928  1
  O  O65  1  0.189032  0.906807  0.632072  1
  O  O66  1  0.082263  0.394198  0.000000  1
  O  O67  1  0.688065  0.082263  0.000000  1
  O  O68  1  0.394198  0.311935  0.000000  1
  O  O69  1  0.605802  0.688065  0.000000  1
  O  O70  1  0.311935  0.917737  0.000000  1
  O  O71  1  0.688065  0.605802  0.500000  1
  O  O72  1  0.917737  0.311935  0.500000  1
  O  O73  1  0.917737  0.605802  0.000000  1
  O  O74  1  0.394198  0.082263  0.500000  1
  O  O75  1  0.605802  0.917737  0.500000  1
  O  O76  1  0.311935  0.394198  0.500000  1
  O  O77  1  0.082263  0.688065  0.500000  1
  O  O78  1  0.900227  0.371037  0.687817  1
  O  O79  1  0.906807  0.189032  0.132072  1
  O  O80  1  0.282225  0.093193  0.132072  1
  O  O81  1  0.717775  0.906807  0.132072  1
  O  O82  1  0.093193  0.810968  0.132072  1
  O  O83  1  0.906807  0.717775  0.367928  1
  O  O84  1  0.810968  0.093193  0.367928  1
  O  O85  1  0.810968  0.717775  0.132072  1
  O  O86  1  0.282225  0.189032  0.367928  1
  O  O87  1  0.717775  0.810968  0.367928  1
  O  O88  1  0.093193  0.282225  0.367928  1
  O  O89  1  0.189032  0.906807  0.367928  1
  O  O90  1  0.810968  0.717775  0.867928  1
  O  O91  1  0.093193  0.810968  0.867928  1
  O  O92  1  0.717775  0.906807  0.867928  1
  O  O93  1  0.282225  0.093193  0.867928  1
  O  O94  1  0.906807  0.189032  0.867928  1
  O  O95  1  0.099773  0.470811  0.187817  1
