# generated using pymatgen
data_DyCd3
_symmetry_space_group_name_H-M   'P 1'
_cell_length_a   6.53810333
_cell_length_b   6.53810333
_cell_length_c   4.89287434
_cell_angle_alpha   90.00000000
_cell_angle_beta   90.00000000
_cell_angle_gamma   113.35304606
_symmetry_Int_Tables_number   1
_chemical_formula_structural   DyCd3
_chemical_formula_sum   'Dy2 Cd6'
_cell_volume   192.02069824
_cell_formula_units_Z   2
loop_
 _symmetry_equiv_pos_site_id
 _symmetry_equiv_pos_as_xyz
  1  'x, y, z'
loop_
 _atom_site_type_symbol
 _atom_site_label
 _atom_site_symmetry_multiplicity
 _atom_site_fract_x
 _atom_site_fract_y
 _atom_site_fract_z
 _atom_site_occupancy
  Dy  Dy0  1  0.634395  0.365605  0.250000  1
  Dy  Dy1  1  0.365605  0.634395  0.750000  1
  Cd  Cd2  1  0.176236  0.823764  0.250000  1
  Cd  Cd3  1  0.823764  0.176236  0.750000  1
  Cd  Cd4  1  0.120077  0.310323  0.250000  1
  Cd  Cd5  1  0.879923  0.689677  0.750000  1
  Cd  Cd6  1  0.310323  0.120077  0.750000  1
  Cd  Cd7  1  0.689677  0.879923  0.250000  1
