# generated using pymatgen
data_BaZnP2O7
_symmetry_space_group_name_H-M   'P 1'
_cell_length_a   5.38061083
_cell_length_b   7.59433458
_cell_length_c   7.68512446
_cell_angle_alpha   102.73120022
_cell_angle_beta   93.11842380
_cell_angle_gamma   94.00232763
_symmetry_Int_Tables_number   1
_chemical_formula_structural   BaZnP2O7
_chemical_formula_sum   'Ba2 Zn2 P4 O14'
_cell_volume   304.77642380
_cell_formula_units_Z   2
loop_
 _symmetry_equiv_pos_site_id
 _symmetry_equiv_pos_as_xyz
  1  'x, y, z'
loop_
 _atom_site_type_symbol
 _atom_site_label
 _atom_site_symmetry_multiplicity
 _atom_site_fract_x
 _atom_site_fract_y
 _atom_site_fract_z
 _atom_site_occupancy
  Ba  Ba0  1  0.800166  0.720254  0.565510  1
  Ba  Ba1  1  0.199834  0.279746  0.434490  1
  Zn  Zn2  1  0.797770  0.889602  0.106074  1
  Zn  Zn3  1  0.202230  0.110398  0.893926  1
  P  P4  1  0.704724  0.305588  0.103867  1
  P  P5  1  0.295276  0.694412  0.896133  1
  P  P6  1  0.298300  0.767597  0.281820  1
  P  P7  1  0.701700  0.232403  0.718180  1
  O  O8  1  0.788722  0.466361  0.252297  1
  O  O9  1  0.211278  0.533639  0.747703  1
  O  O10  1  0.569975  0.768428  0.894063  1
  O  O11  1  0.430025  0.231572  0.105937  1
  O  O12  1  0.295467  0.649947  0.418395  1
  O  O13  1  0.704533  0.350053  0.581605  1
  O  O14  1  0.731502  0.367613  0.915782  1
  O  O15  1  0.268498  0.632387  0.084218  1
  O  O16  1  0.452812  0.115367  0.703193  1
  O  O17  1  0.547188  0.884633  0.296807  1
  O  O18  1  0.927785  0.115423  0.704003  1
  O  O19  1  0.072215  0.884577  0.295997  1
  O  O20  1  0.115239  0.848870  0.902646  1
  O  O21  1  0.884761  0.151130  0.097354  1
