# generated using pymatgen
data_K3Zn(BO2)5
_symmetry_space_group_name_H-M   'P 1'
_cell_length_a   7.77167424
_cell_length_b   19.48901251
_cell_length_c   8.18120015
_cell_angle_alpha   90.00000000
_cell_angle_beta   121.44847146
_cell_angle_gamma   90.00000000
_symmetry_Int_Tables_number   1
_chemical_formula_structural   K3Zn(BO2)5
_chemical_formula_sum   'K12 Zn4 B20 O40'
_cell_volume   1057.12497326
_cell_formula_units_Z   4
loop_
 _symmetry_equiv_pos_site_id
 _symmetry_equiv_pos_as_xyz
  1  'x, y, z'
loop_
 _atom_site_type_symbol
 _atom_site_label
 _atom_site_symmetry_multiplicity
 _atom_site_fract_x
 _atom_site_fract_y
 _atom_site_fract_z
 _atom_site_occupancy
  K  K0  1  0.337770  0.579116  0.986923  1
  K  K1  1  0.337770  0.920884  0.486923  1
  K  K2  1  0.662230  0.420884  0.013077  1
  K  K3  1  0.662230  0.079116  0.513077  1
  K  K4  1  0.319979  0.562661  0.530151  1
  K  K5  1  0.319979  0.937339  0.030151  1
  K  K6  1  0.680021  0.437339  0.469849  1
  K  K7  1  0.680021  0.062661  0.969849  1
  K  K8  1  0.758936  0.753709  0.222872  1
  K  K9  1  0.758936  0.746291  0.722872  1
  K  K10  1  0.241064  0.246291  0.777128  1
  K  K11  1  0.241064  0.253709  0.277128  1
  Zn  Zn12  1  0.827193  0.606996  0.505046  1
  Zn  Zn13  1  0.827193  0.893004  0.005046  1
  Zn  Zn14  1  0.172807  0.393004  0.494954  1
  Zn  Zn15  1  0.172807  0.106996  0.994954  1
  B  B16  1  0.825824  0.578719  0.855885  1
  B  B17  1  0.825824  0.921281  0.355885  1
  B  B18  1  0.174176  0.421281  0.144115  1
  B  B19  1  0.174176  0.078719  0.644115  1
  B  B20  1  0.053438  0.661483  0.125121  1
  B  B21  1  0.053438  0.838517  0.625121  1
  B  B22  1  0.946562  0.338517  0.874879  1
  B  B23  1  0.946562  0.161483  0.374879  1
  B  B24  1  0.157988  0.712171  0.672204  1
  B  B25  1  0.157988  0.787829  0.172204  1
  B  B26  1  0.842012  0.287829  0.327796  1
  B  B27  1  0.842012  0.212171  0.827796  1
  B  B28  1  0.824470  0.577529  0.159595  1
  B  B29  1  0.824470  0.922471  0.659595  1
  B  B30  1  0.175530  0.422471  0.840405  1
  B  B31  1  0.175530  0.077529  0.340405  1
  B  B32  1  0.420948  0.696707  0.305189  1
  B  B33  1  0.420948  0.803293  0.805189  1
  B  B34  1  0.579052  0.303293  0.694811  1
  B  B35  1  0.579052  0.196707  0.194811  1
  O  O36  1  0.108834  0.644876  0.646456  1
  O  O37  1  0.108834  0.855124  0.146456  1
  O  O38  1  0.891166  0.355124  0.353544  1
  O  O39  1  0.891166  0.144876  0.853544  1
  O  O40  1  0.752985  0.555509  0.675507  1
  O  O41  1  0.752985  0.944491  0.175507  1
  O  O42  1  0.247015  0.444491  0.324493  1
  O  O43  1  0.247015  0.055509  0.824493  1
  O  O44  1  0.616970  0.680270  0.393312  1
  O  O45  1  0.616970  0.819730  0.893312  1
  O  O46  1  0.383030  0.319730  0.606688  1
  O  O47  1  0.383030  0.180270  0.106688  1
  O  O48  1  0.969247  0.869975  0.433676  1
  O  O49  1  0.969247  0.630025  0.933676  1
  O  O50  1  0.030753  0.130025  0.566324  1
  O  O51  1  0.030753  0.369975  0.066324  1
  O  O52  1  0.758676  0.549552  0.269245  1
  O  O53  1  0.758676  0.950448  0.769245  1
  O  O54  1  0.241324  0.450448  0.730755  1
  O  O55  1  0.241324  0.049552  0.230755  1
  O  O56  1  0.364791  0.732568  0.776798  1
  O  O57  1  0.364791  0.767432  0.276798  1
  O  O58  1  0.635209  0.267432  0.223202  1
  O  O59  1  0.635209  0.232568  0.723202  1
  O  O60  1  0.272185  0.646857  0.239365  1
  O  O61  1  0.272185  0.853143  0.739365  1
  O  O62  1  0.727815  0.353143  0.760635  1
  O  O63  1  0.727815  0.146857  0.260635  1
  O  O64  1  0.015057  0.735990  0.102059  1
  O  O65  1  0.015057  0.764010  0.602059  1
  O  O66  1  0.984943  0.264010  0.897941  1
  O  O67  1  0.984943  0.235990  0.397941  1
  O  O68  1  0.249669  0.447856  0.030077  1
  O  O69  1  0.249669  0.052144  0.530077  1
  O  O70  1  0.750331  0.552144  0.969923  1
  O  O71  1  0.750331  0.947856  0.469923  1
  O  O72  1  0.957193  0.631879  0.223847  1
  O  O73  1  0.957193  0.868121  0.723847  1
  O  O74  1  0.042807  0.368121  0.776153  1
  O  O75  1  0.042807  0.131879  0.276153  1
