# generated using pymatgen
data_LaTeAs
_symmetry_space_group_name_H-M   'P 1'
_cell_length_a   4.20633672
_cell_length_b   7.89170098
_cell_length_c   10.42277044
_cell_angle_alpha   90.00000000
_cell_angle_beta   90.00000000
_cell_angle_gamma   90.00000000
_symmetry_Int_Tables_number   1
_chemical_formula_structural   LaTeAs
_chemical_formula_sum   'La4 Te4 As4'
_cell_volume   345.98544501
_cell_formula_units_Z   4
loop_
 _symmetry_equiv_pos_site_id
 _symmetry_equiv_pos_as_xyz
  1  'x, y, z'
loop_
 _atom_site_type_symbol
 _atom_site_label
 _atom_site_symmetry_multiplicity
 _atom_site_fract_x
 _atom_site_fract_y
 _atom_site_fract_z
 _atom_site_occupancy
  La  La0  1  0.250000  0.723574  0.844309  1
  La  La1  1  0.750000  0.276426  0.155691  1
  La  La2  1  0.250000  0.223574  0.655691  1
  La  La3  1  0.750000  0.776426  0.344309  1
  Te  Te4  1  0.250000  0.093720  0.349259  1
  Te  Te5  1  0.750000  0.406280  0.849259  1
  Te  Te6  1  0.250000  0.593720  0.150741  1
  Te  Te7  1  0.750000  0.906280  0.650741  1
  As  As8  1  0.750000  0.409878  0.461324  1
  As  As9  1  0.250000  0.090122  0.961324  1
  As  As10  1  0.750000  0.909878  0.038676  1
  As  As11  1  0.250000  0.590122  0.538676  1
