# generated using pymatgen
data_Al2Ru
_symmetry_space_group_name_H-M   'P 1'
_cell_length_a   5.98116083
_cell_length_b   5.01550374
_cell_length_c   4.67476625
_cell_angle_alpha   76.13837335
_cell_angle_beta   54.50135522
_cell_angle_gamma   49.36027144
_symmetry_Int_Tables_number   1
_chemical_formula_structural   Al2Ru
_chemical_formula_sum   'Al4 Ru2'
_cell_volume   84.42553283
_cell_formula_units_Z   2
loop_
 _symmetry_equiv_pos_site_id
 _symmetry_equiv_pos_as_xyz
  1  'x, y, z'
loop_
 _atom_site_type_symbol
 _atom_site_label
 _atom_site_symmetry_multiplicity
 _atom_site_fract_x
 _atom_site_fract_y
 _atom_site_fract_z
 _atom_site_occupancy
  Al  Al0  1  0.079071  0.420929  0.079071  1
  Al  Al1  1  0.420929  0.079071  0.420929  1
  Al  Al2  1  0.170929  0.829071  0.170929  1
  Al  Al3  1  0.829071  0.170929  0.829071  1
  Ru  Ru4  1  0.750000  0.750000  0.750000  1
  Ru  Ru5  1  0.500000  0.500000  0.500000  1
