# generated using pymatgen
data_CoSb3
_symmetry_space_group_name_H-M   'P 1'
_cell_length_a   7.89401666
_cell_length_b   7.89401666
_cell_length_c   7.89401666
_cell_angle_alpha   109.47122063
_cell_angle_beta   109.47122063
_cell_angle_gamma   109.47122063
_symmetry_Int_Tables_number   1
_chemical_formula_structural   CoSb3
_chemical_formula_sum   'Co4 Sb12'
_cell_volume   378.67987479
_cell_formula_units_Z   4
loop_
 _symmetry_equiv_pos_site_id
 _symmetry_equiv_pos_as_xyz
  1  'x, y, z'
loop_
 _atom_site_type_symbol
 _atom_site_label
 _atom_site_symmetry_multiplicity
 _atom_site_fract_x
 _atom_site_fract_y
 _atom_site_fract_z
 _atom_site_occupancy
  Co  Co0  1  0.500000  0.500000  0.500000  1
  Co  Co1  1  1.000000  0.500000  0.000000  1
  Co  Co2  1  1.000000  1.000000  0.500000  1
  Co  Co3  1  0.500000  1.000000  0.000000  1
  Sb  Sb4  1  0.492862  0.159520  0.333342  1
  Sb  Sb5  1  0.159520  0.666658  0.826178  1
  Sb  Sb6  1  0.333342  0.173822  0.840480  1
  Sb  Sb7  1  0.840480  0.666658  0.507138  1
  Sb  Sb8  1  0.666658  0.826178  0.159520  1
  Sb  Sb9  1  0.840480  0.333342  0.173822  1
  Sb  Sb10  1  0.666658  0.507138  0.840480  1
  Sb  Sb11  1  0.333342  0.492862  0.159520  1
  Sb  Sb12  1  0.159520  0.333342  0.492862  1
  Sb  Sb13  1  0.826178  0.159520  0.666658  1
  Sb  Sb14  1  0.173822  0.840480  0.333342  1
  Sb  Sb15  1  0.507138  0.840480  0.666658  1
