# generated using pymatgen
data_NaAg3S2
_symmetry_space_group_name_H-M   'P 1'
_cell_length_a   8.89062336
_cell_length_b   8.89062336
_cell_length_c   8.89062336
_cell_angle_alpha   60.00000000
_cell_angle_beta   60.00000000
_cell_angle_gamma   60.00000000
_symmetry_Int_Tables_number   1
_chemical_formula_structural   NaAg3S2
_chemical_formula_sum   'Na4 Ag12 S8'
_cell_volume   496.91446425
_cell_formula_units_Z   4
loop_
 _symmetry_equiv_pos_site_id
 _symmetry_equiv_pos_as_xyz
  1  'x, y, z'
loop_
 _atom_site_type_symbol
 _atom_site_label
 _atom_site_symmetry_multiplicity
 _atom_site_fract_x
 _atom_site_fract_y
 _atom_site_fract_z
 _atom_site_occupancy
  Na  Na0  1  0.625000  0.125000  0.125000  1
  Na  Na1  1  0.125000  0.125000  0.625000  1
  Na  Na2  1  0.125000  0.125000  0.125000  1
  Na  Na3  1  0.125000  0.625000  0.125000  1
  Ag  Ag4  1  0.328546  0.671454  0.328546  1
  Ag  Ag5  1  0.578546  0.921454  0.578546  1
  Ag  Ag6  1  0.328546  0.671454  0.671454  1
  Ag  Ag7  1  0.671454  0.671454  0.328546  1
  Ag  Ag8  1  0.328546  0.328546  0.671454  1
  Ag  Ag9  1  0.671454  0.328546  0.328546  1
  Ag  Ag10  1  0.921454  0.578546  0.921454  1
  Ag  Ag11  1  0.578546  0.578546  0.921454  1
  Ag  Ag12  1  0.921454  0.921454  0.578546  1
  Ag  Ag13  1  0.578546  0.921454  0.921454  1
  Ag  Ag14  1  0.921454  0.578546  0.578546  1
  Ag  Ag15  1  0.671454  0.328546  0.671454  1
  S  S16  1  0.335950  0.888017  0.888017  1
  S  S17  1  0.361983  0.914050  0.361983  1
  S  S18  1  0.888017  0.888017  0.888017  1
  S  S19  1  0.888017  0.888017  0.335950  1
  S  S20  1  0.914050  0.361983  0.361983  1
  S  S21  1  0.361983  0.361983  0.914050  1
  S  S22  1  0.361983  0.361983  0.361983  1
  S  S23  1  0.888017  0.335950  0.888017  1
