# generated using pymatgen
data_Rb3AsSe4
_symmetry_space_group_name_H-M   'P 1'
_cell_length_a   9.84282208
_cell_length_b   10.42730998
_cell_length_c   11.51458776
_cell_angle_alpha   90.00000000
_cell_angle_beta   90.00000000
_cell_angle_gamma   90.00000000
_symmetry_Int_Tables_number   1
_chemical_formula_structural   Rb3AsSe4
_chemical_formula_sum   'Rb12 As4 Se16'
_cell_volume   1181.79000687
_cell_formula_units_Z   4
loop_
 _symmetry_equiv_pos_site_id
 _symmetry_equiv_pos_as_xyz
  1  'x, y, z'
loop_
 _atom_site_type_symbol
 _atom_site_label
 _atom_site_symmetry_multiplicity
 _atom_site_fract_x
 _atom_site_fract_y
 _atom_site_fract_z
 _atom_site_occupancy
  Rb  Rb0  1  0.648473  0.921090  0.250000  1
  Rb  Rb1  1  0.148473  0.578910  0.250000  1
  Rb  Rb2  1  0.851527  0.421090  0.750000  1
  Rb  Rb3  1  0.351527  0.078910  0.750000  1
  Rb  Rb4  1  0.061850  0.805747  0.955641  1
  Rb  Rb5  1  0.561850  0.694253  0.544359  1
  Rb  Rb6  1  0.438150  0.305747  0.044359  1
  Rb  Rb7  1  0.938150  0.194253  0.455641  1
  Rb  Rb8  1  0.938150  0.194253  0.044359  1
  Rb  Rb9  1  0.438150  0.305747  0.455641  1
  Rb  Rb10  1  0.561850  0.694253  0.955641  1
  Rb  Rb11  1  0.061850  0.805747  0.544359  1
  As  As12  1  0.766369  0.976711  0.750000  1
  As  As13  1  0.233631  0.023289  0.250000  1
  As  As14  1  0.733631  0.476711  0.250000  1
  As  As15  1  0.266369  0.523289  0.750000  1
  Se  Se16  1  0.357041  0.972920  0.079280  1
  Se  Se17  1  0.857041  0.527080  0.420720  1
  Se  Se18  1  0.142959  0.472920  0.920720  1
  Se  Se19  1  0.642959  0.027080  0.579280  1
  Se  Se20  1  0.024004  0.910340  0.250000  1
  Se  Se21  1  0.524004  0.589660  0.250000  1
  Se  Se22  1  0.475996  0.410340  0.750000  1
  Se  Se23  1  0.975996  0.089660  0.750000  1
  Se  Se24  1  0.642959  0.027080  0.920720  1
  Se  Se25  1  0.357041  0.972920  0.420720  1
  Se  Se26  1  0.857041  0.527080  0.079280  1
  Se  Se27  1  0.142959  0.472920  0.579280  1
  Se  Se28  1  0.813358  0.755281  0.750000  1
  Se  Se29  1  0.313358  0.744719  0.750000  1
  Se  Se30  1  0.686642  0.255281  0.250000  1
  Se  Se31  1  0.186642  0.244719  0.250000  1
