# generated using pymatgen
data_K3B(SO4)3
_symmetry_space_group_name_H-M   'P 1'
_cell_length_a   14.01503622
_cell_length_b   14.01503622
_cell_length_c   14.01503622
_cell_angle_alpha   150.17506592
_cell_angle_beta   117.19318753
_cell_angle_gamma   71.06221474
_symmetry_Int_Tables_number   1
_chemical_formula_structural   K3B(SO4)3
_chemical_formula_sum   'K12 B4 S12 O48'
_cell_volume   1201.60278083
_cell_formula_units_Z   4
loop_
 _symmetry_equiv_pos_site_id
 _symmetry_equiv_pos_as_xyz
  1  'x, y, z'
loop_
 _atom_site_type_symbol
 _atom_site_label
 _atom_site_symmetry_multiplicity
 _atom_site_fract_x
 _atom_site_fract_y
 _atom_site_fract_z
 _atom_site_occupancy
  K  K0  1  0.937317  0.962839  0.758563  1
  K  K1  1  0.562683  0.821246  0.525522  1
  K  K2  1  0.295724  0.537161  0.974478  1
  K  K3  1  0.204276  0.678754  0.741437  1
  K  K4  1  0.062683  0.037161  0.241437  1
  K  K5  1  0.437317  0.178754  0.474478  1
  K  K6  1  0.704276  0.462839  0.025522  1
  K  K7  1  0.795724  0.321246  0.258563  1
  K  K8  1  0.559371  0.750000  0.809371  1
  K  K9  1  0.940629  0.250000  0.690629  1
  K  K10  1  0.440629  0.250000  0.190629  1
  K  K11  1  0.059371  0.750000  0.309371  1
  B  B12  1  0.832310  0.582310  0.750000  1
  B  B13  1  0.667690  0.917690  0.250000  1
  B  B14  1  0.167690  0.417690  0.250000  1
  B  B15  1  0.332310  0.082310  0.750000  1
  S  S16  1  0.778408  0.804756  0.769763  1
  S  S17  1  0.721592  0.991355  0.526348  1
  S  S18  1  0.465007  0.695244  0.973652  1
  S  S19  1  0.034993  0.508645  0.730237  1
  S  S20  1  0.221592  0.195244  0.230237  1
  S  S21  1  0.278408  0.008645  0.473652  1
  S  S22  1  0.534993  0.304756  0.026348  1
  S  S23  1  0.965007  0.491355  0.269763  1
  S  S24  1  0.814327  0.750000  0.064327  1
  S  S25  1  0.685673  0.250000  0.435673  1
  S  S26  1  0.185673  0.250000  0.935673  1
  S  S27  1  0.314327  0.750000  0.564327  1
  O  O28  1  0.949756  0.626038  0.845367  1
  O  O29  1  0.550244  0.895611  0.176282  1
  O  O30  1  0.719329  0.873962  0.323718  1
  O  O31  1  0.780671  0.604389  0.654633  1
  O  O32  1  0.050244  0.373962  0.154633  1
  O  O33  1  0.449756  0.104389  0.823718  1
  O  O34  1  0.280671  0.126038  0.676282  1
  O  O35  1  0.219329  0.395611  0.345367  1
  O  O36  1  0.782674  0.742433  0.618101  1
  O  O37  1  0.717326  0.835427  0.459760  1
  O  O38  1  0.375667  0.757567  0.040240  1
  O  O39  1  0.124333  0.664573  0.881899  1
  O  O40  1  0.217326  0.257567  0.381899  1
  O  O41  1  0.282674  0.164573  0.540240  1
  O  O42  1  0.624333  0.242433  0.959760  1
  O  O43  1  0.875667  0.335427  0.118101  1
  O  O44  1  0.106623  0.075018  0.733405  1
  O  O45  1  0.393377  0.626782  0.468396  1
  O  O46  1  0.158386  0.424982  0.031604  1
  O  O47  1  0.341614  0.873218  0.766595  1
  O  O48  1  0.893377  0.924982  0.266595  1
  O  O49  1  0.606623  0.373218  0.531604  1
  O  O50  1  0.841614  0.575018  0.968396  1
  O  O51  1  0.658386  0.126782  0.233405  1
  O  O52  1  0.789242  0.717740  0.917286  1
  O  O53  1  0.710758  0.128043  0.428497  1
  O  O54  1  0.699546  0.782260  0.071503  1
  O  O55  1  0.800454  0.371957  0.582714  1
  O  O56  1  0.210758  0.282260  0.082714  1
  O  O57  1  0.289242  0.871957  0.571503  1
  O  O58  1  0.300454  0.217740  0.928497  1
  O  O59  1  0.199546  0.628043  0.417286  1
  O  O60  1  0.673633  0.863077  0.797249  1
  O  O61  1  0.826367  0.123616  0.689444  1
  O  O62  1  0.434171  0.636923  0.810556  1
  O  O63  1  0.065829  0.376384  0.702752  1
  O  O64  1  0.326367  0.136923  0.202752  1
  O  O65  1  0.173633  0.876384  0.310556  1
  O  O66  1  0.565829  0.363077  0.189444  1
  O  O67  1  0.934171  0.623616  0.297249  1
  O  O68  1  0.872310  0.945768  0.965235  1
  O  O69  1  0.627690  0.092925  0.573458  1
  O  O70  1  0.519467  0.554232  0.926542  1
  O  O71  1  0.980533  0.407075  0.534765  1
  O  O72  1  0.127690  0.054232  0.034765  1
  O  O73  1  0.372310  0.907075  0.426542  1
  O  O74  1  0.480533  0.445768  0.073458  1
  O  O75  1  0.019467  0.592925  0.465235  1
