# generated using pymatgen
data_Ho3Ge4
_symmetry_space_group_name_H-M   'P 1'
_cell_length_a   5.70290108
_cell_length_b   5.70290108
_cell_length_c   14.26424546
_cell_angle_alpha   90.00000000
_cell_angle_beta   90.00000000
_cell_angle_gamma   138.36340981
_symmetry_Int_Tables_number   1
_chemical_formula_structural   Ho3Ge4
_chemical_formula_sum   'Ho6 Ge8'
_cell_volume   308.22827851
_cell_formula_units_Z   2
loop_
 _symmetry_equiv_pos_site_id
 _symmetry_equiv_pos_as_xyz
  1  'x, y, z'
loop_
 _atom_site_type_symbol
 _atom_site_label
 _atom_site_symmetry_multiplicity
 _atom_site_fract_x
 _atom_site_fract_y
 _atom_site_fract_z
 _atom_site_occupancy
  Ho  Ho0  1  0.045340  0.954660  0.250000  1
  Ho  Ho1  1  0.954660  0.045340  0.750000  1
  Ho  Ho2  1  0.670410  0.329590  0.596805  1
  Ho  Ho3  1  0.329590  0.670410  0.403195  1
  Ho  Ho4  1  0.329590  0.670410  0.096805  1
  Ho  Ho5  1  0.670410  0.329590  0.903195  1
  Ge  Ge6  1  0.000000  0.000000  0.500000  1
  Ge  Ge7  1  0.000000  0.000000  0.000000  1
  Ge  Ge8  1  0.774303  0.225697  0.250000  1
  Ge  Ge9  1  0.225697  0.774303  0.750000  1
  Ge  Ge10  1  0.619063  0.380937  0.391596  1
  Ge  Ge11  1  0.380937  0.619063  0.608404  1
  Ge  Ge12  1  0.619063  0.380937  0.108404  1
  Ge  Ge13  1  0.380937  0.619063  0.891596  1
