# generated using pymatgen
data_Ba2TiS4
_symmetry_space_group_name_H-M   'P 1'
_cell_length_a   6.90665652
_cell_length_b   9.13939005
_cell_length_c   12.64034774
_cell_angle_alpha   90.00000000
_cell_angle_beta   90.00000000
_cell_angle_gamma   90.00000000
_symmetry_Int_Tables_number   1
_chemical_formula_structural   Ba2TiS4
_chemical_formula_sum   'Ba8 Ti4 S16'
_cell_volume   797.89196664
_cell_formula_units_Z   4
loop_
 _symmetry_equiv_pos_site_id
 _symmetry_equiv_pos_as_xyz
  1  'x, y, z'
loop_
 _atom_site_type_symbol
 _atom_site_label
 _atom_site_symmetry_multiplicity
 _atom_site_fract_x
 _atom_site_fract_y
 _atom_site_fract_z
 _atom_site_occupancy
  Ba  Ba0  1  0.250000  0.632192  0.425204  1
  Ba  Ba1  1  0.750000  0.367808  0.574796  1
  Ba  Ba2  1  0.250000  0.132192  0.074796  1
  Ba  Ba3  1  0.750000  0.867808  0.925204  1
  Ba  Ba4  1  0.250000  0.976588  0.674848  1
  Ba  Ba5  1  0.750000  0.023412  0.325152  1
  Ba  Ba6  1  0.250000  0.476588  0.825152  1
  Ba  Ba7  1  0.750000  0.523412  0.174848  1
  Ti  Ti8  1  0.250000  0.726960  0.072327  1
  Ti  Ti9  1  0.750000  0.273040  0.927673  1
  Ti  Ti10  1  0.250000  0.226960  0.427673  1
  Ti  Ti11  1  0.750000  0.773040  0.572327  1
  S  S12  1  0.250000  0.806802  0.902542  1
  S  S13  1  0.750000  0.193198  0.097458  1
  S  S14  1  0.250000  0.306802  0.597458  1
  S  S15  1  0.750000  0.693198  0.402542  1
  S  S16  1  0.508425  0.331728  0.351776  1
  S  S17  1  0.008425  0.668272  0.648224  1
  S  S18  1  0.991575  0.831728  0.148224  1
  S  S19  1  0.491575  0.168272  0.851776  1
  S  S20  1  0.491575  0.668272  0.648224  1
  S  S21  1  0.991575  0.331728  0.351776  1
  S  S22  1  0.008425  0.168272  0.851776  1
  S  S23  1  0.508425  0.831728  0.148224  1
  S  S24  1  0.750000  0.519078  0.911334  1
  S  S25  1  0.250000  0.480922  0.088666  1
  S  S26  1  0.750000  0.019078  0.588666  1
  S  S27  1  0.250000  0.980922  0.411334  1
