# generated using pymatgen
data_NdCuS2
_symmetry_space_group_name_H-M   'P 1'
_cell_length_a   6.51150994
_cell_length_b   7.20356974
_cell_length_c   6.88912744
_cell_angle_alpha   90.00000000
_cell_angle_beta   97.54384136
_cell_angle_gamma   90.00000000
_symmetry_Int_Tables_number   1
_chemical_formula_structural   NdCuS2
_chemical_formula_sum   'Nd4 Cu4 S8'
_cell_volume   320.34531668
_cell_formula_units_Z   4
loop_
 _symmetry_equiv_pos_site_id
 _symmetry_equiv_pos_as_xyz
  1  'x, y, z'
loop_
 _atom_site_type_symbol
 _atom_site_label
 _atom_site_symmetry_multiplicity
 _atom_site_fract_x
 _atom_site_fract_y
 _atom_site_fract_z
 _atom_site_occupancy
  Nd  Nd0  1  0.809099  0.949877  0.200207  1
  Nd  Nd1  1  0.190901  0.449877  0.299793  1
  Nd  Nd2  1  0.190901  0.050123  0.799793  1
  Nd  Nd3  1  0.809099  0.550123  0.700207  1
  Cu  Cu4  1  0.425664  0.663852  0.951142  1
  Cu  Cu5  1  0.574336  0.336148  0.048858  1
  Cu  Cu6  1  0.574336  0.163852  0.548858  1
  Cu  Cu7  1  0.425664  0.836148  0.451142  1
  S  S8  1  0.084795  0.726040  0.998729  1
  S  S9  1  0.915205  0.226040  0.501271  1
  S  S10  1  0.915205  0.273960  0.001271  1
  S  S11  1  0.084795  0.773960  0.498729  1
  S  S12  1  0.410230  0.114253  0.222361  1
  S  S13  1  0.410230  0.385747  0.722361  1
  S  S14  1  0.589770  0.885747  0.777639  1
  S  S15  1  0.589770  0.614253  0.277639  1
