# generated using pymatgen
data_SmSbIr
_symmetry_space_group_name_H-M   'P 1'
_cell_length_a   4.57203327
_cell_length_b   7.32776099
_cell_length_c   7.98952874
_cell_angle_alpha   90.00000000
_cell_angle_beta   90.00000000
_cell_angle_gamma   90.00000000
_symmetry_Int_Tables_number   1
_chemical_formula_structural   SmSbIr
_chemical_formula_sum   'Sm4 Sb4 Ir4'
_cell_volume   267.67132014
_cell_formula_units_Z   4
loop_
 _symmetry_equiv_pos_site_id
 _symmetry_equiv_pos_as_xyz
  1  'x, y, z'
loop_
 _atom_site_type_symbol
 _atom_site_label
 _atom_site_symmetry_multiplicity
 _atom_site_fract_x
 _atom_site_fract_y
 _atom_site_fract_z
 _atom_site_occupancy
  Sm  Sm0  1  0.750000  0.487277  0.807250  1
  Sm  Sm1  1  0.250000  0.012723  0.307250  1
  Sm  Sm2  1  0.750000  0.987277  0.692750  1
  Sm  Sm3  1  0.250000  0.512723  0.192750  1
  Sb  Sb4  1  0.250000  0.677384  0.587519  1
  Sb  Sb5  1  0.250000  0.177384  0.912481  1
  Sb  Sb6  1  0.750000  0.322616  0.412481  1
  Sb  Sb7  1  0.750000  0.822616  0.087519  1
  Ir  Ir8  1  0.250000  0.794945  0.910771  1
  Ir  Ir9  1  0.250000  0.294945  0.589229  1
  Ir  Ir10  1  0.750000  0.705055  0.410771  1
  Ir  Ir11  1  0.750000  0.205055  0.089229  1
