# generated using pymatgen
data_LiMnBO3
_symmetry_space_group_name_H-M   'P 1'
_cell_length_a   8.27041983
_cell_length_b   8.27041983
_cell_length_c   3.19468288
_cell_angle_alpha   90.00000000
_cell_angle_beta   90.00000000
_cell_angle_gamma   120.00000000
_symmetry_Int_Tables_number   1
_chemical_formula_structural   LiMnBO3
_chemical_formula_sum   'Li3 Mn3 B3 O9'
_cell_volume   189.24024356
_cell_formula_units_Z   3
loop_
 _symmetry_equiv_pos_site_id
 _symmetry_equiv_pos_as_xyz
  1  'x, y, z'
loop_
 _atom_site_type_symbol
 _atom_site_label
 _atom_site_symmetry_multiplicity
 _atom_site_fract_x
 _atom_site_fract_y
 _atom_site_fract_z
 _atom_site_occupancy
  Li  Li0  1  0.701429  0.717065  0.500000  1
  Li  Li1  1  0.282935  0.984365  0.500000  1
  Li  Li2  1  0.015635  0.298571  0.500000  1
  Mn  Mn3  1  0.638881  0.010482  0.000000  1
  Mn  Mn4  1  0.989518  0.628399  0.000000  1
  Mn  Mn5  1  0.371601  0.361119  0.000000  1
  B  B6  1  0.333333  0.666667  0.500000  1
  B  B7  1  0.000000  0.000000  0.000000  1
  B  B8  1  0.666667  0.333333  0.500000  1
  O  O9  1  0.139654  0.578381  0.500000  1
  O  O10  1  0.438727  0.860346  0.500000  1
  O  O11  1  0.421619  0.561273  0.500000  1
  O  O12  1  0.115014  0.921420  0.000000  1
  O  O13  1  0.806406  0.884986  0.000000  1
  O  O14  1  0.078580  0.193594  0.000000  1
  O  O15  1  0.747918  0.220943  0.500000  1
  O  O16  1  0.473024  0.252082  0.500000  1
  O  O17  1  0.779057  0.526976  0.500000  1
