# generated using pymatgen
data_CuF2
_symmetry_space_group_name_H-M   'P 1'
_cell_length_a   3.29997171
_cell_length_b   4.61316929
_cell_length_c   5.42314806
_cell_angle_alpha   90.00000000
_cell_angle_beta   120.76891905
_cell_angle_gamma   90.00000000
_symmetry_Int_Tables_number   1
_chemical_formula_structural   CuF2
_chemical_formula_sum   'Cu2 F4'
_cell_volume   70.93724390
_cell_formula_units_Z   2
loop_
 _symmetry_equiv_pos_site_id
 _symmetry_equiv_pos_as_xyz
  1  'x, y, z'
loop_
 _atom_site_type_symbol
 _atom_site_label
 _atom_site_symmetry_multiplicity
 _atom_site_fract_x
 _atom_site_fract_y
 _atom_site_fract_z
 _atom_site_occupancy
  Cu  Cu0  1  0.000000  0.500000  0.500000  1
  Cu  Cu1  1  0.000000  0.000000  0.000000  1
  F  F2  1  0.731169  0.799700  0.204173  1
  F  F3  1  0.268831  0.299700  0.295827  1
  F  F4  1  0.731169  0.700300  0.704173  1
  F  F5  1  0.268831  0.200300  0.795827  1
