# generated using pymatgen
data_HoCrO4
_symmetry_space_group_name_H-M   'P 1'
_cell_length_a   5.97027478
_cell_length_b   5.97027478
_cell_length_c   5.97027478
_cell_angle_alpha   106.01892137
_cell_angle_beta   106.01892137
_cell_angle_gamma   116.62123339
_symmetry_Int_Tables_number   1
_chemical_formula_structural   HoCrO4
_chemical_formula_sum   'Ho2 Cr2 O8'
_cell_volume   161.88164452
_cell_formula_units_Z   2
loop_
 _symmetry_equiv_pos_site_id
 _symmetry_equiv_pos_as_xyz
  1  'x, y, z'
loop_
 _atom_site_type_symbol
 _atom_site_label
 _atom_site_symmetry_multiplicity
 _atom_site_fract_x
 _atom_site_fract_y
 _atom_site_fract_z
 _atom_site_occupancy
  Ho  Ho0  1  1.000000  1.000000  0.000000  1
  Ho  Ho1  1  0.250000  0.750000  0.500000  1
  Cr  Cr2  1  0.750000  0.250000  0.500000  1
  Cr  Cr3  1  0.500000  0.500000  0.000000  1
  O  O4  1  0.860048  0.675446  0.184603  1
  O  O5  1  0.925446  0.240843  0.315397  1
  O  O6  1  0.925446  0.610048  0.684603  1
  O  O7  1  0.490843  0.675446  0.815397  1
  O  O8  1  0.324554  0.509157  0.184603  1
  O  O9  1  0.389952  0.074554  0.315397  1
  O  O10  1  0.759157  0.074554  0.684603  1
  O  O11  1  0.324554  0.139952  0.815397  1
