# generated using pymatgen
data_LaCd2Pd
_symmetry_space_group_name_H-M   'P 1'
_cell_length_a   5.54425893
_cell_length_b   5.54425893
_cell_length_c   8.64835071
_cell_angle_alpha   90.00000000
_cell_angle_beta   90.00000000
_cell_angle_gamma   134.06947579
_symmetry_Int_Tables_number   1
_chemical_formula_structural   LaCd2Pd
_chemical_formula_sum   'La2 Cd4 Pd2'
_cell_volume   191.00521547
_cell_formula_units_Z   2
loop_
 _symmetry_equiv_pos_site_id
 _symmetry_equiv_pos_as_xyz
  1  'x, y, z'
loop_
 _atom_site_type_symbol
 _atom_site_label
 _atom_site_symmetry_multiplicity
 _atom_site_fract_x
 _atom_site_fract_y
 _atom_site_fract_z
 _atom_site_occupancy
  La  La0  1  0.064850  0.935150  0.250000  1
  La  La1  1  0.935150  0.064850  0.750000  1
  Cd  Cd2  1  0.645203  0.354797  0.547333  1
  Cd  Cd3  1  0.354797  0.645203  0.452667  1
  Cd  Cd4  1  0.645203  0.354797  0.952667  1
  Cd  Cd5  1  0.354797  0.645203  0.047333  1
  Pd  Pd6  1  0.220561  0.779439  0.750000  1
  Pd  Pd7  1  0.779439  0.220561  0.250000  1
