# generated using pymatgen
data_AlVO4
_symmetry_space_group_name_H-M   'P 1'
_cell_length_a   6.62787230
_cell_length_b   7.85185449
_cell_length_c   9.28064756
_cell_angle_alpha   96.13774956
_cell_angle_beta   107.34086540
_cell_angle_gamma   101.51242024
_symmetry_Int_Tables_number   1
_chemical_formula_structural   AlVO4
_chemical_formula_sum   'Al6 V6 O24'
_cell_volume   444.54125816
_cell_formula_units_Z   6
loop_
 _symmetry_equiv_pos_site_id
 _symmetry_equiv_pos_as_xyz
  1  'x, y, z'
loop_
 _atom_site_type_symbol
 _atom_site_label
 _atom_site_symmetry_multiplicity
 _atom_site_fract_x
 _atom_site_fract_y
 _atom_site_fract_z
 _atom_site_occupancy
  Al  Al0  1  0.748573  0.698993  0.407628  1
  Al  Al1  1  0.251427  0.301007  0.592372  1
  Al  Al2  1  0.460667  0.881646  0.209472  1
  Al  Al3  1  0.539333  0.118354  0.790528  1
  Al  Al4  1  0.962867  0.306663  0.007371  1
  Al  Al5  1  0.037133  0.693337  0.992629  1
  V  V6  1  0.003005  0.995505  0.255356  1
  V  V7  1  0.996995  0.004495  0.744644  1
  V  V8  1  0.195017  0.600631  0.342754  1
  V  V9  1  0.804983  0.399369  0.657246  1
  V  V10  1  0.516386  0.299065  0.124598  1
  V  V11  1  0.483614  0.700935  0.875402  1
  O  O12  1  0.049436  0.850254  0.854344  1
  O  O13  1  0.950564  0.149746  0.145656  1
  O  O14  1  0.843674  0.133480  0.825236  1
  O  O15  1  0.156326  0.866520  0.174764  1
  O  O16  1  0.950824  0.478297  0.858876  1
  O  O17  1  0.049176  0.521703  0.141124  1
  O  O18  1  0.749279  0.704342  0.968482  1
  O  O19  1  0.250721  0.295658  0.031518  1
  O  O20  1  0.646072  0.271765  0.976150  1
  O  O21  1  0.353928  0.728235  0.023850  1
  O  O22  1  0.478486  0.884383  0.785760  1
  O  O23  1  0.521514  0.115617  0.214240  1
  O  O24  1  0.641951  0.490527  0.254630  1
  O  O25  1  0.358049  0.509473  0.745370  1
  O  O26  1  0.256457  0.435815  0.436304  1
  O  O27  1  0.743543  0.564185  0.563696  1
  O  O28  1  0.039860  0.702348  0.422916  1
  O  O29  1  0.960140  0.297652  0.577084  1
  O  O30  1  0.160430  0.100158  0.432434  1
  O  O31  1  0.839570  0.899842  0.567566  1
  O  O32  1  0.457402  0.742123  0.359779  1
  O  O33  1  0.542598  0.257877  0.640221  1
  O  O34  1  0.750002  0.864589  0.264124  1
  O  O35  1  0.249998  0.135411  0.735876  1
