# generated using pymatgen
data_AgRhO2
_symmetry_space_group_name_H-M   'P 1'
_cell_length_a   6.58407053
_cell_length_b   6.58407053
_cell_length_c   6.58407053
_cell_angle_alpha   27.39746691
_cell_angle_beta   27.39746691
_cell_angle_gamma   27.39746691
_symmetry_Int_Tables_number   1
_chemical_formula_structural   AgRhO2
_chemical_formula_sum   'Ag1 Rh1 O2'
_cell_volume   53.33618987
_cell_formula_units_Z   1
loop_
 _symmetry_equiv_pos_site_id
 _symmetry_equiv_pos_as_xyz
  1  'x, y, z'
loop_
 _atom_site_type_symbol
 _atom_site_label
 _atom_site_symmetry_multiplicity
 _atom_site_fract_x
 _atom_site_fract_y
 _atom_site_fract_z
 _atom_site_occupancy
  Ag  Ag0  1  0.000000  0.000000  0.000000  1
  Rh  Rh1  1  0.500000  0.500000  0.500000  1
  O  O2  1  0.886975  0.886975  0.886975  1
  O  O3  1  0.113025  0.113025  0.113025  1
