# generated using pymatgen
data_RbAg3Te2
_symmetry_space_group_name_H-M   'P 1'
_cell_length_a   9.19404238
_cell_length_b   9.19404238
_cell_length_c   9.37912879
_cell_angle_alpha   67.93322014
_cell_angle_beta   112.06677986
_cell_angle_gamma   150.66180494
_symmetry_Int_Tables_number   1
_chemical_formula_structural   RbAg3Te2
_chemical_formula_sum   'Rb2 Ag6 Te4'
_cell_volume   357.96560623
_cell_formula_units_Z   2
loop_
 _symmetry_equiv_pos_site_id
 _symmetry_equiv_pos_as_xyz
  1  'x, y, z'
loop_
 _atom_site_type_symbol
 _atom_site_label
 _atom_site_symmetry_multiplicity
 _atom_site_fract_x
 _atom_site_fract_y
 _atom_site_fract_z
 _atom_site_occupancy
  Rb  Rb0  1  0.135582  0.864418  0.049520  1
  Rb  Rb1  1  0.864418  0.135582  0.950480  1
  Ag  Ag2  1  0.937779  0.062221  0.591073  1
  Ag  Ag3  1  0.587158  0.412842  0.626036  1
  Ag  Ag4  1  0.062221  0.937779  0.408927  1
  Ag  Ag5  1  0.309126  0.690874  0.545799  1
  Ag  Ag6  1  0.412842  0.587158  0.373964  1
  Ag  Ag7  1  0.690874  0.309126  0.454201  1
  Te  Te8  1  0.200410  0.799590  0.697196  1
  Te  Te9  1  0.479755  0.520245  0.775775  1
  Te  Te10  1  0.520245  0.479755  0.224225  1
  Te  Te11  1  0.799590  0.200410  0.302804  1
