# generated using pymatgen
data_Be12Mo
_symmetry_space_group_name_H-M   'P 1'
_cell_length_a   5.52053490
_cell_length_b   5.52053490
_cell_length_c   5.52053490
_cell_angle_alpha   98.30796327
_cell_angle_beta   98.30796327
_cell_angle_gamma   135.31735834
_symmetry_Int_Tables_number   1
_chemical_formula_structural   Be12Mo
_chemical_formula_sum   'Be12 Mo1'
_cell_volume   109.42616303
_cell_formula_units_Z   1
loop_
 _symmetry_equiv_pos_site_id
 _symmetry_equiv_pos_as_xyz
  1  'x, y, z'
loop_
 _atom_site_type_symbol
 _atom_site_label
 _atom_site_symmetry_multiplicity
 _atom_site_fract_x
 _atom_site_fract_y
 _atom_site_fract_z
 _atom_site_occupancy
  Be  Be0  1  0.000000  0.500000  0.000000  1
  Be  Be1  1  0.000000  0.000000  0.500000  1
  Be  Be2  1  0.500000  0.500000  0.500000  1
  Be  Be3  1  0.500000  0.000000  0.000000  1
  Be  Be4  1  1.000000  0.350611  0.350611  1
  Be  Be5  1  0.649389  0.000000  0.649389  1
  Be  Be6  1  0.350611  0.000000  0.350611  1
  Be  Be7  1  1.000000  0.649389  0.649389  1
  Be  Be8  1  0.500000  0.289137  0.789137  1
  Be  Be9  1  0.710863  0.500000  0.210863  1
  Be  Be10  1  0.289137  0.500000  0.789137  1
  Be  Be11  1  0.500000  0.710863  0.210863  1
  Mo  Mo12  1  0.000000  0.000000  0.000000  1
