# generated using pymatgen
data_LiCa3Si2N5
_symmetry_space_group_name_H-M   'P 1'
_cell_length_a   10.58130420
_cell_length_b   10.58130420
_cell_length_c   10.42045966
_cell_angle_alpha   89.74132838
_cell_angle_beta   90.25867162
_cell_angle_gamma   28.34718041
_symmetry_Int_Tables_number   1
_chemical_formula_structural   LiCa3Si2N5
_chemical_formula_sum   'Li4 Ca12 Si8 N20'
_cell_volume   553.87800644
_cell_formula_units_Z   4
loop_
 _symmetry_equiv_pos_site_id
 _symmetry_equiv_pos_as_xyz
  1  'x, y, z'
loop_
 _atom_site_type_symbol
 _atom_site_label
 _atom_site_symmetry_multiplicity
 _atom_site_fract_x
 _atom_site_fract_y
 _atom_site_fract_z
 _atom_site_occupancy
  Li  Li0  1  0.845071  0.845071  0.750000  1
  Li  Li1  1  0.154929  0.154929  0.250000  1
  Li  Li2  1  0.372209  0.372209  0.750000  1
  Li  Li3  1  0.627791  0.627791  0.250000  1
  Ca  Ca4  1  0.461307  0.968797  0.645603  1
  Ca  Ca5  1  0.968797  0.461307  0.854397  1
  Ca  Ca6  1  0.538693  0.031203  0.354397  1
  Ca  Ca7  1  0.031203  0.538693  0.145603  1
  Ca  Ca8  1  0.342654  0.836733  0.855374  1
  Ca  Ca9  1  0.836733  0.342654  0.644626  1
  Ca  Ca10  1  0.657346  0.163267  0.144626  1
  Ca  Ca11  1  0.163267  0.657346  0.355374  1
  Ca  Ca12  1  0.731703  0.230236  0.867906  1
  Ca  Ca13  1  0.230236  0.731703  0.632094  1
  Ca  Ca14  1  0.268297  0.769764  0.132094  1
  Ca  Ca15  1  0.769764  0.268297  0.367906  1
  Si  Si16  1  0.308054  0.901396  0.462051  1
  Si  Si17  1  0.901396  0.308054  0.037949  1
  Si  Si18  1  0.691946  0.098604  0.537949  1
  Si  Si19  1  0.098604  0.691946  0.962051  1
  Si  Si20  1  0.113137  0.493935  0.547629  1
  Si  Si21  1  0.493935  0.113137  0.952371  1
  Si  Si22  1  0.886863  0.506065  0.452371  1
  Si  Si23  1  0.506065  0.886863  0.047629  1
  N  N24  1  0.498093  0.954080  0.883466  1
  N  N25  1  0.954080  0.498093  0.616534  1
  N  N26  1  0.501907  0.045920  0.116534  1
  N  N27  1  0.045920  0.501907  0.383466  1
  N  N28  1  0.001687  0.254334  0.423164  1
  N  N29  1  0.254334  0.001687  0.076836  1
  N  N30  1  0.998313  0.745666  0.576836  1
  N  N31  1  0.745666  0.998313  0.923164  1
  N  N32  1  0.700058  0.233803  0.622751  1
  N  N33  1  0.233803  0.700058  0.877249  1
  N  N34  1  0.299942  0.766197  0.377249  1
  N  N35  1  0.766197  0.299942  0.122751  1
  N  N36  1  0.333348  0.862111  0.630227  1
  N  N37  1  0.862111  0.333348  0.869773  1
  N  N38  1  0.666652  0.137889  0.369773  1
  N  N39  1  0.137889  0.666652  0.130227  1
  N  N40  1  0.451841  0.195481  0.587892  1
  N  N41  1  0.195481  0.451841  0.912108  1
  N  N42  1  0.548159  0.804519  0.412108  1
  N  N43  1  0.804519  0.548159  0.087892  1
