# generated using pymatgen
data_KTe
_symmetry_space_group_name_H-M   'P 1'
_cell_length_a   9.67853442
_cell_length_b   9.67853442
_cell_length_c   6.50460792
_cell_angle_alpha   90.00000000
_cell_angle_beta   90.00000000
_cell_angle_gamma   120.00000000
_symmetry_Int_Tables_number   1
_chemical_formula_structural   KTe
_chemical_formula_sum   'K6 Te6'
_cell_volume   527.68038777
_cell_formula_units_Z   6
loop_
 _symmetry_equiv_pos_site_id
 _symmetry_equiv_pos_as_xyz
  1  'x, y, z'
loop_
 _atom_site_type_symbol
 _atom_site_label
 _atom_site_symmetry_multiplicity
 _atom_site_fract_x
 _atom_site_fract_y
 _atom_site_fract_z
 _atom_site_occupancy
  K  K0  1  0.655349  0.000000  0.000000  1
  K  K1  1  0.344651  0.344651  0.000000  1
  K  K2  1  0.000000  0.655349  0.000000  1
  K  K3  1  0.321677  0.000000  0.500000  1
  K  K4  1  0.678323  0.678323  0.500000  1
  K  K5  1  0.000000  0.321677  0.500000  1
  Te  Te6  1  0.000000  0.000000  0.217518  1
  Te  Te7  1  0.000000  0.000000  0.782482  1
  Te  Te8  1  0.333333  0.666667  0.281454  1
  Te  Te9  1  0.333333  0.666667  0.718546  1
  Te  Te10  1  0.666667  0.333333  0.718546  1
  Te  Te11  1  0.666667  0.333333  0.281454  1
