# generated using pymatgen
data_Na2ZrCo(P2O7)2
_symmetry_space_group_name_H-M   'P 1'
_cell_length_a   6.62000770
_cell_length_b   6.63156695
_cell_length_c   6.97699690
_cell_angle_alpha   66.40156322
_cell_angle_beta   85.36784511
_cell_angle_gamma   82.26119535
_symmetry_Int_Tables_number   1
_chemical_formula_structural   Na2ZrCo(P2O7)2
_chemical_formula_sum   'Na2 Zr1 Co1 P4 O14'
_cell_volume   278.00475618
_cell_formula_units_Z   1
loop_
 _symmetry_equiv_pos_site_id
 _symmetry_equiv_pos_as_xyz
  1  'x, y, z'
loop_
 _atom_site_type_symbol
 _atom_site_label
 _atom_site_symmetry_multiplicity
 _atom_site_fract_x
 _atom_site_fract_y
 _atom_site_fract_z
 _atom_site_occupancy
  Na  Na0  1  0.267361  0.171356  0.411692  1
  Na  Na1  1  0.511569  0.592282  0.066047  1
  Zr  Zr2  1  0.006017  0.976584  0.006379  1
  Co  Co3  1  0.692429  0.779817  0.464517  1
  P  P4  1  0.218827  0.672859  0.459458  1
  P  P5  1  0.968304  0.536395  0.867186  1
  P  P6  1  0.491842  0.119039  0.972510  1
  P  P7  1  0.731360  0.244274  0.560090  1
  O  O8  1  0.555255  0.257149  0.734480  1
  O  O9  1  0.294342  0.517814  0.356210  1
  O  O10  1  0.759912  0.636058  0.774826  1
  O  O11  1  0.324345  0.978468  0.961637  1
  O  O12  1  0.665980  0.099201  0.460673  1
  O  O13  1  0.682603  0.952489  0.076006  1
  O  O14  1  0.046001  0.675921  0.971162  1
  O  O15  1  0.928502  0.135700  0.691068  1
  O  O16  1  0.131100  0.524677  0.689403  1
  O  O17  1  0.027477  0.836430  0.344359  1
  O  O18  1  0.417136  0.274445  0.074480  1
  O  O19  1  0.746041  0.484389  0.413859  1
  O  O20  1  0.375707  0.805414  0.490317  1
  O  O21  1  0.969991  0.292440  0.020539  1
