# generated using pymatgen
data_NdAl3
_symmetry_space_group_name_H-M   'P 1'
_cell_length_a   6.47982323
_cell_length_b   6.47982323
_cell_length_c   4.66103949
_cell_angle_alpha   90.00000000
_cell_angle_beta   90.00000000
_cell_angle_gamma   120.00000000
_symmetry_Int_Tables_number   1
_chemical_formula_structural   NdAl3
_chemical_formula_sum   'Nd2 Al6'
_cell_volume   169.48830297
_cell_formula_units_Z   2
loop_
 _symmetry_equiv_pos_site_id
 _symmetry_equiv_pos_as_xyz
  1  'x, y, z'
loop_
 _atom_site_type_symbol
 _atom_site_label
 _atom_site_symmetry_multiplicity
 _atom_site_fract_x
 _atom_site_fract_y
 _atom_site_fract_z
 _atom_site_occupancy
  Nd  Nd0  1  0.333333  0.666667  0.250000  1
  Nd  Nd1  1  0.666667  0.333333  0.750000  1
  Al  Al2  1  0.858625  0.717250  0.250000  1
  Al  Al3  1  0.141375  0.858625  0.750000  1
  Al  Al4  1  0.717250  0.858625  0.750000  1
  Al  Al5  1  0.282750  0.141375  0.250000  1
  Al  Al6  1  0.858625  0.141375  0.250000  1
  Al  Al7  1  0.141375  0.282750  0.750000  1
