# generated using pymatgen
data_BaDyCo4O7
_symmetry_space_group_name_H-M   'P 1'
_cell_length_a   6.39368589
_cell_length_b   6.39368589
_cell_length_c   10.42344875
_cell_angle_alpha   90.00000000
_cell_angle_beta   90.00000000
_cell_angle_gamma   120.00000000
_symmetry_Int_Tables_number   1
_chemical_formula_structural   BaDyCo4O7
_chemical_formula_sum   'Ba2 Dy2 Co8 O14'
_cell_volume   369.01554404
_cell_formula_units_Z   2
loop_
 _symmetry_equiv_pos_site_id
 _symmetry_equiv_pos_as_xyz
  1  'x, y, z'
loop_
 _atom_site_type_symbol
 _atom_site_label
 _atom_site_symmetry_multiplicity
 _atom_site_fract_x
 _atom_site_fract_y
 _atom_site_fract_z
 _atom_site_occupancy
  Ba  Ba0  1  0.333333  0.666667  0.978942  1
  Ba  Ba1  1  0.666667  0.333333  0.478942  1
  Dy  Dy2  1  0.333333  0.666667  0.375813  1
  Dy  Dy3  1  0.666667  0.333333  0.875813  1
  Co  Co4  1  0.830636  0.169364  0.186186  1
  Co  Co5  1  0.661272  0.830636  0.686186  1
  Co  Co6  1  0.169364  0.338728  0.686186  1
  Co  Co7  1  0.830636  0.661272  0.186186  1
  Co  Co8  1  0.338728  0.169364  0.186186  1
  Co  Co9  1  0.169364  0.830636  0.686186  1
  Co  Co10  1  0.000000  0.000000  0.941288  1
  Co  Co11  1  0.000000  0.000000  0.441288  1
  O  O12  1  0.832707  0.167293  0.002048  1
  O  O13  1  0.665413  0.832707  0.502048  1
  O  O14  1  0.167293  0.334587  0.502048  1
  O  O15  1  0.832707  0.665413  0.002048  1
  O  O16  1  0.334587  0.167293  0.002048  1
  O  O17  1  0.167293  0.832707  0.502048  1
  O  O18  1  0.000000  0.000000  0.743212  1
  O  O19  1  0.000000  0.000000  0.243212  1
  O  O20  1  0.508640  0.491360  0.258714  1
  O  O21  1  0.017279  0.508640  0.758714  1
  O  O22  1  0.491360  0.982721  0.758714  1
  O  O23  1  0.508640  0.017279  0.258714  1
  O  O24  1  0.491360  0.508640  0.758714  1
  O  O25  1  0.982721  0.491360  0.258714  1
