# generated using pymatgen
data_CeSiO4
_symmetry_space_group_name_H-M   'P 1'
_cell_length_a   5.89359929
_cell_length_b   5.89359929
_cell_length_c   5.89359929
_cell_angle_alpha   106.48031420
_cell_angle_beta   106.48031420
_cell_angle_gamma   115.63446897
_symmetry_Int_Tables_number   1
_chemical_formula_structural   CeSiO4
_chemical_formula_sum   'Ce2 Si2 O8'
_cell_volume   156.20473147
_cell_formula_units_Z   2
loop_
 _symmetry_equiv_pos_site_id
 _symmetry_equiv_pos_as_xyz
  1  'x, y, z'
loop_
 _atom_site_type_symbol
 _atom_site_label
 _atom_site_symmetry_multiplicity
 _atom_site_fract_x
 _atom_site_fract_y
 _atom_site_fract_z
 _atom_site_occupancy
  Ce  Ce0  1  0.000000  0.000000  0.000000  1
  Ce  Ce1  1  0.250000  0.750000  0.500000  1
  Si  Si2  1  0.500000  0.500000  0.000000  1
  Si  Si3  1  0.750000  0.250000  0.500000  1
  O  O4  1  0.490401  0.669185  0.821216  1
  O  O5  1  0.919185  0.597968  0.678784  1
  O  O6  1  0.919185  0.240401  0.321216  1
  O  O7  1  0.847968  0.669185  0.178784  1
  O  O8  1  0.330815  0.152032  0.821216  1
  O  O9  1  0.759599  0.080815  0.678784  1
  O  O10  1  0.402032  0.080815  0.321216  1
  O  O11  1  0.330815  0.509599  0.178784  1
