# generated using pymatgen
data_NaO2
_symmetry_space_group_name_H-M   'P 1'
_cell_length_a   3.47402655
_cell_length_b   4.22964397
_cell_length_c   5.67466155
_cell_angle_alpha   90.00000000
_cell_angle_beta   90.00000000
_cell_angle_gamma   90.00000000
_symmetry_Int_Tables_number   1
_chemical_formula_structural   NaO2
_chemical_formula_sum   'Na2 O4'
_cell_volume   83.38288352
_cell_formula_units_Z   2
loop_
 _symmetry_equiv_pos_site_id
 _symmetry_equiv_pos_as_xyz
  1  'x, y, z'
loop_
 _atom_site_type_symbol
 _atom_site_label
 _atom_site_symmetry_multiplicity
 _atom_site_fract_x
 _atom_site_fract_y
 _atom_site_fract_z
 _atom_site_occupancy
  Na  Na0  1  0.000000  0.500000  0.500000  1
  Na  Na1  1  0.500000  0.000000  0.000000  1
  O  O2  1  0.000000  0.384124  0.917941  1
  O  O3  1  0.000000  0.615876  0.082059  1
  O  O4  1  0.500000  0.115876  0.417941  1
  O  O5  1  0.500000  0.884124  0.582059  1
