# generated using pymatgen
data_Y(AlGe)2
_symmetry_space_group_name_H-M   'P 1'
_cell_length_a   4.29085616
_cell_length_b   4.29085616
_cell_length_c   6.62146125
_cell_angle_alpha   90.00000000
_cell_angle_beta   90.00000000
_cell_angle_gamma   120.00000000
_symmetry_Int_Tables_number   1
_chemical_formula_structural   Y(AlGe)2
_chemical_formula_sum   'Y1 Al2 Ge2'
_cell_volume   105.57774601
_cell_formula_units_Z   1
loop_
 _symmetry_equiv_pos_site_id
 _symmetry_equiv_pos_as_xyz
  1  'x, y, z'
loop_
 _atom_site_type_symbol
 _atom_site_label
 _atom_site_symmetry_multiplicity
 _atom_site_fract_x
 _atom_site_fract_y
 _atom_site_fract_z
 _atom_site_occupancy
  Y  Y0  1  0.000000  0.000000  0.000000  1
  Al  Al1  1  0.666667  0.333333  0.353317  1
  Al  Al2  1  0.333333  0.666667  0.646683  1
  Ge  Ge3  1  0.666667  0.333333  0.741368  1
  Ge  Ge4  1  0.333333  0.666667  0.258632  1
