# generated using pymatgen
data_NaCoPO4
_symmetry_space_group_name_H-M   'P 1'
_cell_length_a   5.07975935
_cell_length_b   6.87033360
_cell_length_c   8.97502107
_cell_angle_alpha   90.00000000
_cell_angle_beta   90.00000000
_cell_angle_gamma   90.00000000
_symmetry_Int_Tables_number   1
_chemical_formula_structural   NaCoPO4
_chemical_formula_sum   'Na4 Co4 P4 O16'
_cell_volume   313.22501638
_cell_formula_units_Z   4
loop_
 _symmetry_equiv_pos_site_id
 _symmetry_equiv_pos_as_xyz
  1  'x, y, z'
loop_
 _atom_site_type_symbol
 _atom_site_label
 _atom_site_symmetry_multiplicity
 _atom_site_fract_x
 _atom_site_fract_y
 _atom_site_fract_z
 _atom_site_occupancy
  Na  Na0  1  0.466064  0.750000  0.850808  1
  Na  Na1  1  0.533936  0.250000  0.149192  1
  Na  Na2  1  0.966064  0.250000  0.649192  1
  Na  Na3  1  0.033936  0.750000  0.350808  1
  Co  Co4  1  0.500000  0.500000  0.500000  1
  Co  Co5  1  0.500000  0.000000  0.500000  1
  Co  Co6  1  0.000000  0.000000  0.000000  1
  Co  Co7  1  0.000000  0.500000  0.000000  1
  P  P8  1  0.039336  0.250000  0.323557  1
  P  P9  1  0.460664  0.250000  0.823557  1
  P  P10  1  0.960664  0.750000  0.676443  1
  P  P11  1  0.539336  0.750000  0.176443  1
  O  O12  1  0.184834  0.434294  0.378036  1
  O  O13  1  0.684834  0.565706  0.121964  1
  O  O14  1  0.815166  0.934294  0.621964  1
  O  O15  1  0.315166  0.065706  0.878036  1
  O  O16  1  0.815166  0.565706  0.621964  1
  O  O17  1  0.315166  0.434294  0.878036  1
  O  O18  1  0.184834  0.065706  0.378036  1
  O  O19  1  0.684834  0.934294  0.121964  1
  O  O20  1  0.949719  0.750000  0.852249  1
  O  O21  1  0.449719  0.250000  0.647751  1
  O  O22  1  0.050281  0.250000  0.147751  1
  O  O23  1  0.550281  0.750000  0.352249  1
  O  O24  1  0.251292  0.750000  0.116254  1
  O  O25  1  0.751292  0.250000  0.383746  1
  O  O26  1  0.748708  0.250000  0.883746  1
  O  O27  1  0.248708  0.750000  0.616254  1
