# generated using pymatgen
data_Na2BeB2O5
_symmetry_space_group_name_H-M   'P 1'
_cell_length_a   5.04032059
_cell_length_b   5.04032059
_cell_length_c   9.12378249
_cell_angle_alpha   85.23343950
_cell_angle_beta   94.76656050
_cell_angle_gamma   71.78490315
_symmetry_Int_Tables_number   1
_chemical_formula_structural   Na2BeB2O5
_chemical_formula_sum   'Na4 Be2 B4 O10'
_cell_volume   217.95035881
_cell_formula_units_Z   2
loop_
 _symmetry_equiv_pos_site_id
 _symmetry_equiv_pos_as_xyz
  1  'x, y, z'
loop_
 _atom_site_type_symbol
 _atom_site_label
 _atom_site_symmetry_multiplicity
 _atom_site_fract_x
 _atom_site_fract_y
 _atom_site_fract_z
 _atom_site_occupancy
  Na  Na0  1  0.294577  0.315515  0.928457  1
  Na  Na1  1  0.315515  0.294577  0.571543  1
  Na  Na2  1  0.705423  0.684485  0.071543  1
  Na  Na3  1  0.684485  0.705423  0.428457  1
  Be  Be4  1  0.710742  0.710742  0.750000  1
  Be  Be5  1  0.289258  0.289258  0.250000  1
  B  B6  1  0.827845  0.160397  0.821738  1
  B  B7  1  0.160397  0.827845  0.678262  1
  B  B8  1  0.839603  0.172155  0.321738  1
  B  B9  1  0.172155  0.839603  0.178262  1
  O  O10  1  0.018637  0.323070  0.343827  1
  O  O11  1  0.676930  0.981363  0.843827  1
  O  O12  1  0.575609  0.245041  0.366982  1
  O  O13  1  0.245041  0.575609  0.133018  1
  O  O14  1  0.424391  0.754959  0.633018  1
  O  O15  1  0.754959  0.424391  0.866982  1
  O  O16  1  0.924338  0.924338  0.250000  1
  O  O17  1  0.075662  0.075662  0.750000  1
  O  O18  1  0.981363  0.676930  0.656173  1
  O  O19  1  0.323070  0.018637  0.156173  1
