# generated using pymatgen
data_LiGaSiO4
_symmetry_space_group_name_H-M   'P 1'
_cell_length_a   8.55317470
_cell_length_b   8.55317470
_cell_length_c   8.55317470
_cell_angle_alpha   107.88319000
_cell_angle_beta   107.88319000
_cell_angle_gamma   107.88319000
_symmetry_Int_Tables_number   1
_chemical_formula_structural   LiGaSiO4
_chemical_formula_sum   'Li6 Ga6 Si6 O24'
_cell_volume   508.03060003
_cell_formula_units_Z   6
loop_
 _symmetry_equiv_pos_site_id
 _symmetry_equiv_pos_as_xyz
  1  'x, y, z'
loop_
 _atom_site_type_symbol
 _atom_site_label
 _atom_site_symmetry_multiplicity
 _atom_site_fract_x
 _atom_site_fract_y
 _atom_site_fract_z
 _atom_site_occupancy
  Li  Li0  1  0.608799  0.433594  0.210416  1
  Li  Li1  1  0.893537  0.126123  0.723691  1
  Li  Li2  1  0.723691  0.893537  0.126123  1
  Li  Li3  1  0.126123  0.723691  0.893537  1
  Li  Li4  1  0.210416  0.608799  0.433594  1
  Li  Li5  1  0.433594  0.210416  0.608799  1
  Ga  Ga6  1  0.457729  0.053087  0.237813  1
  Ga  Ga7  1  0.237813  0.457729  0.053087  1
  Ga  Ga8  1  0.053087  0.237813  0.457729  1
  Ga  Ga9  1  0.534637  0.944652  0.769420  1
  Ga  Ga10  1  0.769420  0.534637  0.944652  1
  Ga  Ga11  1  0.944652  0.769420  0.534637  1
  Si  Si12  1  0.094603  0.875839  0.281505  1
  Si  Si13  1  0.281505  0.094603  0.875839  1
  Si  Si14  1  0.875839  0.281505  0.094603  1
  Si  Si15  1  0.795801  0.387977  0.566587  1
  Si  Si16  1  0.566587  0.795801  0.387977  1
  Si  Si17  1  0.387977  0.566587  0.795801  1
  O  O18  1  0.698489  0.379201  0.704743  1
  O  O19  1  0.630450  0.297297  0.357116  1
  O  O20  1  0.297297  0.357116  0.630450  1
  O  O21  1  0.731047  0.062268  0.003153  1
  O  O22  1  0.003153  0.731047  0.062268  1
  O  O23  1  0.062268  0.003153  0.731047  1
  O  O24  1  0.310733  0.976577  0.993877  1
  O  O25  1  0.993877  0.310733  0.976577  1
  O  O26  1  0.976577  0.993877  0.310733  1
  O  O27  1  0.357116  0.630450  0.297297  1
  O  O28  1  0.379201  0.704743  0.698489  1
  O  O29  1  0.704743  0.698489  0.379201  1
  O  O30  1  0.632219  0.936656  0.601686  1
  O  O31  1  0.936656  0.601686  0.632219  1
  O  O32  1  0.601686  0.632219  0.936656  1
  O  O33  1  0.307367  0.020059  0.353338  1
  O  O34  1  0.020059  0.353338  0.307367  1
  O  O35  1  0.353338  0.307367  0.020059  1
  O  O36  1  0.760577  0.404010  0.082212  1
  O  O37  1  0.404010  0.082212  0.760577  1
  O  O38  1  0.082212  0.760577  0.404010  1
  O  O39  1  0.264381  0.578521  0.909815  1
  O  O40  1  0.578521  0.909815  0.264381  1
  O  O41  1  0.909815  0.264381  0.578521  1
