# generated using pymatgen
data_TbSi
_symmetry_space_group_name_H-M   'P 1'
_cell_length_a   3.85003340
_cell_length_b   5.72780561
_cell_length_c   7.96277355
_cell_angle_alpha   90.00000000
_cell_angle_beta   90.00000000
_cell_angle_gamma   90.00000000
_symmetry_Int_Tables_number   1
_chemical_formula_structural   TbSi
_chemical_formula_sum   'Tb4 Si4'
_cell_volume   175.59701654
_cell_formula_units_Z   4
loop_
 _symmetry_equiv_pos_site_id
 _symmetry_equiv_pos_as_xyz
  1  'x, y, z'
loop_
 _atom_site_type_symbol
 _atom_site_label
 _atom_site_symmetry_multiplicity
 _atom_site_fract_x
 _atom_site_fract_y
 _atom_site_fract_z
 _atom_site_occupancy
  Tb  Tb0  1  0.250000  0.385450  0.679447  1
  Tb  Tb1  1  0.750000  0.614550  0.320553  1
  Tb  Tb2  1  0.750000  0.885450  0.820553  1
  Tb  Tb3  1  0.250000  0.114550  0.179447  1
  Si  Si4  1  0.250000  0.871509  0.537557  1
  Si  Si5  1  0.750000  0.128491  0.462443  1
  Si  Si6  1  0.750000  0.371509  0.962443  1
  Si  Si7  1  0.250000  0.628491  0.037557  1
