# generated using pymatgen
data_Rb2WS4
_symmetry_space_group_name_H-M   'P 1'
_cell_length_a   7.18286451
_cell_length_b   9.95350187
_cell_length_c   12.79735313
_cell_angle_alpha   90.00000000
_cell_angle_beta   90.00000000
_cell_angle_gamma   90.00000000
_symmetry_Int_Tables_number   1
_chemical_formula_structural   Rb2WS4
_chemical_formula_sum   'Rb8 W4 S16'
_cell_volume   914.94235119
_cell_formula_units_Z   4
loop_
 _symmetry_equiv_pos_site_id
 _symmetry_equiv_pos_as_xyz
  1  'x, y, z'
loop_
 _atom_site_type_symbol
 _atom_site_label
 _atom_site_symmetry_multiplicity
 _atom_site_fract_x
 _atom_site_fract_y
 _atom_site_fract_z
 _atom_site_occupancy
  Rb  Rb0  1  0.250000  0.154674  0.105657  1
  Rb  Rb1  1  0.750000  0.845326  0.894343  1
  Rb  Rb2  1  0.250000  0.654674  0.394343  1
  Rb  Rb3  1  0.750000  0.345326  0.605657  1
  Rb  Rb4  1  0.250000  0.960480  0.667969  1
  Rb  Rb5  1  0.750000  0.039520  0.332031  1
  Rb  Rb6  1  0.250000  0.460480  0.832031  1
  Rb  Rb7  1  0.750000  0.539520  0.167969  1
  W  W8  1  0.250000  0.745878  0.071051  1
  W  W9  1  0.750000  0.254122  0.928949  1
  W  W10  1  0.250000  0.245878  0.428949  1
  W  W11  1  0.750000  0.754122  0.571051  1
  S  S12  1  0.250000  0.527591  0.104843  1
  S  S13  1  0.750000  0.472409  0.895157  1
  S  S14  1  0.250000  0.027591  0.395157  1
  S  S15  1  0.750000  0.972409  0.604843  1
  S  S16  1  0.998977  0.160326  0.859684  1
  S  S17  1  0.498977  0.839674  0.140316  1
  S  S18  1  0.501023  0.660326  0.640316  1
  S  S19  1  0.001023  0.339674  0.359684  1
  S  S20  1  0.001023  0.839674  0.140316  1
  S  S21  1  0.501023  0.160326  0.859684  1
  S  S22  1  0.498977  0.339674  0.359684  1
  S  S23  1  0.998977  0.660326  0.640316  1
  S  S24  1  0.750000  0.716923  0.400721  1
  S  S25  1  0.250000  0.283077  0.599279  1
  S  S26  1  0.750000  0.216923  0.099279  1
  S  S27  1  0.250000  0.783077  0.900721  1
