# generated using pymatgen
data_TlV2AgO6
_symmetry_space_group_name_H-M   'P 1'
_cell_length_a   7.60458674
_cell_length_b   7.60458674
_cell_length_c   5.98907493
_cell_angle_alpha   79.17673360
_cell_angle_beta   100.82326640
_cell_angle_gamma   92.98170749
_symmetry_Int_Tables_number   1
_chemical_formula_structural   TlV2AgO6
_chemical_formula_sum   'Tl2 V4 Ag2 O12'
_cell_volume   334.08357627
_cell_formula_units_Z   2
loop_
 _symmetry_equiv_pos_site_id
 _symmetry_equiv_pos_as_xyz
  1  'x, y, z'
loop_
 _atom_site_type_symbol
 _atom_site_label
 _atom_site_symmetry_multiplicity
 _atom_site_fract_x
 _atom_site_fract_y
 _atom_site_fract_z
 _atom_site_occupancy
  Tl  Tl0  1  0.284732  0.284732  0.750000  1
  Tl  Tl1  1  0.715268  0.715268  0.250000  1
  V  V2  1  0.203774  0.632796  0.217505  1
  V  V3  1  0.632796  0.203774  0.282495  1
  V  V4  1  0.796226  0.367204  0.782495  1
  V  V5  1  0.367204  0.796226  0.717505  1
  Ag  Ag6  1  0.896089  0.896089  0.750000  1
  Ag  Ag7  1  0.103911  0.103911  0.250000  1
  O  O8  1  0.351022  0.669512  0.483358  1
  O  O9  1  0.669512  0.351022  0.016642  1
  O  O10  1  0.648978  0.330488  0.516642  1
  O  O11  1  0.330488  0.648978  0.983358  1
  O  O12  1  0.427781  0.111375  0.227046  1
  O  O13  1  0.111375  0.427781  0.272954  1
  O  O14  1  0.572219  0.888625  0.772954  1
  O  O15  1  0.888625  0.572219  0.727046  1
  O  O16  1  0.955591  0.206742  0.855997  1
  O  O17  1  0.206742  0.955591  0.644003  1
  O  O18  1  0.044409  0.793258  0.144003  1
  O  O19  1  0.793258  0.044409  0.355997  1
