# generated using pymatgen
data_Tm4Si2S3O7
_symmetry_space_group_name_H-M   'P 1'
_cell_length_a   10.63188949
_cell_length_b   10.63188949
_cell_length_c   10.63188949
_cell_angle_alpha   113.72229183
_cell_angle_beta   113.72229183
_cell_angle_gamma   101.26762413
_symmetry_Int_Tables_number   1
_chemical_formula_structural   Tm4Si2S3O7
_chemical_formula_sum   'Tm16 Si8 S12 O28'
_cell_volume   911.21084880
_cell_formula_units_Z   4
loop_
 _symmetry_equiv_pos_site_id
 _symmetry_equiv_pos_as_xyz
  1  'x, y, z'
loop_
 _atom_site_type_symbol
 _atom_site_label
 _atom_site_symmetry_multiplicity
 _atom_site_fract_x
 _atom_site_fract_y
 _atom_site_fract_z
 _atom_site_occupancy
  Tm  Tm0  1  0.172581  0.827419  1.000000  1
  Tm  Tm1  1  0.577419  0.077419  0.154839  1
  Tm  Tm2  1  0.922581  0.422581  0.845161  1
  Tm  Tm3  1  0.827419  0.172581  0.000000  1
  Tm  Tm4  1  0.577419  0.422581  0.500000  1
  Tm  Tm5  1  0.172581  0.172581  0.345161  1
  Tm  Tm6  1  0.827419  0.827419  0.654839  1
  Tm  Tm7  1  0.922581  0.077419  0.500000  1
  Tm  Tm8  1  0.048847  0.784232  0.264614  1
  Tm  Tm9  1  0.519618  0.784232  0.735386  1
  Tm  Tm10  1  0.215768  0.480382  0.264614  1
  Tm  Tm11  1  0.534232  0.298847  0.764614  1
  Tm  Tm12  1  0.534232  0.769618  0.235386  1
  Tm  Tm13  1  0.230382  0.465768  0.764614  1
  Tm  Tm14  1  0.701153  0.465768  0.235386  1
  Tm  Tm15  1  0.215768  0.951153  0.735386  1
  Si  Si16  1  0.655099  0.029843  0.625257  1
  Si  Si17  1  0.404586  0.029843  0.374743  1
  Si  Si18  1  0.970157  0.595414  0.625257  1
  Si  Si19  1  0.779843  0.905099  0.125257  1
  Si  Si20  1  0.779843  0.654586  0.874743  1
  Si  Si21  1  0.345414  0.220157  0.125257  1
  Si  Si22  1  0.094901  0.220157  0.874743  1
  Si  Si23  1  0.970157  0.344901  0.374743  1
  S  S24  1  0.750000  0.250000  0.500000  1
  S  S25  1  0.000000  0.000000  0.000000  1
  S  S26  1  0.500000  0.500000  0.000000  1
  S  S27  1  0.250000  0.750000  0.500000  1
  S  S28  1  0.229690  0.125000  0.604690  1
  S  S29  1  0.875000  0.770310  0.395310  1
  S  S30  1  0.375000  0.479690  0.604690  1
  S  S31  1  0.520310  0.625000  0.395310  1
  S  S32  1  0.520310  0.125000  0.895310  1
  S  S33  1  0.875000  0.479690  0.104690  1
  S  S34  1  0.375000  0.770310  0.895310  1
  S  S35  1  0.229690  0.625000  0.104690  1
  O  O36  1  0.474833  0.974833  0.500000  1
  O  O37  1  0.724833  0.724833  0.000000  1
  O  O38  1  0.275167  0.275167  0.000000  1
  O  O39  1  0.025167  0.525167  0.500000  1
  O  O40  1  0.216854  0.951270  0.265584  1
  O  O41  1  0.685686  0.951270  0.734416  1
  O  O42  1  0.048730  0.314314  0.265584  1
  O  O43  1  0.701270  0.466854  0.765584  1
  O  O44  1  0.701270  0.935686  0.234416  1
  O  O45  1  0.064314  0.298730  0.765584  1
  O  O46  1  0.533146  0.298730  0.234416  1
  O  O47  1  0.048730  0.783146  0.734416  1
  O  O48  1  0.307262  0.290812  0.266496  1
  O  O49  1  0.024316  0.040765  0.733504  1
  O  O50  1  0.959235  0.975684  0.266496  1
  O  O51  1  0.790765  0.557262  0.516449  1
  O  O52  1  0.040812  0.274316  0.483551  1
  O  O53  1  0.725684  0.959188  0.516449  1
  O  O54  1  0.442738  0.209235  0.483551  1
  O  O55  1  0.709188  0.692738  0.733504  1
  O  O56  1  0.442738  0.959188  0.233504  1
  O  O57  1  0.725684  0.209235  0.766496  1
  O  O58  1  0.790765  0.274316  0.233504  1
  O  O59  1  0.959235  0.692738  0.983551  1
  O  O60  1  0.709188  0.975684  0.016449  1
  O  O61  1  0.024316  0.290812  0.983551  1
  O  O62  1  0.307262  0.040765  0.016449  1
  O  O63  1  0.040812  0.557262  0.766496  1
