# generated using pymatgen
data_AgAsS2
_symmetry_space_group_name_H-M   'P 1'
_cell_length_a   8.70629601
_cell_length_b   8.70629601
_cell_length_c   8.70629601
_cell_angle_alpha   106.81611209
_cell_angle_beta   106.81611209
_cell_angle_gamma   106.81611209
_symmetry_Int_Tables_number   1
_chemical_formula_structural   AgAsS2
_chemical_formula_sum   'Ag6 As6 S12'
_cell_volume   552.33281479
_cell_formula_units_Z   6
loop_
 _symmetry_equiv_pos_site_id
 _symmetry_equiv_pos_as_xyz
  1  'x, y, z'
loop_
 _atom_site_type_symbol
 _atom_site_label
 _atom_site_symmetry_multiplicity
 _atom_site_fract_x
 _atom_site_fract_y
 _atom_site_fract_z
 _atom_site_occupancy
  Ag  Ag0  1  0.677857  0.096767  0.270459  1
  Ag  Ag1  1  0.270459  0.677857  0.096767  1
  Ag  Ag2  1  0.096767  0.270459  0.677857  1
  Ag  Ag3  1  0.322143  0.903233  0.729541  1
  Ag  Ag4  1  0.729541  0.322143  0.903233  1
  Ag  Ag5  1  0.903233  0.729541  0.322143  1
  As  As6  1  0.870613  0.582592  0.659346  1
  As  As7  1  0.417408  0.340654  0.129387  1
  As  As8  1  0.129387  0.417408  0.340654  1
  As  As9  1  0.659346  0.870613  0.582592  1
  As  As10  1  0.582592  0.659346  0.870613  1
  As  As11  1  0.340654  0.129387  0.417408  1
  S  S12  1  0.857705  0.652152  0.935417  1
  S  S13  1  0.935417  0.857705  0.652152  1
  S  S14  1  0.652152  0.935417  0.857705  1
  S  S15  1  0.142295  0.347848  0.064583  1
  S  S16  1  0.064583  0.142295  0.347848  1
  S  S17  1  0.347848  0.064583  0.142295  1
  S  S18  1  0.151851  0.614553  0.757785  1
  S  S19  1  0.757785  0.151851  0.614553  1
  S  S20  1  0.385447  0.242215  0.848149  1
  S  S21  1  0.848149  0.385447  0.242215  1
  S  S22  1  0.242215  0.848149  0.385447  1
  S  S23  1  0.614553  0.757785  0.151851  1
