# generated using pymatgen
data_ZnAg2GeO4
_symmetry_space_group_name_H-M   'P 1'
_cell_length_a   5.63768386
_cell_length_b   5.68643561
_cell_length_c   9.10277164
_cell_angle_alpha   90.00000000
_cell_angle_beta   127.69409124
_cell_angle_gamma   90.00000000
_symmetry_Int_Tables_number   1
_chemical_formula_structural   ZnAg2GeO4
_chemical_formula_sum   'Zn2 Ag4 Ge2 O8'
_cell_volume   230.91295568
_cell_formula_units_Z   2
loop_
 _symmetry_equiv_pos_site_id
 _symmetry_equiv_pos_as_xyz
  1  'x, y, z'
loop_
 _atom_site_type_symbol
 _atom_site_label
 _atom_site_symmetry_multiplicity
 _atom_site_fract_x
 _atom_site_fract_y
 _atom_site_fract_z
 _atom_site_occupancy
  Zn  Zn0  1  0.998302  0.811151  0.498852  1
  Zn  Zn1  1  0.998302  0.188849  0.998852  1
  Ag  Ag2  1  0.510132  0.194941  0.503927  1
  Ag  Ag3  1  0.510132  0.805059  0.003927  1
  Ag  Ag4  1  0.738805  0.304928  0.243188  1
  Ag  Ag5  1  0.738805  0.695072  0.743188  1
  Ge  Ge6  1  0.250486  0.686634  0.249503  1
  Ge  Ge7  1  0.250486  0.313366  0.749503  1
  O  O8  1  0.596224  0.293273  0.783266  1
  O  O9  1  0.596224  0.706727  0.283266  1
  O  O10  1  0.295650  0.797120  0.448579  1
  O  O11  1  0.295650  0.202880  0.948579  1
  O  O12  1  0.137131  0.614218  0.717964  1
  O  O13  1  0.971271  0.148838  0.546722  1
  O  O14  1  0.137131  0.385782  0.217964  1
  O  O15  1  0.971271  0.851162  0.046722  1
