# generated using pymatgen
data_AlPO4
_symmetry_space_group_name_H-M   'P 1'
_cell_length_a   6.19673457
_cell_length_b   14.50439661
_cell_length_c   8.68609613
_cell_angle_alpha   90.00000000
_cell_angle_beta   104.60549153
_cell_angle_gamma   90.00000000
_symmetry_Int_Tables_number   1
_chemical_formula_structural   AlPO4
_chemical_formula_sum   'Al12 P12 O48'
_cell_volume   755.47692523
_cell_formula_units_Z   12
loop_
 _symmetry_equiv_pos_site_id
 _symmetry_equiv_pos_as_xyz
  1  'x, y, z'
loop_
 _atom_site_type_symbol
 _atom_site_label
 _atom_site_symmetry_multiplicity
 _atom_site_fract_x
 _atom_site_fract_y
 _atom_site_fract_z
 _atom_site_occupancy
  Al  Al0  1  0.795589  0.092711  0.119953  1
  Al  Al1  1  0.204411  0.592711  0.380047  1
  Al  Al2  1  0.204411  0.907289  0.880047  1
  Al  Al3  1  0.795589  0.407289  0.619953  1
  Al  Al4  1  0.156386  0.198503  0.350446  1
  Al  Al5  1  0.843614  0.698503  0.149554  1
  Al  Al6  1  0.843614  0.801497  0.649554  1
  Al  Al7  1  0.156386  0.301497  0.850446  1
  Al  Al8  1  0.452984  0.602859  0.935761  1
  Al  Al9  1  0.547016  0.102859  0.564239  1
  Al  Al10  1  0.547016  0.397141  0.064239  1
  Al  Al11  1  0.452984  0.897141  0.435761  1
  P  P12  1  0.319434  0.747804  0.640665  1
  P  P13  1  0.680566  0.247804  0.859335  1
  P  P14  1  0.680566  0.252196  0.359335  1
  P  P15  1  0.319434  0.752196  0.140665  1
  P  P16  1  0.666754  0.547065  0.325093  1
  P  P17  1  0.333246  0.047065  0.174907  1
  P  P18  1  0.333246  0.452935  0.674907  1
  P  P19  1  0.666754  0.952935  0.825093  1
  P  P20  1  0.913497  0.603164  0.829211  1
  P  P21  1  0.086503  0.103164  0.670789  1
  P  P22  1  0.086503  0.396836  0.170789  1
  P  P23  1  0.913497  0.896836  0.329211  1
  O  O24  1  0.427083  0.683622  0.773463  1
  O  O25  1  0.572917  0.183622  0.726537  1
  O  O26  1  0.572917  0.316378  0.226537  1
  O  O27  1  0.427083  0.816378  0.273463  1
  O  O28  1  0.155996  0.818450  0.691512  1
  O  O29  1  0.844004  0.318450  0.808488  1
  O  O30  1  0.844004  0.181550  0.308488  1
  O  O31  1  0.155996  0.681550  0.191512  1
  O  O32  1  0.516460  0.805165  0.597541  1
  O  O33  1  0.483540  0.305165  0.902459  1
  O  O34  1  0.483540  0.194835  0.402459  1
  O  O35  1  0.516460  0.694835  0.097541  1
  O  O36  1  0.185148  0.701908  0.490787  1
  O  O37  1  0.814852  0.201908  0.009213  1
  O  O38  1  0.814852  0.298092  0.509213  1
  O  O39  1  0.185148  0.798092  0.990787  1
  O  O40  1  0.548947  0.514783  0.149292  1
  O  O41  1  0.451053  0.014783  0.350708  1
  O  O42  1  0.451053  0.485217  0.850708  1
  O  O43  1  0.548947  0.985217  0.649292  1
  O  O44  1  0.773237  0.467886  0.429362  1
  O  O45  1  0.226763  0.967886  0.070638  1
  O  O46  1  0.226763  0.532114  0.570638  1
  O  O47  1  0.773237  0.032114  0.929362  1
  O  O48  1  0.505204  0.603231  0.392894  1
  O  O49  1  0.494796  0.103231  0.107106  1
  O  O50  1  0.494796  0.396769  0.607106  1
  O  O51  1  0.505204  0.896769  0.892894  1
  O  O52  1  0.865549  0.612020  0.306336  1
  O  O53  1  0.134451  0.112020  0.193664  1
  O  O54  1  0.134451  0.387980  0.693664  1
  O  O55  1  0.865549  0.887980  0.806336  1
  O  O56  1  0.781220  0.624071  0.964691  1
  O  O57  1  0.218780  0.124071  0.535309  1
  O  O58  1  0.218780  0.375929  0.035309  1
  O  O59  1  0.781220  0.875929  0.464691  1
  O  O60  1  0.865044  0.684932  0.711972  1
  O  O61  1  0.134956  0.184932  0.788028  1
  O  O62  1  0.134956  0.315068  0.288028  1
  O  O63  1  0.865044  0.815068  0.211972  1
  O  O64  1  0.156598  0.596099  0.919379  1
  O  O65  1  0.843402  0.096099  0.580621  1
  O  O66  1  0.843402  0.403901  0.080621  1
  O  O67  1  0.156598  0.903901  0.419379  1
  O  O68  1  0.827354  0.514281  0.743914  1
  O  O69  1  0.172646  0.014281  0.756086  1
  O  O70  1  0.172646  0.485719  0.256086  1
  O  O71  1  0.827354  0.985719  0.243914  1
