# generated using pymatgen
data_NdPIr
_symmetry_space_group_name_H-M   'P 1'
_cell_length_a   7.70717159
_cell_length_b   7.70717159
_cell_length_c   7.70717159
_cell_angle_alpha   149.04236436
_cell_angle_beta   149.04236436
_cell_angle_gamma   44.34895171
_symmetry_Int_Tables_number   1
_chemical_formula_structural   NdPIr
_chemical_formula_sum   'Nd2 P2 Ir2'
_cell_volume   120.78504733
_cell_formula_units_Z   2
loop_
 _symmetry_equiv_pos_site_id
 _symmetry_equiv_pos_as_xyz
  1  'x, y, z'
loop_
 _atom_site_type_symbol
 _atom_site_label
 _atom_site_symmetry_multiplicity
 _atom_site_fract_x
 _atom_site_fract_y
 _atom_site_fract_z
 _atom_site_occupancy
  Nd  Nd0  1  0.751176  0.751176  0.000000  1
  Nd  Nd1  1  0.501176  0.001176  0.500000  1
  P  P2  1  0.329266  0.329266  0.000000  1
  P  P3  1  0.079266  0.579266  0.500000  1
  Ir  Ir4  1  0.912258  0.412258  0.500000  1
  Ir  Ir5  1  0.162258  0.162258  0.000000  1
