# generated using pymatgen
data_LiAlSiO4
_symmetry_space_group_name_H-M   'P 1'
_cell_length_a   8.44578132
_cell_length_b   8.44578132
_cell_length_c   8.44578132
_cell_angle_alpha   107.84540047
_cell_angle_beta   107.84540047
_cell_angle_gamma   107.84540047
_symmetry_Int_Tables_number   1
_chemical_formula_structural   LiAlSiO4
_chemical_formula_sum   'Li6 Al6 Si6 O24'
_cell_volume   489.69327646
_cell_formula_units_Z   6
loop_
 _symmetry_equiv_pos_site_id
 _symmetry_equiv_pos_as_xyz
  1  'x, y, z'
loop_
 _atom_site_type_symbol
 _atom_site_label
 _atom_site_symmetry_multiplicity
 _atom_site_fract_x
 _atom_site_fract_y
 _atom_site_fract_z
 _atom_site_occupancy
  Li  Li0  1  0.059153  0.455377  0.233189  1
  Li  Li1  1  0.455377  0.233189  0.059153  1
  Li  Li2  1  0.233189  0.059153  0.455377  1
  Li  Li3  1  0.942158  0.542636  0.772271  1
  Li  Li4  1  0.542636  0.772271  0.942158  1
  Li  Li5  1  0.772271  0.942158  0.542636  1
  Al  Al6  1  0.210143  0.427434  0.615260  1
  Al  Al7  1  0.132112  0.899324  0.721138  1
  Al  Al8  1  0.615260  0.210143  0.427434  1
  Al  Al9  1  0.427434  0.615260  0.210143  1
  Al  Al10  1  0.899324  0.721138  0.132112  1
  Al  Al11  1  0.721138  0.132112  0.899324  1
  Si  Si12  1  0.573818  0.384998  0.790859  1
  Si  Si13  1  0.384998  0.790859  0.573818  1
  Si  Si14  1  0.790859  0.573818  0.384998  1
  Si  Si15  1  0.870754  0.100169  0.279910  1
  Si  Si16  1  0.279910  0.870754  0.100169  1
  Si  Si17  1  0.100169  0.279910  0.870754  1
  O  O18  1  0.731769  0.043179  0.065340  1
  O  O19  1  0.403520  0.753524  0.092123  1
  O  O20  1  0.092123  0.403520  0.753524  1
  O  O21  1  0.753524  0.092123  0.403520  1
  O  O22  1  0.588286  0.259323  0.905249  1
  O  O23  1  0.905249  0.588286  0.259323  1
  O  O24  1  0.259323  0.905249  0.588286  1
  O  O25  1  0.043179  0.065340  0.731769  1
  O  O26  1  0.683589  0.350004  0.662233  1
  O  O27  1  0.065340  0.731769  0.043179  1
  O  O28  1  0.958985  0.951537  0.279301  1
  O  O29  1  0.279301  0.958985  0.951537  1
  O  O30  1  0.319232  0.652597  0.357836  1
  O  O31  1  0.652597  0.357836  0.319232  1
  O  O32  1  0.357836  0.319232  0.652597  1
  O  O33  1  0.606685  0.939551  0.675401  1
  O  O34  1  0.350004  0.662233  0.683589  1
  O  O35  1  0.662233  0.683589  0.350004  1
  O  O36  1  0.309193  0.378117  0.044865  1
  O  O37  1  0.939551  0.675401  0.606685  1
  O  O38  1  0.675401  0.606685  0.939551  1
  O  O39  1  0.378117  0.044865  0.309193  1
  O  O40  1  0.044865  0.309193  0.378117  1
  O  O41  1  0.951537  0.279301  0.958985  1
