# generated using pymatgen
data_Sm2Mn12P7
_symmetry_space_group_name_H-M   'P 1'
_cell_length_a   9.32432407
_cell_length_b   9.32432407
_cell_length_c   3.62999897
_cell_angle_alpha   90.00000000
_cell_angle_beta   90.00000000
_cell_angle_gamma   120.00000000
_symmetry_Int_Tables_number   1
_chemical_formula_structural   Sm2Mn12P7
_chemical_formula_sum   'Sm2 Mn12 P7'
_cell_volume   273.32027695
_cell_formula_units_Z   1
loop_
 _symmetry_equiv_pos_site_id
 _symmetry_equiv_pos_as_xyz
  1  'x, y, z'
loop_
 _atom_site_type_symbol
 _atom_site_label
 _atom_site_symmetry_multiplicity
 _atom_site_fract_x
 _atom_site_fract_y
 _atom_site_fract_z
 _atom_site_occupancy
  Sm  Sm0  1  0.000000  0.000000  0.500000  1
  Sm  Sm1  1  0.666667  0.333333  0.000000  1
  Mn  Mn2  1  0.285868  0.241188  0.000000  1
  Mn  Mn3  1  0.955321  0.714132  0.000000  1
  Mn  Mn4  1  0.758812  0.044679  0.000000  1
  Mn  Mn5  1  0.059592  0.512314  0.000000  1
  Mn  Mn6  1  0.452721  0.940408  0.000000  1
  Mn  Mn7  1  0.487686  0.547279  0.000000  1
  Mn  Mn8  1  0.898652  0.276393  0.500000  1
  Mn  Mn9  1  0.377742  0.101348  0.500000  1
  Mn  Mn10  1  0.723607  0.622258  0.500000  1
  Mn  Mn11  1  0.232487  0.444804  0.500000  1
  Mn  Mn12  1  0.212317  0.767513  0.500000  1
  Mn  Mn13  1  0.555196  0.787683  0.500000  1
  P  P14  1  0.929225  0.544235  0.500000  1
  P  P15  1  0.615010  0.070775  0.500000  1
  P  P16  1  0.455765  0.384990  0.500000  1
  P  P17  1  0.333333  0.666667  0.000000  1
  P  P18  1  0.044898  0.260014  0.000000  1
  P  P19  1  0.215116  0.955102  0.000000  1
  P  P20  1  0.739986  0.784884  0.000000  1
