# generated using pymatgen
data_NaTi3P3O13
_symmetry_space_group_name_H-M   'P 1'
_cell_length_a   7.70377578
_cell_length_b   6.40971975
_cell_length_c   10.44403092
_cell_angle_alpha   90.00000000
_cell_angle_beta   99.35826218
_cell_angle_gamma   90.00000000
_symmetry_Int_Tables_number   1
_chemical_formula_structural   NaTi3P3O13
_chemical_formula_sum   'Na2 Ti6 P6 O26'
_cell_volume   508.85252901
_cell_formula_units_Z   2
loop_
 _symmetry_equiv_pos_site_id
 _symmetry_equiv_pos_as_xyz
  1  'x, y, z'
loop_
 _atom_site_type_symbol
 _atom_site_label
 _atom_site_symmetry_multiplicity
 _atom_site_fract_x
 _atom_site_fract_y
 _atom_site_fract_z
 _atom_site_occupancy
  Na  Na0  1  0.345221  0.750000  0.815426  1
  Na  Na1  1  0.654779  0.250000  0.184574  1
  Ti  Ti2  1  0.643030  0.250000  0.804514  1
  Ti  Ti3  1  0.356970  0.750000  0.195486  1
  Ti  Ti4  1  0.208504  0.250000  0.560717  1
  Ti  Ti5  1  0.000000  0.500000  0.000000  1
  Ti  Ti6  1  0.791496  0.750000  0.439283  1
  Ti  Ti7  1  0.000000  0.000000  0.000000  1
  P  P8  1  0.778292  0.250000  0.513611  1
  P  P9  1  0.221708  0.750000  0.486389  1
  P  P10  1  0.260642  0.250000  0.236773  1
  P  P11  1  0.739358  0.750000  0.763227  1
  P  P12  1  0.688603  0.750000  0.117017  1
  P  P13  1  0.311397  0.250000  0.882983  1
  O  O14  1  0.650488  0.750000  0.260581  1
  O  O15  1  0.253351  0.556554  0.574818  1
  O  O16  1  0.212065  0.250000  0.374036  1
  O  O17  1  0.791576  0.551455  0.092548  1
  O  O18  1  0.340240  0.750000  0.382720  1
  O  O19  1  0.135553  0.750000  0.098467  1
  O  O20  1  0.659760  0.250000  0.617280  1
  O  O21  1  0.208424  0.051455  0.907452  1
  O  O22  1  0.976294  0.250000  0.583615  1
  O  O23  1  0.023706  0.750000  0.416385  1
  O  O24  1  0.371386  0.058576  0.212454  1
  O  O25  1  0.864447  0.250000  0.901533  1
  O  O26  1  0.628614  0.558576  0.787546  1
  O  O27  1  0.496607  0.750000  0.043616  1
  O  O28  1  0.787935  0.750000  0.625964  1
  O  O29  1  0.208424  0.448545  0.907452  1
  O  O30  1  0.253351  0.943446  0.574818  1
  O  O31  1  0.746649  0.443446  0.425182  1
  O  O32  1  0.371386  0.441424  0.212454  1
  O  O33  1  0.349512  0.250000  0.739419  1
  O  O34  1  0.913638  0.750000  0.866275  1
  O  O35  1  0.086362  0.250000  0.133725  1
  O  O36  1  0.628614  0.941424  0.787546  1
  O  O37  1  0.791576  0.948545  0.092548  1
  O  O38  1  0.746649  0.056554  0.425182  1
  O  O39  1  0.503393  0.250000  0.956384  1
