# generated using pymatgen
data_CaCrO4
_symmetry_space_group_name_H-M   'P 1'
_cell_length_a   6.08409882
_cell_length_b   6.08409882
_cell_length_c   6.08409882
_cell_angle_alpha   105.69545244
_cell_angle_beta   105.69545244
_cell_angle_gamma   117.31949793
_symmetry_Int_Tables_number   1
_chemical_formula_structural   CaCrO4
_chemical_formula_sum   'Ca2 Cr2 O8'
_cell_volume   170.89631167
_cell_formula_units_Z   2
loop_
 _symmetry_equiv_pos_site_id
 _symmetry_equiv_pos_as_xyz
  1  'x, y, z'
loop_
 _atom_site_type_symbol
 _atom_site_label
 _atom_site_symmetry_multiplicity
 _atom_site_fract_x
 _atom_site_fract_y
 _atom_site_fract_z
 _atom_site_occupancy
  Ca  Ca0  1  0.250000  0.750000  0.500000  1
  Ca  Ca1  1  1.000000  1.000000  0.000000  1
  Cr  Cr2  1  0.500000  0.500000  0.000000  1
  Cr  Cr3  1  0.750000  0.250000  0.500000  1
  O  O4  1  0.409798  0.089349  0.320449  1
  O  O5  1  0.339349  0.518900  0.179551  1
  O  O6  1  0.339349  0.159798  0.820449  1
  O  O7  1  0.768900  0.089349  0.679551  1
  O  O8  1  0.910651  0.231100  0.320449  1
  O  O9  1  0.840202  0.660651  0.179551  1
  O  O10  1  0.481100  0.660651  0.820449  1
  O  O11  1  0.910651  0.590202  0.679551  1
