# generated using pymatgen
data_Ba3NiSb2O9
_symmetry_space_group_name_H-M   'P 1'
_cell_length_a   5.87851720
_cell_length_b   5.87851720
_cell_length_c   14.52209311
_cell_angle_alpha   90.00000000
_cell_angle_beta   90.00000000
_cell_angle_gamma   120.00000000
_symmetry_Int_Tables_number   1
_chemical_formula_structural   Ba3NiSb2O9
_chemical_formula_sum   'Ba6 Ni2 Sb4 O18'
_cell_volume   434.60571709
_cell_formula_units_Z   2
loop_
 _symmetry_equiv_pos_site_id
 _symmetry_equiv_pos_as_xyz
  1  'x, y, z'
loop_
 _atom_site_type_symbol
 _atom_site_label
 _atom_site_symmetry_multiplicity
 _atom_site_fract_x
 _atom_site_fract_y
 _atom_site_fract_z
 _atom_site_occupancy
  Ba  Ba0  1  0.666667  0.333333  0.909522  1
  Ba  Ba1  1  0.333333  0.666667  0.409523  1
  Ba  Ba2  1  0.666667  0.333333  0.606291  1
  Ba  Ba3  1  0.333333  0.666667  0.106291  1
  Ba  Ba4  1  0.000000  0.000000  0.743892  1
  Ba  Ba5  1  0.000000  0.000000  0.243892  1
  Ni  Ni6  1  0.333333  0.666667  0.650085  1
  Ni  Ni7  1  0.666667  0.333333  0.150085  1
  Sb  Sb8  1  0.000000  0.000000  0.001513  1
  Sb  Sb9  1  0.000000  0.000000  0.501513  1
  Sb  Sb10  1  0.333333  0.666667  0.836368  1
  Sb  Sb11  1  0.666667  0.333333  0.336368  1
  O  O12  1  0.835224  0.164776  0.415459  1
  O  O13  1  0.670448  0.835224  0.915459  1
  O  O14  1  0.164776  0.329552  0.915459  1
  O  O15  1  0.835224  0.670448  0.415459  1
  O  O16  1  0.329552  0.164776  0.415459  1
  O  O17  1  0.164776  0.835224  0.915459  1
  O  O18  1  0.511412  0.488588  0.253390  1
  O  O19  1  0.022824  0.511412  0.753390  1
  O  O20  1  0.488588  0.977176  0.753390  1
  O  O21  1  0.511412  0.022824  0.253390  1
  O  O22  1  0.977176  0.488588  0.253390  1
  O  O23  1  0.488588  0.511412  0.753390  1
  O  O24  1  0.161263  0.838737  0.575590  1
  O  O25  1  0.322526  0.161263  0.075590  1
  O  O26  1  0.838737  0.677474  0.075590  1
  O  O27  1  0.161263  0.322526  0.575590  1
  O  O28  1  0.677474  0.838737  0.575590  1
  O  O29  1  0.838737  0.161263  0.075590  1
