# generated using pymatgen
data_Na3Hg2
_symmetry_space_group_name_H-M   'P 1'
_cell_length_a   8.54442741
_cell_length_b   8.54442741
_cell_length_c   7.92578459
_cell_angle_alpha   90.00000000
_cell_angle_beta   90.00000000
_cell_angle_gamma   90.00000000
_symmetry_Int_Tables_number   1
_chemical_formula_structural   Na3Hg2
_chemical_formula_sum   'Na12 Hg8'
_cell_volume   578.63965589
_cell_formula_units_Z   4
loop_
 _symmetry_equiv_pos_site_id
 _symmetry_equiv_pos_as_xyz
  1  'x, y, z'
loop_
 _atom_site_type_symbol
 _atom_site_label
 _atom_site_symmetry_multiplicity
 _atom_site_fract_x
 _atom_site_fract_y
 _atom_site_fract_z
 _atom_site_occupancy
  Na  Na0  1  0.206275  0.793725  0.000000  1
  Na  Na1  1  0.793725  0.206275  0.000000  1
  Na  Na2  1  0.706275  0.706275  0.500000  1
  Na  Na3  1  0.500000  0.000000  0.250000  1
  Na  Na4  1  0.000000  0.500000  0.750000  1
  Na  Na5  1  0.641470  0.641470  0.000000  1
  Na  Na6  1  0.858530  0.141470  0.500000  1
  Na  Na7  1  0.141470  0.858530  0.500000  1
  Na  Na8  1  0.358530  0.358530  0.000000  1
  Na  Na9  1  0.000000  0.500000  0.250000  1
  Na  Na10  1  0.293725  0.293725  0.500000  1
  Na  Na11  1  0.500000  0.000000  0.750000  1
  Hg  Hg12  1  0.373152  0.626848  0.306197  1
  Hg  Hg13  1  0.873152  0.873152  0.806197  1
  Hg  Hg14  1  0.873152  0.873152  0.193803  1
  Hg  Hg15  1  0.373152  0.626848  0.693803  1
  Hg  Hg16  1  0.626848  0.373152  0.306197  1
  Hg  Hg17  1  0.126848  0.126848  0.806197  1
  Hg  Hg18  1  0.126848  0.126848  0.193803  1
  Hg  Hg19  1  0.626848  0.373152  0.693803  1
