# generated using pymatgen
data_Yb(Al5Fe)2
_symmetry_space_group_name_H-M   'P 1'
_cell_length_a   6.77209743
_cell_length_b   6.77209743
_cell_length_c   8.98420699
_cell_angle_alpha   90.00000000
_cell_angle_beta   90.00000000
_cell_angle_gamma   97.26446591
_symmetry_Int_Tables_number   1
_chemical_formula_structural   Yb(Al5Fe)2
_chemical_formula_sum   'Yb2 Al20 Fe4'
_cell_volume   408.72012355
_cell_formula_units_Z   2
loop_
 _symmetry_equiv_pos_site_id
 _symmetry_equiv_pos_as_xyz
  1  'x, y, z'
loop_
 _atom_site_type_symbol
 _atom_site_label
 _atom_site_symmetry_multiplicity
 _atom_site_fract_x
 _atom_site_fract_y
 _atom_site_fract_z
 _atom_site_occupancy
  Yb  Yb0  1  0.122495  0.877505  0.750000  1
  Yb  Yb1  1  0.877505  0.122495  0.250000  1
  Al  Al2  1  0.227060  0.227060  0.500000  1
  Al  Al3  1  0.772940  0.772940  0.000000  1
  Al  Al4  1  0.772940  0.772940  0.500000  1
  Al  Al5  1  0.227060  0.227060  0.000000  1
  Al  Al6  1  0.625545  0.374455  0.453268  1
  Al  Al7  1  0.374455  0.625545  0.953268  1
  Al  Al8  1  0.867780  0.585550  0.250000  1
  Al  Al9  1  0.132220  0.414450  0.750000  1
  Al  Al10  1  0.585550  0.867780  0.750000  1
  Al  Al11  1  0.414450  0.132220  0.250000  1
  Al  Al12  1  0.220241  0.474444  0.250000  1
  Al  Al13  1  0.779759  0.525556  0.750000  1
  Al  Al14  1  0.474444  0.220241  0.750000  1
  Al  Al15  1  0.525556  0.779759  0.250000  1
  Al  Al16  1  0.841983  0.158017  0.596621  1
  Al  Al17  1  0.158017  0.841983  0.096621  1
  Al  Al18  1  0.158017  0.841983  0.403379  1
  Al  Al19  1  0.841983  0.158017  0.903379  1
  Al  Al20  1  0.625545  0.374455  0.046732  1
  Al  Al21  1  0.374455  0.625545  0.546732  1
  Fe  Fe22  1  0.500000  0.000000  0.500000  1
  Fe  Fe23  1  0.500000  0.000000  0.000000  1
  Fe  Fe24  1  0.000000  0.500000  0.500000  1
  Fe  Fe25  1  0.000000  0.500000  0.000000  1
