# generated using pymatgen
data_K3GeSe3
_symmetry_space_group_name_H-M   'P 1'
_cell_length_a   8.00282538
_cell_length_b   8.00282538
_cell_length_c   8.59253492
_cell_angle_alpha   74.97822350
_cell_angle_beta   105.02177650
_cell_angle_gamma   70.10519277
_symmetry_Int_Tables_number   1
_chemical_formula_structural   K3GeSe3
_chemical_formula_sum   'K6 Ge2 Se6'
_cell_volume   461.77748770
_cell_formula_units_Z   2
loop_
 _symmetry_equiv_pos_site_id
 _symmetry_equiv_pos_as_xyz
  1  'x, y, z'
loop_
 _atom_site_type_symbol
 _atom_site_label
 _atom_site_symmetry_multiplicity
 _atom_site_fract_x
 _atom_site_fract_y
 _atom_site_fract_z
 _atom_site_occupancy
  K  K0  1  0.000000  0.500000  0.000000  1
  K  K1  1  0.500000  0.000000  0.000000  1
  K  K2  1  0.789231  0.210769  0.317343  1
  K  K3  1  0.210769  0.789231  0.682657  1
  K  K4  1  0.663025  0.663025  0.500000  1
  K  K5  1  0.336975  0.336975  0.500000  1
  Ge  Ge6  1  0.883579  0.116421  0.848295  1
  Ge  Ge7  1  0.116421  0.883579  0.151705  1
  Se  Se8  1  0.630462  0.369538  0.866816  1
  Se  Se9  1  0.369538  0.630462  0.133184  1
  Se  Se10  1  0.751420  0.949644  0.697595  1
  Se  Se11  1  0.949644  0.751420  0.302405  1
  Se  Se12  1  0.248580  0.050356  0.302405  1
  Se  Se13  1  0.050356  0.248580  0.697595  1
