# generated using pymatgen
data_SrPIr
_symmetry_space_group_name_H-M   'P 1'
_cell_length_a   6.38356671
_cell_length_b   6.38356671
_cell_length_c   6.38356671
_cell_angle_alpha   90.00000000
_cell_angle_beta   90.00000000
_cell_angle_gamma   90.00000000
_symmetry_Int_Tables_number   1
_chemical_formula_structural   SrPIr
_chemical_formula_sum   'Sr4 P4 Ir4'
_cell_volume   260.12985790
_cell_formula_units_Z   4
loop_
 _symmetry_equiv_pos_site_id
 _symmetry_equiv_pos_as_xyz
  1  'x, y, z'
loop_
 _atom_site_type_symbol
 _atom_site_label
 _atom_site_symmetry_multiplicity
 _atom_site_fract_x
 _atom_site_fract_y
 _atom_site_fract_z
 _atom_site_occupancy
  Sr  Sr0  1  0.618959  0.381041  0.881041  1
  Sr  Sr1  1  0.381041  0.881041  0.618959  1
  Sr  Sr2  1  0.118959  0.118959  0.118959  1
  Sr  Sr3  1  0.881041  0.618959  0.381041  1
  P  P4  1  0.161399  0.338601  0.661399  1
  P  P5  1  0.661399  0.161399  0.338601  1
  P  P6  1  0.338601  0.661399  0.161399  1
  P  P7  1  0.838601  0.838601  0.838601  1
  Ir  Ir8  1  0.591694  0.908306  0.091694  1
  Ir  Ir9  1  0.091694  0.591694  0.908306  1
  Ir  Ir10  1  0.408306  0.408306  0.408306  1
  Ir  Ir11  1  0.908306  0.091694  0.591694  1
