# generated using pymatgen
data_SnWO4
_symmetry_space_group_name_H-M   'P 1'
_cell_length_a   5.05096369
_cell_length_b   5.63195667
_cell_length_c   12.07637040
_cell_angle_alpha   90.00000000
_cell_angle_beta   90.00000000
_cell_angle_gamma   90.00000000
_symmetry_Int_Tables_number   1
_chemical_formula_structural   SnWO4
_chemical_formula_sum   'Sn4 W4 O16'
_cell_volume   343.53419788
_cell_formula_units_Z   4
loop_
 _symmetry_equiv_pos_site_id
 _symmetry_equiv_pos_as_xyz
  1  'x, y, z'
loop_
 _atom_site_type_symbol
 _atom_site_label
 _atom_site_symmetry_multiplicity
 _atom_site_fract_x
 _atom_site_fract_y
 _atom_site_fract_z
 _atom_site_occupancy
  Sn  Sn0  1  0.216330  0.250000  0.500000  1
  Sn  Sn1  1  0.283670  0.250000  0.000000  1
  Sn  Sn2  1  0.783670  0.750000  0.500000  1
  Sn  Sn3  1  0.716330  0.750000  0.000000  1
  W  W4  1  0.250000  0.631255  0.750000  1
  W  W5  1  0.250000  0.868745  0.250000  1
  W  W6  1  0.750000  0.368745  0.250000  1
  W  W7  1  0.750000  0.131255  0.750000  1
  O  O8  1  0.101998  0.596222  0.603792  1
  O  O9  1  0.101998  0.903778  0.396208  1
  O  O10  1  0.398002  0.596222  0.896208  1
  O  O11  1  0.398002  0.903778  0.103792  1
  O  O12  1  0.898002  0.403778  0.396208  1
  O  O13  1  0.898002  0.096222  0.603792  1
  O  O14  1  0.601998  0.403778  0.103792  1
  O  O15  1  0.601998  0.096222  0.896208  1
  O  O16  1  0.001902  0.360810  0.795420  1
  O  O17  1  0.001902  0.139190  0.204580  1
  O  O18  1  0.498098  0.360810  0.704580  1
  O  O19  1  0.498098  0.139190  0.295420  1
  O  O20  1  0.998098  0.639190  0.204580  1
  O  O21  1  0.998098  0.860810  0.795420  1
  O  O22  1  0.501902  0.639190  0.295420  1
  O  O23  1  0.501902  0.860810  0.704580  1
