# generated using pymatgen
data_CaF2
_symmetry_space_group_name_H-M   'P 1'
_cell_length_a   3.64279305
_cell_length_b   6.01346156
_cell_length_c   7.08072845
_cell_angle_alpha   90.00000000
_cell_angle_beta   90.00000000
_cell_angle_gamma   90.00000000
_symmetry_Int_Tables_number   1
_chemical_formula_structural   CaF2
_chemical_formula_sum   'Ca4 F8'
_cell_volume   155.10899280
_cell_formula_units_Z   4
loop_
 _symmetry_equiv_pos_site_id
 _symmetry_equiv_pos_as_xyz
  1  'x, y, z'
loop_
 _atom_site_type_symbol
 _atom_site_label
 _atom_site_symmetry_multiplicity
 _atom_site_fract_x
 _atom_site_fract_y
 _atom_site_fract_z
 _atom_site_occupancy
  Ca  Ca0  1  0.250000  0.751480  0.105544  1
  Ca  Ca1  1  0.750000  0.248520  0.894456  1
  Ca  Ca2  1  0.250000  0.251480  0.394456  1
  Ca  Ca3  1  0.750000  0.748520  0.605544  1
  F  F4  1  0.250000  0.984653  0.839406  1
  F  F5  1  0.750000  0.015347  0.160594  1
  F  F6  1  0.250000  0.484653  0.660594  1
  F  F7  1  0.750000  0.515347  0.339406  1
  F  F8  1  0.750000  0.141353  0.577723  1
  F  F9  1  0.250000  0.858647  0.422277  1
  F  F10  1  0.750000  0.641353  0.922277  1
  F  F11  1  0.250000  0.358647  0.077723  1
