# generated using pymatgen
data_V2CoO6
_symmetry_space_group_name_H-M   'P 1'
_cell_length_a   5.11642309
_cell_length_b   5.11642309
_cell_length_c   6.92870891
_cell_angle_alpha   73.36317887
_cell_angle_beta   106.63682113
_cell_angle_gamma   139.88281594
_symmetry_Int_Tables_number   1
_chemical_formula_structural   V2CoO6
_chemical_formula_sum   'V2 Co1 O6'
_cell_volume   111.31074349
_cell_formula_units_Z   1
loop_
 _symmetry_equiv_pos_site_id
 _symmetry_equiv_pos_as_xyz
  1  'x, y, z'
loop_
 _atom_site_type_symbol
 _atom_site_label
 _atom_site_symmetry_multiplicity
 _atom_site_fract_x
 _atom_site_fract_y
 _atom_site_fract_z
 _atom_site_occupancy
  V  V0  1  0.211234  0.788766  0.172161  1
  V  V1  1  0.788766  0.211234  0.827839  1
  Co  Co2  1  0.000000  0.000000  0.500000  1
  O  O3  1  0.300280  0.699720  0.928381  1
  O  O4  1  0.938059  0.061941  0.746775  1
  O  O5  1  0.061941  0.938059  0.253225  1
  O  O6  1  0.699720  0.300280  0.071619  1
  O  O7  1  0.639606  0.360394  0.618074  1
  O  O8  1  0.360394  0.639606  0.381926  1
