# generated using pymatgen
data_Na3Sc2V3O12
_symmetry_space_group_name_H-M   'P 1'
_cell_length_a   11.07100406
_cell_length_b   11.07100406
_cell_length_c   11.07100406
_cell_angle_alpha   109.47122063
_cell_angle_beta   109.47122063
_cell_angle_gamma   109.47122063
_symmetry_Int_Tables_number   1
_chemical_formula_structural   Na3Sc2V3O12
_chemical_formula_sum   'Na12 Sc8 V12 O48'
_cell_volume   1044.57382470
_cell_formula_units_Z   4
loop_
 _symmetry_equiv_pos_site_id
 _symmetry_equiv_pos_as_xyz
  1  'x, y, z'
loop_
 _atom_site_type_symbol
 _atom_site_label
 _atom_site_symmetry_multiplicity
 _atom_site_fract_x
 _atom_site_fract_y
 _atom_site_fract_z
 _atom_site_occupancy
  Na  Na0  1  0.250000  0.375000  0.125000  1
  Na  Na1  1  0.375000  0.750000  0.125000  1
  Na  Na2  1  0.125000  0.250000  0.375000  1
  Na  Na3  1  0.375000  0.125000  0.250000  1
  Na  Na4  1  0.125000  0.375000  0.750000  1
  Na  Na5  1  0.750000  0.125000  0.375000  1
  Na  Na6  1  0.750000  0.625000  0.875000  1
  Na  Na7  1  0.625000  0.250000  0.875000  1
  Na  Na8  1  0.875000  0.750000  0.625000  1
  Na  Na9  1  0.625000  0.875000  0.750000  1
  Na  Na10  1  0.875000  0.625000  0.250000  1
  Na  Na11  1  0.250000  0.875000  0.625000  1
  Sc  Sc12  1  0.000000  0.000000  0.000000  1
  Sc  Sc13  1  1.000000  0.500000  0.000000  1
  Sc  Sc14  1  0.000000  0.000000  0.500000  1
  Sc  Sc15  1  0.500000  0.000000  0.000000  1
  Sc  Sc16  1  0.000000  0.500000  0.500000  1
  Sc  Sc17  1  0.500000  1.000000  0.500000  1
  Sc  Sc18  1  0.500000  0.500000  0.000000  1
  Sc  Sc19  1  0.500000  0.500000  0.500000  1
  V  V20  1  0.250000  0.625000  0.375000  1
  V  V21  1  0.625000  0.750000  0.375000  1
  V  V22  1  0.875000  0.250000  0.125000  1
  V  V23  1  0.125000  0.875000  0.250000  1
  V  V24  1  0.375000  0.625000  0.750000  1
  V  V25  1  0.750000  0.375000  0.625000  1
  V  V26  1  0.875000  0.125000  0.750000  1
  V  V27  1  0.125000  0.750000  0.875000  1
  V  V28  1  0.625000  0.375000  0.250000  1
  V  V29  1  0.375000  0.250000  0.625000  1
  V  V30  1  0.750000  0.875000  0.125000  1
  V  V31  1  0.250000  0.125000  0.875000  1
  O  O32  1  0.799157  0.412084  0.806079  1
  O  O33  1  0.087916  0.887073  0.393995  1
  O  O34  1  0.693921  0.106005  0.993077  1
  O  O35  1  0.700843  0.506923  0.612927  1
  O  O36  1  0.700843  0.693921  0.087916  1
  O  O37  1  0.506923  0.612927  0.700843  1
  O  O38  1  0.106005  0.612927  0.412084  1
  O  O39  1  0.612927  0.700843  0.506923  1
  O  O40  1  0.393995  0.806079  0.506923  1
  O  O41  1  0.887073  0.993077  0.799157  1
  O  O42  1  0.993077  0.799157  0.887073  1
  O  O43  1  0.087916  0.700843  0.693921  1
  O  O44  1  0.612927  0.412084  0.106005  1
  O  O45  1  0.506923  0.393995  0.806079  1
  O  O46  1  0.693921  0.087916  0.700843  1
  O  O47  1  0.412084  0.106005  0.612927  1
  O  O48  1  0.806079  0.506923  0.393995  1
  O  O49  1  0.393995  0.087916  0.887073  1
  O  O50  1  0.106005  0.993077  0.693921  1
  O  O51  1  0.606005  0.193921  0.493077  1
  O  O52  1  0.993077  0.693921  0.106005  1
  O  O53  1  0.806079  0.799157  0.412084  1
  O  O54  1  0.887073  0.393995  0.087916  1
  O  O55  1  0.799157  0.887073  0.993077  1
  O  O56  1  0.200843  0.587916  0.193921  1
  O  O57  1  0.912084  0.112927  0.606005  1
  O  O58  1  0.306079  0.893995  0.006923  1
  O  O59  1  0.299157  0.493077  0.387073  1
  O  O60  1  0.299157  0.306079  0.912084  1
  O  O61  1  0.493077  0.387073  0.299157  1
  O  O62  1  0.893995  0.387073  0.587916  1
  O  O63  1  0.387073  0.299157  0.493077  1
  O  O64  1  0.200843  0.112927  0.006923  1
  O  O65  1  0.112927  0.606005  0.912084  1
  O  O66  1  0.193921  0.200843  0.587916  1
  O  O67  1  0.587916  0.193921  0.200843  1
  O  O68  1  0.006923  0.306079  0.893995  1
  O  O69  1  0.893995  0.006923  0.306079  1
  O  O70  1  0.606005  0.912084  0.112927  1
  O  O71  1  0.193921  0.493077  0.606005  1
  O  O72  1  0.587916  0.893995  0.387073  1
  O  O73  1  0.306079  0.912084  0.299157  1
  O  O74  1  0.493077  0.606005  0.193921  1
  O  O75  1  0.387073  0.587916  0.893995  1
  O  O76  1  0.912084  0.299157  0.306079  1
  O  O77  1  0.006923  0.200843  0.112927  1
  O  O78  1  0.112927  0.006923  0.200843  1
  O  O79  1  0.412084  0.806079  0.799157  1
