# generated using pymatgen
data_SrSi6
_symmetry_space_group_name_H-M   'P 1'
_cell_length_a   5.63236523
_cell_length_b   5.63236523
_cell_length_c   11.70916474
_cell_angle_alpha   90.00000000
_cell_angle_beta   90.00000000
_cell_angle_gamma   133.03077097
_symmetry_Int_Tables_number   1
_chemical_formula_structural   SrSi6
_chemical_formula_sum   'Sr2 Si12'
_cell_volume   271.52972611
_cell_formula_units_Z   2
loop_
 _symmetry_equiv_pos_site_id
 _symmetry_equiv_pos_as_xyz
  1  'x, y, z'
loop_
 _atom_site_type_symbol
 _atom_site_label
 _atom_site_symmetry_multiplicity
 _atom_site_fract_x
 _atom_site_fract_y
 _atom_site_fract_z
 _atom_site_occupancy
  Sr  Sr0  1  0.275629  0.724371  0.250000  1
  Sr  Sr1  1  0.724371  0.275629  0.750000  1
  Si  Si2  1  0.977530  0.022470  0.100708  1
  Si  Si3  1  0.022470  0.977530  0.899292  1
  Si  Si4  1  0.753934  0.246066  0.462241  1
  Si  Si5  1  0.246066  0.753934  0.537759  1
  Si  Si6  1  0.246066  0.753934  0.962241  1
  Si  Si7  1  0.753934  0.246066  0.037759  1
  Si  Si8  1  0.440607  0.559393  0.647324  1
  Si  Si9  1  0.559393  0.440607  0.352676  1
  Si  Si10  1  0.559393  0.440607  0.147324  1
  Si  Si11  1  0.440607  0.559393  0.852676  1
  Si  Si12  1  0.977530  0.022470  0.399292  1
  Si  Si13  1  0.022470  0.977530  0.600708  1
