# generated using pymatgen
data_Sr3Er2(BO3)4
_symmetry_space_group_name_H-M   'P 1'
_cell_length_a   7.37573359
_cell_length_b   8.71818975
_cell_length_c   16.27192864
_cell_angle_alpha   90.00000000
_cell_angle_beta   90.00000000
_cell_angle_gamma   90.00000000
_symmetry_Int_Tables_number   1
_chemical_formula_structural   Sr3Er2(BO3)4
_chemical_formula_sum   'Sr12 Er8 B16 O48'
_cell_volume   1046.33455930
_cell_formula_units_Z   4
loop_
 _symmetry_equiv_pos_site_id
 _symmetry_equiv_pos_as_xyz
  1  'x, y, z'
loop_
 _atom_site_type_symbol
 _atom_site_label
 _atom_site_symmetry_multiplicity
 _atom_site_fract_x
 _atom_site_fract_y
 _atom_site_fract_z
 _atom_site_occupancy
  Sr  Sr0  1  0.669079  0.351958  0.936211  1
  Sr  Sr1  1  0.330921  0.648042  0.436211  1
  Sr  Sr2  1  0.830921  0.851958  0.436211  1
  Sr  Sr3  1  0.169079  0.148042  0.936211  1
  Sr  Sr4  1  0.966024  0.338880  0.730631  1
  Sr  Sr5  1  0.033976  0.661120  0.230631  1
  Sr  Sr6  1  0.533976  0.838880  0.230631  1
  Sr  Sr7  1  0.466024  0.161120  0.730631  1
  Sr  Sr8  1  0.696426  0.347645  0.187789  1
  Sr  Sr9  1  0.303574  0.652355  0.687789  1
  Sr  Sr10  1  0.803574  0.847645  0.687789  1
  Sr  Sr11  1  0.196426  0.152355  0.187789  1
  Er  Er12  1  0.001730  0.323471  0.397421  1
  Er  Er13  1  0.998270  0.676529  0.897421  1
  Er  Er14  1  0.498270  0.823471  0.897421  1
  Er  Er15  1  0.501730  0.176529  0.397421  1
  Er  Er16  1  0.682651  0.473286  0.563022  1
  Er  Er17  1  0.317349  0.526714  0.063022  1
  Er  Er18  1  0.817349  0.973286  0.063022  1
  Er  Er19  1  0.182651  0.026714  0.563022  1
  B  B20  1  0.985783  0.374328  0.056850  1
  B  B21  1  0.014217  0.625672  0.556850  1
  B  B22  1  0.514217  0.874328  0.556850  1
  B  B23  1  0.485783  0.125672  0.056850  1
  B  B24  1  0.289077  0.345033  0.558480  1
  B  B25  1  0.710923  0.654967  0.058480  1
  B  B26  1  0.210923  0.845033  0.058480  1
  B  B27  1  0.789077  0.154967  0.558480  1
  B  B28  1  0.345825  0.432224  0.272578  1
  B  B29  1  0.654175  0.567776  0.772578  1
  B  B30  1  0.154175  0.932224  0.772578  1
  B  B31  1  0.845825  0.067776  0.272578  1
  B  B32  1  0.324195  0.456465  0.863184  1
  B  B33  1  0.675805  0.543535  0.363184  1
  B  B34  1  0.175805  0.956465  0.363184  1
  B  B35  1  0.824195  0.043535  0.863184  1
  O  O36  1  0.382923  0.259494  0.052665  1
  O  O37  1  0.617077  0.740506  0.552665  1
  O  O38  1  0.117077  0.759494  0.552665  1
  O  O39  1  0.882923  0.240506  0.052665  1
  O  O40  1  0.057046  0.424179  0.131093  1
  O  O41  1  0.942954  0.575821  0.631093  1
  O  O42  1  0.442954  0.924179  0.631093  1
  O  O43  1  0.557046  0.075821  0.131093  1
  O  O44  1  0.034870  0.457843  0.986861  1
  O  O45  1  0.965130  0.542157  0.486861  1
  O  O46  1  0.465130  0.957843  0.486861  1
  O  O47  1  0.534870  0.042157  0.986861  1
  O  O48  1  0.224399  0.264258  0.625152  1
  O  O49  1  0.775601  0.735742  0.125152  1
  O  O50  1  0.275601  0.764258  0.125152  1
  O  O51  1  0.724399  0.235742  0.625152  1
  O  O52  1  0.269969  0.272486  0.482089  1
  O  O53  1  0.730031  0.727514  0.982089  1
  O  O54  1  0.230031  0.772486  0.982089  1
  O  O55  1  0.769969  0.227514  0.482089  1
  O  O56  1  0.625672  0.516332  0.066391  1
  O  O57  1  0.374328  0.483668  0.566391  1
  O  O58  1  0.874328  0.016332  0.566391  1
  O  O59  1  0.125672  0.983668  0.066391  1
  O  O60  1  0.206404  0.466563  0.327033  1
  O  O61  1  0.793596  0.533437  0.827033  1
  O  O62  1  0.293596  0.966563  0.827033  1
  O  O63  1  0.706404  0.033437  0.327033  1
  O  O64  1  0.441565  0.296088  0.282214  1
  O  O65  1  0.558435  0.703912  0.782214  1
  O  O66  1  0.058435  0.796088  0.782214  1
  O  O67  1  0.941565  0.203912  0.282214  1
  O  O68  1  0.613842  0.477656  0.705745  1
  O  O69  1  0.386158  0.522344  0.205745  1
  O  O70  1  0.886158  0.977656  0.205745  1
  O  O71  1  0.113842  0.022344  0.705745  1
  O  O72  1  0.817309  0.484049  0.317557  1
  O  O73  1  0.182691  0.515951  0.817557  1
  O  O74  1  0.682691  0.984049  0.817557  1
  O  O75  1  0.317309  0.015951  0.317557  1
  O  O76  1  0.382284  0.307487  0.850948  1
  O  O77  1  0.617716  0.692513  0.350948  1
  O  O78  1  0.117716  0.807487  0.350948  1
  O  O79  1  0.882284  0.192513  0.850948  1
  O  O80  1  0.589941  0.456071  0.423789  1
  O  O81  1  0.410059  0.543929  0.923789  1
  O  O82  1  0.910059  0.956071  0.923789  1
  O  O83  1  0.089941  0.043929  0.423789  1
