# generated using pymatgen
data_CsHoCdTe3
_symmetry_space_group_name_H-M   'P 1'
_cell_length_a   8.98049896
_cell_length_b   8.98049896
_cell_length_c   11.86578244
_cell_angle_alpha   90.00000000
_cell_angle_beta   90.00000000
_cell_angle_gamma   150.74063544
_symmetry_Int_Tables_number   1
_chemical_formula_structural   CsHoCdTe3
_chemical_formula_sum   'Cs2 Ho2 Cd2 Te6'
_cell_volume   467.73124386
_cell_formula_units_Z   2
loop_
 _symmetry_equiv_pos_site_id
 _symmetry_equiv_pos_as_xyz
  1  'x, y, z'
loop_
 _atom_site_type_symbol
 _atom_site_label
 _atom_site_symmetry_multiplicity
 _atom_site_fract_x
 _atom_site_fract_y
 _atom_site_fract_z
 _atom_site_occupancy
  Cs  Cs0  1  0.748872  0.251128  0.750000  1
  Cs  Cs1  1  0.251128  0.748872  0.250000  1
  Ho  Ho2  1  0.500000  0.500000  0.500000  1
  Ho  Ho3  1  0.500000  0.500000  0.000000  1
  Cd  Cd4  1  0.962702  0.037298  0.250000  1
  Cd  Cd5  1  0.037298  0.962702  0.750000  1
  Te  Te6  1  0.880454  0.119546  0.045567  1
  Te  Te7  1  0.119546  0.880454  0.954433  1
  Te  Te8  1  0.434988  0.565012  0.750000  1
  Te  Te9  1  0.565012  0.434988  0.250000  1
  Te  Te10  1  0.880454  0.119546  0.454433  1
  Te  Te11  1  0.119546  0.880454  0.545567  1
