# generated using pymatgen
data_CaCuP2O7
_symmetry_space_group_name_H-M   'P 1'
_cell_length_a   5.30171385
_cell_length_b   8.13703212
_cell_length_c   13.42041040
_cell_angle_alpha   90.00000000
_cell_angle_beta   111.42438515
_cell_angle_gamma   90.00000000
_symmetry_Int_Tables_number   1
_chemical_formula_structural   CaCuP2O7
_chemical_formula_sum   'Ca4 Cu4 P8 O28'
_cell_volume   538.95356190
_cell_formula_units_Z   4
loop_
 _symmetry_equiv_pos_site_id
 _symmetry_equiv_pos_as_xyz
  1  'x, y, z'
loop_
 _atom_site_type_symbol
 _atom_site_label
 _atom_site_symmetry_multiplicity
 _atom_site_fract_x
 _atom_site_fract_y
 _atom_site_fract_z
 _atom_site_occupancy
  Ca  Ca0  1  0.985134  0.181799  0.773683  1
  Ca  Ca1  1  0.014866  0.681799  0.726317  1
  Ca  Ca2  1  0.014866  0.818201  0.226317  1
  Ca  Ca3  1  0.985134  0.318201  0.273683  1
  Cu  Cu4  1  0.317603  0.359452  0.610204  1
  Cu  Cu5  1  0.682397  0.859452  0.889796  1
  Cu  Cu6  1  0.682397  0.640548  0.389796  1
  Cu  Cu7  1  0.317603  0.140548  0.110204  1
  P  P8  1  0.674381  0.298004  0.484400  1
  P  P9  1  0.325619  0.798004  0.015600  1
  P  P10  1  0.325619  0.701996  0.515600  1
  P  P11  1  0.674381  0.201996  0.984400  1
  P  P12  1  0.411790  0.972405  0.665928  1
  P  P13  1  0.588210  0.472405  0.834072  1
  P  P14  1  0.588210  0.027595  0.334072  1
  P  P15  1  0.411790  0.527595  0.165928  1
  O  O16  1  0.883413  0.310921  0.596697  1
  O  O17  1  0.116587  0.810921  0.903303  1
  O  O18  1  0.116587  0.689079  0.403303  1
  O  O19  1  0.883413  0.189079  0.096697  1
  O  O20  1  0.376466  0.166454  0.971512  1
  O  O21  1  0.623534  0.666454  0.528488  1
  O  O22  1  0.623534  0.833546  0.028488  1
  O  O23  1  0.376466  0.333546  0.471512  1
  O  O24  1  0.819853  0.457863  0.792838  1
  O  O25  1  0.180147  0.957863  0.707162  1
  O  O26  1  0.180147  0.542137  0.207162  1
  O  O27  1  0.819853  0.042137  0.292838  1
  O  O28  1  0.688110  0.393883  0.952029  1
  O  O29  1  0.311890  0.893883  0.547971  1
  O  O30  1  0.311890  0.606117  0.047971  1
  O  O31  1  0.688110  0.106117  0.452029  1
  O  O32  1  0.499523  0.351323  0.155635  1
  O  O33  1  0.500477  0.851323  0.344365  1
  O  O34  1  0.500477  0.648677  0.844365  1
  O  O35  1  0.499523  0.148677  0.655635  1
  O  O36  1  0.749238  0.397814  0.400498  1
  O  O37  1  0.250762  0.897814  0.099502  1
  O  O38  1  0.250762  0.602186  0.599502  1
  O  O39  1  0.749238  0.102186  0.900498  1
  O  O40  1  0.330065  0.122112  0.264849  1
  O  O41  1  0.669935  0.622112  0.235151  1
  O  O42  1  0.669935  0.877888  0.735151  1
  O  O43  1  0.330065  0.377888  0.764849  1
