# generated using pymatgen
data_Eu(NO3)3
_symmetry_space_group_name_H-M   'P 1'
_cell_length_a   10.19129561
_cell_length_b   6.46067654
_cell_length_c   11.41535550
_cell_angle_alpha   90.00000000
_cell_angle_beta   92.58612675
_cell_angle_gamma   90.00000000
_symmetry_Int_Tables_number   1
_chemical_formula_structural   Eu(NO3)3
_chemical_formula_sum   'Eu4 N12 O36'
_cell_volume   750.85191811
_cell_formula_units_Z   4
loop_
 _symmetry_equiv_pos_site_id
 _symmetry_equiv_pos_as_xyz
  1  'x, y, z'
loop_
 _atom_site_type_symbol
 _atom_site_label
 _atom_site_symmetry_multiplicity
 _atom_site_fract_x
 _atom_site_fract_y
 _atom_site_fract_z
 _atom_site_occupancy
  Eu  Eu0  1  0.287412  0.681304  0.259393  1
  Eu  Eu1  1  0.212588  0.181304  0.740607  1
  Eu  Eu2  1  0.712588  0.318696  0.740607  1
  Eu  Eu3  1  0.787412  0.818696  0.259393  1
  N  N4  1  0.173241  0.383936  0.507472  1
  N  N5  1  0.326759  0.883936  0.492528  1
  N  N6  1  0.826759  0.616064  0.492528  1
  N  N7  1  0.673241  0.116064  0.507472  1
  N  N8  1  0.195793  0.730652  0.789404  1
  N  N9  1  0.304207  0.230652  0.210596  1
  N  N10  1  0.804207  0.269348  0.210596  1
  N  N11  1  0.695793  0.769348  0.789404  1
  N  N12  1  0.532372  0.721433  0.120408  1
  N  N13  1  0.967628  0.221433  0.879592  1
  N  N14  1  0.467628  0.278567  0.879592  1
  N  N15  1  0.032372  0.778567  0.120408  1
  O  O16  1  0.274552  0.421116  0.573945  1
  O  O17  1  0.225448  0.921116  0.426055  1
  O  O18  1  0.725448  0.578884  0.426055  1
  O  O19  1  0.774552  0.078884  0.573945  1
  O  O20  1  0.086252  0.265396  0.546633  1
  O  O21  1  0.413748  0.765396  0.453367  1
  O  O22  1  0.913748  0.734604  0.453367  1
  O  O23  1  0.586252  0.234604  0.546633  1
  O  O24  1  0.159882  0.460673  0.407134  1
  O  O25  1  0.340118  0.960673  0.592866  1
  O  O26  1  0.840118  0.539327  0.592866  1
  O  O27  1  0.659882  0.039327  0.407134  1
  O  O28  1  0.105696  0.820567  0.728311  1
  O  O29  1  0.394304  0.320567  0.271689  1
  O  O30  1  0.894304  0.179433  0.271689  1
  O  O31  1  0.605696  0.679433  0.728311  1
  O  O32  1  0.189873  0.539683  0.809408  1
  O  O33  1  0.310127  0.039683  0.190592  1
  O  O34  1  0.810127  0.460317  0.190592  1
  O  O35  1  0.689873  0.960317  0.809408  1
  O  O36  1  0.291098  0.836913  0.830821  1
  O  O37  1  0.208902  0.336913  0.169179  1
  O  O38  1  0.708902  0.163087  0.169179  1
  O  O39  1  0.791098  0.663087  0.830821  1
  O  O40  1  0.539882  0.732039  0.234429  1
  O  O41  1  0.960118  0.232039  0.765571  1
  O  O42  1  0.460118  0.267961  0.765571  1
  O  O43  1  0.039882  0.767961  0.234429  1
  O  O44  1  0.424218  0.672659  0.071726  1
  O  O45  1  0.075782  0.172659  0.928274  1
  O  O46  1  0.575782  0.327341  0.928274  1
  O  O47  1  0.924218  0.827341  0.071726  1
  O  O48  1  0.633099  0.761456  0.066334  1
  O  O49  1  0.866901  0.261456  0.933666  1
  O  O50  1  0.366901  0.238544  0.933666  1
  O  O51  1  0.133099  0.738544  0.066334  1
