# generated using pymatgen
data_ErSi3Rh5
_symmetry_space_group_name_H-M   'P 1'
_cell_length_a   15.62460510
_cell_length_b   15.62460510
_cell_length_c   3.87505738
_cell_angle_alpha   90.00000000
_cell_angle_beta   90.00000000
_cell_angle_gamma   120.00000000
_symmetry_Int_Tables_number   1
_chemical_formula_structural   ErSi3Rh5
_chemical_formula_sum   'Er6 Si18 Rh30'
_cell_volume   819.26965428
_cell_formula_units_Z   6
loop_
 _symmetry_equiv_pos_site_id
 _symmetry_equiv_pos_as_xyz
  1  'x, y, z'
loop_
 _atom_site_type_symbol
 _atom_site_label
 _atom_site_symmetry_multiplicity
 _atom_site_fract_x
 _atom_site_fract_y
 _atom_site_fract_z
 _atom_site_occupancy
  Er  Er0  1  0.605718  0.899933  0.250000  1
  Er  Er1  1  0.705785  0.605718  0.750000  1
  Er  Er2  1  0.899933  0.294215  0.750000  1
  Er  Er3  1  0.100067  0.705785  0.250000  1
  Er  Er4  1  0.294215  0.394282  0.250000  1
  Er  Er5  1  0.394282  0.100067  0.750000  1
  Si  Si6  1  0.441957  0.760664  0.750000  1
  Si  Si7  1  0.681293  0.441957  0.250000  1
  Si  Si8  1  0.760664  0.318707  0.250000  1
  Si  Si9  1  0.239336  0.681293  0.750000  1
  Si  Si10  1  0.318707  0.558043  0.750000  1
  Si  Si11  1  0.558043  0.239336  0.250000  1
  Si  Si12  1  0.880898  0.131332  0.250000  1
  Si  Si13  1  0.119102  0.868668  0.750000  1
  Si  Si14  1  0.131332  0.250434  0.750000  1
  Si  Si15  1  0.250434  0.119102  0.250000  1
  Si  Si16  1  0.370552  0.938543  0.250000  1
  Si  Si17  1  0.432009  0.370552  0.750000  1
  Si  Si18  1  0.938543  0.567991  0.750000  1
  Si  Si19  1  0.061457  0.432009  0.250000  1
  Si  Si20  1  0.567991  0.629448  0.250000  1
  Si  Si21  1  0.629448  0.061457  0.750000  1
  Si  Si22  1  0.749566  0.880898  0.750000  1
  Si  Si23  1  0.868668  0.749566  0.250000  1
  Rh  Rh24  1  0.463710  0.924880  0.750000  1
  Rh  Rh25  1  0.153838  0.414165  0.750000  1
  Rh  Rh26  1  0.260327  0.846162  0.750000  1
  Rh  Rh27  1  0.739673  0.153838  0.250000  1
  Rh  Rh28  1  0.846162  0.585835  0.250000  1
  Rh  Rh29  1  0.414165  0.260327  0.250000  1
  Rh  Rh30  1  0.652448  0.223408  0.750000  1
  Rh  Rh31  1  0.429040  0.652448  0.250000  1
  Rh  Rh32  1  0.223408  0.570960  0.250000  1
  Rh  Rh33  1  0.776592  0.429040  0.750000  1
  Rh  Rh34  1  0.570960  0.347552  0.750000  1
  Rh  Rh35  1  0.347552  0.776592  0.250000  1
  Rh  Rh36  1  0.140687  0.028232  0.750000  1
  Rh  Rh37  1  0.112455  0.140687  0.250000  1
  Rh  Rh38  1  0.028232  0.887545  0.250000  1
  Rh  Rh39  1  0.971768  0.112455  0.750000  1
  Rh  Rh40  1  0.887545  0.859313  0.750000  1
  Rh  Rh41  1  0.859313  0.971768  0.250000  1
  Rh  Rh42  1  0.924880  0.461170  0.250000  1
  Rh  Rh43  1  0.075120  0.538830  0.750000  1
  Rh  Rh44  1  0.461170  0.536290  0.750000  1
  Rh  Rh45  1  0.536290  0.075120  0.250000  1
  Rh  Rh46  1  0.729027  0.773080  0.250000  1
  Rh  Rh47  1  0.955947  0.729027  0.750000  1
  Rh  Rh48  1  0.773080  0.044053  0.750000  1
  Rh  Rh49  1  0.226920  0.955947  0.250000  1
  Rh  Rh50  1  0.044053  0.270973  0.250000  1
  Rh  Rh51  1  0.270973  0.226920  0.750000  1
  Rh  Rh52  1  0.585835  0.739673  0.750000  1
  Rh  Rh53  1  0.538830  0.463710  0.250000  1
