# generated using pymatgen
data_FeCO3
_symmetry_space_group_name_H-M   'P 1'
_cell_length_a   5.83868687
_cell_length_b   5.83868687
_cell_length_c   5.83868687
_cell_angle_alpha   48.09795775
_cell_angle_beta   48.09795775
_cell_angle_gamma   48.09795775
_symmetry_Int_Tables_number   1
_chemical_formula_structural   FeCO3
_chemical_formula_sum   'Fe2 C2 O6'
_cell_volume   101.03646657
_cell_formula_units_Z   2
loop_
 _symmetry_equiv_pos_site_id
 _symmetry_equiv_pos_as_xyz
  1  'x, y, z'
loop_
 _atom_site_type_symbol
 _atom_site_label
 _atom_site_symmetry_multiplicity
 _atom_site_fract_x
 _atom_site_fract_y
 _atom_site_fract_z
 _atom_site_occupancy
  Fe  Fe0  1  0.500000  0.500000  0.500000  1
  Fe  Fe1  1  0.000000  0.000000  0.000000  1
  C  C2  1  0.250000  0.250000  0.250000  1
  C  C3  1  0.750000  0.750000  0.750000  1
  O  O4  1  0.976740  0.523260  0.250000  1
  O  O5  1  0.250000  0.976740  0.523260  1
  O  O6  1  0.523260  0.250000  0.976740  1
  O  O7  1  0.750000  0.023260  0.476740  1
  O  O8  1  0.476740  0.750000  0.023260  1
  O  O9  1  0.023260  0.476740  0.750000  1
