# generated using pymatgen
data_KSi2BO6
_symmetry_space_group_name_H-M   'P 1'
_cell_length_a   4.77684008
_cell_length_b   10.09677295
_cell_length_c   10.56476484
_cell_angle_alpha   90.00000000
_cell_angle_beta   90.00000000
_cell_angle_gamma   90.00000000
_symmetry_Int_Tables_number   1
_chemical_formula_structural   KSi2BO6
_chemical_formula_sum   'K4 Si8 B4 O24'
_cell_volume   509.54568352
_cell_formula_units_Z   4
loop_
 _symmetry_equiv_pos_site_id
 _symmetry_equiv_pos_as_xyz
  1  'x, y, z'
loop_
 _atom_site_type_symbol
 _atom_site_label
 _atom_site_symmetry_multiplicity
 _atom_site_fract_x
 _atom_site_fract_y
 _atom_site_fract_z
 _atom_site_occupancy
  K  K0  1  0.797510  0.965643  0.311085  1
  K  K1  1  0.702490  0.034357  0.811085  1
  K  K2  1  0.297510  0.534357  0.688915  1
  K  K3  1  0.202490  0.465643  0.188915  1
  Si  Si4  1  0.785701  0.609013  0.435063  1
  Si  Si5  1  0.714299  0.390987  0.935063  1
  Si  Si6  1  0.285701  0.890987  0.564937  1
  Si  Si7  1  0.214299  0.109013  0.064937  1
  Si  Si8  1  0.266099  0.801984  0.075547  1
  Si  Si9  1  0.233901  0.198016  0.575547  1
  Si  Si10  1  0.766099  0.698016  0.924453  1
  Si  Si11  1  0.733901  0.301984  0.424453  1
  B  B12  1  0.289087  0.731333  0.343108  1
  B  B13  1  0.210913  0.268667  0.843108  1
  B  B14  1  0.789087  0.768667  0.656892  1
  B  B15  1  0.710913  0.231333  0.156892  1
  O  O16  1  0.989296  0.693864  0.341853  1
  O  O17  1  0.510704  0.306136  0.841853  1
  O  O18  1  0.489296  0.806136  0.658147  1
  O  O19  1  0.010704  0.193864  0.158147  1
  O  O20  1  0.330417  0.856306  0.414923  1
  O  O21  1  0.169583  0.143694  0.914923  1
  O  O22  1  0.830417  0.643694  0.585077  1
  O  O23  1  0.669583  0.356306  0.085077  1
  O  O24  1  0.457372  0.621489  0.394754  1
  O  O25  1  0.042628  0.378511  0.894754  1
  O  O26  1  0.957372  0.878511  0.605246  1
  O  O27  1  0.542628  0.121489  0.105246  1
  O  O28  1  0.382495  0.755519  0.211264  1
  O  O29  1  0.117505  0.244481  0.711264  1
  O  O30  1  0.882495  0.744481  0.788736  1
  O  O31  1  0.617505  0.255519  0.288736  1
  O  O32  1  0.024779  0.697607  0.026849  1
  O  O33  1  0.475221  0.302393  0.526849  1
  O  O34  1  0.524779  0.802393  0.973151  1
  O  O35  1  0.975221  0.197607  0.473151  1
  O  O36  1  0.129200  0.950445  0.079279  1
  O  O37  1  0.370800  0.049555  0.579279  1
  O  O38  1  0.629200  0.549555  0.920721  1
  O  O39  1  0.870800  0.450445  0.420721  1
