# generated using pymatgen
data_P3RhO9
_symmetry_space_group_name_H-M   'P 1'
_cell_length_a   11.73971744
_cell_length_b   11.73971744
_cell_length_c   9.49826485
_cell_angle_alpha   70.08890097
_cell_angle_beta   109.91109903
_cell_angle_gamma   68.77214586
_symmetry_Int_Tables_number   1
_chemical_formula_structural   P3RhO9
_chemical_formula_sum   'P18 Rh6 O54'
_cell_volume   973.42143712
_cell_formula_units_Z   6
loop_
 _symmetry_equiv_pos_site_id
 _symmetry_equiv_pos_as_xyz
  1  'x, y, z'
loop_
 _atom_site_type_symbol
 _atom_site_label
 _atom_site_symmetry_multiplicity
 _atom_site_fract_x
 _atom_site_fract_y
 _atom_site_fract_z
 _atom_site_occupancy
  P  P0  1  0.313325  0.314349  0.253024  1
  P  P1  1  0.685651  0.686675  0.753024  1
  P  P2  1  0.649398  0.414811  0.183271  1
  P  P3  1  0.585189  0.350602  0.683271  1
  P  P4  1  0.235897  0.039000  0.656481  1
  P  P5  1  0.961000  0.764103  0.156481  1
  P  P6  1  0.905877  0.701225  0.657196  1
  P  P7  1  0.298775  0.094123  0.157196  1
  P  P8  1  0.012676  0.258858  0.808113  1
  P  P9  1  0.741142  0.987324  0.308113  1
  P  P10  1  0.032396  0.004534  0.771045  1
  P  P11  1  0.995466  0.967604  0.271045  1
  P  P12  1  0.329904  0.378398  0.714624  1
  P  P13  1  0.621602  0.670096  0.214624  1
  P  P14  1  0.677920  0.928882  0.803637  1
  P  P15  1  0.071118  0.322080  0.303637  1
  P  P16  1  0.368378  0.579913  0.837836  1
  P  P17  1  0.420087  0.631622  0.337836  1
  Rh  Rh18  1  0.485411  0.024535  0.970646  1
  Rh  Rh19  1  0.975465  0.514589  0.470646  1
  Rh  Rh20  1  0.164063  0.660371  0.003566  1
  Rh  Rh21  1  0.339629  0.835937  0.503566  1
  Rh  Rh22  1  0.830211  0.330906  0.999625  1
  Rh  Rh23  1  0.669094  0.169789  0.499625  1
  O  O24  1  0.407070  0.237785  0.885552  1
  O  O25  1  0.762215  0.592930  0.385552  1
  O  O26  1  0.968111  0.451212  0.294006  1
  O  O27  1  0.548788  0.031889  0.794006  1
  O  O28  1  0.416184  0.998846  0.143913  1
  O  O29  1  0.001154  0.583816  0.643913  1
  O  O30  1  0.291803  0.082183  0.783634  1
  O  O31  1  0.917817  0.708197  0.283634  1
  O  O32  1  0.451456  0.281188  0.390533  1
  O  O33  1  0.718812  0.548544  0.890533  1
  O  O34  1  0.895278  0.960081  0.349018  1
  O  O35  1  0.039919  0.104722  0.849018  1
  O  O36  1  0.674322  0.989492  0.140514  1
  O  O37  1  0.010508  0.325678  0.640514  1
  O  O38  1  0.781522  0.843987  0.468622  1
  O  O39  1  0.156013  0.218478  0.968622  1
  O  O40  1  0.113386  0.179431  0.465336  1
  O  O41  1  0.820569  0.886614  0.965336  1
  O  O42  1  0.350116  0.186301  0.218573  1
  O  O43  1  0.813699  0.649884  0.718573  1
  O  O44  1  0.680617  0.985752  0.637076  1
  O  O45  1  0.014248  0.319383  0.137076  1
  O  O46  1  0.140741  0.983167  0.702042  1
  O  O47  1  0.016833  0.859259  0.202042  1
  O  O48  1  0.501927  0.693613  0.265046  1
  O  O49  1  0.306387  0.498073  0.765046  1
  O  O50  1  0.645325  0.345657  0.854649  1
  O  O51  1  0.654343  0.354675  0.354649  1
  O  O52  1  0.552331  0.491168  0.526322  1
  O  O53  1  0.508832  0.447669  0.026322  1
  O  O54  1  0.618089  0.572735  0.129603  1
  O  O55  1  0.427265  0.381911  0.629603  1
  O  O56  1  0.678715  0.218567  0.688971  1
  O  O57  1  0.781433  0.321285  0.188971  1
  O  O58  1  0.888361  0.070571  0.613015  1
  O  O59  1  0.929429  0.111639  0.113015  1
  O  O60  1  0.882111  0.343815  0.810205  1
  O  O61  1  0.656185  0.117889  0.310205  1
  O  O62  1  0.697132  0.775801  0.849422  1
  O  O63  1  0.224199  0.302868  0.349422  1
  O  O64  1  0.099101  0.865085  0.938907  1
  O  O65  1  0.134915  0.900899  0.438907  1
  O  O66  1  0.547569  0.778396  0.574251  1
  O  O67  1  0.221604  0.452431  0.074251  1
  O  O68  1  0.259721  0.677083  0.859584  1
  O  O69  1  0.322917  0.740279  0.359584  1
  O  O70  1  0.347713  0.931182  0.648182  1
  O  O71  1  0.068818  0.652287  0.148182  1
  O  O72  1  0.416027  0.649390  0.725526  1
  O  O73  1  0.350610  0.583973  0.225526  1
  O  O74  1  0.978614  0.742568  0.776213  1
  O  O75  1  0.257432  0.021386  0.276213  1
  O  O76  1  0.189684  0.430266  0.560219  1
  O  O77  1  0.569734  0.810316  0.060219  1
