# generated using pymatgen
data_H2CO3
_symmetry_space_group_name_H-M   'P 1'
_cell_length_a   4.75012547
_cell_length_b   4.75012547
_cell_length_c   6.58336481
_cell_angle_alpha   90.00000000
_cell_angle_beta   90.00000000
_cell_angle_gamma   90.09473343
_symmetry_Int_Tables_number   1
_chemical_formula_structural   H2CO3
_chemical_formula_sum   'H4 C2 O6'
_cell_volume   148.54481286
_cell_formula_units_Z   2
loop_
 _symmetry_equiv_pos_site_id
 _symmetry_equiv_pos_as_xyz
  1  'x, y, z'
loop_
 _atom_site_type_symbol
 _atom_site_label
 _atom_site_symmetry_multiplicity
 _atom_site_fract_x
 _atom_site_fract_y
 _atom_site_fract_z
 _atom_site_occupancy
  H  H0  1  0.666698  0.666698  0.541709  1
  H  H1  1  0.666698  0.666698  0.958291  1
  H  H2  1  0.333302  0.333302  0.041709  1
  H  H3  1  0.333302  0.333302  0.458291  1
  C  C4  1  0.647571  0.647571  0.250000  1
  C  C5  1  0.352429  0.352429  0.750000  1
  O  O6  1  0.459049  0.459049  0.250000  1
  O  O7  1  0.540951  0.540951  0.750000  1
  O  O8  1  0.755466  0.755466  0.416161  1
  O  O9  1  0.755466  0.755466  0.083839  1
  O  O10  1  0.244534  0.244534  0.916161  1
  O  O11  1  0.244534  0.244534  0.583839  1
