# generated using pymatgen
data_SrCu9Si4
_symmetry_space_group_name_H-M   'P 1'
_cell_length_a   8.18750977
_cell_length_b   8.18750977
_cell_length_c   8.18750977
_cell_angle_alpha   120.26078854
_cell_angle_beta   120.26078854
_cell_angle_gamma   89.54889140
_symmetry_Int_Tables_number   1
_chemical_formula_structural   SrCu9Si4
_chemical_formula_sum   'Sr2 Cu18 Si8'
_cell_volume   386.55439461
_cell_formula_units_Z   2
loop_
 _symmetry_equiv_pos_site_id
 _symmetry_equiv_pos_as_xyz
  1  'x, y, z'
loop_
 _atom_site_type_symbol
 _atom_site_label
 _atom_site_symmetry_multiplicity
 _atom_site_fract_x
 _atom_site_fract_y
 _atom_site_fract_z
 _atom_site_occupancy
  Sr  Sr0  1  0.750000  0.750000  0.000000  1
  Sr  Sr1  1  0.250000  0.250000  0.000000  1
  Cu  Cu2  1  0.435690  0.703453  0.139143  1
  Cu  Cu3  1  0.703453  0.564310  0.267763  1
  Cu  Cu4  1  0.296547  0.435690  0.732237  1
  Cu  Cu5  1  0.935690  0.796547  0.732237  1
  Cu  Cu6  1  0.564310  0.296547  0.860857  1
  Cu  Cu7  1  0.306778  0.558871  0.500000  1
  Cu  Cu8  1  0.058871  0.806778  0.500000  1
  Cu  Cu9  1  0.693222  0.441129  0.500000  1
  Cu  Cu10  1  0.941129  0.193222  0.500000  1
  Cu  Cu11  1  0.441129  0.941129  0.747906  1
  Cu  Cu12  1  0.193222  0.693222  0.252094  1
  Cu  Cu13  1  0.558871  0.058871  0.252094  1
  Cu  Cu14  1  0.203453  0.935690  0.139143  1
  Cu  Cu15  1  0.064310  0.203453  0.267763  1
  Cu  Cu16  1  1.000000  0.500000  0.500000  1
  Cu  Cu17  1  0.500000  1.000000  0.500000  1
  Cu  Cu18  1  0.806778  0.306778  0.747906  1
  Cu  Cu19  1  0.796547  0.064310  0.860857  1
  Si  Si20  1  0.291878  0.791878  0.851571  1
  Si  Si21  1  0.059693  0.559693  0.851571  1
  Si  Si22  1  0.559693  0.708122  0.500000  1
  Si  Si23  1  0.791878  0.940307  0.500000  1
  Si  Si24  1  0.440307  0.291878  0.500000  1
  Si  Si25  1  0.940307  0.440307  0.148429  1
  Si  Si26  1  0.708122  0.208122  0.148429  1
  Si  Si27  1  0.208122  0.059693  0.500000  1
