# generated using pymatgen
data_RbNb(PO4)2
_symmetry_space_group_name_H-M   'P 1'
_cell_length_a   5.28645986
_cell_length_b   12.21380131
_cell_length_c   13.26205915
_cell_angle_alpha   90.00000000
_cell_angle_beta   112.98300772
_cell_angle_gamma   90.00000000
_symmetry_Int_Tables_number   1
_chemical_formula_structural   RbNb(PO4)2
_chemical_formula_sum   'Rb4 Nb4 P8 O32'
_cell_volume   788.32896193
_cell_formula_units_Z   4
loop_
 _symmetry_equiv_pos_site_id
 _symmetry_equiv_pos_as_xyz
  1  'x, y, z'
loop_
 _atom_site_type_symbol
 _atom_site_label
 _atom_site_symmetry_multiplicity
 _atom_site_fract_x
 _atom_site_fract_y
 _atom_site_fract_z
 _atom_site_occupancy
  Rb  Rb0  1  0.298576  0.371691  0.042885  1
  Rb  Rb1  1  0.701424  0.871691  0.457115  1
  Rb  Rb2  1  0.701424  0.628309  0.957115  1
  Rb  Rb3  1  0.298576  0.128309  0.542885  1
  Nb  Nb4  1  0.081511  0.113149  0.826265  1
  Nb  Nb5  1  0.918489  0.613149  0.673735  1
  Nb  Nb6  1  0.918489  0.886851  0.173735  1
  Nb  Nb7  1  0.081511  0.386851  0.326265  1
  P  P8  1  0.381274  0.431070  0.629428  1
  P  P9  1  0.618726  0.931070  0.870572  1
  P  P10  1  0.618726  0.568930  0.370572  1
  P  P11  1  0.381274  0.068930  0.129428  1
  P  P12  1  0.593985  0.300799  0.836522  1
  P  P13  1  0.406015  0.800799  0.663478  1
  P  P14  1  0.406015  0.699201  0.163478  1
  P  P15  1  0.593985  0.199201  0.336522  1
  O  O16  1  0.407699  0.284339  0.360521  1
  O  O17  1  0.592301  0.784339  0.139479  1
  O  O18  1  0.592301  0.715661  0.639479  1
  O  O19  1  0.407699  0.215661  0.860521  1
  O  O20  1  0.961006  0.378961  0.182786  1
  O  O21  1  0.038994  0.878961  0.317214  1
  O  O22  1  0.038994  0.621039  0.817214  1
  O  O23  1  0.961006  0.121039  0.682786  1
  O  O24  1  0.635537  0.403403  0.901938  1
  O  O25  1  0.364463  0.903403  0.598062  1
  O  O26  1  0.364463  0.596597  0.098062  1
  O  O27  1  0.635537  0.096597  0.401938  1
  O  O28  1  0.335458  0.518305  0.347480  1
  O  O29  1  0.664542  0.018305  0.152520  1
  O  O30  1  0.664542  0.481695  0.652520  1
  O  O31  1  0.335458  0.981695  0.847480  1
  O  O32  1  0.233616  0.110748  0.014975  1
  O  O33  1  0.766384  0.610748  0.485025  1
  O  O34  1  0.766384  0.889252  0.985025  1
  O  O35  1  0.233616  0.389252  0.514975  1
  O  O36  1  0.784788  0.490034  0.329656  1
  O  O37  1  0.215212  0.990034  0.170344  1
  O  O38  1  0.215212  0.509966  0.670344  1
  O  O39  1  0.784788  0.009966  0.829656  1
  O  O40  1  0.864571  0.256279  0.348142  1
  O  O41  1  0.135429  0.756279  0.151858  1
  O  O42  1  0.135429  0.743721  0.651858  1
  O  O43  1  0.864571  0.243721  0.848142  1
  O  O44  1  0.435371  0.322466  0.705129  1
  O  O45  1  0.564629  0.822466  0.794871  1
  O  O46  1  0.564629  0.677534  0.294871  1
  O  O47  1  0.435371  0.177534  0.205129  1
