# generated using pymatgen
data_ZnS
_symmetry_space_group_name_H-M   'P 1'
_cell_length_a   31.54953963
_cell_length_b   31.54953963
_cell_length_c   31.54953963
_cell_angle_alpha   7.01324089
_cell_angle_beta   7.01324089
_cell_angle_gamma   7.01324089
_symmetry_Int_Tables_number   1
_chemical_formula_structural   ZnS
_chemical_formula_sum   'Zn10 S10'
_cell_volume   405.95117260
_cell_formula_units_Z   10
loop_
 _symmetry_equiv_pos_site_id
 _symmetry_equiv_pos_as_xyz
  1  'x, y, z'
loop_
 _atom_site_type_symbol
 _atom_site_label
 _atom_site_symmetry_multiplicity
 _atom_site_fract_x
 _atom_site_fract_y
 _atom_site_fract_z
 _atom_site_occupancy
  Zn  Zn0  1  0.366913  0.366913  0.366913  1
  Zn  Zn1  1  0.066915  0.066915  0.066915  1
  Zn  Zn2  1  0.766916  0.766916  0.766916  1
  Zn  Zn3  1  0.133585  0.133585  0.133585  1
  Zn  Zn4  1  0.500247  0.500247  0.500247  1
  Zn  Zn5  1  0.200247  0.200247  0.200247  1
  Zn  Zn6  1  0.900241  0.900241  0.900241  1
  Zn  Zn7  1  0.266933  0.266933  0.266933  1
  Zn  Zn8  1  0.633580  0.633580  0.633580  1
  Zn  Zn9  1  0.000225  0.000225  0.000225  1
  S  S10  1  0.341890  0.341890  0.341890  1
  S  S11  1  0.041944  0.041944  0.041944  1
  S  S12  1  0.741898  0.741898  0.741898  1
  S  S13  1  0.108613  0.108613  0.108613  1
  S  S14  1  0.475232  0.475232  0.475232  1
  S  S15  1  0.175277  0.175277  0.175277  1
  S  S16  1  0.875229  0.875229  0.875229  1
  S  S17  1  0.241949  0.241949  0.241949  1
  S  S18  1  0.608591  0.608591  0.608591  1
  S  S19  1  0.975243  0.975243  0.975243  1
