# generated using pymatgen
data_FeSO4
_symmetry_space_group_name_H-M   'P 1'
_cell_length_a   4.88860255
_cell_length_b   6.90836774
_cell_length_c   8.81787661
_cell_angle_alpha   90.00000000
_cell_angle_beta   90.00000000
_cell_angle_gamma   90.00000000
_symmetry_Int_Tables_number   1
_chemical_formula_structural   FeSO4
_chemical_formula_sum   'Fe4 S4 O16'
_cell_volume   297.79965812
_cell_formula_units_Z   4
loop_
 _symmetry_equiv_pos_site_id
 _symmetry_equiv_pos_as_xyz
  1  'x, y, z'
loop_
 _atom_site_type_symbol
 _atom_site_label
 _atom_site_symmetry_multiplicity
 _atom_site_fract_x
 _atom_site_fract_y
 _atom_site_fract_z
 _atom_site_occupancy
  Fe  Fe0  1  0.500000  0.500000  0.500000  1
  Fe  Fe1  1  0.000000  0.500000  0.000000  1
  Fe  Fe2  1  0.500000  0.000000  0.500000  1
  Fe  Fe3  1  0.000000  0.000000  0.000000  1
  S  S4  1  0.525672  0.750000  0.823179  1
  S  S5  1  0.025672  0.250000  0.676821  1
  S  S6  1  0.474328  0.250000  0.176821  1
  S  S7  1  0.974328  0.750000  0.323179  1
  O  O8  1  0.237768  0.750000  0.880235  1
  O  O9  1  0.737768  0.250000  0.619765  1
  O  O10  1  0.762232  0.250000  0.119765  1
  O  O11  1  0.262232  0.750000  0.380235  1
  O  O12  1  0.530891  0.750000  0.651829  1
  O  O13  1  0.030891  0.250000  0.848171  1
  O  O14  1  0.469109  0.250000  0.348171  1
  O  O15  1  0.969109  0.750000  0.151829  1
  O  O16  1  0.835614  0.928170  0.374432  1
  O  O17  1  0.335614  0.071830  0.125568  1
  O  O18  1  0.164386  0.428170  0.625568  1
  O  O19  1  0.664386  0.571830  0.874432  1
  O  O20  1  0.164386  0.071830  0.625568  1
  O  O21  1  0.664386  0.928170  0.874432  1
  O  O22  1  0.835614  0.571830  0.374432  1
  O  O23  1  0.335614  0.428170  0.125568  1
