# generated using pymatgen
data_Ho2Cu(B2O5)2
_symmetry_space_group_name_H-M   'P 1'
_cell_length_a   4.60484345
_cell_length_b   7.29021853
_cell_length_c   9.35995921
_cell_angle_alpha   90.00000000
_cell_angle_beta   90.46462851
_cell_angle_gamma   90.00000000
_symmetry_Int_Tables_number   1
_chemical_formula_structural   Ho2Cu(B2O5)2
_chemical_formula_sum   'Ho4 Cu2 B8 O20'
_cell_volume   314.20644796
_cell_formula_units_Z   2
loop_
 _symmetry_equiv_pos_site_id
 _symmetry_equiv_pos_as_xyz
  1  'x, y, z'
loop_
 _atom_site_type_symbol
 _atom_site_label
 _atom_site_symmetry_multiplicity
 _atom_site_fract_x
 _atom_site_fract_y
 _atom_site_fract_z
 _atom_site_occupancy
  Ho  Ho0  1  0.004281  0.395496  0.165270  1
  Ho  Ho1  1  0.995719  0.895496  0.334730  1
  Ho  Ho2  1  0.004281  0.104504  0.665270  1
  Ho  Ho3  1  0.995719  0.604504  0.834730  1
  Cu  Cu4  1  0.000000  0.000000  0.000000  1
  Cu  Cu5  1  0.000000  0.500000  0.500000  1
  B  B6  1  0.539834  0.267607  0.919133  1
  B  B7  1  0.460166  0.767607  0.580867  1
  B  B8  1  0.460166  0.732393  0.080867  1
  B  B9  1  0.539834  0.232393  0.419133  1
  B  B10  1  0.527814  0.598570  0.338235  1
  B  B11  1  0.472186  0.098570  0.161765  1
  B  B12  1  0.472186  0.401430  0.661765  1
  B  B13  1  0.527814  0.901430  0.838235  1
  O  O14  1  0.785318  0.410746  0.665769  1
  O  O15  1  0.214682  0.589254  0.334231  1
  O  O16  1  0.677089  0.087177  0.861994  1
  O  O17  1  0.322911  0.587177  0.638006  1
  O  O18  1  0.322911  0.912823  0.138006  1
  O  O19  1  0.785318  0.089254  0.165769  1
  O  O20  1  0.640771  0.777772  0.953002  1
  O  O21  1  0.359229  0.277772  0.546998  1
  O  O22  1  0.359229  0.222228  0.046998  1
  O  O23  1  0.640771  0.722228  0.453002  1
  O  O24  1  0.656603  0.834400  0.700004  1
  O  O25  1  0.343397  0.334400  0.799996  1
  O  O26  1  0.343397  0.165600  0.299996  1
  O  O27  1  0.656603  0.665600  0.200004  1
  O  O28  1  0.771056  0.111712  0.457583  1
  O  O29  1  0.228944  0.611712  0.042417  1
  O  O30  1  0.228944  0.888288  0.542417  1
  O  O31  1  0.771056  0.388288  0.957583  1
  O  O32  1  0.677089  0.412823  0.361994  1
  O  O33  1  0.214682  0.910746  0.834231  1
