# generated using pymatgen
data_Sm2Se3
_symmetry_space_group_name_H-M   'P 1'
_cell_length_a   4.12959846
_cell_length_b   11.13257402
_cell_length_c   11.40329074
_cell_angle_alpha   90.00000000
_cell_angle_beta   90.00000000
_cell_angle_gamma   90.00000000
_symmetry_Int_Tables_number   1
_chemical_formula_structural   Sm2Se3
_chemical_formula_sum   'Sm8 Se12'
_cell_volume   524.24417542
_cell_formula_units_Z   4
loop_
 _symmetry_equiv_pos_site_id
 _symmetry_equiv_pos_as_xyz
  1  'x, y, z'
loop_
 _atom_site_type_symbol
 _atom_site_label
 _atom_site_symmetry_multiplicity
 _atom_site_fract_x
 _atom_site_fract_y
 _atom_site_fract_z
 _atom_site_occupancy
  Sm  Sm0  1  0.250000  0.997792  0.693642  1
  Sm  Sm1  1  0.750000  0.002208  0.306358  1
  Sm  Sm2  1  0.750000  0.497792  0.806358  1
  Sm  Sm3  1  0.250000  0.502208  0.193642  1
  Sm  Sm4  1  0.250000  0.312921  0.511685  1
  Sm  Sm5  1  0.750000  0.687079  0.488315  1
  Sm  Sm6  1  0.750000  0.812921  0.988315  1
  Sm  Sm7  1  0.250000  0.187079  0.011685  1
  Se  Se8  1  0.750000  0.055682  0.880053  1
  Se  Se9  1  0.250000  0.944318  0.119947  1
  Se  Se10  1  0.250000  0.555682  0.619947  1
  Se  Se11  1  0.750000  0.444318  0.380053  1
  Se  Se12  1  0.250000  0.874672  0.455212  1
  Se  Se13  1  0.750000  0.125328  0.544788  1
  Se  Se14  1  0.750000  0.374672  0.044788  1
  Se  Se15  1  0.250000  0.625328  0.955212  1
  Se  Se16  1  0.250000  0.302125  0.772211  1
  Se  Se17  1  0.750000  0.697875  0.227789  1
  Se  Se18  1  0.750000  0.802125  0.727789  1
  Se  Se19  1  0.250000  0.197875  0.272211  1
