# generated using pymatgen
data_CeB2Ir2C
_symmetry_space_group_name_H-M   'P 1'
_cell_length_a   5.86260446
_cell_length_b   5.86260446
_cell_length_c   5.86260446
_cell_angle_alpha   141.59062227
_cell_angle_beta   141.59062227
_cell_angle_gamma   55.44594028
_symmetry_Int_Tables_number   1
_chemical_formula_structural   CeB2Ir2C
_chemical_formula_sum   'Ce1 B2 Ir2 C1'
_cell_volume   77.20056232
_cell_formula_units_Z   1
loop_
 _symmetry_equiv_pos_site_id
 _symmetry_equiv_pos_as_xyz
  1  'x, y, z'
loop_
 _atom_site_type_symbol
 _atom_site_label
 _atom_site_symmetry_multiplicity
 _atom_site_fract_x
 _atom_site_fract_y
 _atom_site_fract_z
 _atom_site_occupancy
  Ce  Ce0  1  0.500000  0.500000  0.000000  1
  B  B1  1  0.146233  0.146233  0.000000  1
  B  B2  1  0.853767  0.853767  0.000000  1
  Ir  Ir3  1  0.250000  0.750000  0.500000  1
  Ir  Ir4  1  0.750000  0.250000  0.500000  1
  C  C5  1  0.000000  0.000000  0.000000  1
