# generated using pymatgen
data_Ca2Al2O5
_symmetry_space_group_name_H-M   'P 1'
_cell_length_a   8.18263966
_cell_length_b   8.18263966
_cell_length_c   8.18263966
_cell_angle_alpha   142.31502738
_cell_angle_beta   140.98668094
_cell_angle_gamma   55.36241795
_symmetry_Int_Tables_number   1
_chemical_formula_structural   Ca2Al2O5
_chemical_formula_sum   'Ca4 Al4 O10'
_cell_volume   209.28982053
_cell_formula_units_Z   2
loop_
 _symmetry_equiv_pos_site_id
 _symmetry_equiv_pos_as_xyz
  1  'x, y, z'
loop_
 _atom_site_type_symbol
 _atom_site_label
 _atom_site_symmetry_multiplicity
 _atom_site_fract_x
 _atom_site_fract_y
 _atom_site_fract_z
 _atom_site_occupancy
  Ca  Ca0  1  0.366795  0.896318  0.478375  1
  Ca  Ca1  1  0.633205  0.111580  0.529523  1
  Ca  Ca2  1  0.917943  0.396318  0.529523  1
  Ca  Ca3  1  0.082057  0.611580  0.478375  1
  Al  Al4  1  1.000000  0.997082  0.997082  1
  Al  Al5  1  0.500000  0.497082  0.997082  1
  Al  Al6  1  0.324842  0.295539  0.120381  1
  Al  Al7  1  0.675158  0.795539  0.970696  1
  O  O8  1  0.263044  0.758722  0.000547  1
  O  O9  1  0.736956  0.737503  0.495677  1
  O  O10  1  0.258174  0.258722  0.495677  1
  O  O11  1  0.741826  0.237503  0.000547  1
  O  O12  1  0.386961  0.631556  0.518517  1
  O  O13  1  0.613039  0.131556  0.244596  1
  O  O14  1  0.300992  0.339974  0.924014  1
  O  O15  1  0.699008  0.623022  0.038982  1
  O  O16  1  0.084040  0.123022  0.924014  1
  O  O17  1  0.915960  0.839974  0.038982  1
