# generated using pymatgen
data_KNO3
_symmetry_space_group_name_H-M   'P 1'
_cell_length_a   4.68324308
_cell_length_b   5.36463871
_cell_length_c   14.27501595
_cell_angle_alpha   90.00000000
_cell_angle_beta   108.25322341
_cell_angle_gamma   90.00000000
_symmetry_Int_Tables_number   1
_chemical_formula_structural   KNO3
_chemical_formula_sum   'K4 N4 O12'
_cell_volume   340.59773989
_cell_formula_units_Z   4
loop_
 _symmetry_equiv_pos_site_id
 _symmetry_equiv_pos_as_xyz
  1  'x, y, z'
loop_
 _atom_site_type_symbol
 _atom_site_label
 _atom_site_symmetry_multiplicity
 _atom_site_fract_x
 _atom_site_fract_y
 _atom_site_fract_z
 _atom_site_occupancy
  K  K0  1  0.600010  0.901464  0.376895  1
  K  K1  1  0.399990  0.401464  0.123105  1
  K  K2  1  0.399990  0.098536  0.623105  1
  K  K3  1  0.600010  0.598536  0.876895  1
  N  N4  1  0.012447  0.404407  0.380430  1
  N  N5  1  0.987553  0.904407  0.119570  1
  N  N6  1  0.987553  0.595593  0.619570  1
  N  N7  1  0.012447  0.095593  0.880430  1
  O  O8  1  0.144258  0.201367  0.414368  1
  O  O9  1  0.855742  0.701367  0.085632  1
  O  O10  1  0.855742  0.798633  0.585632  1
  O  O11  1  0.144258  0.298633  0.914368  1
  O  O12  1  0.141457  0.611622  0.405071  1
  O  O13  1  0.858543  0.111622  0.094929  1
  O  O14  1  0.858543  0.388378  0.594929  1
  O  O15  1  0.141457  0.888378  0.905071  1
  O  O16  1  0.256487  0.897757  0.178048  1
  O  O17  1  0.743513  0.397757  0.321952  1
  O  O18  1  0.743513  0.102243  0.821952  1
  O  O19  1  0.256487  0.602243  0.678048  1
