# generated using pymatgen
data_Ce(FeB)4
_symmetry_space_group_name_H-M   'P 1'
_cell_length_a   7.00782808
_cell_length_b   7.00782808
_cell_length_c   3.81675625
_cell_angle_alpha   90.00000000
_cell_angle_beta   90.00000000
_cell_angle_gamma   90.00000000
_symmetry_Int_Tables_number   1
_chemical_formula_structural   Ce(FeB)4
_chemical_formula_sum   'Ce2 Fe8 B8'
_cell_volume   187.43958036
_cell_formula_units_Z   2
loop_
 _symmetry_equiv_pos_site_id
 _symmetry_equiv_pos_as_xyz
  1  'x, y, z'
loop_
 _atom_site_type_symbol
 _atom_site_label
 _atom_site_symmetry_multiplicity
 _atom_site_fract_x
 _atom_site_fract_y
 _atom_site_fract_z
 _atom_site_occupancy
  Ce  Ce0  1  0.000000  0.000000  0.000000  1
  Ce  Ce1  1  0.500000  0.500000  0.500000  1
  Fe  Fe2  1  0.868696  0.385239  0.104426  1
  Fe  Fe3  1  0.131304  0.614761  0.104426  1
  Fe  Fe4  1  0.885239  0.631304  0.604426  1
  Fe  Fe5  1  0.114761  0.368696  0.604426  1
  Fe  Fe6  1  0.631304  0.114761  0.395574  1
  Fe  Fe7  1  0.368696  0.885239  0.395574  1
  Fe  Fe8  1  0.614761  0.868696  0.895574  1
  Fe  Fe9  1  0.385239  0.131304  0.895574  1
  B  B10  1  0.335226  0.796843  0.895553  1
  B  B11  1  0.664774  0.203157  0.895553  1
  B  B12  1  0.296843  0.164774  0.395553  1
  B  B13  1  0.703157  0.835226  0.395553  1
  B  B14  1  0.164774  0.703157  0.604447  1
  B  B15  1  0.835226  0.296843  0.604447  1
  B  B16  1  0.203157  0.335226  0.104447  1
  B  B17  1  0.796843  0.664774  0.104447  1
