# generated using pymatgen
data_Ce(YS2)3
_symmetry_space_group_name_H-M   'P 1'
_cell_length_a   11.08616833
_cell_length_b   3.98319291
_cell_length_c   11.37274630
_cell_angle_alpha   90.00000000
_cell_angle_beta   108.85392096
_cell_angle_gamma   90.00000000
_symmetry_Int_Tables_number   1
_chemical_formula_structural   Ce(YS2)3
_chemical_formula_sum   'Ce2 Y6 S12'
_cell_volume   475.25632722
_cell_formula_units_Z   2
loop_
 _symmetry_equiv_pos_site_id
 _symmetry_equiv_pos_as_xyz
  1  'x, y, z'
loop_
 _atom_site_type_symbol
 _atom_site_label
 _atom_site_symmetry_multiplicity
 _atom_site_fract_x
 _atom_site_fract_y
 _atom_site_fract_z
 _atom_site_occupancy
  Ce  Ce0  1  0.048746  0.750000  0.193458  1
  Ce  Ce1  1  0.951254  0.250000  0.806542  1
  Y  Y2  1  0.680562  0.750000  0.000526  1
  Y  Y3  1  0.319438  0.250000  0.999474  1
  Y  Y4  1  0.159823  0.750000  0.585968  1
  Y  Y5  1  0.840177  0.250000  0.414032  1
  Y  Y6  1  0.441729  0.750000  0.332654  1
  Y  Y7  1  0.558271  0.250000  0.667346  1
  S  S8  1  0.393564  0.750000  0.557351  1
  S  S9  1  0.606436  0.250000  0.442649  1
  S  S10  1  0.805991  0.750000  0.249493  1
  S  S11  1  0.194009  0.250000  0.750507  1
  S  S12  1  0.479283  0.750000  0.112038  1
  S  S13  1  0.520717  0.250000  0.887962  1
  S  S14  1  0.115297  0.750000  0.962394  1
  S  S15  1  0.884703  0.250000  0.037606  1
  S  S16  1  0.736768  0.750000  0.771803  1
  S  S17  1  0.263232  0.250000  0.228197  1
  S  S18  1  0.917296  0.750000  0.595931  1
  S  S19  1  0.082704  0.250000  0.404069  1
