# generated using pymatgen
data_LaMnO3
_symmetry_space_group_name_H-M   'P 1'
_cell_length_a   5.57993905
_cell_length_b   5.57993905
_cell_length_c   5.53913651
_cell_angle_alpha   60.88237190
_cell_angle_beta   119.11762810
_cell_angle_gamma   118.41076390
_symmetry_Int_Tables_number   1
_chemical_formula_structural   LaMnO3
_chemical_formula_sum   'La2 Mn2 O6'
_cell_volume   125.00743963
_cell_formula_units_Z   2
loop_
 _symmetry_equiv_pos_site_id
 _symmetry_equiv_pos_as_xyz
  1  'x, y, z'
loop_
 _atom_site_type_symbol
 _atom_site_label
 _atom_site_symmetry_multiplicity
 _atom_site_fract_x
 _atom_site_fract_y
 _atom_site_fract_z
 _atom_site_occupancy
  La  La0  1  0.256630  0.256630  0.750000  1
  La  La1  1  0.743370  0.743370  0.250000  1
  Mn  Mn2  1  0.500000  1.000000  0.500000  1
  Mn  Mn3  1  0.000000  0.500000  0.000000  1
  O  O4  1  0.728391  0.166879  0.820129  1
  O  O5  1  0.166879  0.728391  0.679871  1
  O  O6  1  0.271609  0.833121  0.179871  1
  O  O7  1  0.833121  0.271609  0.320129  1
  O  O8  1  0.318876  0.318876  0.250000  1
  O  O9  1  0.681124  0.681124  0.750000  1
