# generated using pymatgen
data_Th2Cu
_symmetry_space_group_name_H-M   'P 1'
_cell_length_a   5.89918881
_cell_length_b   5.89918881
_cell_length_c   5.89918881
_cell_angle_alpha   103.88650662
_cell_angle_beta   103.88650662
_cell_angle_gamma   121.33232820
_symmetry_Int_Tables_number   1
_chemical_formula_structural   Th2Cu
_chemical_formula_sum   'Th4 Cu2'
_cell_volume   152.87128217
_cell_formula_units_Z   2
loop_
 _symmetry_equiv_pos_site_id
 _symmetry_equiv_pos_as_xyz
  1  'x, y, z'
loop_
 _atom_site_type_symbol
 _atom_site_label
 _atom_site_symmetry_multiplicity
 _atom_site_fract_x
 _atom_site_fract_y
 _atom_site_fract_z
 _atom_site_occupancy
  Th  Th0  1  0.160705  0.339295  0.500000  1
  Th  Th1  1  0.839295  0.660705  0.500000  1
  Th  Th2  1  0.339295  0.839295  0.178589  1
  Th  Th3  1  0.660705  0.160705  0.821411  1
  Cu  Cu4  1  0.750000  0.750000  0.000000  1
  Cu  Cu5  1  0.250000  0.250000  0.000000  1
