# generated using pymatgen
data_TiCuSn
_symmetry_space_group_name_H-M   'P 1'
_cell_length_a   4.41776677
_cell_length_b   4.41776677
_cell_length_c   6.03812047
_cell_angle_alpha   90.00000000
_cell_angle_beta   90.00000000
_cell_angle_gamma   120.00000000
_symmetry_Int_Tables_number   1
_chemical_formula_structural   TiCuSn
_chemical_formula_sum   'Ti2 Cu2 Sn2'
_cell_volume   102.05586624
_cell_formula_units_Z   2
loop_
 _symmetry_equiv_pos_site_id
 _symmetry_equiv_pos_as_xyz
  1  'x, y, z'
loop_
 _atom_site_type_symbol
 _atom_site_label
 _atom_site_symmetry_multiplicity
 _atom_site_fract_x
 _atom_site_fract_y
 _atom_site_fract_z
 _atom_site_occupancy
  Ti  Ti0  1  0.000000  0.000000  0.999970  1
  Ti  Ti1  1  0.000000  0.000000  0.499970  1
  Cu  Cu2  1  0.333333  0.666667  0.777026  1
  Cu  Cu3  1  0.666667  0.333333  0.277026  1
  Sn  Sn4  1  0.333333  0.666667  0.245004  1
  Sn  Sn5  1  0.666667  0.333333  0.745004  1
