# generated using pymatgen
data_ThCu5Sn
_symmetry_space_group_name_H-M   'P 1'
_cell_length_a   5.10382731
_cell_length_b   8.35653418
_cell_length_c   10.60911095
_cell_angle_alpha   90.00000000
_cell_angle_beta   90.00000000
_cell_angle_gamma   90.00000000
_symmetry_Int_Tables_number   1
_chemical_formula_structural   ThCu5Sn
_chemical_formula_sum   'Th4 Cu20 Sn4'
_cell_volume   452.48184289
_cell_formula_units_Z   4
loop_
 _symmetry_equiv_pos_site_id
 _symmetry_equiv_pos_as_xyz
  1  'x, y, z'
loop_
 _atom_site_type_symbol
 _atom_site_label
 _atom_site_symmetry_multiplicity
 _atom_site_fract_x
 _atom_site_fract_y
 _atom_site_fract_z
 _atom_site_occupancy
  Th  Th0  1  0.750000  0.749687  0.557035  1
  Th  Th1  1  0.250000  0.250313  0.442965  1
  Th  Th2  1  0.750000  0.249687  0.942965  1
  Th  Th3  1  0.250000  0.750313  0.057035  1
  Cu  Cu4  1  0.498325  0.928206  0.313082  1
  Cu  Cu5  1  0.998325  0.071794  0.686918  1
  Cu  Cu6  1  0.001675  0.428206  0.186918  1
  Cu  Cu7  1  0.501675  0.571794  0.813082  1
  Cu  Cu8  1  0.501675  0.071794  0.686918  1
  Cu  Cu9  1  0.001675  0.928206  0.313082  1
  Cu  Cu10  1  0.998325  0.571794  0.813082  1
  Cu  Cu11  1  0.498325  0.428206  0.186918  1
  Cu  Cu12  1  0.750000  0.932657  0.105589  1
  Cu  Cu13  1  0.250000  0.067343  0.894411  1
  Cu  Cu14  1  0.750000  0.432657  0.394411  1
  Cu  Cu15  1  0.250000  0.567343  0.605589  1
  Cu  Cu16  1  0.750000  0.679980  0.244830  1
  Cu  Cu17  1  0.250000  0.320020  0.755170  1
  Cu  Cu18  1  0.750000  0.179980  0.255170  1
  Cu  Cu19  1  0.250000  0.820020  0.744830  1
  Cu  Cu20  1  0.750000  0.580693  0.018283  1
  Cu  Cu21  1  0.250000  0.419307  0.981717  1
  Cu  Cu22  1  0.750000  0.080693  0.481717  1
  Cu  Cu23  1  0.250000  0.919307  0.518283  1
  Sn  Sn24  1  0.750000  0.864519  0.858738  1
  Sn  Sn25  1  0.250000  0.135481  0.141262  1
  Sn  Sn26  1  0.750000  0.364519  0.641262  1
  Sn  Sn27  1  0.250000  0.635481  0.358738  1
