# generated using pymatgen
data_K2Si6GeO15
_symmetry_space_group_name_H-M   'P 1'
_cell_length_a   7.34943808
_cell_length_b   7.34943808
_cell_length_c   15.00824134
_cell_angle_alpha   75.42566884
_cell_angle_beta   104.57433116
_cell_angle_gamma   120.47010384
_symmetry_Int_Tables_number   1
_chemical_formula_structural   K2Si6GeO15
_chemical_formula_sum   'K4 Si12 Ge2 O30'
_cell_volume   668.70168286
_cell_formula_units_Z   2
loop_
 _symmetry_equiv_pos_site_id
 _symmetry_equiv_pos_as_xyz
  1  'x, y, z'
loop_
 _atom_site_type_symbol
 _atom_site_label
 _atom_site_symmetry_multiplicity
 _atom_site_fract_x
 _atom_site_fract_y
 _atom_site_fract_z
 _atom_site_occupancy
  K  K0  1  0.787000  0.078689  0.788193  1
  K  K1  1  0.921311  0.213000  0.288193  1
  K  K2  1  0.209006  0.424007  0.598960  1
  K  K3  1  0.575993  0.790994  0.098960  1
  Si  Si4  1  0.564488  0.409087  0.830465  1
  Si  Si5  1  0.590913  0.435512  0.330465  1
  Si  Si6  1  0.692940  0.866863  0.522530  1
  Si  Si7  1  0.133137  0.307060  0.022530  1
  Si  Si8  1  0.119025  0.954165  0.506610  1
  Si  Si9  1  0.045835  0.880975  0.006610  1
  Si  Si10  1  0.195606  0.949125  0.812325  1
  Si  Si11  1  0.050875  0.804394  0.312325  1
  Si  Si12  1  0.292789  0.602509  0.828440  1
  Si  Si13  1  0.397491  0.707211  0.328440  1
  Si  Si14  1  0.597994  0.228930  0.540005  1
  Si  Si15  1  0.771070  0.402006  0.040005  1
  Ge  Ge16  1  0.894677  0.604583  0.673084  1
  Ge  Ge17  1  0.395417  0.105323  0.173084  1
  O  O18  1  0.334110  0.210404  0.792783  1
  O  O19  1  0.789596  0.665890  0.292783  1
  O  O20  1  0.364350  0.849533  0.840336  1
  O  O21  1  0.150467  0.635650  0.340336  1
  O  O22  1  0.939812  0.033448  0.500037  1
  O  O23  1  0.966552  0.060188  0.000037  1
  O  O24  1  0.345975  0.159858  0.539619  1
  O  O25  1  0.840142  0.654025  0.039619  1
  O  O26  1  0.064663  0.880479  0.899678  1
  O  O27  1  0.119521  0.935337  0.399678  1
  O  O28  1  0.222103  0.450062  0.925858  1
  O  O29  1  0.549938  0.777897  0.425858  1
  O  O30  1  0.621063  0.330713  0.941213  1
  O  O31  1  0.669287  0.378937  0.441213  1
  O  O32  1  0.601422  0.002749  0.549871  1
  O  O33  1  0.997251  0.398578  0.049871  1
  O  O34  1  0.750655  0.458758  0.777316  1
  O  O35  1  0.541242  0.249345  0.277316  1
  O  O36  1  0.477915  0.889754  0.240711  1
  O  O37  1  0.110246  0.522085  0.740711  1
  O  O38  1  0.661542  0.240245  0.127851  1
  O  O39  1  0.759755  0.338458  0.627851  1
  O  O40  1  0.332160  0.326629  0.102985  1
  O  O41  1  0.673371  0.667840  0.602985  1
  O  O42  1  0.269162  0.936682  0.074056  1
  O  O43  1  0.063318  0.730838  0.574056  1
  O  O44  1  0.128389  0.969819  0.219431  1
  O  O45  1  0.030181  0.871611  0.719431  1
  O  O46  1  0.388573  0.485729  0.315741  1
  O  O47  1  0.514271  0.611427  0.815741  1
