# generated using pymatgen
data_Th2S5
_symmetry_space_group_name_H-M   'P 1'
_cell_length_a   7.62854131
_cell_length_b   7.66887102
_cell_length_c   10.23166416
_cell_angle_alpha   90.00000000
_cell_angle_beta   90.00000000
_cell_angle_gamma   90.00000000
_symmetry_Int_Tables_number   1
_chemical_formula_structural   Th2S5
_chemical_formula_sum   'Th8 S20'
_cell_volume   598.57587981
_cell_formula_units_Z   4
loop_
 _symmetry_equiv_pos_site_id
 _symmetry_equiv_pos_as_xyz
  1  'x, y, z'
loop_
 _atom_site_type_symbol
 _atom_site_label
 _atom_site_symmetry_multiplicity
 _atom_site_fract_x
 _atom_site_fract_y
 _atom_site_fract_z
 _atom_site_occupancy
  Th  Th0  1  0.766900  0.480209  0.353472  1
  Th  Th1  1  0.733100  0.980209  0.146528  1
  Th  Th2  1  0.266900  0.519791  0.146528  1
  Th  Th3  1  0.233100  0.019791  0.353472  1
  Th  Th4  1  0.233100  0.519791  0.646528  1
  Th  Th5  1  0.266900  0.019791  0.853472  1
  Th  Th6  1  0.733100  0.480209  0.853472  1
  Th  Th7  1  0.766900  0.980209  0.646528  1
  S  S8  1  0.637796  0.111640  0.891651  1
  S  S9  1  0.862204  0.611640  0.608349  1
  S  S10  1  0.137796  0.888360  0.608349  1
  S  S11  1  0.362204  0.388360  0.891651  1
  S  S12  1  0.362204  0.888360  0.108349  1
  S  S13  1  0.137796  0.388360  0.391651  1
  S  S14  1  0.862204  0.111640  0.391651  1
  S  S15  1  0.637796  0.611640  0.108349  1
  S  S16  1  0.099077  0.649570  0.899223  1
  S  S17  1  0.400923  0.149570  0.600777  1
  S  S18  1  0.599077  0.350430  0.600777  1
  S  S19  1  0.900923  0.850430  0.899223  1
  S  S20  1  0.900923  0.350430  0.100777  1
  S  S21  1  0.599077  0.850430  0.399223  1
  S  S22  1  0.400923  0.649570  0.399223  1
  S  S23  1  0.099077  0.149570  0.100777  1
  S  S24  1  0.000000  0.250000  0.747325  1
  S  S25  1  0.500000  0.750000  0.752675  1
  S  S26  1  0.000000  0.750000  0.252675  1
  S  S27  1  0.500000  0.250000  0.247325  1
