# generated using pymatgen
data_CdTe
_symmetry_space_group_name_H-M   'P 1'
_cell_length_a   4.68430264
_cell_length_b   4.68430264
_cell_length_c   7.67369454
_cell_angle_alpha   90.00000000
_cell_angle_beta   90.00000000
_cell_angle_gamma   120.00000000
_symmetry_Int_Tables_number   1
_chemical_formula_structural   CdTe
_chemical_formula_sum   'Cd2 Te2'
_cell_volume   145.82266517
_cell_formula_units_Z   2
loop_
 _symmetry_equiv_pos_site_id
 _symmetry_equiv_pos_as_xyz
  1  'x, y, z'
loop_
 _atom_site_type_symbol
 _atom_site_label
 _atom_site_symmetry_multiplicity
 _atom_site_fract_x
 _atom_site_fract_y
 _atom_site_fract_z
 _atom_site_occupancy
  Cd  Cd0  1  0.333333  0.666667  0.000092  1
  Cd  Cd1  1  0.666667  0.333333  0.500092  1
  Te  Te2  1  0.333333  0.666667  0.374908  1
  Te  Te3  1  0.666667  0.333333  0.874908  1
