# generated using pymatgen
data_SrCu(Si2O5)2
_symmetry_space_group_name_H-M   'P 1'
_cell_length_a   7.44542941
_cell_length_b   7.44542941
_cell_length_c   15.92885171
_cell_angle_alpha   90.00000000
_cell_angle_beta   90.00000000
_cell_angle_gamma   90.00000000
_symmetry_Int_Tables_number   1
_chemical_formula_structural   SrCu(Si2O5)2
_chemical_formula_sum   'Sr4 Cu4 Si16 O40'
_cell_volume   883.00664146
_cell_formula_units_Z   4
loop_
 _symmetry_equiv_pos_site_id
 _symmetry_equiv_pos_as_xyz
  1  'x, y, z'
loop_
 _atom_site_type_symbol
 _atom_site_label
 _atom_site_symmetry_multiplicity
 _atom_site_fract_x
 _atom_site_fract_y
 _atom_site_fract_z
 _atom_site_occupancy
  Sr  Sr0  1  0.500000  0.500000  0.500000  1
  Sr  Sr1  1  0.000000  0.000000  0.500000  1
  Sr  Sr2  1  0.000000  0.000000  0.000000  1
  Sr  Sr3  1  0.500000  0.500000  0.000000  1
  Cu  Cu4  1  0.500000  0.000000  0.590345  1
  Cu  Cu5  1  0.000000  0.500000  0.909655  1
  Cu  Cu6  1  0.000000  0.500000  0.409655  1
  Cu  Cu7  1  0.500000  0.000000  0.090345  1
  Si  Si8  1  0.180223  0.257636  0.651374  1
  Si  Si9  1  0.819777  0.742364  0.651374  1
  Si  Si10  1  0.257636  0.180223  0.848626  1
  Si  Si11  1  0.757636  0.319777  0.651374  1
  Si  Si12  1  0.242364  0.680223  0.651374  1
  Si  Si13  1  0.319777  0.757636  0.848626  1
  Si  Si14  1  0.680223  0.242364  0.848626  1
  Si  Si15  1  0.742364  0.819777  0.848626  1
  Si  Si16  1  0.319777  0.242364  0.348626  1
  Si  Si17  1  0.680223  0.757636  0.348626  1
  Si  Si18  1  0.242364  0.319777  0.151374  1
  Si  Si19  1  0.742364  0.180223  0.348626  1
  Si  Si20  1  0.257636  0.819777  0.348626  1
  Si  Si21  1  0.180223  0.742364  0.151374  1
  Si  Si22  1  0.819777  0.257636  0.151374  1
  Si  Si23  1  0.757636  0.680223  0.151374  1
  O  O24  1  0.263996  0.113810  0.587153  1
  O  O25  1  0.736004  0.886190  0.587153  1
  O  O26  1  0.113810  0.263996  0.912847  1
  O  O27  1  0.613810  0.236004  0.587153  1
  O  O28  1  0.386190  0.763996  0.587153  1
  O  O29  1  0.236004  0.613810  0.912847  1
  O  O30  1  0.763996  0.386190  0.912847  1
  O  O31  1  0.886190  0.736004  0.912847  1
  O  O32  1  0.236004  0.386190  0.412847  1
  O  O33  1  0.763996  0.613810  0.412847  1
  O  O34  1  0.386190  0.236004  0.087153  1
  O  O35  1  0.886190  0.263996  0.412847  1
  O  O36  1  0.113810  0.736004  0.412847  1
  O  O37  1  0.263996  0.886190  0.087153  1
  O  O38  1  0.736004  0.113810  0.087153  1
  O  O39  1  0.248686  0.037483  0.368593  1
  O  O40  1  0.613810  0.763996  0.087153  1
  O  O41  1  0.748686  0.537483  0.631407  1
  O  O42  1  0.462517  0.251314  0.868593  1
  O  O43  1  0.962517  0.248686  0.631407  1
  O  O44  1  0.037483  0.751314  0.631407  1
  O  O45  1  0.248686  0.962517  0.868593  1
  O  O46  1  0.751314  0.037483  0.868593  1
  O  O47  1  0.537483  0.748686  0.868593  1
  O  O48  1  0.715302  0.715302  0.250000  1
  O  O49  1  0.784698  0.215302  0.250000  1
  O  O50  1  0.215302  0.784698  0.250000  1
  O  O51  1  0.284698  0.284698  0.250000  1
  O  O52  1  0.784698  0.784698  0.750000  1
  O  O53  1  0.715302  0.284698  0.750000  1
  O  O54  1  0.284698  0.715302  0.750000  1
  O  O55  1  0.215302  0.215302  0.750000  1
  O  O56  1  0.962517  0.751314  0.131407  1
  O  O57  1  0.748686  0.462517  0.131407  1
  O  O58  1  0.251314  0.537483  0.131407  1
  O  O59  1  0.462517  0.748686  0.368593  1
  O  O60  1  0.537483  0.251314  0.368593  1
  O  O61  1  0.037483  0.248686  0.131407  1
  O  O62  1  0.751314  0.962517  0.368593  1
  O  O63  1  0.251314  0.462517  0.631407  1
