# generated using pymatgen
data_Ti6Ge5
_symmetry_space_group_name_H-M   'P 1'
_cell_length_a   9.74271315
_cell_length_b   9.74271315
_cell_length_c   9.74271315
_cell_angle_alpha   148.85515334
_cell_angle_beta   131.68527080
_cell_angle_gamma   58.60729766
_symmetry_Int_Tables_number   1
_chemical_formula_structural   Ti6Ge5
_chemical_formula_sum   'Ti12 Ge10'
_cell_volume   354.39793666
_cell_formula_units_Z   2
loop_
 _symmetry_equiv_pos_site_id
 _symmetry_equiv_pos_as_xyz
  1  'x, y, z'
loop_
 _atom_site_type_symbol
 _atom_site_label
 _atom_site_symmetry_multiplicity
 _atom_site_fract_x
 _atom_site_fract_y
 _atom_site_fract_z
 _atom_site_occupancy
  Ti  Ti0  1  0.254973  0.142060  0.112913  1
  Ti  Ti1  1  0.745027  0.857940  0.887087  1
  Ti  Ti2  1  0.970853  0.357940  0.612913  1
  Ti  Ti3  1  0.029147  0.642060  0.387087  1
  Ti  Ti4  1  0.678817  0.436912  0.241904  1
  Ti  Ti5  1  0.321183  0.563088  0.758096  1
  Ti  Ti6  1  0.804992  0.063088  0.741904  1
  Ti  Ti7  1  0.195008  0.936912  0.258096  1
  Ti  Ti8  1  0.308527  0.058527  0.750000  1
  Ti  Ti9  1  0.691473  0.441473  0.750000  1
  Ti  Ti10  1  0.691473  0.941473  0.250000  1
  Ti  Ti11  1  0.308527  0.558527  0.250000  1
  Ge  Ge12  1  0.588303  0.289025  0.299278  1
  Ge  Ge13  1  0.411697  0.710975  0.700722  1
  Ge  Ge14  1  0.010253  0.210975  0.799278  1
  Ge  Ge15  1  0.989747  0.789025  0.200722  1
  Ge  Ge16  1  0.469908  0.067906  0.402001  1
  Ge  Ge17  1  0.530092  0.932094  0.597999  1
  Ge  Ge18  1  0.334095  0.432094  0.902001  1
  Ge  Ge19  1  0.665905  0.567906  0.097999  1
  Ge  Ge20  1  0.000000  0.750000  0.750000  1
  Ge  Ge21  1  0.000000  0.250000  0.250000  1
