# generated using pymatgen
data_BaBPO5
_symmetry_space_group_name_H-M   'P 1'
_cell_length_a   7.22862532
_cell_length_b   7.22862532
_cell_length_c   7.06292909
_cell_angle_alpha   90.00000000
_cell_angle_beta   90.00000000
_cell_angle_gamma   120.00000000
_symmetry_Int_Tables_number   1
_chemical_formula_structural   BaBPO5
_chemical_formula_sum   'Ba3 B3 P3 O15'
_cell_volume   319.61481876
_cell_formula_units_Z   3
loop_
 _symmetry_equiv_pos_site_id
 _symmetry_equiv_pos_as_xyz
  1  'x, y, z'
loop_
 _atom_site_type_symbol
 _atom_site_label
 _atom_site_symmetry_multiplicity
 _atom_site_fract_x
 _atom_site_fract_y
 _atom_site_fract_z
 _atom_site_occupancy
  Ba  Ba0  1  0.606778  0.606778  0.000000  1
  Ba  Ba1  1  0.000000  0.393222  0.666667  1
  Ba  Ba2  1  0.393222  0.000000  0.333333  1
  B  B3  1  0.092866  0.092866  0.000000  1
  B  B4  1  0.000000  0.907134  0.666667  1
  B  B5  1  0.907134  0.000000  0.333333  1
  P  P6  1  0.612389  0.612389  0.500000  1
  P  P7  1  0.000000  0.387611  0.166667  1
  P  P8  1  0.387611  0.000000  0.833333  1
  O  O9  1  0.857434  0.425456  0.034258  1
  O  O10  1  0.574544  0.431978  0.367591  1
  O  O11  1  0.568022  0.142566  0.700924  1
  O  O12  1  0.960363  0.000000  0.833333  1
  O  O13  1  0.000000  0.960363  0.166667  1
  O  O14  1  0.039637  0.039637  0.500000  1
  O  O15  1  0.320414  0.138586  0.963819  1
  O  O16  1  0.861414  0.181827  0.297153  1
  O  O17  1  0.818173  0.679586  0.630486  1
  O  O18  1  0.181827  0.861414  0.702847  1
  O  O19  1  0.679586  0.818173  0.369514  1
  O  O20  1  0.138586  0.320414  0.036181  1
  O  O21  1  0.425456  0.857434  0.965742  1
  O  O22  1  0.142566  0.568022  0.299076  1
  O  O23  1  0.431978  0.574544  0.632409  1
