# generated using pymatgen
data_EuAsO4
_symmetry_space_group_name_H-M   'P 1'
_cell_length_a   6.12031016
_cell_length_b   6.12031016
_cell_length_c   6.12031016
_cell_angle_alpha   106.48310255
_cell_angle_beta   106.48310255
_cell_angle_gamma   115.62853776
_symmetry_Int_Tables_number   1
_chemical_formula_structural   EuAsO4
_chemical_formula_sum   'Eu2 As2 O8'
_cell_volume   174.93636063
_cell_formula_units_Z   2
loop_
 _symmetry_equiv_pos_site_id
 _symmetry_equiv_pos_as_xyz
  1  'x, y, z'
loop_
 _atom_site_type_symbol
 _atom_site_label
 _atom_site_symmetry_multiplicity
 _atom_site_fract_x
 _atom_site_fract_y
 _atom_site_fract_z
 _atom_site_occupancy
  Eu  Eu0  1  1.000000  1.000000  0.000000  1
  Eu  Eu1  1  0.250000  0.750000  0.500000  1
  As  As2  1  0.750000  0.250000  0.500000  1
  As  As3  1  0.500000  0.500000  0.000000  1
  O  O4  1  0.490948  0.670423  0.820526  1
  O  O5  1  0.920423  0.599897  0.679474  1
  O  O6  1  0.920423  0.240948  0.320526  1
  O  O7  1  0.849897  0.670423  0.179474  1
  O  O8  1  0.329577  0.150103  0.820526  1
  O  O9  1  0.759052  0.079577  0.679474  1
  O  O10  1  0.400103  0.079577  0.320526  1
  O  O11  1  0.329577  0.509052  0.179474  1
