# generated using pymatgen
data_Dy2Ti3Si4
_symmetry_space_group_name_H-M   'P 1'
_cell_length_a   7.05106047
_cell_length_b   7.05106047
_cell_length_c   12.96682340
_cell_angle_alpha   90.00000000
_cell_angle_beta   90.00000000
_cell_angle_gamma   90.00000000
_symmetry_Int_Tables_number   1
_chemical_formula_structural   Dy2Ti3Si4
_chemical_formula_sum   'Dy8 Ti12 Si16'
_cell_volume   644.67744269
_cell_formula_units_Z   4
loop_
 _symmetry_equiv_pos_site_id
 _symmetry_equiv_pos_as_xyz
  1  'x, y, z'
loop_
 _atom_site_type_symbol
 _atom_site_label
 _atom_site_symmetry_multiplicity
 _atom_site_fract_x
 _atom_site_fract_y
 _atom_site_fract_z
 _atom_site_occupancy
  Dy  Dy0  1  0.997416  0.659719  0.033437  1
  Dy  Dy1  1  0.002584  0.340281  0.533437  1
  Dy  Dy2  1  0.659719  0.997416  0.966563  1
  Dy  Dy3  1  0.159719  0.502584  0.783437  1
  Dy  Dy4  1  0.840281  0.497416  0.283437  1
  Dy  Dy5  1  0.502584  0.159719  0.216563  1
  Dy  Dy6  1  0.497416  0.840281  0.716563  1
  Dy  Dy7  1  0.340281  0.002584  0.466563  1
  Ti  Ti8  1  0.347719  0.508363  0.373421  1
  Ti  Ti9  1  0.847719  0.991637  0.376579  1
  Ti  Ti10  1  0.008363  0.152281  0.123421  1
  Ti  Ti11  1  0.991637  0.847719  0.623421  1
  Ti  Ti12  1  0.508363  0.347719  0.626579  1
  Ti  Ti13  1  0.152281  0.008363  0.876579  1
  Ti  Ti14  1  0.672824  0.672824  0.500000  1
  Ti  Ti15  1  0.827176  0.172824  0.750000  1
  Ti  Ti16  1  0.172824  0.827176  0.250000  1
  Ti  Ti17  1  0.327176  0.327176  0.000000  1
  Ti  Ti18  1  0.491637  0.652281  0.126579  1
  Ti  Ti19  1  0.652281  0.491637  0.873421  1
  Si  Si20  1  0.046819  0.709096  0.435015  1
  Si  Si21  1  0.953181  0.290904  0.935015  1
  Si  Si22  1  0.709096  0.046819  0.564985  1
  Si  Si23  1  0.209096  0.453181  0.185015  1
  Si  Si24  1  0.790904  0.546819  0.685015  1
  Si  Si25  1  0.453181  0.209096  0.814985  1
  Si  Si26  1  0.546819  0.790904  0.314985  1
  Si  Si27  1  0.290904  0.953181  0.064985  1
  Si  Si28  1  0.797580  0.869811  0.184775  1
  Si  Si29  1  0.297580  0.630189  0.565225  1
  Si  Si30  1  0.702420  0.369811  0.065225  1
  Si  Si31  1  0.630189  0.297580  0.434775  1
  Si  Si32  1  0.369811  0.702420  0.934775  1
  Si  Si33  1  0.130189  0.202420  0.315225  1
  Si  Si34  1  0.202420  0.130189  0.684775  1
  Si  Si35  1  0.869811  0.797580  0.815225  1
