# generated using pymatgen
data_Ba3W2O9
_symmetry_space_group_name_H-M   'P 1'
_cell_length_a   7.63583746
_cell_length_b   7.63583746
_cell_length_c   7.63583746
_cell_angle_alpha   85.00306674
_cell_angle_beta   85.00306674
_cell_angle_gamma   85.00306674
_symmetry_Int_Tables_number   1
_chemical_formula_structural   Ba3W2O9
_chemical_formula_sum   'Ba6 W4 O18'
_cell_volume   440.41693862
_cell_formula_units_Z   2
loop_
 _symmetry_equiv_pos_site_id
 _symmetry_equiv_pos_as_xyz
  1  'x, y, z'
loop_
 _atom_site_type_symbol
 _atom_site_label
 _atom_site_symmetry_multiplicity
 _atom_site_fract_x
 _atom_site_fract_y
 _atom_site_fract_z
 _atom_site_occupancy
  Ba  Ba0  1  0.750000  0.079910  0.420090  1
  Ba  Ba1  1  0.420090  0.750000  0.079910  1
  Ba  Ba2  1  0.079910  0.420090  0.750000  1
  Ba  Ba3  1  0.250000  0.920090  0.579910  1
  Ba  Ba4  1  0.920090  0.579910  0.250000  1
  Ba  Ba5  1  0.579910  0.250000  0.920090  1
  W  W6  1  0.853515  0.853515  0.853515  1
  W  W7  1  0.646485  0.646485  0.646485  1
  W  W8  1  0.146485  0.146485  0.146485  1
  W  W9  1  0.353515  0.353515  0.353515  1
  O  O10  1  0.911876  0.070464  0.746587  1
  O  O11  1  0.070464  0.746587  0.911876  1
  O  O12  1  0.746587  0.911876  0.070464  1
  O  O13  1  0.429536  0.588124  0.753413  1
  O  O14  1  0.588124  0.753413  0.429536  1
  O  O15  1  0.753413  0.429536  0.588124  1
  O  O16  1  0.088124  0.929536  0.253413  1
  O  O17  1  0.929536  0.253413  0.088124  1
  O  O18  1  0.253413  0.088124  0.929536  1
  O  O19  1  0.570464  0.411876  0.246587  1
  O  O20  1  0.750000  0.605082  0.894918  1
  O  O21  1  0.894918  0.750000  0.605082  1
  O  O22  1  0.605082  0.894918  0.750000  1
  O  O23  1  0.250000  0.394918  0.105082  1
  O  O24  1  0.105082  0.250000  0.394918  1
  O  O25  1  0.394918  0.105082  0.250000  1
  O  O26  1  0.246587  0.570464  0.411876  1
  O  O27  1  0.411876  0.246587  0.570464  1
