# generated using pymatgen
data_ThAu
_symmetry_space_group_name_H-M   'P 1'
_cell_length_a   6.30259967
_cell_length_b   6.30259967
_cell_length_c   4.60718231
_cell_angle_alpha   90.00000000
_cell_angle_beta   90.00000000
_cell_angle_gamma   145.01771041
_symmetry_Int_Tables_number   1
_chemical_formula_structural   ThAu
_chemical_formula_sum   'Th2 Au2'
_cell_volume   104.92388485
_cell_formula_units_Z   2
loop_
 _symmetry_equiv_pos_site_id
 _symmetry_equiv_pos_as_xyz
  1  'x, y, z'
loop_
 _atom_site_type_symbol
 _atom_site_label
 _atom_site_symmetry_multiplicity
 _atom_site_fract_x
 _atom_site_fract_y
 _atom_site_fract_z
 _atom_site_occupancy
  Th  Th0  1  0.151168  0.848832  0.250000  1
  Th  Th1  1  0.848832  0.151168  0.750000  1
  Au  Au2  1  0.424676  0.575324  0.250000  1
  Au  Au3  1  0.575324  0.424676  0.750000  1
