# generated using pymatgen
data_Sr2CoWO6
_symmetry_space_group_name_H-M   'P 1'
_cell_length_a   5.72271880
_cell_length_b   5.67976627
_cell_length_c   9.83455558
_cell_angle_alpha   90.00000000
_cell_angle_beta   125.65808534
_cell_angle_gamma   90.00000000
_symmetry_Int_Tables_number   1
_chemical_formula_structural   Sr2CoWO6
_chemical_formula_sum   'Sr4 Co2 W2 O12'
_cell_volume   259.72660006
_cell_formula_units_Z   2
loop_
 _symmetry_equiv_pos_site_id
 _symmetry_equiv_pos_as_xyz
  1  'x, y, z'
loop_
 _atom_site_type_symbol
 _atom_site_label
 _atom_site_symmetry_multiplicity
 _atom_site_fract_x
 _atom_site_fract_y
 _atom_site_fract_z
 _atom_site_occupancy
  Sr  Sr0  1  0.253235  0.012772  0.251065  1
  Sr  Sr1  1  0.253235  0.487228  0.751065  1
  Sr  Sr2  1  0.746765  0.987228  0.748935  1
  Sr  Sr3  1  0.746765  0.512772  0.248935  1
  Co  Co4  1  0.500000  0.500000  0.500000  1
  Co  Co5  1  0.500000  0.000000  0.000000  1
  W  W6  1  0.000000  0.500000  0.000000  1
  W  W7  1  0.000000  0.000000  0.500000  1
  O  O8  1  0.188050  0.492399  0.241520  1
  O  O9  1  0.188050  0.007601  0.741520  1
  O  O10  1  0.811950  0.507601  0.758480  1
  O  O11  1  0.811950  0.992399  0.258480  1
  O  O12  1  0.248465  0.760532  0.028917  1
  O  O13  1  0.248465  0.739468  0.528917  1
  O  O14  1  0.751535  0.239468  0.971083  1
  O  O15  1  0.751535  0.260532  0.471083  1
  O  O16  1  0.714374  0.721370  0.973094  1
  O  O17  1  0.714374  0.778630  0.473094  1
  O  O18  1  0.285626  0.278630  0.026906  1
  O  O19  1  0.285626  0.221370  0.526906  1
