# generated using pymatgen
data_Sr2CdWO6
_symmetry_space_group_name_H-M   'P 1'
_cell_length_a   5.82887693
_cell_length_b   6.06382422
_cell_length_c   8.33515874
_cell_angle_alpha   90.00000000
_cell_angle_beta   90.00000000
_cell_angle_gamma   90.00000000
_symmetry_Int_Tables_number   1
_chemical_formula_structural   Sr2CdWO6
_chemical_formula_sum   'Sr4 Cd2 W2 O12'
_cell_volume   294.60856205
_cell_formula_units_Z   2
loop_
 _symmetry_equiv_pos_site_id
 _symmetry_equiv_pos_as_xyz
  1  'x, y, z'
loop_
 _atom_site_type_symbol
 _atom_site_label
 _atom_site_symmetry_multiplicity
 _atom_site_fract_x
 _atom_site_fract_y
 _atom_site_fract_z
 _atom_site_occupancy
  Sr  Sr0  1  0.500000  0.790204  0.763964  1
  Sr  Sr1  1  0.500000  0.790204  0.236036  1
  Sr  Sr2  1  0.000000  0.209796  0.736036  1
  Sr  Sr3  1  0.000000  0.209796  0.263964  1
  Cd  Cd4  1  0.000000  0.726056  0.500000  1
  Cd  Cd5  1  0.500000  0.273944  0.000000  1
  W  W6  1  0.500000  0.237283  0.500000  1
  W  W7  1  0.000000  0.762717  0.000000  1
  O  O8  1  0.500000  0.219086  0.733038  1
  O  O9  1  0.500000  0.219086  0.266962  1
  O  O10  1  0.000000  0.780914  0.766962  1
  O  O11  1  0.000000  0.780914  0.233038  1
  O  O12  1  0.733747  0.001747  0.500000  1
  O  O13  1  0.266253  0.001747  0.500000  1
  O  O14  1  0.742767  0.451017  0.500000  1
  O  O15  1  0.257233  0.451017  0.500000  1
  O  O16  1  0.242767  0.548983  0.000000  1
  O  O17  1  0.757233  0.548983  0.000000  1
  O  O18  1  0.766253  0.998253  0.000000  1
  O  O19  1  0.233747  0.998253  0.000000  1
