# generated using pymatgen
data_Yb4Ge6Ir7
_symmetry_space_group_name_H-M   'P 1'
_cell_length_a   7.22775607
_cell_length_b   7.22775607
_cell_length_c   7.22775607
_cell_angle_alpha   109.47122063
_cell_angle_beta   109.47122063
_cell_angle_gamma   109.47122063
_symmetry_Int_Tables_number   1
_chemical_formula_structural   Yb4Ge6Ir7
_chemical_formula_sum   'Yb4 Ge6 Ir7'
_cell_volume   290.66220942
_cell_formula_units_Z   1
loop_
 _symmetry_equiv_pos_site_id
 _symmetry_equiv_pos_as_xyz
  1  'x, y, z'
loop_
 _atom_site_type_symbol
 _atom_site_label
 _atom_site_symmetry_multiplicity
 _atom_site_fract_x
 _atom_site_fract_y
 _atom_site_fract_z
 _atom_site_occupancy
  Yb  Yb0  1  1.000000  1.000000  0.500000  1
  Yb  Yb1  1  1.000000  0.500000  0.000000  1
  Yb  Yb2  1  0.500000  0.500000  0.500000  1
  Yb  Yb3  1  0.500000  1.000000  0.000000  1
  Ge  Ge4  1  1.000000  0.683340  0.683340  1
  Ge  Ge5  1  1.000000  0.316660  0.316660  1
  Ge  Ge6  1  0.316660  1.000000  0.316660  1
  Ge  Ge7  1  0.683340  1.000000  0.683340  1
  Ge  Ge8  1  0.316660  0.316660  0.000000  1
  Ge  Ge9  1  0.683340  0.683340  0.000000  1
  Ir  Ir10  1  0.500000  0.250000  0.750000  1
  Ir  Ir11  1  0.250000  0.750000  0.500000  1
  Ir  Ir12  1  0.250000  0.500000  0.750000  1
  Ir  Ir13  1  0.750000  0.500000  0.250000  1
  Ir  Ir14  1  0.500000  0.750000  0.250000  1
  Ir  Ir15  1  0.000000  0.000000  0.000000  1
  Ir  Ir16  1  0.750000  0.250000  0.500000  1
