# generated using pymatgen
data_LiDyO2
_symmetry_space_group_name_H-M   'P 1'
_cell_length_a   6.26878879
_cell_length_b   6.15780506
_cell_length_c   6.35684201
_cell_angle_alpha   90.00000000
_cell_angle_beta   119.88120544
_cell_angle_gamma   90.00000000
_symmetry_Int_Tables_number   1
_chemical_formula_structural   LiDyO2
_chemical_formula_sum   'Li4 Dy4 O8'
_cell_volume   212.76503208
_cell_formula_units_Z   4
loop_
 _symmetry_equiv_pos_site_id
 _symmetry_equiv_pos_as_xyz
  1  'x, y, z'
loop_
 _atom_site_type_symbol
 _atom_site_label
 _atom_site_symmetry_multiplicity
 _atom_site_fract_x
 _atom_site_fract_y
 _atom_site_fract_z
 _atom_site_occupancy
  Li  Li0  1  0.295547  0.342835  0.070178  1
  Li  Li1  1  0.704453  0.842835  0.429822  1
  Li  Li2  1  0.704453  0.657165  0.929822  1
  Li  Li3  1  0.295547  0.157165  0.570178  1
  Dy  Dy4  1  0.231216  0.868854  0.975516  1
  Dy  Dy5  1  0.231216  0.631146  0.475516  1
  Dy  Dy6  1  0.768784  0.131146  0.024484  1
  Dy  Dy7  1  0.768784  0.368854  0.524484  1
  O  O8  1  0.450832  0.608019  0.264273  1
  O  O9  1  0.987377  0.825132  0.148409  1
  O  O10  1  0.549168  0.108019  0.235727  1
  O  O11  1  0.549168  0.391981  0.735727  1
  O  O12  1  0.012623  0.174868  0.851591  1
  O  O13  1  0.012623  0.325132  0.351591  1
  O  O14  1  0.987377  0.674868  0.648409  1
  O  O15  1  0.450832  0.891981  0.764273  1
