# generated using pymatgen
data_Sc2Cr4Si5
_symmetry_space_group_name_H-M   'P 1'
_cell_length_a   9.23741590
_cell_length_b   9.23741590
_cell_length_c   9.23741590
_cell_angle_alpha   149.25302262
_cell_angle_beta   131.68657045
_cell_angle_gamma   58.36616981
_symmetry_Int_Tables_number   1
_chemical_formula_structural   Sc2Cr4Si5
_chemical_formula_sum   'Sc4 Cr8 Si10'
_cell_volume   298.64567343
_cell_formula_units_Z   2
loop_
 _symmetry_equiv_pos_site_id
 _symmetry_equiv_pos_as_xyz
  1  'x, y, z'
loop_
 _atom_site_type_symbol
 _atom_site_label
 _atom_site_symmetry_multiplicity
 _atom_site_fract_x
 _atom_site_fract_y
 _atom_site_fract_z
 _atom_site_occupancy
  Sc  Sc0  1  0.977142  0.357869  0.619273  1
  Sc  Sc1  1  0.738596  0.857869  0.880727  1
  Sc  Sc2  1  0.261404  0.142131  0.119273  1
  Sc  Sc3  1  0.022858  0.642131  0.380727  1
  Cr  Cr4  1  0.309393  0.059393  0.750000  1
  Cr  Cr5  1  0.309393  0.559393  0.250000  1
  Cr  Cr6  1  0.690607  0.940607  0.250000  1
  Cr  Cr7  1  0.807630  0.061924  0.745706  1
  Cr  Cr8  1  0.192370  0.938076  0.254294  1
  Cr  Cr9  1  0.683782  0.438076  0.245706  1
  Cr  Cr10  1  0.316218  0.561924  0.754294  1
  Cr  Cr11  1  0.690607  0.440607  0.750000  1
  Si  Si12  1  0.000000  0.750000  0.750000  1
  Si  Si13  1  0.418220  0.710890  0.707330  1
  Si  Si14  1  0.581780  0.289110  0.292670  1
  Si  Si15  1  0.996440  0.789110  0.207330  1
  Si  Si16  1  0.000000  0.250000  0.250000  1
  Si  Si17  1  0.358703  0.436209  0.922494  1
  Si  Si18  1  0.641297  0.563791  0.077506  1
  Si  Si19  1  0.486284  0.063791  0.422494  1
  Si  Si20  1  0.513716  0.936209  0.577506  1
  Si  Si21  1  0.003560  0.210890  0.792670  1
