# generated using pymatgen
data_SrS2
_symmetry_space_group_name_H-M   'P 1'
_cell_length_a   5.81906285
_cell_length_b   5.81906285
_cell_length_c   5.81906285
_cell_angle_alpha   116.31544170
_cell_angle_beta   116.31544170
_cell_angle_gamma   96.50987349
_symmetry_Int_Tables_number   1
_chemical_formula_structural   SrS2
_chemical_formula_sum   'Sr2 S4'
_cell_volume   146.06814557
_cell_formula_units_Z   2
loop_
 _symmetry_equiv_pos_site_id
 _symmetry_equiv_pos_as_xyz
  1  'x, y, z'
loop_
 _atom_site_type_symbol
 _atom_site_label
 _atom_site_symmetry_multiplicity
 _atom_site_fract_x
 _atom_site_fract_y
 _atom_site_fract_z
 _atom_site_occupancy
  Sr  Sr0  1  0.750000  0.750000  0.000000  1
  Sr  Sr1  1  0.250000  0.250000  0.000000  1
  S  S2  1  0.877943  0.622057  0.500000  1
  S  S3  1  0.622057  0.122057  0.744114  1
  S  S4  1  0.122057  0.377943  0.500000  1
  S  S5  1  0.377943  0.877943  0.255886  1
