# generated using pymatgen
data_RbTiP2O7
_symmetry_space_group_name_H-M   'P 1'
_cell_length_a   7.67057217
_cell_length_b   10.43268045
_cell_length_c   8.36003382
_cell_angle_alpha   90.00000000
_cell_angle_beta   105.80891748
_cell_angle_gamma   90.00000000
_symmetry_Int_Tables_number   1
_chemical_formula_structural   RbTiP2O7
_chemical_formula_sum   'Rb4 Ti4 P8 O28'
_cell_volume   643.70375321
_cell_formula_units_Z   4
loop_
 _symmetry_equiv_pos_site_id
 _symmetry_equiv_pos_as_xyz
  1  'x, y, z'
loop_
 _atom_site_type_symbol
 _atom_site_label
 _atom_site_symmetry_multiplicity
 _atom_site_fract_x
 _atom_site_fract_y
 _atom_site_fract_z
 _atom_site_occupancy
  Rb  Rb0  1  0.189298  0.182824  0.055420  1
  Rb  Rb1  1  0.810702  0.682824  0.444580  1
  Rb  Rb2  1  0.810702  0.817176  0.944580  1
  Rb  Rb3  1  0.189298  0.317176  0.555420  1
  Ti  Ti4  1  0.237699  0.898355  0.758785  1
  Ti  Ti5  1  0.762301  0.398355  0.741215  1
  Ti  Ti6  1  0.762301  0.101645  0.241215  1
  Ti  Ti7  1  0.237699  0.601645  0.258785  1
  P  P8  1  0.131662  0.597472  0.828347  1
  P  P9  1  0.868338  0.097472  0.671653  1
  P  P10  1  0.868338  0.402528  0.171653  1
  P  P11  1  0.131662  0.902528  0.328347  1
  P  P12  1  0.435619  0.634368  0.686219  1
  P  P13  1  0.564381  0.134368  0.813781  1
  P  P14  1  0.564381  0.365632  0.313781  1
  P  P15  1  0.435619  0.865632  0.186219  1
  O  O16  1  0.154115  0.589313  0.014848  1
  O  O17  1  0.845885  0.089313  0.485152  1
  O  O18  1  0.845885  0.410687  0.985152  1
  O  O19  1  0.154115  0.910687  0.514848  1
  O  O20  1  0.997567  0.499446  0.729031  1
  O  O21  1  0.002433  0.999446  0.770969  1
  O  O22  1  0.002433  0.500554  0.270969  1
  O  O23  1  0.997567  0.000554  0.229031  1
  O  O24  1  0.083754  0.733618  0.760889  1
  O  O25  1  0.916246  0.233618  0.739111  1
  O  O26  1  0.916246  0.266382  0.239111  1
  O  O27  1  0.083754  0.766382  0.260889  1
  O  O28  1  0.328014  0.559065  0.802389  1
  O  O29  1  0.671986  0.059065  0.697611  1
  O  O30  1  0.671986  0.440935  0.197611  1
  O  O31  1  0.328014  0.940935  0.302389  1
  O  O32  1  0.445331  0.723312  0.233190  1
  O  O33  1  0.554669  0.223312  0.266810  1
  O  O34  1  0.554669  0.276688  0.766810  1
  O  O35  1  0.445331  0.776688  0.733190  1
  O  O36  1  0.324109  0.892318  0.006709  1
  O  O37  1  0.675891  0.392318  0.493291  1
  O  O38  1  0.675891  0.107682  0.993291  1
  O  O39  1  0.324109  0.607682  0.506709  1
  O  O40  1  0.624561  0.924283  0.228524  1
  O  O41  1  0.375439  0.424283  0.271476  1
  O  O42  1  0.375439  0.075717  0.771476  1
  O  O43  1  0.624561  0.575717  0.728524  1
