# generated using pymatgen
data_Sm2Fe17
_symmetry_space_group_name_H-M   'P 1'
_cell_length_a   6.43828252
_cell_length_b   6.43828252
_cell_length_c   6.43828252
_cell_angle_alpha   82.95100973
_cell_angle_beta   82.95100973
_cell_angle_gamma   82.95100973
_symmetry_Int_Tables_number   1
_chemical_formula_structural   Sm2Fe17
_chemical_formula_sum   'Sm2 Fe17'
_cell_volume   261.28231894
_cell_formula_units_Z   1
loop_
 _symmetry_equiv_pos_site_id
 _symmetry_equiv_pos_as_xyz
  1  'x, y, z'
loop_
 _atom_site_type_symbol
 _atom_site_label
 _atom_site_symmetry_multiplicity
 _atom_site_fract_x
 _atom_site_fract_y
 _atom_site_fract_z
 _atom_site_occupancy
  Sm  Sm0  1  0.341190  0.341190  0.341190  1
  Sm  Sm1  1  0.658810  0.658810  0.658810  1
  Fe  Fe2  1  0.500000  1.000000  1.000000  1
  Fe  Fe3  1  0.000000  0.000000  0.500000  1
  Fe  Fe4  1  0.000000  0.500000  0.000000  1
  Fe  Fe5  1  1.000000  0.708693  0.291307  1
  Fe  Fe6  1  0.708693  0.291307  0.000000  1
  Fe  Fe7  1  0.291307  0.000000  0.708693  1
  Fe  Fe8  1  0.291307  0.708693  0.000000  1
  Fe  Fe9  1  0.708693  0.000000  0.291307  1
  Fe  Fe10  1  0.000000  0.291307  0.708693  1
  Fe  Fe11  1  0.154638  0.657210  0.657210  1
  Fe  Fe12  1  0.657210  0.657210  0.154638  1
  Fe  Fe13  1  0.657210  0.154638  0.657210  1
  Fe  Fe14  1  0.845362  0.342790  0.342790  1
  Fe  Fe15  1  0.342790  0.342790  0.845362  1
  Fe  Fe16  1  0.342790  0.845362  0.342790  1
  Fe  Fe17  1  0.096512  0.096512  0.096512  1
  Fe  Fe18  1  0.903488  0.903488  0.903488  1
