# generated using pymatgen
data_Si3Pt2
_symmetry_space_group_name_H-M   'P 1'
_cell_length_a   3.94157080
_cell_length_b   3.94157080
_cell_length_c   12.11473641
_cell_angle_alpha   90.00000000
_cell_angle_beta   90.00000000
_cell_angle_gamma   120.00000000
_symmetry_Int_Tables_number   1
_chemical_formula_structural   Si3Pt2
_chemical_formula_sum   'Si6 Pt4'
_cell_volume   162.99837115
_cell_formula_units_Z   2
loop_
 _symmetry_equiv_pos_site_id
 _symmetry_equiv_pos_as_xyz
  1  'x, y, z'
loop_
 _atom_site_type_symbol
 _atom_site_label
 _atom_site_symmetry_multiplicity
 _atom_site_fract_x
 _atom_site_fract_y
 _atom_site_fract_z
 _atom_site_occupancy
  Si  Si0  1  0.333333  0.666667  0.565223  1
  Si  Si1  1  0.666667  0.333333  0.065223  1
  Si  Si2  1  0.666667  0.333333  0.434777  1
  Si  Si3  1  0.333333  0.666667  0.934777  1
  Si  Si4  1  0.000000  0.000000  0.250000  1
  Si  Si5  1  0.000000  0.000000  0.750000  1
  Pt  Pt6  1  0.333333  0.666667  0.362826  1
  Pt  Pt7  1  0.666667  0.333333  0.862826  1
  Pt  Pt8  1  0.666667  0.333333  0.637174  1
  Pt  Pt9  1  0.333333  0.666667  0.137174  1
