# generated using pymatgen
data_Hf3Rh5
_symmetry_space_group_name_H-M   'P 1'
_cell_length_a   4.30273969
_cell_length_b   5.61773512
_cell_length_c   10.92235169
_cell_angle_alpha   90.00000000
_cell_angle_beta   90.00000000
_cell_angle_gamma   90.00000000
_symmetry_Int_Tables_number   1
_chemical_formula_structural   Hf3Rh5
_chemical_formula_sum   'Hf6 Rh10'
_cell_volume   264.01128264
_cell_formula_units_Z   2
loop_
 _symmetry_equiv_pos_site_id
 _symmetry_equiv_pos_as_xyz
  1  'x, y, z'
loop_
 _atom_site_type_symbol
 _atom_site_label
 _atom_site_symmetry_multiplicity
 _atom_site_fract_x
 _atom_site_fract_y
 _atom_site_fract_z
 _atom_site_occupancy
  Hf  Hf0  1  0.500000  0.156307  0.645518  1
  Hf  Hf1  1  0.500000  0.843693  0.354482  1
  Hf  Hf2  1  0.500000  0.656307  0.854482  1
  Hf  Hf3  1  0.500000  0.343693  0.145518  1
  Hf  Hf4  1  0.000000  0.500000  0.500000  1
  Hf  Hf5  1  0.000000  0.000000  0.000000  1
  Rh  Rh6  1  0.500000  0.182725  0.892717  1
  Rh  Rh7  1  0.500000  0.817275  0.107283  1
  Rh  Rh8  1  0.500000  0.682725  0.607283  1
  Rh  Rh9  1  0.500000  0.317275  0.392717  1
  Rh  Rh10  1  0.000000  0.398875  0.742106  1
  Rh  Rh11  1  0.000000  0.601125  0.257894  1
  Rh  Rh12  1  0.000000  0.000000  0.500000  1
  Rh  Rh13  1  0.000000  0.500000  0.000000  1
  Rh  Rh14  1  0.000000  0.101125  0.242106  1
  Rh  Rh15  1  0.000000  0.898875  0.757894  1
