# generated using pymatgen
data_SrTa2O6
_symmetry_space_group_name_H-M   'P 1'
_cell_length_a   5.67642043
_cell_length_b   7.71147994
_cell_length_c   11.17368755
_cell_angle_alpha   90.00000000
_cell_angle_beta   90.00000000
_cell_angle_gamma   90.00000000
_symmetry_Int_Tables_number   1
_chemical_formula_structural   SrTa2O6
_chemical_formula_sum   'Sr4 Ta8 O24'
_cell_volume   489.11255478
_cell_formula_units_Z   4
loop_
 _symmetry_equiv_pos_site_id
 _symmetry_equiv_pos_as_xyz
  1  'x, y, z'
loop_
 _atom_site_type_symbol
 _atom_site_label
 _atom_site_symmetry_multiplicity
 _atom_site_fract_x
 _atom_site_fract_y
 _atom_site_fract_z
 _atom_site_occupancy
  Sr  Sr0  1  0.961746  0.750000  0.460027  1
  Sr  Sr1  1  0.461746  0.250000  0.039973  1
  Sr  Sr2  1  0.038254  0.250000  0.539973  1
  Sr  Sr3  1  0.538254  0.750000  0.960027  1
  Ta  Ta4  1  0.465304  0.495706  0.357852  1
  Ta  Ta5  1  0.965304  0.504294  0.142148  1
  Ta  Ta6  1  0.534696  0.995706  0.642148  1
  Ta  Ta7  1  0.034696  0.004294  0.857852  1
  Ta  Ta8  1  0.534696  0.504294  0.642148  1
  Ta  Ta9  1  0.034696  0.495706  0.857852  1
  Ta  Ta10  1  0.465304  0.004294  0.357852  1
  Ta  Ta11  1  0.965304  0.995706  0.142148  1
  O  O12  1  0.136559  0.250000  0.870352  1
  O  O13  1  0.636559  0.750000  0.629648  1
  O  O14  1  0.863441  0.750000  0.129648  1
  O  O15  1  0.363441  0.250000  0.370352  1
  O  O16  1  0.970439  0.750000  0.854535  1
  O  O17  1  0.470439  0.250000  0.645465  1
  O  O18  1  0.029561  0.250000  0.145465  1
  O  O19  1  0.529561  0.750000  0.354535  1
  O  O20  1  0.281085  0.966694  0.523781  1
  O  O21  1  0.781085  0.033306  0.976219  1
  O  O22  1  0.718915  0.466694  0.476219  1
  O  O23  1  0.218915  0.533306  0.023781  1
  O  O24  1  0.643183  0.451950  0.214641  1
  O  O25  1  0.143183  0.548050  0.285359  1
  O  O26  1  0.356817  0.951950  0.785359  1
  O  O27  1  0.856817  0.048050  0.714641  1
  O  O28  1  0.356817  0.548050  0.785359  1
  O  O29  1  0.856817  0.451950  0.714641  1
  O  O30  1  0.643183  0.048050  0.214641  1
  O  O31  1  0.143183  0.951950  0.285359  1
  O  O32  1  0.781085  0.466694  0.976219  1
  O  O33  1  0.281085  0.533306  0.523781  1
  O  O34  1  0.218915  0.966694  0.023781  1
  O  O35  1  0.718915  0.033306  0.476219  1
