# generated using pymatgen
data_ZnS
_symmetry_space_group_name_H-M   'P 1'
_cell_length_a   15.91043538
_cell_length_b   15.91043538
_cell_length_c   15.91043538
_cell_angle_alpha   13.90878263
_cell_angle_beta   13.90878263
_cell_angle_gamma   13.90878263
_symmetry_Int_Tables_number   1
_chemical_formula_structural   ZnS
_chemical_formula_sum   'Zn5 S5'
_cell_volume   202.53003171
_cell_formula_units_Z   5
loop_
 _symmetry_equiv_pos_site_id
 _symmetry_equiv_pos_as_xyz
  1  'x, y, z'
loop_
 _atom_site_type_symbol
 _atom_site_label
 _atom_site_symmetry_multiplicity
 _atom_site_fract_x
 _atom_site_fract_y
 _atom_site_fract_z
 _atom_site_occupancy
  Zn  Zn0  1  0.733321  0.733321  0.733321  1
  Zn  Zn1  1  0.133316  0.133316  0.133316  1
  Zn  Zn2  1  0.533327  0.533327  0.533327  1
  Zn  Zn3  1  0.266680  0.266680  0.266680  1
  Zn  Zn4  1  0.999957  0.999957  0.999957  1
  S  S5  1  0.683288  0.683288  0.683288  1
  S  S6  1  0.083393  0.083393  0.083393  1
  S  S7  1  0.483299  0.483299  0.483299  1
  S  S8  1  0.216735  0.216735  0.216735  1
  S  S9  1  0.950011  0.950011  0.950011  1
