# generated using pymatgen
data_SrNi5As3
_symmetry_space_group_name_H-M   'P 1'
_cell_length_a   6.40162657
_cell_length_b   6.40162657
_cell_length_c   11.94685189
_cell_angle_alpha   90.00000000
_cell_angle_beta   90.00000000
_cell_angle_gamma   145.82511011
_symmetry_Int_Tables_number   1
_chemical_formula_structural   SrNi5As3
_chemical_formula_sum   'Sr2 Ni10 As6'
_cell_volume   275.01393397
_cell_formula_units_Z   2
loop_
 _symmetry_equiv_pos_site_id
 _symmetry_equiv_pos_as_xyz
  1  'x, y, z'
loop_
 _atom_site_type_symbol
 _atom_site_label
 _atom_site_symmetry_multiplicity
 _atom_site_fract_x
 _atom_site_fract_y
 _atom_site_fract_z
 _atom_site_occupancy
  Sr  Sr0  1  0.164243  0.835757  0.250000  1
  Sr  Sr1  1  0.835757  0.164243  0.750000  1
  Ni  Ni2  1  0.193165  0.806835  0.932999  1
  Ni  Ni3  1  0.806835  0.193165  0.432999  1
  Ni  Ni4  1  0.000000  0.000000  0.000000  1
  Ni  Ni5  1  0.000000  0.000000  0.500000  1
  Ni  Ni6  1  0.548336  0.451664  0.644762  1
  Ni  Ni7  1  0.451664  0.548336  0.355238  1
  Ni  Ni8  1  0.451664  0.548336  0.144762  1
  Ni  Ni9  1  0.193165  0.806835  0.567001  1
  Ni  Ni10  1  0.806835  0.193165  0.067001  1
  Ni  Ni11  1  0.548336  0.451664  0.855238  1
  As  As12  1  0.620929  0.379071  0.459230  1
  As  As13  1  0.113429  0.886572  0.750000  1
  As  As14  1  0.620929  0.379071  0.040770  1
  As  As15  1  0.379071  0.620929  0.959230  1
  As  As16  1  0.886572  0.113428  0.250000  1
  As  As17  1  0.379071  0.620929  0.540770  1
