# generated using pymatgen
data_CeGaO3
_symmetry_space_group_name_H-M   'P 1'
_cell_length_a   5.49188311
_cell_length_b   5.58874082
_cell_length_c   7.86941229
_cell_angle_alpha   90.00000000
_cell_angle_beta   90.00000000
_cell_angle_gamma   90.00000000
_symmetry_Int_Tables_number   1
_chemical_formula_structural   CeGaO3
_chemical_formula_sum   'Ce4 Ga4 O12'
_cell_volume   241.53359964
_cell_formula_units_Z   4
loop_
 _symmetry_equiv_pos_site_id
 _symmetry_equiv_pos_as_xyz
  1  'x, y, z'
loop_
 _atom_site_type_symbol
 _atom_site_label
 _atom_site_symmetry_multiplicity
 _atom_site_fract_x
 _atom_site_fract_y
 _atom_site_fract_z
 _atom_site_occupancy
  Ce  Ce0  1  0.510192  0.539051  0.250000  1
  Ce  Ce1  1  0.989808  0.039051  0.250000  1
  Ce  Ce2  1  0.489808  0.460949  0.750000  1
  Ce  Ce3  1  0.010192  0.960949  0.750000  1
  Ga  Ga4  1  0.500000  0.000000  0.000000  1
  Ga  Ga5  1  0.000000  0.500000  0.500000  1
  Ga  Ga6  1  0.500000  0.000000  0.500000  1
  Ga  Ga7  1  0.000000  0.500000  0.000000  1
  O  O8  1  0.418320  0.981838  0.250000  1
  O  O9  1  0.081680  0.481838  0.250000  1
  O  O10  1  0.581680  0.018162  0.750000  1
  O  O11  1  0.918320  0.518162  0.750000  1
  O  O12  1  0.790220  0.790250  0.043333  1
  O  O13  1  0.709780  0.290250  0.456667  1
  O  O14  1  0.209780  0.209750  0.543333  1
  O  O15  1  0.290220  0.709750  0.956667  1
  O  O16  1  0.209780  0.209750  0.956667  1
  O  O17  1  0.290220  0.709750  0.543333  1
  O  O18  1  0.790220  0.790250  0.456667  1
  O  O19  1  0.709780  0.290250  0.043333  1
