# generated using pymatgen
data_PrTe3
_symmetry_space_group_name_H-M   'P 1'
_cell_length_a   14.00476878
_cell_length_b   14.00476878
_cell_length_c   4.40740549
_cell_angle_alpha   90.00000000
_cell_angle_beta   90.00000000
_cell_angle_gamma   161.90424789
_symmetry_Int_Tables_number   1
_chemical_formula_structural   PrTe3
_chemical_formula_sum   'Pr2 Te6'
_cell_volume   268.50023853
_cell_formula_units_Z   2
loop_
 _symmetry_equiv_pos_site_id
 _symmetry_equiv_pos_as_xyz
  1  'x, y, z'
loop_
 _atom_site_type_symbol
 _atom_site_label
 _atom_site_symmetry_multiplicity
 _atom_site_fract_x
 _atom_site_fract_y
 _atom_site_fract_z
 _atom_site_occupancy
  Pr  Pr0  1  0.671807  0.328193  0.750000  1
  Pr  Pr1  1  0.328193  0.671807  0.250000  1
  Te  Te2  1  0.921948  0.078052  0.250000  1
  Te  Te3  1  0.078052  0.921948  0.750000  1
  Te  Te4  1  0.207190  0.792810  0.250000  1
  Te  Te5  1  0.792810  0.207190  0.750000  1
  Te  Te6  1  0.421956  0.578044  0.750000  1
  Te  Te7  1  0.578044  0.421956  0.250000  1
