# generated using pymatgen
data_K3CrO8
_symmetry_space_group_name_H-M   'P 1'
_cell_length_a   6.20976467
_cell_length_b   6.20976467
_cell_length_c   6.20976467
_cell_angle_alpha   113.39083198
_cell_angle_beta   113.39083198
_cell_angle_gamma   101.88792332
_symmetry_Int_Tables_number   1
_chemical_formula_structural   K3CrO8
_chemical_formula_sum   'K3 Cr1 O8'
_cell_volume   181.95659768
_cell_formula_units_Z   1
loop_
 _symmetry_equiv_pos_site_id
 _symmetry_equiv_pos_as_xyz
  1  'x, y, z'
loop_
 _atom_site_type_symbol
 _atom_site_label
 _atom_site_symmetry_multiplicity
 _atom_site_fract_x
 _atom_site_fract_y
 _atom_site_fract_z
 _atom_site_occupancy
  K  K0  1  0.750000  0.250000  0.500000  1
  K  K1  1  0.250000  0.750000  0.500000  1
  K  K2  1  0.500000  0.500000  0.000000  1
  Cr  Cr3  1  0.000000  0.000000  0.000000  1
  O  O4  1  0.809934  0.222562  1.000000  1
  O  O5  1  0.777438  0.777438  0.587372  1
  O  O6  1  0.190066  0.190066  0.412628  1
  O  O7  1  0.222562  0.809934  1.000000  1
  O  O8  1  0.313222  0.044850  1.000000  1
  O  O9  1  0.955150  0.955150  0.268372  1
  O  O10  1  0.686778  0.686778  0.731628  1
  O  O11  1  0.044850  0.313222  1.000000  1
