# generated using pymatgen
data_K2YF5
_symmetry_space_group_name_H-M   'P 1'
_cell_length_a   6.71001315
_cell_length_b   7.34664006
_cell_length_c   10.99937028
_cell_angle_alpha   90.00000000
_cell_angle_beta   90.00000000
_cell_angle_gamma   90.00000000
_symmetry_Int_Tables_number   1
_chemical_formula_structural   K2YF5
_chemical_formula_sum   'K8 Y4 F20'
_cell_volume   542.22552281
_cell_formula_units_Z   4
loop_
 _symmetry_equiv_pos_site_id
 _symmetry_equiv_pos_as_xyz
  1  'x, y, z'
loop_
 _atom_site_type_symbol
 _atom_site_label
 _atom_site_symmetry_multiplicity
 _atom_site_fract_x
 _atom_site_fract_y
 _atom_site_fract_z
 _atom_site_occupancy
  K  K0  1  0.967558  0.502715  0.671124  1
  K  K1  1  0.032442  0.002715  0.328876  1
  K  K2  1  0.532442  0.502715  0.171124  1
  K  K3  1  0.467558  0.002715  0.828876  1
  K  K4  1  0.967558  0.997285  0.671124  1
  K  K5  1  0.032442  0.497285  0.328876  1
  K  K6  1  0.532442  0.997285  0.171124  1
  K  K7  1  0.467558  0.497285  0.828876  1
  Y  Y8  1  0.935786  0.250000  0.997462  1
  Y  Y9  1  0.064214  0.750000  0.002538  1
  Y  Y10  1  0.564214  0.250000  0.497462  1
  Y  Y11  1  0.435786  0.750000  0.502538  1
  F  F12  1  0.852984  0.535045  0.924862  1
  F  F13  1  0.147016  0.035045  0.075138  1
  F  F14  1  0.647016  0.535045  0.424862  1
  F  F15  1  0.352984  0.035045  0.575138  1
  F  F16  1  0.852984  0.964955  0.924862  1
  F  F17  1  0.147016  0.464955  0.075138  1
  F  F18  1  0.647016  0.964955  0.424862  1
  F  F19  1  0.352984  0.464955  0.575138  1
  F  F20  1  0.626790  0.750000  0.666545  1
  F  F21  1  0.373210  0.250000  0.333455  1
  F  F22  1  0.873210  0.750000  0.166545  1
  F  F23  1  0.126790  0.250000  0.833455  1
  F  F24  1  0.106594  0.750000  0.513343  1
  F  F25  1  0.893406  0.250000  0.486657  1
  F  F26  1  0.393406  0.750000  0.013343  1
  F  F27  1  0.606594  0.250000  0.986657  1
  F  F28  1  0.160284  0.750000  0.808920  1
  F  F29  1  0.839716  0.250000  0.191080  1
  F  F30  1  0.339716  0.750000  0.308920  1
  F  F31  1  0.660284  0.250000  0.691080  1
