# generated using pymatgen
data_Ba5Sb4
_symmetry_space_group_name_H-M   'P 1'
_cell_length_a   10.10916892
_cell_length_b   10.10916892
_cell_length_c   9.19742210
_cell_angle_alpha   90.00000000
_cell_angle_beta   90.00000000
_cell_angle_gamma   126.15941716
_symmetry_Int_Tables_number   1
_chemical_formula_structural   Ba5Sb4
_chemical_formula_sum   'Ba10 Sb8'
_cell_volume   758.88186094
_cell_formula_units_Z   2
loop_
 _symmetry_equiv_pos_site_id
 _symmetry_equiv_pos_as_xyz
  1  'x, y, z'
loop_
 _atom_site_type_symbol
 _atom_site_label
 _atom_site_symmetry_multiplicity
 _atom_site_fract_x
 _atom_site_fract_y
 _atom_site_fract_z
 _atom_site_occupancy
  Ba  Ba0  1  0.500000  0.500000  0.500000  1
  Ba  Ba1  1  0.000000  0.000000  0.000000  1
  Ba  Ba2  1  0.022435  0.314550  0.335794  1
  Ba  Ba3  1  0.814550  0.522435  0.164206  1
  Ba  Ba4  1  0.477565  0.185450  0.835794  1
  Ba  Ba5  1  0.685450  0.977565  0.664206  1
  Ba  Ba6  1  0.977565  0.685450  0.664206  1
  Ba  Ba7  1  0.185450  0.477565  0.835794  1
  Ba  Ba8  1  0.522435  0.814550  0.164206  1
  Ba  Ba9  1  0.314550  0.022435  0.335794  1
  Sb  Sb10  1  0.886821  0.886821  0.387095  1
  Sb  Sb11  1  0.386821  0.386821  0.112905  1
  Sb  Sb12  1  0.613179  0.613179  0.887095  1
  Sb  Sb13  1  0.113179  0.113179  0.612905  1
  Sb  Sb14  1  0.801862  0.198138  0.000000  1
  Sb  Sb15  1  0.698138  0.301862  0.500000  1
  Sb  Sb16  1  0.198138  0.801862  0.000000  1
  Sb  Sb17  1  0.301862  0.698138  0.500000  1
