# generated using pymatgen
data_HgSeO3
_symmetry_space_group_name_H-M   'P 1'
_cell_length_a   5.03819868
_cell_length_b   9.42747368
_cell_length_c   7.22977462
_cell_angle_alpha   90.00000000
_cell_angle_beta   90.35449513
_cell_angle_gamma   90.00000000
_symmetry_Int_Tables_number   1
_chemical_formula_structural   HgSeO3
_chemical_formula_sum   'Hg4 Se4 O12'
_cell_volume   343.38954264
_cell_formula_units_Z   4
loop_
 _symmetry_equiv_pos_site_id
 _symmetry_equiv_pos_as_xyz
  1  'x, y, z'
loop_
 _atom_site_type_symbol
 _atom_site_label
 _atom_site_symmetry_multiplicity
 _atom_site_fract_x
 _atom_site_fract_y
 _atom_site_fract_z
 _atom_site_occupancy
  Hg  Hg0  1  0.211855  0.673529  0.463318  1
  Hg  Hg1  1  0.788145  0.173529  0.036682  1
  Hg  Hg2  1  0.788145  0.326471  0.536682  1
  Hg  Hg3  1  0.211855  0.826471  0.963318  1
  Se  Se4  1  0.247597  0.059021  0.315381  1
  Se  Se5  1  0.752403  0.559021  0.184619  1
  Se  Se6  1  0.752403  0.940979  0.684619  1
  Se  Se7  1  0.247597  0.440979  0.815381  1
  O  O8  1  0.306942  0.129838  0.101204  1
  O  O9  1  0.693058  0.629838  0.398796  1
  O  O10  1  0.693058  0.870162  0.898796  1
  O  O11  1  0.306942  0.370162  0.601204  1
  O  O12  1  0.261055  0.876543  0.260099  1
  O  O13  1  0.738945  0.376543  0.239901  1
  O  O14  1  0.738945  0.123457  0.739901  1
  O  O15  1  0.261055  0.623457  0.760099  1
  O  O16  1  0.091299  0.906008  0.673070  1
  O  O17  1  0.908701  0.406008  0.826930  1
  O  O18  1  0.908701  0.093992  0.326930  1
  O  O19  1  0.091299  0.593992  0.173070  1
