# generated using pymatgen
data_Pr3ReO8
_symmetry_space_group_name_H-M   'P 1'
_cell_length_a   7.56949720
_cell_length_b   6.24078537
_cell_length_c   15.14657806
_cell_angle_alpha   90.00000000
_cell_angle_beta   110.73862992
_cell_angle_gamma   90.00000000
_symmetry_Int_Tables_number   1
_chemical_formula_structural   Pr3ReO8
_chemical_formula_sum   'Pr12 Re4 O32'
_cell_volume   669.15674339
_cell_formula_units_Z   4
loop_
 _symmetry_equiv_pos_site_id
 _symmetry_equiv_pos_as_xyz
  1  'x, y, z'
loop_
 _atom_site_type_symbol
 _atom_site_label
 _atom_site_symmetry_multiplicity
 _atom_site_fract_x
 _atom_site_fract_y
 _atom_site_fract_z
 _atom_site_occupancy
  Pr  Pr0  1  0.597097  0.737292  0.200762  1
  Pr  Pr1  1  0.402903  0.237292  0.299238  1
  Pr  Pr2  1  0.402903  0.262708  0.799238  1
  Pr  Pr3  1  0.597097  0.762708  0.700762  1
  Pr  Pr4  1  0.660806  0.798204  0.946407  1
  Pr  Pr5  1  0.339194  0.298204  0.553593  1
  Pr  Pr6  1  0.339194  0.201796  0.053593  1
  Pr  Pr7  1  0.660806  0.701796  0.446407  1
  Pr  Pr8  1  0.103925  0.811708  0.666737  1
  Pr  Pr9  1  0.896075  0.311708  0.833263  1
  Pr  Pr10  1  0.896075  0.188292  0.333263  1
  Pr  Pr11  1  0.103925  0.688292  0.166737  1
  Re  Re12  1  0.179488  0.745270  0.409059  1
  Re  Re13  1  0.820512  0.245270  0.090941  1
  Re  Re14  1  0.820512  0.254730  0.590941  1
  Re  Re15  1  0.179488  0.754730  0.909059  1
  O  O16  1  0.029236  0.699208  0.978181  1
  O  O17  1  0.970764  0.199208  0.521819  1
  O  O18  1  0.970764  0.300792  0.021819  1
  O  O19  1  0.029236  0.800792  0.478181  1
  O  O20  1  0.246923  0.460304  0.903796  1
  O  O21  1  0.753077  0.960304  0.596204  1
  O  O22  1  0.753077  0.539696  0.096204  1
  O  O23  1  0.246923  0.039696  0.403796  1
  O  O24  1  0.328545  0.845672  0.832029  1
  O  O25  1  0.671455  0.345672  0.667971  1
  O  O26  1  0.671455  0.154328  0.167971  1
  O  O27  1  0.328545  0.654328  0.332029  1
  O  O28  1  0.875254  0.547465  0.589568  1
  O  O29  1  0.124746  0.047465  0.910432  1
  O  O30  1  0.124746  0.452535  0.410432  1
  O  O31  1  0.875254  0.952535  0.089568  1
  O  O32  1  0.317410  0.969901  0.172987  1
  O  O33  1  0.682590  0.469901  0.327013  1
  O  O34  1  0.682590  0.030099  0.827013  1
  O  O35  1  0.317410  0.530099  0.672987  1
  O  O36  1  0.353344  0.469809  0.160690  1
  O  O37  1  0.646656  0.969809  0.339310  1
  O  O38  1  0.646656  0.530191  0.839310  1
  O  O39  1  0.353344  0.030191  0.660690  1
  O  O40  1  0.405154  0.799952  0.015739  1
  O  O41  1  0.594846  0.299952  0.484261  1
  O  O42  1  0.594846  0.200048  0.984261  1
  O  O43  1  0.405154  0.700048  0.515739  1
  O  O44  1  0.974473  0.793600  0.291554  1
  O  O45  1  0.025527  0.293600  0.208446  1
  O  O46  1  0.025527  0.206400  0.708446  1
  O  O47  1  0.974473  0.706400  0.791554  1
