# generated using pymatgen
data_CeZnGe
_symmetry_space_group_name_H-M   'P 1'
_cell_length_a   4.28594250
_cell_length_b   4.28594250
_cell_length_c   16.57526879
_cell_angle_alpha   90.00000000
_cell_angle_beta   90.00000000
_cell_angle_gamma   120.00000000
_symmetry_Int_Tables_number   1
_chemical_formula_structural   CeZnGe
_chemical_formula_sum   'Ce4 Zn4 Ge4'
_cell_volume   263.68406944
_cell_formula_units_Z   4
loop_
 _symmetry_equiv_pos_site_id
 _symmetry_equiv_pos_as_xyz
  1  'x, y, z'
loop_
 _atom_site_type_symbol
 _atom_site_label
 _atom_site_symmetry_multiplicity
 _atom_site_fract_x
 _atom_site_fract_y
 _atom_site_fract_z
 _atom_site_occupancy
  Ce  Ce0  1  0.000000  0.000000  0.750000  1
  Ce  Ce1  1  0.000000  0.000000  0.250000  1
  Ce  Ce2  1  0.000000  0.000000  0.500000  1
  Ce  Ce3  1  0.000000  0.000000  0.000000  1
  Zn  Zn4  1  0.666667  0.333333  0.860474  1
  Zn  Zn5  1  0.666667  0.333333  0.639526  1
  Zn  Zn6  1  0.333333  0.666667  0.139526  1
  Zn  Zn7  1  0.333333  0.666667  0.360474  1
  Ge  Ge8  1  0.666667  0.333333  0.117530  1
  Ge  Ge9  1  0.666667  0.333333  0.382470  1
  Ge  Ge10  1  0.333333  0.666667  0.882470  1
  Ge  Ge11  1  0.333333  0.666667  0.617530  1
