# generated using pymatgen
data_Tb4(SiS4)3
_symmetry_space_group_name_H-M   'P 1'
_cell_length_a   9.97020724
_cell_length_b   11.13564778
_cell_length_c   17.23747386
_cell_angle_alpha   90.00000000
_cell_angle_beta   110.59754040
_cell_angle_gamma   90.00000000
_symmetry_Int_Tables_number   1
_chemical_formula_structural   Tb4(SiS4)3
_chemical_formula_sum   'Tb16 Si12 S48'
_cell_volume   1791.44620410
_cell_formula_units_Z   4
loop_
 _symmetry_equiv_pos_site_id
 _symmetry_equiv_pos_as_xyz
  1  'x, y, z'
loop_
 _atom_site_type_symbol
 _atom_site_label
 _atom_site_symmetry_multiplicity
 _atom_site_fract_x
 _atom_site_fract_y
 _atom_site_fract_z
 _atom_site_occupancy
  Tb  Tb0  1  0.969694  0.738102  0.790792  1
  Tb  Tb1  1  0.030306  0.238102  0.709208  1
  Tb  Tb2  1  0.030306  0.261898  0.209208  1
  Tb  Tb3  1  0.969694  0.761898  0.290792  1
  Tb  Tb4  1  0.607375  0.127690  0.634615  1
  Tb  Tb5  1  0.392625  0.627690  0.865385  1
  Tb  Tb6  1  0.392625  0.872310  0.365385  1
  Tb  Tb7  1  0.607375  0.372310  0.134615  1
  Tb  Tb8  1  0.185684  0.850286  0.559401  1
  Tb  Tb9  1  0.814316  0.350286  0.940599  1
  Tb  Tb10  1  0.814316  0.149714  0.440599  1
  Tb  Tb11  1  0.185684  0.649714  0.059401  1
  Tb  Tb12  1  0.517016  0.518862  0.625592  1
  Tb  Tb13  1  0.482984  0.018862  0.874408  1
  Tb  Tb14  1  0.482984  0.481138  0.374408  1
  Tb  Tb15  1  0.517016  0.981138  0.125592  1
  Si  Si16  1  0.525346  0.786358  0.733235  1
  Si  Si17  1  0.474654  0.286358  0.766765  1
  Si  Si18  1  0.474654  0.213642  0.266765  1
  Si  Si19  1  0.525346  0.713642  0.233235  1
  Si  Si20  1  0.244091  0.619710  0.440826  1
  Si  Si21  1  0.755909  0.119710  0.059174  1
  Si  Si22  1  0.755909  0.380290  0.559174  1
  Si  Si23  1  0.244091  0.880290  0.940826  1
  Si  Si24  1  0.900234  0.951669  0.619077  1
  Si  Si25  1  0.099766  0.451669  0.880923  1
  Si  Si26  1  0.099766  0.048331  0.380923  1
  Si  Si27  1  0.900234  0.548331  0.119077  1
  S  S28  1  0.435451  0.958402  0.686617  1
  S  S29  1  0.564549  0.458402  0.813383  1
  S  S30  1  0.564549  0.041598  0.313383  1
  S  S31  1  0.435451  0.541598  0.186617  1
  S  S32  1  0.316941  0.444942  0.473951  1
  S  S33  1  0.683059  0.944942  0.026049  1
  S  S34  1  0.683059  0.555058  0.526049  1
  S  S35  1  0.316941  0.055058  0.973951  1
  S  S36  1  0.978863  0.775087  0.628993  1
  S  S37  1  0.021137  0.275087  0.871007  1
  S  S38  1  0.021137  0.224913  0.371007  1
  S  S39  1  0.978863  0.724913  0.128993  1
  S  S40  1  0.305230  0.020809  0.473361  1
  S  S41  1  0.694770  0.520809  0.026639  1
  S  S42  1  0.694770  0.979191  0.526639  1
  S  S43  1  0.305230  0.479191  0.973361  1
  S  S44  1  0.883103  0.027682  0.729889  1
  S  S45  1  0.116897  0.527682  0.770111  1
  S  S46  1  0.116897  0.972318  0.270111  1
  S  S47  1  0.883103  0.472318  0.229889  1
  S  S48  1  0.054085  0.065205  0.592887  1
  S  S49  1  0.945915  0.565205  0.907113  1
  S  S50  1  0.945915  0.934795  0.407113  1
  S  S51  1  0.054085  0.434795  0.092887  1
  S  S52  1  0.043866  0.658677  0.448757  1
  S  S53  1  0.956134  0.158677  0.051243  1
  S  S54  1  0.956134  0.341323  0.551243  1
  S  S55  1  0.043866  0.841323  0.948757  1
  S  S56  1  0.404519  0.741115  0.513893  1
  S  S57  1  0.595481  0.241115  0.986107  1
  S  S58  1  0.595481  0.258885  0.486107  1
  S  S59  1  0.404519  0.758885  0.013893  1
  S  S60  1  0.343516  0.666923  0.686946  1
  S  S61  1  0.656484  0.166923  0.813054  1
  S  S62  1  0.656484  0.333077  0.313054  1
  S  S63  1  0.343516  0.833077  0.186946  1
  S  S64  1  0.396055  0.289894  0.635932  1
  S  S65  1  0.603945  0.789894  0.864068  1
  S  S66  1  0.603945  0.710106  0.364068  1
  S  S67  1  0.396055  0.210106  0.135932  1
  S  S68  1  0.765376  0.348061  0.683710  1
  S  S69  1  0.234624  0.848061  0.816290  1
  S  S70  1  0.234624  0.651939  0.316290  1
  S  S71  1  0.765376  0.151939  0.183710  1
  S  S72  1  0.688393  0.722159  0.691664  1
  S  S73  1  0.311607  0.222159  0.808336  1
  S  S74  1  0.311607  0.277841  0.308336  1
  S  S75  1  0.688393  0.777841  0.191664  1
