# generated using pymatgen
data_NdMgNi4
_symmetry_space_group_name_H-M   'P 1'
_cell_length_a   5.00784772
_cell_length_b   5.00784772
_cell_length_c   5.00784772
_cell_angle_alpha   60.00000000
_cell_angle_beta   60.00000000
_cell_angle_gamma   60.00000000
_symmetry_Int_Tables_number   1
_chemical_formula_structural   NdMgNi4
_chemical_formula_sum   'Nd1 Mg1 Ni4'
_cell_volume   88.80518927
_cell_formula_units_Z   1
loop_
 _symmetry_equiv_pos_site_id
 _symmetry_equiv_pos_as_xyz
  1  'x, y, z'
loop_
 _atom_site_type_symbol
 _atom_site_label
 _atom_site_symmetry_multiplicity
 _atom_site_fract_x
 _atom_site_fract_y
 _atom_site_fract_z
 _atom_site_occupancy
  Nd  Nd0  1  0.000000  0.000000  0.000000  1
  Mg  Mg1  1  0.250000  0.250000  0.250000  1
  Ni  Ni2  1  0.623512  0.623512  0.129464  1
  Ni  Ni3  1  0.129464  0.623512  0.623512  1
  Ni  Ni4  1  0.623512  0.623512  0.623512  1
  Ni  Ni5  1  0.623512  0.129464  0.623512  1
