# generated using pymatgen
data_Al9Co2
_symmetry_space_group_name_H-M   'P 1'
_cell_length_a   6.19893515
_cell_length_b   6.27843808
_cell_length_c   8.56062350
_cell_angle_alpha   90.00000000
_cell_angle_beta   94.88066614
_cell_angle_gamma   90.00000000
_symmetry_Int_Tables_number   1
_chemical_formula_structural   Al9Co2
_chemical_formula_sum   'Al18 Co4'
_cell_volume   331.96822714
_cell_formula_units_Z   2
loop_
 _symmetry_equiv_pos_site_id
 _symmetry_equiv_pos_as_xyz
  1  'x, y, z'
loop_
 _atom_site_type_symbol
 _atom_site_label
 _atom_site_symmetry_multiplicity
 _atom_site_fract_x
 _atom_site_fract_y
 _atom_site_fract_z
 _atom_site_occupancy
  Al  Al0  1  0.000000  0.000000  0.000000  1
  Al  Al1  1  0.000000  0.500000  0.500000  1
  Al  Al2  1  0.405644  0.966167  0.267440  1
  Al  Al3  1  0.594356  0.466167  0.232560  1
  Al  Al4  1  0.594356  0.033833  0.732560  1
  Al  Al5  1  0.405644  0.533833  0.767440  1
  Al  Al6  1  0.087644  0.289772  0.229280  1
  Al  Al7  1  0.912356  0.789772  0.270720  1
  Al  Al8  1  0.912356  0.710228  0.770720  1
  Al  Al9  1  0.087644  0.210228  0.729280  1
  Al  Al10  1  0.390155  0.191730  0.997663  1
  Al  Al11  1  0.609845  0.691730  0.502337  1
  Al  Al12  1  0.609845  0.808270  0.002337  1
  Al  Al13  1  0.390155  0.308270  0.497663  1
  Al  Al14  1  0.215939  0.614050  0.043994  1
  Al  Al15  1  0.784061  0.114050  0.456006  1
  Al  Al16  1  0.784061  0.385950  0.956006  1
  Al  Al17  1  0.215939  0.885950  0.543994  1
  Co  Co18  1  0.263726  0.618468  0.333514  1
  Co  Co19  1  0.736274  0.118468  0.166486  1
  Co  Co20  1  0.736274  0.381532  0.666486  1
  Co  Co21  1  0.263726  0.881532  0.833514  1
