# generated using pymatgen
data_BaLaCuBO5
_symmetry_space_group_name_H-M   'P 1'
_cell_length_a   5.59760604
_cell_length_b   5.59760604
_cell_length_c   7.68543265
_cell_angle_alpha   90.00000000
_cell_angle_beta   90.00000000
_cell_angle_gamma   90.00000000
_symmetry_Int_Tables_number   1
_chemical_formula_structural   BaLaCuBO5
_chemical_formula_sum   'Ba2 La2 Cu2 B2 O10'
_cell_volume   240.80914742
_cell_formula_units_Z   2
loop_
 _symmetry_equiv_pos_site_id
 _symmetry_equiv_pos_as_xyz
  1  'x, y, z'
loop_
 _atom_site_type_symbol
 _atom_site_label
 _atom_site_symmetry_multiplicity
 _atom_site_fract_x
 _atom_site_fract_y
 _atom_site_fract_z
 _atom_site_occupancy
  Ba  Ba0  1  0.500000  0.500000  0.495914  1
  Ba  Ba1  1  0.000000  0.000000  0.495914  1
  La  La2  1  0.500000  0.500000  0.990007  1
  La  La3  1  0.000000  0.000000  0.990007  1
  Cu  Cu4  1  0.000000  0.500000  0.763124  1
  Cu  Cu5  1  0.500000  0.000000  0.763124  1
  B  B6  1  0.000000  0.500000  0.254641  1
  B  B7  1  0.500000  0.000000  0.254641  1
  O  O8  1  0.845954  0.345954  0.167404  1
  O  O9  1  0.654046  0.845954  0.167404  1
  O  O10  1  0.345954  0.154046  0.167404  1
  O  O11  1  0.154046  0.654046  0.167404  1
  O  O12  1  0.251864  0.751864  0.780117  1
  O  O13  1  0.248136  0.251864  0.780117  1
  O  O14  1  0.751864  0.748136  0.780117  1
  O  O15  1  0.748136  0.248136  0.780117  1
  O  O16  1  0.500000  0.000000  0.436272  1
  O  O17  1  0.000000  0.500000  0.436272  1
