# generated using pymatgen
data_BaCd2
_symmetry_space_group_name_H-M   'P 1'
_cell_length_a   6.66290241
_cell_length_b   6.66290241
_cell_length_c   6.66290241
_cell_angle_alpha   132.87820084
_cell_angle_beta   101.02603978
_cell_angle_gamma   97.37152765
_symmetry_Int_Tables_number   1
_chemical_formula_structural   BaCd2
_chemical_formula_sum   'Ba2 Cd4'
_cell_volume   198.54947041
_cell_formula_units_Z   2
loop_
 _symmetry_equiv_pos_site_id
 _symmetry_equiv_pos_as_xyz
  1  'x, y, z'
loop_
 _atom_site_type_symbol
 _atom_site_label
 _atom_site_symmetry_multiplicity
 _atom_site_fract_x
 _atom_site_fract_y
 _atom_site_fract_z
 _atom_site_occupancy
  Ba  Ba0  1  0.797186  0.547186  0.750000  1
  Ba  Ba1  1  0.202814  0.452814  0.250000  1
  Cd  Cd2  1  0.396668  0.835376  0.061292  1
  Cd  Cd3  1  0.603332  0.164624  0.938708  1
  Cd  Cd4  1  0.774084  0.835376  0.438708  1
  Cd  Cd5  1  0.225916  0.164624  0.561292  1
