# generated using pymatgen
data_TmAl4Ni
_symmetry_space_group_name_H-M   'P 1'
_cell_length_a   7.88136741
_cell_length_b   7.88136741
_cell_length_c   6.65822302
_cell_angle_alpha   90.00000000
_cell_angle_beta   90.00000000
_cell_angle_gamma   150.41603111
_symmetry_Int_Tables_number   1
_chemical_formula_structural   TmAl4Ni
_chemical_formula_sum   'Tm2 Al8 Ni2'
_cell_volume   204.18477308
_cell_formula_units_Z   2
loop_
 _symmetry_equiv_pos_site_id
 _symmetry_equiv_pos_as_xyz
  1  'x, y, z'
loop_
 _atom_site_type_symbol
 _atom_site_label
 _atom_site_symmetry_multiplicity
 _atom_site_fract_x
 _atom_site_fract_y
 _atom_site_fract_z
 _atom_site_occupancy
  Tm  Tm0  1  0.119473  0.880527  0.750000  1
  Tm  Tm1  1  0.880527  0.119473  0.250000  1
  Al  Al2  1  0.500000  0.500000  1.000000  1
  Al  Al3  1  0.500000  0.500000  0.500000  1
  Al  Al4  1  0.924729  0.075271  0.750000  1
  Al  Al5  1  0.075271  0.924729  0.250000  1
  Al  Al6  1  0.312455  0.687545  0.946610  1
  Al  Al7  1  0.687545  0.312455  0.053390  1
  Al  Al8  1  0.687545  0.312455  0.446610  1
  Al  Al9  1  0.312455  0.687545  0.553390  1
  Ni  Ni10  1  0.772041  0.227959  0.750000  1
  Ni  Ni11  1  0.227959  0.772041  0.250000  1
