# generated using pymatgen
data_Tl6TeO12
_symmetry_space_group_name_H-M   'P 1'
_cell_length_a   6.53755045
_cell_length_b   6.53755045
_cell_length_c   6.53755045
_cell_angle_alpha   97.74349478
_cell_angle_beta   97.74349478
_cell_angle_gamma   97.74349478
_symmetry_Int_Tables_number   1
_chemical_formula_structural   Tl6TeO12
_chemical_formula_sum   'Tl6 Te1 O12'
_cell_volume   270.99289917
_cell_formula_units_Z   1
loop_
 _symmetry_equiv_pos_site_id
 _symmetry_equiv_pos_as_xyz
  1  'x, y, z'
loop_
 _atom_site_type_symbol
 _atom_site_label
 _atom_site_symmetry_multiplicity
 _atom_site_fract_x
 _atom_site_fract_y
 _atom_site_fract_z
 _atom_site_occupancy
  Tl  Tl0  1  0.864312  0.392467  0.695779  1
  Tl  Tl1  1  0.695779  0.864312  0.392467  1
  Tl  Tl2  1  0.392467  0.695779  0.864312  1
  Tl  Tl3  1  0.135688  0.607533  0.304221  1
  Tl  Tl4  1  0.304221  0.135688  0.607533  1
  Tl  Tl5  1  0.607533  0.304221  0.135688  1
  Te  Te6  1  0.000000  0.000000  0.000000  1
  O  O7  1  0.601027  0.174919  0.423003  1
  O  O8  1  0.423003  0.601027  0.174919  1
  O  O9  1  0.174919  0.423003  0.601027  1
  O  O10  1  0.398973  0.825081  0.576997  1
  O  O11  1  0.576997  0.398973  0.825081  1
  O  O12  1  0.825081  0.576997  0.398973  1
  O  O13  1  0.705112  0.928072  0.033881  1
  O  O14  1  0.071928  0.966119  0.294888  1
  O  O15  1  0.966119  0.294888  0.071928  1
  O  O16  1  0.294888  0.071928  0.966119  1
  O  O17  1  0.928072  0.033881  0.705112  1
  O  O18  1  0.033881  0.705112  0.928072  1
