# generated using pymatgen
data_La4Si2Se3O7
_symmetry_space_group_name_H-M   'P 1'
_cell_length_a   11.45046459
_cell_length_b   11.45046459
_cell_length_c   11.45046459
_cell_angle_alpha   114.67609922
_cell_angle_beta   114.67609922
_cell_angle_gamma   99.49862220
_symmetry_Int_Tables_number   1
_chemical_formula_structural   La4Si2Se3O7
_chemical_formula_sum   'La16 Si8 Se12 O28'
_cell_volume   1130.12421790
_cell_formula_units_Z   4
loop_
 _symmetry_equiv_pos_site_id
 _symmetry_equiv_pos_as_xyz
  1  'x, y, z'
loop_
 _atom_site_type_symbol
 _atom_site_label
 _atom_site_symmetry_multiplicity
 _atom_site_fract_x
 _atom_site_fract_y
 _atom_site_fract_z
 _atom_site_occupancy
  La  La0  1  0.922155  0.422155  0.844309  1
  La  La1  1  0.577845  0.077845  0.155691  1
  La  La2  1  0.172155  0.827845  0.000000  1
  La  La3  1  0.827845  0.172155  0.000000  1
  La  La4  1  0.577845  0.422155  0.500000  1
  La  La5  1  0.172155  0.172155  0.344309  1
  La  La6  1  0.827845  0.827845  0.655691  1
  La  La7  1  0.922155  0.077845  0.500000  1
  La  La8  1  0.699278  0.459306  0.239973  1
  La  La9  1  0.219333  0.459306  0.760027  1
  La  La10  1  0.540694  0.780667  0.239973  1
  La  La11  1  0.209306  0.949278  0.739973  1
  La  La12  1  0.209306  0.469333  0.260027  1
  La  La13  1  0.530667  0.790694  0.739973  1
  La  La14  1  0.050722  0.790694  0.260027  1
  La  La15  1  0.540694  0.300722  0.760027  1
  Si  Si16  1  0.095920  0.219268  0.876653  1
  Si  Si17  1  0.342615  0.219268  0.123348  1
  Si  Si18  1  0.780732  0.657385  0.876653  1
  Si  Si19  1  0.969268  0.345920  0.376653  1
  Si  Si20  1  0.969268  0.592615  0.623348  1
  Si  Si21  1  0.407385  0.030732  0.376653  1
  Si  Si22  1  0.654080  0.030732  0.623348  1
  Si  Si23  1  0.780732  0.904080  0.123348  1
  Se  Se24  1  0.228409  0.625000  0.103409  1
  Se  Se25  1  0.375000  0.771591  0.896591  1
  Se  Se26  1  0.875000  0.478409  0.103409  1
  Se  Se27  1  0.521591  0.125000  0.896591  1
  Se  Se28  1  0.521591  0.625000  0.396591  1
  Se  Se29  1  0.375000  0.478409  0.603409  1
  Se  Se30  1  0.875000  0.771591  0.396591  1
  Se  Se31  1  0.228409  0.125000  0.603409  1
  Se  Se32  1  0.500000  0.500000  0.000000  1
  Se  Se33  1  0.250000  0.750000  0.500000  1
  Se  Se34  1  0.000000  0.000000  0.000000  1
  Se  Se35  1  0.750000  0.250000  0.500000  1
  O  O36  1  0.071772  0.295056  0.776716  1
  O  O37  1  0.518339  0.295056  0.223284  1
  O  O38  1  0.704944  0.481661  0.776716  1
  O  O39  1  0.045056  0.321772  0.276716  1
  O  O40  1  0.045056  0.768339  0.723284  1
  O  O41  1  0.231661  0.954944  0.276716  1
  O  O42  1  0.678228  0.954944  0.723284  1
  O  O43  1  0.704944  0.928228  0.223284  1
  O  O44  1  0.013837  0.513837  0.500000  1
  O  O45  1  0.263837  0.263837  0.000000  1
  O  O46  1  0.736163  0.736163  0.000000  1
  O  O47  1  0.486163  0.986163  0.500000  1
  O  O48  1  0.723132  0.199453  0.756558  1
  O  O49  1  0.442895  0.966575  0.243442  1
  O  O50  1  0.033425  0.557105  0.756558  1
  O  O51  1  0.716575  0.973132  0.023679  1
  O  O52  1  0.949453  0.973132  0.256558  1
  O  O53  1  0.800547  0.276868  0.243442  1
  O  O54  1  0.442895  0.199453  0.476321  1
  O  O55  1  0.800547  0.557105  0.523679  1
  O  O56  1  0.033425  0.276868  0.476321  1
  O  O57  1  0.716575  0.692895  0.743442  1
  O  O58  1  0.307105  0.283425  0.256558  1
  O  O59  1  0.026868  0.050547  0.743442  1
  O  O60  1  0.949453  0.692895  0.976321  1
  O  O61  1  0.307105  0.050547  0.023679  1
  O  O62  1  0.026868  0.283425  0.976321  1
  O  O63  1  0.723132  0.966575  0.523679  1
