# generated using pymatgen
data_MgSiO3
_symmetry_space_group_name_H-M   'P 1'
_cell_length_a   5.19804542
_cell_length_b   8.99049213
_cell_length_c   18.80092414
_cell_angle_alpha   90.00000000
_cell_angle_beta   96.10672406
_cell_angle_gamma   90.00000000
_symmetry_Int_Tables_number   1
_chemical_formula_structural   MgSiO3
_chemical_formula_sum   'Mg16 Si16 O48'
_cell_volume   873.63755460
_cell_formula_units_Z   16
loop_
 _symmetry_equiv_pos_site_id
 _symmetry_equiv_pos_as_xyz
  1  'x, y, z'
loop_
 _atom_site_type_symbol
 _atom_site_label
 _atom_site_symmetry_multiplicity
 _atom_site_fract_x
 _atom_site_fract_y
 _atom_site_fract_z
 _atom_site_occupancy
  Mg  Mg0  1  0.750000  0.598701  0.500000  1
  Mg  Mg1  1  0.250000  0.401299  0.500000  1
  Mg  Mg2  1  0.250000  0.760682  0.500000  1
  Mg  Mg3  1  0.750000  0.239318  0.500000  1
  Mg  Mg4  1  0.894120  0.099210  0.750859  1
  Mg  Mg5  1  0.605880  0.099210  0.249141  1
  Mg  Mg6  1  0.105880  0.900790  0.249141  1
  Mg  Mg7  1  0.394120  0.900790  0.750859  1
  Mg  Mg8  1  0.891243  0.739341  0.753726  1
  Mg  Mg9  1  0.608757  0.739341  0.246274  1
  Mg  Mg10  1  0.108757  0.260659  0.246274  1
  Mg  Mg11  1  0.391243  0.260659  0.753726  1
  Mg  Mg12  1  0.250000  0.401545  0.000000  1
  Mg  Mg13  1  0.750000  0.598455  0.000000  1
  Mg  Mg14  1  0.250000  0.761584  0.000000  1
  Mg  Mg15  1  0.750000  0.238416  0.000000  1
  Si  Si16  1  0.002051  0.090486  0.394565  1
  Si  Si17  1  0.497949  0.090486  0.605435  1
  Si  Si18  1  0.997949  0.909514  0.605435  1
  Si  Si19  1  0.502051  0.909514  0.394565  1
  Si  Si20  1  0.036890  0.590528  0.352198  1
  Si  Si21  1  0.463110  0.590528  0.647802  1
  Si  Si22  1  0.963110  0.409472  0.647802  1
  Si  Si23  1  0.536890  0.409472  0.352198  1
  Si  Si24  1  0.286402  0.088754  0.899809  1
  Si  Si25  1  0.213598  0.088754  0.100191  1
  Si  Si26  1  0.713598  0.911246  0.100191  1
  Si  Si27  1  0.786402  0.911246  0.899809  1
  Si  Si28  1  0.857557  0.411259  0.852015  1
  Si  Si29  1  0.642443  0.411259  0.147985  1
  Si  Si30  1  0.142443  0.588741  0.147985  1
  Si  Si31  1  0.357557  0.588741  0.852015  1
  O  O32  1  0.966834  0.092134  0.307012  1
  O  O33  1  0.533166  0.092134  0.692988  1
  O  O34  1  0.033166  0.907866  0.692988  1
  O  O35  1  0.466834  0.907866  0.307012  1
  O  O36  1  0.049954  0.242029  0.438776  1
  O  O37  1  0.450046  0.242029  0.561224  1
  O  O38  1  0.950046  0.757971  0.561224  1
  O  O39  1  0.549954  0.757971  0.438776  1
  O  O40  1  0.219535  0.962049  0.422212  1
  O  O41  1  0.280465  0.962049  0.577788  1
  O  O42  1  0.780465  0.037951  0.577788  1
  O  O43  1  0.719535  0.037951  0.422212  1
  O  O44  1  0.062077  0.592600  0.439733  1
  O  O45  1  0.437923  0.592600  0.560267  1
  O  O46  1  0.937923  0.407400  0.560267  1
  O  O47  1  0.562077  0.407400  0.439733  1
  O  O48  1  0.941622  0.741601  0.310733  1
  O  O49  1  0.558378  0.741601  0.689267  1
  O  O50  1  0.058378  0.258399  0.689267  1
  O  O51  1  0.441622  0.258399  0.310733  1
  O  O52  1  0.817343  0.461055  0.324411  1
  O  O53  1  0.682657  0.461055  0.675589  1
  O  O54  1  0.182657  0.538945  0.675589  1
  O  O55  1  0.317343  0.538945  0.324411  1
  O  O56  1  0.250582  0.091056  0.812207  1
  O  O57  1  0.249418  0.091056  0.187793  1
  O  O58  1  0.749418  0.908944  0.187793  1
  O  O59  1  0.750582  0.908944  0.812207  1
  O  O60  1  0.404366  0.235480  0.940229  1
  O  O61  1  0.095634  0.235480  0.059771  1
  O  O62  1  0.595634  0.764520  0.059771  1
  O  O63  1  0.904366  0.764520  0.940229  1
  O  O64  1  0.993317  0.050261  0.925941  1
  O  O65  1  0.506683  0.050261  0.074059  1
  O  O66  1  0.006683  0.949739  0.074059  1
  O  O67  1  0.493317  0.949739  0.925941  1
  O  O68  1  0.891544  0.408607  0.939857  1
  O  O69  1  0.608456  0.408607  0.060143  1
  O  O70  1  0.108456  0.591393  0.060143  1
  O  O71  1  0.391544  0.591393  0.939857  1
  O  O72  1  0.740380  0.265339  0.810919  1
  O  O73  1  0.759620  0.265339  0.189081  1
  O  O74  1  0.259620  0.734661  0.189081  1
  O  O75  1  0.240380  0.734661  0.810919  1
  O  O76  1  0.151223  0.449189  0.826108  1
  O  O77  1  0.348777  0.449189  0.173892  1
  O  O78  1  0.848777  0.550811  0.173892  1
  O  O79  1  0.651223  0.550811  0.826108  1
