# generated using pymatgen
data_K3(FeO2)2
_symmetry_space_group_name_H-M   'P 1'
_cell_length_a   10.35067839
_cell_length_b   9.10392272
_cell_length_c   6.53552726
_cell_angle_alpha   81.07671553
_cell_angle_beta   60.33142845
_cell_angle_gamma   38.59185602
_symmetry_Int_Tables_number   1
_chemical_formula_structural   K3(FeO2)2
_chemical_formula_sum   'K6 Fe4 O8'
_cell_volume   301.73111249
_cell_formula_units_Z   2
loop_
 _symmetry_equiv_pos_site_id
 _symmetry_equiv_pos_as_xyz
  1  'x, y, z'
loop_
 _atom_site_type_symbol
 _atom_site_label
 _atom_site_symmetry_multiplicity
 _atom_site_fract_x
 _atom_site_fract_y
 _atom_site_fract_z
 _atom_site_occupancy
  K  K0  1  0.391178  0.391178  0.608822  1
  K  K1  1  0.250000  0.250000  0.250000  1
  K  K2  1  0.858822  0.858822  0.641178  1
  K  K3  1  0.641178  0.641178  0.858822  1
  K  K4  1  0.000000  0.000000  0.000000  1
  K  K5  1  0.608822  0.608822  0.391178  1
  Fe  Fe6  1  0.441924  0.441924  0.058076  1
  Fe  Fe7  1  0.191924  0.191924  0.808076  1
  Fe  Fe8  1  0.808076  0.808076  0.191924  1
  Fe  Fe9  1  0.058076  0.058076  0.441924  1
  O  O10  1  0.125000  0.125000  0.625000  1
  O  O11  1  0.318030  0.681970  0.318030  1
  O  O12  1  0.568030  0.931970  0.568030  1
  O  O13  1  0.931970  0.568030  0.931970  1
  O  O14  1  0.681970  0.318030  0.681970  1
  O  O15  1  0.125000  0.125000  0.125000  1
  O  O16  1  0.125000  0.625000  0.125000  1
  O  O17  1  0.625000  0.125000  0.125000  1
