# generated using pymatgen
data_DyB2C
_symmetry_space_group_name_H-M   'P 1'
_cell_length_a   6.79446804
_cell_length_b   6.79446804
_cell_length_c   7.47912006
_cell_angle_alpha   90.00000000
_cell_angle_beta   90.00000000
_cell_angle_gamma   90.00000000
_symmetry_Int_Tables_number   1
_chemical_formula_structural   DyB2C
_chemical_formula_sum   'Dy8 B16 C8'
_cell_volume   345.27205143
_cell_formula_units_Z   8
loop_
 _symmetry_equiv_pos_site_id
 _symmetry_equiv_pos_as_xyz
  1  'x, y, z'
loop_
 _atom_site_type_symbol
 _atom_site_label
 _atom_site_symmetry_multiplicity
 _atom_site_fract_x
 _atom_site_fract_y
 _atom_site_fract_z
 _atom_site_occupancy
  Dy  Dy0  1  0.309666  0.809666  0.750000  1
  Dy  Dy1  1  0.190334  0.309666  0.250000  1
  Dy  Dy2  1  0.809666  0.690334  0.250000  1
  Dy  Dy3  1  0.690334  0.190334  0.750000  1
  Dy  Dy4  1  0.690334  0.190334  0.250000  1
  Dy  Dy5  1  0.809666  0.690334  0.750000  1
  Dy  Dy6  1  0.190334  0.309666  0.750000  1
  Dy  Dy7  1  0.309666  0.809666  0.250000  1
  B  B8  1  0.151703  0.034660  0.000000  1
  B  B9  1  0.534660  0.651703  0.500000  1
  B  B10  1  0.848297  0.965340  0.000000  1
  B  B11  1  0.348297  0.534660  0.000000  1
  B  B12  1  0.651703  0.465340  0.000000  1
  B  B13  1  0.034660  0.848297  0.500000  1
  B  B14  1  0.965340  0.151703  0.500000  1
  B  B15  1  0.465340  0.348297  0.500000  1
  B  B16  1  0.097009  0.594925  0.000000  1
  B  B17  1  0.405075  0.097009  0.500000  1
  B  B18  1  0.594925  0.902991  0.500000  1
  B  B19  1  0.597009  0.905075  0.000000  1
  B  B20  1  0.402991  0.094925  0.000000  1
  B  B21  1  0.902991  0.405075  0.000000  1
  B  B22  1  0.094925  0.597009  0.500000  1
  B  B23  1  0.905075  0.402991  0.500000  1
  C  C24  1  0.177358  0.040452  0.500000  1
  C  C25  1  0.677358  0.459548  0.500000  1
  C  C26  1  0.322642  0.540452  0.500000  1
  C  C27  1  0.959548  0.177358  0.000000  1
  C  C28  1  0.040452  0.822642  0.000000  1
  C  C29  1  0.540452  0.677358  0.000000  1
  C  C30  1  0.822642  0.959548  0.500000  1
  C  C31  1  0.459548  0.322642  0.000000  1
