# generated using pymatgen
data_SiIr
_symmetry_space_group_name_H-M   'P 1'
_cell_length_a   3.22002379
_cell_length_b   5.59638171
_cell_length_c   6.38815488
_cell_angle_alpha   90.00000000
_cell_angle_beta   90.00000000
_cell_angle_gamma   90.00000000
_symmetry_Int_Tables_number   1
_chemical_formula_structural   SiIr
_chemical_formula_sum   'Si4 Ir4'
_cell_volume   115.11763159
_cell_formula_units_Z   4
loop_
 _symmetry_equiv_pos_site_id
 _symmetry_equiv_pos_as_xyz
  1  'x, y, z'
loop_
 _atom_site_type_symbol
 _atom_site_label
 _atom_site_symmetry_multiplicity
 _atom_site_fract_x
 _atom_site_fract_y
 _atom_site_fract_z
 _atom_site_occupancy
  Si  Si0  1  0.250000  0.682845  0.060323  1
  Si  Si1  1  0.750000  0.317155  0.939677  1
  Si  Si2  1  0.250000  0.182845  0.439677  1
  Si  Si3  1  0.750000  0.817155  0.560323  1
  Ir  Ir4  1  0.250000  0.501653  0.705565  1
  Ir  Ir5  1  0.750000  0.498347  0.294435  1
  Ir  Ir6  1  0.250000  0.001653  0.794435  1
  Ir  Ir7  1  0.750000  0.998347  0.205565  1
