# generated using pymatgen
data_NbPbS2
_symmetry_space_group_name_H-M   'P 1'
_cell_length_a   3.39328418
_cell_length_b   3.39328418
_cell_length_c   17.95643362
_cell_angle_alpha   90.00000000
_cell_angle_beta   90.00000000
_cell_angle_gamma   120.00000000
_symmetry_Int_Tables_number   1
_chemical_formula_structural   NbPbS2
_chemical_formula_sum   'Nb2 Pb2 S4'
_cell_volume   179.05694917
_cell_formula_units_Z   2
loop_
 _symmetry_equiv_pos_site_id
 _symmetry_equiv_pos_as_xyz
  1  'x, y, z'
loop_
 _atom_site_type_symbol
 _atom_site_label
 _atom_site_symmetry_multiplicity
 _atom_site_fract_x
 _atom_site_fract_y
 _atom_site_fract_z
 _atom_site_occupancy
  Nb  Nb0  1  0.666667  0.333333  0.750000  1
  Nb  Nb1  1  0.333333  0.666667  0.250000  1
  Pb  Pb2  1  0.000000  0.000000  0.000000  1
  Pb  Pb3  1  0.000000  0.000000  0.500000  1
  S  S4  1  0.000000  0.000000  0.163915  1
  S  S5  1  0.000000  0.000000  0.663915  1
  S  S6  1  0.000000  0.000000  0.336085  1
  S  S7  1  0.000000  0.000000  0.836085  1
