# generated using pymatgen
data_Li3Fe2(PO4)3
_symmetry_space_group_name_H-M   'P 1'
_cell_length_a   9.03607456
_cell_length_b   9.03607456
_cell_length_c   9.03607456
_cell_angle_alpha   55.56637901
_cell_angle_beta   55.56637901
_cell_angle_gamma   55.56637901
_symmetry_Int_Tables_number   1
_chemical_formula_structural   Li3Fe2(PO4)3
_chemical_formula_sum   'Li6 Fe4 P6 O24'
_cell_volume   468.01508036
_cell_formula_units_Z   2
loop_
 _symmetry_equiv_pos_site_id
 _symmetry_equiv_pos_as_xyz
  1  'x, y, z'
loop_
 _atom_site_type_symbol
 _atom_site_label
 _atom_site_symmetry_multiplicity
 _atom_site_fract_x
 _atom_site_fract_y
 _atom_site_fract_z
 _atom_site_occupancy
  Li  Li0  1  0.665736  0.924199  0.263358  1
  Li  Li1  1  0.263358  0.665736  0.924199  1
  Li  Li2  1  0.924199  0.263358  0.665736  1
  Li  Li3  1  0.334264  0.075801  0.736642  1
  Li  Li4  1  0.736642  0.334264  0.075801  1
  Li  Li5  1  0.075801  0.736642  0.334264  1
  Fe  Fe6  1  0.853414  0.853414  0.853414  1
  Fe  Fe7  1  0.146586  0.146586  0.146586  1
  Fe  Fe8  1  0.348373  0.348373  0.348373  1
  Fe  Fe9  1  0.651627  0.651627  0.651627  1
  P  P10  1  0.748230  0.042530  0.460378  1
  P  P11  1  0.460378  0.748230  0.042530  1
  P  P12  1  0.042530  0.460378  0.748230  1
  P  P13  1  0.251770  0.957470  0.539622  1
  P  P14  1  0.539622  0.251770  0.957470  1
  P  P15  1  0.957470  0.539622  0.251770  1
  O  O16  1  0.797375  0.008412  0.615089  1
  O  O17  1  0.615089  0.797375  0.008412  1
  O  O18  1  0.008412  0.615089  0.797375  1
  O  O19  1  0.202625  0.991588  0.384911  1
  O  O20  1  0.384911  0.202625  0.991588  1
  O  O21  1  0.991588  0.384911  0.202625  1
  O  O22  1  0.209651  0.154947  0.536628  1
  O  O23  1  0.536628  0.209651  0.154947  1
  O  O24  1  0.154947  0.536628  0.209651  1
  O  O25  1  0.790349  0.845053  0.463372  1
  O  O26  1  0.463372  0.790349  0.845053  1
  O  O27  1  0.845053  0.463372  0.790349  1
  O  O28  1  0.531825  0.167526  0.492463  1
  O  O29  1  0.492463  0.531825  0.167526  1
  O  O30  1  0.167526  0.492463  0.531825  1
  O  O31  1  0.468175  0.832474  0.507537  1
  O  O32  1  0.507537  0.468175  0.832474  1
  O  O33  1  0.832474  0.507537  0.468175  1
  O  O34  1  0.124968  0.862976  0.745515  1
  O  O35  1  0.745515  0.124968  0.862976  1
  O  O36  1  0.862976  0.745515  0.124968  1
  O  O37  1  0.875032  0.137024  0.254485  1
  O  O38  1  0.254485  0.875032  0.137024  1
  O  O39  1  0.137024  0.254485  0.875032  1
