# generated using pymatgen
data_CeScSi
_symmetry_space_group_name_H-M   'P 1'
_cell_length_a   8.48675702
_cell_length_b   8.48675702
_cell_length_c   8.48675702
_cell_angle_alpha   151.06745533
_cell_angle_beta   151.06745533
_cell_angle_gamma   41.37671615
_symmetry_Int_Tables_number   1
_chemical_formula_structural   CeScSi
_chemical_formula_sum   'Ce2 Sc2 Si2'
_cell_volume   142.74347302
_cell_formula_units_Z   2
loop_
 _symmetry_equiv_pos_site_id
 _symmetry_equiv_pos_as_xyz
  1  'x, y, z'
loop_
 _atom_site_type_symbol
 _atom_site_label
 _atom_site_symmetry_multiplicity
 _atom_site_fract_x
 _atom_site_fract_y
 _atom_site_fract_z
 _atom_site_occupancy
  Ce  Ce0  1  0.678946  0.678946  0.000000  1
  Ce  Ce1  1  0.321054  0.321054  0.000000  1
  Sc  Sc2  1  0.000000  0.500000  0.500000  1
  Sc  Sc3  1  0.500000  0.000000  0.500000  1
  Si  Si4  1  0.877100  0.877100  0.000000  1
  Si  Si5  1  0.122900  0.122900  0.000000  1
