# generated using pymatgen
data_Ca(BIr)2
_symmetry_space_group_name_H-M   'P 1'
_cell_length_a   7.12004463
_cell_length_b   6.15789422
_cell_length_c   5.52560437
_cell_angle_alpha   74.87468201
_cell_angle_beta   56.60606496
_cell_angle_gamma   48.51925303
_symmetry_Int_Tables_number   1
_chemical_formula_structural   Ca(BIr)2
_chemical_formula_sum   'Ca2 B4 Ir4'
_cell_volume   149.44233169
_cell_formula_units_Z   2
loop_
 _symmetry_equiv_pos_site_id
 _symmetry_equiv_pos_as_xyz
  1  'x, y, z'
loop_
 _atom_site_type_symbol
 _atom_site_label
 _atom_site_symmetry_multiplicity
 _atom_site_fract_x
 _atom_site_fract_y
 _atom_site_fract_z
 _atom_site_occupancy
  Ca  Ca0  1  0.500000  0.500000  0.500000  1
  Ca  Ca1  1  0.750000  0.750000  0.750000  1
  B  B2  1  0.822601  0.177399  0.822601  1
  B  B3  1  0.072601  0.427399  0.072601  1
  B  B4  1  0.177399  0.822601  0.177399  1
  B  B5  1  0.427399  0.072601  0.427399  1
  Ir  Ir6  1  0.129824  0.129824  0.870176  1
  Ir  Ir7  1  0.379824  0.379824  0.120176  1
  Ir  Ir8  1  0.120176  0.120176  0.379824  1
  Ir  Ir9  1  0.870176  0.870176  0.129824  1
