# generated using pymatgen
data_Mn7SiO12
_symmetry_space_group_name_H-M   'P 1'
_cell_length_a   11.69227151
_cell_length_b   11.69227151
_cell_length_c   11.69227151
_cell_angle_alpha   131.54302296
_cell_angle_beta   131.54302296
_cell_angle_gamma   70.95173711
_symmetry_Int_Tables_number   1
_chemical_formula_structural   Mn7SiO12
_chemical_formula_sum   'Mn28 Si4 O48'
_cell_volume   876.87581410
_cell_formula_units_Z   4
loop_
 _symmetry_equiv_pos_site_id
 _symmetry_equiv_pos_as_xyz
  1  'x, y, z'
loop_
 _atom_site_type_symbol
 _atom_site_label
 _atom_site_symmetry_multiplicity
 _atom_site_fract_x
 _atom_site_fract_y
 _atom_site_fract_z
 _atom_site_occupancy
  Mn  Mn0  1  0.625000  0.841680  0.716680  1
  Mn  Mn1  1  0.125000  0.408320  0.783320  1
  Mn  Mn2  1  0.625000  0.341680  0.216680  1
  Mn  Mn3  1  0.591680  0.375000  0.716680  1
  Mn  Mn4  1  0.375000  0.125000  0.750000  1
  Mn  Mn5  1  0.375000  0.625000  0.250000  1
  Mn  Mn6  1  0.875000  0.125000  0.250000  1
  Mn  Mn7  1  0.875000  0.625000  0.250000  1
  Mn  Mn8  1  0.375000  0.625000  0.750000  1
  Mn  Mn9  1  0.875000  0.125000  0.750000  1
  Mn  Mn10  1  0.375000  0.125000  0.250000  1
  Mn  Mn11  1  0.875000  0.625000  0.750000  1
  Mn  Mn12  1  0.733168  0.233168  0.966335  1
  Mn  Mn13  1  0.766832  0.733168  0.500000  1
  Mn  Mn14  1  0.233168  0.266832  0.500000  1
  Mn  Mn15  1  0.266832  0.766832  0.033665  1
  Mn  Mn16  1  0.016832  0.016832  0.533665  1
  Mn  Mn17  1  0.983168  0.516832  0.000000  1
  Mn  Mn18  1  0.516832  0.983168  0.000000  1
  Mn  Mn19  1  0.483168  0.483168  0.466335  1
  Mn  Mn20  1  0.158320  0.875000  0.783320  1
  Mn  Mn21  1  0.125000  0.908320  0.283320  1
  Mn  Mn22  1  0.658320  0.875000  0.283320  1
  Mn  Mn23  1  0.091680  0.375000  0.216680  1
  Mn  Mn24  1  0.750000  0.750000  0.000000  1
  Mn  Mn25  1  0.250000  0.250000  0.000000  1
  Mn  Mn26  1  0.500000  0.000000  0.500000  1
  Mn  Mn27  1  0.000000  0.500000  0.500000  1
  Si  Si28  1  0.000000  0.000000  0.000000  1
  Si  Si29  1  0.750000  0.250000  0.500000  1
  Si  Si30  1  0.250000  0.750000  0.500000  1
  Si  Si31  1  0.500000  0.500000  0.000000  1
  O  O32  1  0.574928  0.036301  0.752592  1
  O  O33  1  0.283709  0.822336  0.247408  1
  O  O34  1  0.074928  0.322336  0.538628  1
  O  O35  1  0.963699  0.716291  0.538628  1
  O  O36  1  0.177664  0.425072  0.461372  1
  O  O37  1  0.677664  0.216291  0.752592  1
  O  O38  1  0.463699  0.925072  0.247408  1
  O  O39  1  0.783709  0.536301  0.461372  1
  O  O40  1  0.675072  0.927664  0.961372  1
  O  O41  1  0.966291  0.713699  0.038628  1
  O  O42  1  0.175072  0.213699  0.747408  1
  O  O43  1  0.072336  0.033709  0.747408  1
  O  O44  1  0.286301  0.324928  0.252592  1
  O  O45  1  0.786301  0.533709  0.961372  1
  O  O46  1  0.572336  0.824928  0.038628  1
  O  O47  1  0.466291  0.427664  0.252592  1
  O  O48  1  0.032542  0.063120  0.194768  1
  O  O49  1  0.868352  0.837774  0.805232  1
  O  O50  1  0.532542  0.337774  0.969423  1
  O  O51  1  0.960281  0.991483  0.316669  1
  O  O52  1  0.936880  0.131648  0.969423  1
  O  O53  1  0.662226  0.631648  0.194768  1
  O  O54  1  0.436880  0.467458  0.805232  1
  O  O55  1  0.368352  0.563120  0.030577  1
  O  O56  1  0.289719  0.106388  0.531202  1
  O  O57  1  0.575186  0.758517  0.468798  1
  O  O58  1  0.789719  0.258517  0.183331  1
  O  O59  1  0.893612  0.424814  0.183331  1
  O  O60  1  0.241483  0.710281  0.816669  1
  O  O61  1  0.741483  0.924814  0.531202  1
  O  O62  1  0.393612  0.210281  0.468798  1
  O  O63  1  0.075186  0.606388  0.816669  1
  O  O64  1  0.881648  0.412226  0.694768  1
  O  O65  1  0.587774  0.282542  0.469423  1
  O  O66  1  0.813120  0.118352  0.530577  1
  O  O67  1  0.313120  0.782542  0.694768  1
  O  O68  1  0.087774  0.618352  0.305232  1
  O  O69  1  0.717458  0.186880  0.305232  1
  O  O70  1  0.381648  0.686880  0.469423  1
  O  O71  1  0.217458  0.912226  0.530577  1
  O  O72  1  0.174814  0.491483  0.031202  1
  O  O73  1  0.508517  0.539719  0.683331  1
  O  O74  1  0.856388  0.825186  0.316669  1
  O  O75  1  0.356388  0.039719  0.031202  1
  O  O76  1  0.008517  0.325186  0.968798  1
  O  O77  1  0.460281  0.143612  0.968798  1
  O  O78  1  0.674814  0.643612  0.683331  1
  O  O79  1  0.162226  0.967458  0.030577  1
