# generated using pymatgen
data_LuVO4
_symmetry_space_group_name_H-M   'P 1'
_cell_length_a   5.90312140
_cell_length_b   5.90312140
_cell_length_c   5.90312140
_cell_angle_alpha   106.43443365
_cell_angle_beta   106.43443365
_cell_angle_gamma   115.73211811
_symmetry_Int_Tables_number   1
_chemical_formula_structural   LuVO4
_chemical_formula_sum   'Lu2 V2 O8'
_cell_volume   156.91853318
_cell_formula_units_Z   2
loop_
 _symmetry_equiv_pos_site_id
 _symmetry_equiv_pos_as_xyz
  1  'x, y, z'
loop_
 _atom_site_type_symbol
 _atom_site_label
 _atom_site_symmetry_multiplicity
 _atom_site_fract_x
 _atom_site_fract_y
 _atom_site_fract_z
 _atom_site_occupancy
  Lu  Lu0  1  0.000000  0.000000  0.000000  1
  Lu  Lu1  1  0.250000  0.750000  0.500000  1
  V  V2  1  0.750000  0.250000  0.500000  1
  V  V3  1  0.500000  0.500000  0.000000  1
  O  O4  1  0.866421  0.678462  0.187959  1
  O  O5  1  0.928462  0.240503  0.312041  1
  O  O6  1  0.928462  0.616421  0.687959  1
  O  O7  1  0.490503  0.678462  0.812041  1
  O  O8  1  0.321538  0.509497  0.187959  1
  O  O9  1  0.383579  0.071538  0.312041  1
  O  O10  1  0.759497  0.071538  0.687959  1
  O  O11  1  0.321538  0.133579  0.812041  1
