# generated using pymatgen
data_MoP2
_symmetry_space_group_name_H-M   'P 1'
_cell_length_a   5.84205078
_cell_length_b   5.84205078
_cell_length_c   5.01065940
_cell_angle_alpha   90.00000000
_cell_angle_beta   90.00000000
_cell_angle_gamma   148.63176291
_symmetry_Int_Tables_number   1
_chemical_formula_structural   MoP2
_chemical_formula_sum   'Mo2 P4'
_cell_volume   89.01775089
_cell_formula_units_Z   2
loop_
 _symmetry_equiv_pos_site_id
 _symmetry_equiv_pos_as_xyz
  1  'x, y, z'
loop_
 _atom_site_type_symbol
 _atom_site_label
 _atom_site_symmetry_multiplicity
 _atom_site_fract_x
 _atom_site_fract_y
 _atom_site_fract_z
 _atom_site_occupancy
  Mo  Mo0  1  0.906265  0.093735  0.498391  1
  Mo  Mo1  1  0.093735  0.906265  0.998391  1
  P  P2  1  0.569543  0.430457  0.380494  1
  P  P3  1  0.430457  0.569543  0.880494  1
  P  P4  1  0.298149  0.701851  0.196115  1
  P  P5  1  0.701851  0.298149  0.696115  1
