# generated using pymatgen
data_SrP3
_symmetry_space_group_name_H-M   'P 1'
_cell_length_a   5.90416269
_cell_length_b   5.90416269
_cell_length_c   5.74408841
_cell_angle_alpha   71.89738579
_cell_angle_beta   108.10261421
_cell_angle_gamma   102.97785954
_symmetry_Int_Tables_number   1
_chemical_formula_structural   SrP3
_chemical_formula_sum   'Sr2 P6'
_cell_volume   179.07641160
_cell_formula_units_Z   2
loop_
 _symmetry_equiv_pos_site_id
 _symmetry_equiv_pos_as_xyz
  1  'x, y, z'
loop_
 _atom_site_type_symbol
 _atom_site_label
 _atom_site_symmetry_multiplicity
 _atom_site_fract_x
 _atom_site_fract_y
 _atom_site_fract_z
 _atom_site_occupancy
  Sr  Sr0  1  0.662990  0.337010  0.852493  1
  Sr  Sr1  1  0.337010  0.662990  0.147507  1
  P  P2  1  0.988597  0.011403  0.690814  1
  P  P3  1  0.011403  0.988597  0.309186  1
  P  P4  1  0.885241  0.604990  0.320940  1
  P  P5  1  0.604990  0.885241  0.679060  1
  P  P6  1  0.114759  0.395010  0.679060  1
  P  P7  1  0.395010  0.114759  0.320940  1
