# generated using pymatgen
data_Lu(Al2Fe)4
_symmetry_space_group_name_H-M   'P 1'
_cell_length_a   6.61264343
_cell_length_b   6.61264343
_cell_length_c   6.61264343
_cell_angle_alpha   98.26112273
_cell_angle_beta   98.26112273
_cell_angle_gamma   135.44934693
_symmetry_Int_Tables_number   1
_chemical_formula_structural   Lu(Al2Fe)4
_chemical_formula_sum   'Lu1 Al8 Fe4'
_cell_volume   187.71298509
_cell_formula_units_Z   1
loop_
 _symmetry_equiv_pos_site_id
 _symmetry_equiv_pos_as_xyz
  1  'x, y, z'
loop_
 _atom_site_type_symbol
 _atom_site_label
 _atom_site_symmetry_multiplicity
 _atom_site_fract_x
 _atom_site_fract_y
 _atom_site_fract_z
 _atom_site_occupancy
  Lu  Lu0  1  0.000000  0.000000  0.000000  1
  Al  Al1  1  0.660833  0.000000  0.660833  1
  Al  Al2  1  0.500000  0.280644  0.780644  1
  Al  Al3  1  0.719356  0.500000  0.219356  1
  Al  Al4  1  0.280644  0.500000  0.780644  1
  Al  Al5  1  0.500000  0.719356  0.219356  1
  Al  Al6  1  0.339167  0.000000  0.339167  1
  Al  Al7  1  0.000000  0.339167  0.339167  1
  Al  Al8  1  0.000000  0.660833  0.660833  1
  Fe  Fe9  1  0.500000  0.500000  0.500000  1
  Fe  Fe10  1  0.000000  0.500000  1.000000  1
  Fe  Fe11  1  0.500000  0.000000  1.000000  1
  Fe  Fe12  1  0.000000  0.000000  0.500000  1
