# generated using pymatgen
data_Ho2Si3Rh
_symmetry_space_group_name_H-M   'P 1'
_cell_length_a   8.16080571
_cell_length_b   8.16080571
_cell_length_c   7.85895099
_cell_angle_alpha   90.00000000
_cell_angle_beta   90.00000000
_cell_angle_gamma   120.00000000
_symmetry_Int_Tables_number   1
_chemical_formula_structural   Ho2Si3Rh
_chemical_formula_sum   'Ho8 Si12 Rh4'
_cell_volume   453.27450188
_cell_formula_units_Z   4
loop_
 _symmetry_equiv_pos_site_id
 _symmetry_equiv_pos_as_xyz
  1  'x, y, z'
loop_
 _atom_site_type_symbol
 _atom_site_label
 _atom_site_symmetry_multiplicity
 _atom_site_fract_x
 _atom_site_fract_y
 _atom_site_fract_z
 _atom_site_occupancy
  Ho  Ho0  1  0.000000  0.000000  0.750000  1
  Ho  Ho1  1  0.000000  0.000000  0.250000  1
  Ho  Ho2  1  0.491063  0.982126  0.750000  1
  Ho  Ho3  1  0.491063  0.508937  0.750000  1
  Ho  Ho4  1  0.017874  0.508937  0.750000  1
  Ho  Ho5  1  0.508937  0.017874  0.250000  1
  Ho  Ho6  1  0.508937  0.491063  0.250000  1
  Ho  Ho7  1  0.982126  0.491063  0.250000  1
  Si  Si8  1  0.833185  0.666371  0.500679  1
  Si  Si9  1  0.833185  0.166815  0.500679  1
  Si  Si10  1  0.333629  0.166815  0.500679  1
  Si  Si11  1  0.166815  0.333629  0.499321  1
  Si  Si12  1  0.166815  0.833185  0.499321  1
  Si  Si13  1  0.666371  0.833185  0.499321  1
  Si  Si14  1  0.166815  0.333629  0.000679  1
  Si  Si15  1  0.166815  0.833185  0.000679  1
  Si  Si16  1  0.666371  0.833185  0.000679  1
  Si  Si17  1  0.833185  0.666371  0.999321  1
  Si  Si18  1  0.833185  0.166815  0.999321  1
  Si  Si19  1  0.333629  0.166815  0.999321  1
  Rh  Rh20  1  0.666667  0.333333  0.533320  1
  Rh  Rh21  1  0.333333  0.666667  0.466680  1
  Rh  Rh22  1  0.333333  0.666667  0.033320  1
  Rh  Rh23  1  0.666667  0.333333  0.966680  1
