# generated using pymatgen
data_HoCd3
_symmetry_space_group_name_H-M   'P 1'
_cell_length_a   6.51580412
_cell_length_b   6.51580412
_cell_length_c   4.88082652
_cell_angle_alpha   90.00000000
_cell_angle_beta   90.00000000
_cell_angle_gamma   113.01958773
_symmetry_Int_Tables_number   1
_chemical_formula_structural   HoCd3
_chemical_formula_sum   'Ho2 Cd6'
_cell_volume   190.71833279
_cell_formula_units_Z   2
loop_
 _symmetry_equiv_pos_site_id
 _symmetry_equiv_pos_as_xyz
  1  'x, y, z'
loop_
 _atom_site_type_symbol
 _atom_site_label
 _atom_site_symmetry_multiplicity
 _atom_site_fract_x
 _atom_site_fract_y
 _atom_site_fract_z
 _atom_site_occupancy
  Ho  Ho0  1  0.633164  0.366836  0.250000  1
  Ho  Ho1  1  0.366836  0.633164  0.750000  1
  Cd  Cd2  1  0.176839  0.823161  0.250000  1
  Cd  Cd3  1  0.823161  0.176839  0.750000  1
  Cd  Cd4  1  0.119482  0.310867  0.250000  1
  Cd  Cd5  1  0.880518  0.689133  0.750000  1
  Cd  Cd6  1  0.310867  0.119482  0.750000  1
  Cd  Cd7  1  0.689133  0.880518  0.250000  1
