# generated using pymatgen
data_K3Na2SnP3
_symmetry_space_group_name_H-M   'P 1'
_cell_length_a   10.60505979
_cell_length_b   10.60505979
_cell_length_c   15.15119137
_cell_angle_alpha   90.00000000
_cell_angle_beta   90.00000000
_cell_angle_gamma   143.09635570
_symmetry_Int_Tables_number   1
_chemical_formula_structural   K3Na2SnP3
_chemical_formula_sum   'K12 Na8 Sn4 P12'
_cell_volume   1023.21082958
_cell_formula_units_Z   4
loop_
 _symmetry_equiv_pos_site_id
 _symmetry_equiv_pos_as_xyz
  1  'x, y, z'
loop_
 _atom_site_type_symbol
 _atom_site_label
 _atom_site_symmetry_multiplicity
 _atom_site_fract_x
 _atom_site_fract_y
 _atom_site_fract_z
 _atom_site_occupancy
  K  K0  1  0.102748  0.436706  0.676809  1
  K  K1  1  0.740866  0.740866  0.680032  1
  K  K2  1  0.240866  0.240866  0.819968  1
  K  K3  1  0.759134  0.759134  0.180032  1
  K  K4  1  0.936706  0.602748  0.823191  1
  K  K5  1  0.563294  0.897252  0.323191  1
  K  K6  1  0.397252  0.063294  0.176809  1
  K  K7  1  0.063294  0.397252  0.176809  1
  K  K8  1  0.897252  0.563294  0.323191  1
  K  K9  1  0.436706  0.102748  0.676809  1
  K  K10  1  0.602748  0.936707  0.823191  1
  K  K11  1  0.259134  0.259134  0.319968  1
  Na  Na12  1  0.919175  0.080825  0.000000  1
  Na  Na13  1  0.580825  0.419175  0.500000  1
  Na  Na14  1  0.080825  0.919175  0.000000  1
  Na  Na15  1  0.419175  0.580825  0.500000  1
  Na  Na16  1  0.755193  0.244807  0.000000  1
  Na  Na17  1  0.744807  0.255193  0.500000  1
  Na  Na18  1  0.244807  0.755193  0.000000  1
  Na  Na19  1  0.255193  0.744807  0.500000  1
  Sn  Sn20  1  0.088150  0.911850  0.500000  1
  Sn  Sn21  1  0.411850  0.588150  0.000000  1
  Sn  Sn22  1  0.911850  0.088150  0.500000  1
  Sn  Sn23  1  0.588150  0.411850  0.000000  1
  P  P24  1  0.876966  0.561488  0.103576  1
  P  P25  1  0.438512  0.123034  0.896424  1
  P  P26  1  0.623034  0.938512  0.603576  1
  P  P27  1  0.938512  0.623034  0.603576  1
  P  P28  1  0.123034  0.438512  0.896424  1
  P  P29  1  0.561488  0.876966  0.103576  1
  P  P30  1  0.376966  0.061488  0.396424  1
  P  P31  1  0.203376  0.203376  0.592439  1
  P  P32  1  0.703376  0.703376  0.907561  1
  P  P33  1  0.296624  0.296624  0.092439  1
  P  P34  1  0.061488  0.376966  0.396424  1
  P  P35  1  0.796624  0.796624  0.407561  1
