# generated using pymatgen
data_Y3FeB7
_symmetry_space_group_name_H-M   'P 1'
_cell_length_a   8.04952868
_cell_length_b   8.04952868
_cell_length_c   9.31454015
_cell_angle_alpha   90.00000000
_cell_angle_beta   90.00000000
_cell_angle_gamma   155.46150081
_symmetry_Int_Tables_number   1
_chemical_formula_structural   Y3FeB7
_chemical_formula_sum   'Y6 Fe2 B14'
_cell_volume   250.65077397
_cell_formula_units_Z   2
loop_
 _symmetry_equiv_pos_site_id
 _symmetry_equiv_pos_as_xyz
  1  'x, y, z'
loop_
 _atom_site_type_symbol
 _atom_site_label
 _atom_site_symmetry_multiplicity
 _atom_site_fract_x
 _atom_site_fract_y
 _atom_site_fract_z
 _atom_site_occupancy
  Y  Y0  1  0.757395  0.242605  0.250000  1
  Y  Y1  1  0.242605  0.757395  0.750000  1
  Y  Y2  1  0.895178  0.104822  0.560622  1
  Y  Y3  1  0.104822  0.895178  0.439378  1
  Y  Y4  1  0.104822  0.895178  0.060622  1
  Y  Y5  1  0.895178  0.104822  0.939378  1
  Fe  Fe6  1  0.945678  0.054322  0.250000  1
  Fe  Fe7  1  0.054322  0.945678  0.750000  1
  B  B8  1  0.539376  0.460624  0.250000  1
  B  B9  1  0.460624  0.539376  0.750000  1
  B  B10  1  0.521866  0.478134  0.901349  1
  B  B11  1  0.478134  0.521866  0.098651  1
  B  B12  1  0.478134  0.521866  0.401349  1
  B  B13  1  0.521866  0.478134  0.598651  1
  B  B14  1  0.629775  0.370225  0.846796  1
  B  B15  1  0.370225  0.629775  0.153204  1
  B  B16  1  0.727525  0.272475  0.966980  1
  B  B17  1  0.272475  0.727525  0.033020  1
  B  B18  1  0.272475  0.727525  0.466980  1
  B  B19  1  0.727525  0.272475  0.533020  1
  B  B20  1  0.629775  0.370225  0.653204  1
  B  B21  1  0.370225  0.629775  0.346796  1
