# generated using pymatgen
data_Si4P4Ru
_symmetry_space_group_name_H-M   'P 1'
_cell_length_a   4.97029001
_cell_length_b   5.66587684
_cell_length_c   6.20829304
_cell_angle_alpha   85.59443555
_cell_angle_beta   111.72994021
_cell_angle_gamma   109.24558413
_symmetry_Int_Tables_number   1
_chemical_formula_structural   Si4P4Ru
_chemical_formula_sum   'Si4 P4 Ru1'
_cell_volume   153.12812631
_cell_formula_units_Z   1
loop_
 _symmetry_equiv_pos_site_id
 _symmetry_equiv_pos_as_xyz
  1  'x, y, z'
loop_
 _atom_site_type_symbol
 _atom_site_label
 _atom_site_symmetry_multiplicity
 _atom_site_fract_x
 _atom_site_fract_y
 _atom_site_fract_z
 _atom_site_occupancy
  Si  Si0  1  0.670220  0.224384  0.773619  1
  Si  Si1  1  0.237463  0.656247  0.567712  1
  Si  Si2  1  0.358840  0.405517  0.119103  1
  Si  Si3  1  0.844262  0.027174  0.310639  1
  P  P4  1  0.159942  0.984831  0.681286  1
  P  P5  1  0.621573  0.588978  0.877939  1
  P  P6  1  0.766435  0.357797  0.436424  1
  P  P7  1  0.341355  0.773001  0.241288  1
  Ru  Ru8  1  0.999810  0.000271  0.000489  1
