# generated using pymatgen
data_Ca2GeO4
_symmetry_space_group_name_H-M   'P 1'
_cell_length_a   5.80323167
_cell_length_b   5.80323167
_cell_length_c   6.86051053
_cell_angle_alpha   90.00000000
_cell_angle_beta   90.00000000
_cell_angle_gamma   120.00000000
_symmetry_Int_Tables_number   1
_chemical_formula_structural   Ca2GeO4
_chemical_formula_sum   'Ca4 Ge2 O8'
_cell_volume   200.09069084
_cell_formula_units_Z   2
loop_
 _symmetry_equiv_pos_site_id
 _symmetry_equiv_pos_as_xyz
  1  'x, y, z'
loop_
 _atom_site_type_symbol
 _atom_site_label
 _atom_site_symmetry_multiplicity
 _atom_site_fract_x
 _atom_site_fract_y
 _atom_site_fract_z
 _atom_site_occupancy
  Ca  Ca0  1  0.666667  0.333333  0.365372  1
  Ca  Ca1  1  0.333333  0.666667  0.634628  1
  Ca  Ca2  1  0.000000  0.000000  0.500000  1
  Ca  Ca3  1  0.000000  0.000000  0.000000  1
  Ge  Ge4  1  0.666667  0.333333  0.812295  1
  Ge  Ge5  1  0.333333  0.666667  0.187705  1
  O  O6  1  0.666667  0.333333  0.062009  1
  O  O7  1  0.333333  0.666667  0.937991  1
  O  O8  1  0.345886  0.172943  0.703905  1
  O  O9  1  0.827057  0.654114  0.703905  1
  O  O10  1  0.827057  0.172943  0.703905  1
  O  O11  1  0.654114  0.827057  0.296095  1
  O  O12  1  0.172943  0.345886  0.296095  1
  O  O13  1  0.172943  0.827057  0.296095  1
