# generated using pymatgen
data_LiGa(WO4)2
_symmetry_space_group_name_H-M   'P 1'
_cell_length_a   5.01207409
_cell_length_b   5.73776952
_cell_length_c   9.46010833
_cell_angle_alpha   90.00000000
_cell_angle_beta   91.06362616
_cell_angle_gamma   90.00000000
_symmetry_Int_Tables_number   1
_chemical_formula_structural   LiGa(WO4)2
_chemical_formula_sum   'Li2 Ga2 W4 O16'
_cell_volume   272.00811127
_cell_formula_units_Z   2
loop_
 _symmetry_equiv_pos_site_id
 _symmetry_equiv_pos_as_xyz
  1  'x, y, z'
loop_
 _atom_site_type_symbol
 _atom_site_label
 _atom_site_symmetry_multiplicity
 _atom_site_fract_x
 _atom_site_fract_y
 _atom_site_fract_z
 _atom_site_occupancy
  Li  Li0  1  0.250000  0.347387  0.500000  1
  Li  Li1  1  0.750000  0.652613  0.500000  1
  Ga  Ga2  1  0.250000  0.337566  0.000000  1
  Ga  Ga3  1  0.750000  0.662434  0.000000  1
  W  W4  1  0.760458  0.177001  0.248542  1
  W  W5  1  0.739542  0.177001  0.751458  1
  W  W6  1  0.260458  0.822999  0.248542  1
  W  W7  1  0.239542  0.822999  0.751458  1
  O  O8  1  0.590133  0.380499  0.112661  1
  O  O9  1  0.078082  0.121084  0.129702  1
  O  O10  1  0.421918  0.121084  0.870298  1
  O  O11  1  0.921918  0.878916  0.870298  1
  O  O12  1  0.578082  0.878916  0.129702  1
  O  O13  1  0.441018  0.100790  0.346177  1
  O  O14  1  0.397250  0.621709  0.371804  1
  O  O15  1  0.909867  0.380499  0.887339  1
  O  O16  1  0.409867  0.619501  0.887339  1
  O  O17  1  0.090133  0.619501  0.112661  1
  O  O18  1  0.102750  0.621709  0.628196  1
  O  O19  1  0.558982  0.899210  0.653823  1
  O  O20  1  0.602750  0.378291  0.628196  1
  O  O21  1  0.897250  0.378291  0.371804  1
  O  O22  1  0.941018  0.899210  0.346177  1
  O  O23  1  0.058982  0.100790  0.653823  1
