# generated using pymatgen
data_K3Sm(PO4)2
_symmetry_space_group_name_H-M   'P 1'
_cell_length_a   7.56000845
_cell_length_b   5.73040034
_cell_length_c   9.57348030
_cell_angle_alpha   90.00000000
_cell_angle_beta   91.11727348
_cell_angle_gamma   90.00000000
_symmetry_Int_Tables_number   1
_chemical_formula_structural   K3Sm(PO4)2
_chemical_formula_sum   'K6 Sm2 P4 O16'
_cell_volume   414.66226579
_cell_formula_units_Z   2
loop_
 _symmetry_equiv_pos_site_id
 _symmetry_equiv_pos_as_xyz
  1  'x, y, z'
loop_
 _atom_site_type_symbol
 _atom_site_label
 _atom_site_symmetry_multiplicity
 _atom_site_fract_x
 _atom_site_fract_y
 _atom_site_fract_z
 _atom_site_occupancy
  K  K0  1  0.494790  0.250000  0.809377  1
  K  K1  1  0.505210  0.750000  0.190623  1
  K  K2  1  0.640868  0.250000  0.409746  1
  K  K3  1  0.359132  0.750000  0.590254  1
  K  K4  1  0.795330  0.750000  0.916097  1
  K  K5  1  0.204670  0.250000  0.083903  1
  Sm  Sm6  1  0.994244  0.250000  0.710601  1
  Sm  Sm7  1  0.005756  0.750000  0.289399  1
  P  P8  1  0.811283  0.750000  0.571862  1
  P  P9  1  0.230355  0.750000  0.912455  1
  P  P10  1  0.769645  0.250000  0.087545  1
  P  P11  1  0.188717  0.250000  0.428138  1
  O  O12  1  0.432813  0.750000  0.897535  1
  O  O13  1  0.849104  0.471938  0.160649  1
  O  O14  1  0.150896  0.971938  0.839351  1
  O  O15  1  0.150896  0.528062  0.839351  1
  O  O16  1  0.717445  0.750000  0.424776  1
  O  O17  1  0.282555  0.250000  0.575224  1
  O  O18  1  0.012922  0.750000  0.544175  1
  O  O19  1  0.987078  0.250000  0.455825  1
  O  O20  1  0.241212  0.028134  0.343962  1
  O  O21  1  0.758788  0.528134  0.656038  1
  O  O22  1  0.758788  0.971866  0.656038  1
  O  O23  1  0.241212  0.471866  0.343962  1
  O  O24  1  0.822742  0.250000  0.930770  1
  O  O25  1  0.177258  0.750000  0.069230  1
  O  O26  1  0.567187  0.250000  0.102465  1
  O  O27  1  0.849104  0.028062  0.160649  1
