# generated using pymatgen
data_Ba(SiIr)2
_symmetry_space_group_name_H-M   'P 1'
_cell_length_a   7.79051040
_cell_length_b   6.77458041
_cell_length_c   7.97733482
_cell_angle_alpha   90.00000000
_cell_angle_beta   91.83904015
_cell_angle_gamma   90.00000000
_symmetry_Int_Tables_number   1
_chemical_formula_structural   Ba(SiIr)2
_chemical_formula_sum   'Ba4 Si8 Ir8'
_cell_volume   420.80644517
_cell_formula_units_Z   4
loop_
 _symmetry_equiv_pos_site_id
 _symmetry_equiv_pos_as_xyz
  1  'x, y, z'
loop_
 _atom_site_type_symbol
 _atom_site_label
 _atom_site_symmetry_multiplicity
 _atom_site_fract_x
 _atom_site_fract_y
 _atom_site_fract_z
 _atom_site_occupancy
  Ba  Ba0  1  0.001486  0.380931  0.764522  1
  Ba  Ba1  1  0.498514  0.880931  0.235478  1
  Ba  Ba2  1  0.501486  0.119069  0.764522  1
  Ba  Ba3  1  0.998514  0.619069  0.235478  1
  Si  Si4  1  0.370961  0.419503  0.073370  1
  Si  Si5  1  0.187092  0.148058  0.436873  1
  Si  Si6  1  0.312908  0.648058  0.563127  1
  Si  Si7  1  0.812908  0.851942  0.563127  1
  Si  Si8  1  0.129039  0.919503  0.926630  1
  Si  Si9  1  0.629039  0.580497  0.926630  1
  Si  Si10  1  0.870961  0.080497  0.073370  1
  Si  Si11  1  0.687092  0.351942  0.436873  1
  Ir  Ir12  1  0.386323  0.394745  0.378476  1
  Ir  Ir13  1  0.613677  0.605255  0.621524  1
  Ir  Ir14  1  0.886323  0.105255  0.378476  1
  Ir  Ir15  1  0.169998  0.166814  0.137369  1
  Ir  Ir16  1  0.330002  0.666814  0.862631  1
  Ir  Ir17  1  0.830002  0.833186  0.862631  1
  Ir  Ir18  1  0.669998  0.333186  0.137369  1
  Ir  Ir19  1  0.113677  0.894745  0.621524  1
