# generated using pymatgen
data_CsZn4(BO3)3
_symmetry_space_group_name_H-M   'P 1'
_cell_length_a   7.00511851
_cell_length_b   5.07203969
_cell_length_c   13.17553745
_cell_angle_alpha   90.00000000
_cell_angle_beta   93.42345371
_cell_angle_gamma   90.00000000
_symmetry_Int_Tables_number   1
_chemical_formula_structural   CsZn4(BO3)3
_chemical_formula_sum   'Cs2 Zn8 B6 O18'
_cell_volume   467.29460308
_cell_formula_units_Z   2
loop_
 _symmetry_equiv_pos_site_id
 _symmetry_equiv_pos_as_xyz
  1  'x, y, z'
loop_
 _atom_site_type_symbol
 _atom_site_label
 _atom_site_symmetry_multiplicity
 _atom_site_fract_x
 _atom_site_fract_y
 _atom_site_fract_z
 _atom_site_occupancy
  Cs  Cs0  1  0.000000  0.265424  0.750000  1
  Cs  Cs1  1  0.000000  0.734576  0.250000  1
  Zn  Zn2  1  0.210586  0.169054  0.060565  1
  Zn  Zn3  1  0.789414  0.169054  0.439435  1
  Zn  Zn4  1  0.789414  0.830946  0.939435  1
  Zn  Zn5  1  0.210586  0.830946  0.560565  1
  Zn  Zn6  1  0.511504  0.352972  0.874270  1
  Zn  Zn7  1  0.488496  0.352972  0.625730  1
  Zn  Zn8  1  0.488496  0.647028  0.125730  1
  Zn  Zn9  1  0.511504  0.647028  0.374270  1
  B  B10  1  0.500000  0.847502  0.750000  1
  B  B11  1  0.500000  0.152498  0.250000  1
  B  B12  1  0.807266  0.344655  0.041997  1
  B  B13  1  0.192734  0.344655  0.458003  1
  B  B14  1  0.192734  0.655345  0.958003  1
  B  B15  1  0.807266  0.655345  0.541997  1
  O  O16  1  0.722623  0.200116  0.960793  1
  O  O17  1  0.277377  0.200116  0.539207  1
  O  O18  1  0.277377  0.799884  0.039207  1
  O  O19  1  0.722623  0.799884  0.460793  1
  O  O20  1  0.500000  0.123354  0.750000  1
  O  O21  1  0.500000  0.876646  0.250000  1
  O  O22  1  0.270992  0.401598  0.942281  1
  O  O23  1  0.729008  0.401598  0.557719  1
  O  O24  1  0.729008  0.598402  0.057719  1
  O  O25  1  0.270992  0.598402  0.442281  1
  O  O26  1  0.593986  0.709960  0.828945  1
  O  O27  1  0.406014  0.709960  0.671055  1
  O  O28  1  0.406014  0.290040  0.171055  1
  O  O29  1  0.593986  0.290040  0.328945  1
  O  O30  1  0.956887  0.252237  0.101365  1
  O  O31  1  0.043113  0.252237  0.398635  1
  O  O32  1  0.043113  0.747763  0.898635  1
  O  O33  1  0.956887  0.747763  0.601365  1
