# generated using pymatgen
data_Al2Cd3(SiO4)3
_symmetry_space_group_name_H-M   'P 1'
_cell_length_a   10.36994579
_cell_length_b   10.36994579
_cell_length_c   10.36994579
_cell_angle_alpha   109.47122063
_cell_angle_beta   109.47122063
_cell_angle_gamma   109.47122063
_symmetry_Int_Tables_number   1
_chemical_formula_structural   Al2Cd3(SiO4)3
_chemical_formula_sum   'Al8 Cd12 Si12 O48'
_cell_volume   858.43529844
_cell_formula_units_Z   4
loop_
 _symmetry_equiv_pos_site_id
 _symmetry_equiv_pos_as_xyz
  1  'x, y, z'
loop_
 _atom_site_type_symbol
 _atom_site_label
 _atom_site_symmetry_multiplicity
 _atom_site_fract_x
 _atom_site_fract_y
 _atom_site_fract_z
 _atom_site_occupancy
  Al  Al0  1  0.000000  0.500000  0.500000  1
  Al  Al1  1  0.500000  0.000000  0.500000  1
  Al  Al2  1  0.500000  0.500000  0.500000  1
  Al  Al3  1  0.500000  0.000000  0.000000  1
  Al  Al4  1  0.000000  0.000000  0.500000  1
  Al  Al5  1  0.000000  0.500000  0.000000  1
  Al  Al6  1  0.000000  0.000000  0.000000  1
  Al  Al7  1  0.500000  0.500000  0.000000  1
  Cd  Cd8  1  0.250000  0.875000  0.625000  1
  Cd  Cd9  1  0.875000  0.625000  0.250000  1
  Cd  Cd10  1  0.625000  0.875000  0.750000  1
  Cd  Cd11  1  0.875000  0.750000  0.625000  1
  Cd  Cd12  1  0.625000  0.250000  0.875000  1
  Cd  Cd13  1  0.750000  0.625000  0.875000  1
  Cd  Cd14  1  0.750000  0.125000  0.375000  1
  Cd  Cd15  1  0.125000  0.375000  0.750000  1
  Cd  Cd16  1  0.375000  0.125000  0.250000  1
  Cd  Cd17  1  0.125000  0.250000  0.375000  1
  Cd  Cd18  1  0.375000  0.750000  0.125000  1
  Cd  Cd19  1  0.250000  0.375000  0.125000  1
  Si  Si20  1  0.125000  0.875000  0.250000  1
  Si  Si21  1  0.375000  0.625000  0.750000  1
  Si  Si22  1  0.625000  0.750000  0.375000  1
  Si  Si23  1  0.250000  0.625000  0.375000  1
  Si  Si24  1  0.750000  0.375000  0.625000  1
  Si  Si25  1  0.875000  0.125000  0.750000  1
  Si  Si26  1  0.125000  0.750000  0.875000  1
  Si  Si27  1  0.625000  0.375000  0.250000  1
  Si  Si28  1  0.375000  0.250000  0.625000  1
  Si  Si29  1  0.750000  0.875000  0.125000  1
  Si  Si30  1  0.875000  0.250000  0.125000  1
  Si  Si31  1  0.250000  0.125000  0.875000  1
  O  O32  1  0.694528  0.688737  0.081548  1
  O  O33  1  0.688737  0.107189  0.994209  1
  O  O34  1  0.612980  0.694528  0.505791  1
  O  O35  1  0.505791  0.612980  0.694528  1
  O  O36  1  0.081548  0.887020  0.392811  1
  O  O37  1  0.392811  0.081548  0.887020  1
  O  O38  1  0.107189  0.994209  0.688737  1
  O  O39  1  0.612980  0.418452  0.107189  1
  O  O40  1  0.505791  0.392811  0.811263  1
  O  O41  1  0.887020  0.994209  0.805472  1
  O  O42  1  0.418452  0.107189  0.612980  1
  O  O43  1  0.811263  0.505791  0.392811  1
  O  O44  1  0.994209  0.805472  0.887020  1
  O  O45  1  0.081548  0.694528  0.688737  1
  O  O46  1  0.688737  0.081548  0.694528  1
  O  O47  1  0.107189  0.612980  0.418452  1
  O  O48  1  0.811263  0.805472  0.418452  1
  O  O49  1  0.392811  0.811263  0.505791  1
  O  O50  1  0.418452  0.811263  0.805472  1
  O  O51  1  0.805472  0.887020  0.994209  1
  O  O52  1  0.805472  0.418452  0.811263  1
  O  O53  1  0.887020  0.392811  0.081548  1
  O  O54  1  0.994209  0.688737  0.107189  1
  O  O55  1  0.694528  0.505791  0.612980  1
  O  O56  1  0.305472  0.311263  0.918452  1
  O  O57  1  0.311263  0.892811  0.005791  1
  O  O58  1  0.387020  0.305472  0.494209  1
  O  O59  1  0.494209  0.387020  0.305472  1
  O  O60  1  0.918452  0.112980  0.607189  1
  O  O61  1  0.607189  0.918452  0.112980  1
  O  O62  1  0.892811  0.005791  0.311263  1
  O  O63  1  0.387020  0.581548  0.892811  1
  O  O64  1  0.494209  0.607189  0.188737  1
  O  O65  1  0.112980  0.005791  0.194528  1
  O  O66  1  0.581548  0.892811  0.387020  1
  O  O67  1  0.188737  0.494209  0.607189  1
  O  O68  1  0.005791  0.194528  0.112980  1
  O  O69  1  0.918452  0.305472  0.311263  1
  O  O70  1  0.311263  0.918452  0.305472  1
  O  O71  1  0.892811  0.387020  0.581548  1
  O  O72  1  0.188737  0.194528  0.581548  1
  O  O73  1  0.607189  0.188737  0.494209  1
  O  O74  1  0.581548  0.188737  0.194528  1
  O  O75  1  0.194528  0.112980  0.005791  1
  O  O76  1  0.194528  0.581548  0.188737  1
  O  O77  1  0.112980  0.607189  0.918452  1
  O  O78  1  0.005791  0.311263  0.892811  1
  O  O79  1  0.305472  0.494209  0.387020  1
