# generated using pymatgen
data_Gd3AuO6
_symmetry_space_group_name_H-M   'P 1'
_cell_length_a   3.68637178
_cell_length_b   5.63513147
_cell_length_c   7.15540369
_cell_angle_alpha   90.29999632
_cell_angle_beta   102.53386822
_cell_angle_gamma   91.15865237
_symmetry_Int_Tables_number   1
_chemical_formula_structural   Gd3AuO6
_chemical_formula_sum   'Gd3 Au1 O6'
_cell_volume   145.06141957
_cell_formula_units_Z   1
loop_
 _symmetry_equiv_pos_site_id
 _symmetry_equiv_pos_as_xyz
  1  'x, y, z'
loop_
 _atom_site_type_symbol
 _atom_site_label
 _atom_site_symmetry_multiplicity
 _atom_site_fract_x
 _atom_site_fract_y
 _atom_site_fract_z
 _atom_site_occupancy
  Gd  Gd0  1  0.609401  0.529051  0.764357  1
  Gd  Gd1  1  0.390599  0.470949  0.235643  1
  Gd  Gd2  1  0.000000  0.000000  0.500000  1
  Au  Au3  1  0.000000  0.000000  0.000000  1
  O  O4  1  0.841561  0.689478  0.111100  1
  O  O5  1  0.158439  0.310522  0.888900  1
  O  O6  1  0.519854  0.256389  0.525369  1
  O  O7  1  0.480146  0.743611  0.474631  1
  O  O8  1  0.123882  0.796020  0.788530  1
  O  O9  1  0.876118  0.203980  0.211470  1
