# generated using pymatgen
data_SmCrO4
_symmetry_space_group_name_H-M   'P 1'
_cell_length_a   6.10344364
_cell_length_b   6.10344364
_cell_length_c   6.10344364
_cell_angle_alpha   105.88586162
_cell_angle_beta   105.88586162
_cell_angle_gamma   116.90780704
_symmetry_Int_Tables_number   1
_chemical_formula_structural   SmCrO4
_chemical_formula_sum   'Sm2 Cr2 O8'
_cell_volume   172.78758323
_cell_formula_units_Z   2
loop_
 _symmetry_equiv_pos_site_id
 _symmetry_equiv_pos_as_xyz
  1  'x, y, z'
loop_
 _atom_site_type_symbol
 _atom_site_label
 _atom_site_symmetry_multiplicity
 _atom_site_fract_x
 _atom_site_fract_y
 _atom_site_fract_z
 _atom_site_occupancy
  Sm  Sm0  1  0.750000  0.250000  0.500000  1
  Sm  Sm1  1  0.500000  0.500000  0.000000  1
  Cr  Cr2  1  0.250000  0.750000  0.500000  1
  Cr  Cr3  1  0.000000  0.000000  0.000000  1
  O  O4  1  0.352559  0.170909  0.181649  1
  O  O5  1  0.420909  0.739260  0.318351  1
  O  O6  1  0.420909  0.102559  0.681649  1
  O  O7  1  0.989260  0.170909  0.818351  1
  O  O8  1  0.829091  0.010740  0.181649  1
  O  O9  1  0.897441  0.579091  0.318351  1
  O  O10  1  0.260740  0.579091  0.681649  1
  O  O11  1  0.829091  0.647441  0.818351  1
