# generated using pymatgen
data_Sm2Si2O7
_symmetry_space_group_name_H-M   'P 1'
_cell_length_a   5.47479362
_cell_length_b   8.61160269
_cell_length_c   13.08010735
_cell_angle_alpha   90.46475670
_cell_angle_beta   92.39049999
_cell_angle_gamma   92.51043348
_symmetry_Int_Tables_number   1
_chemical_formula_structural   Sm2Si2O7
_chemical_formula_sum   'Sm8 Si8 O28'
_cell_volume   615.52600173
_cell_formula_units_Z   4
loop_
 _symmetry_equiv_pos_site_id
 _symmetry_equiv_pos_as_xyz
  1  'x, y, z'
loop_
 _atom_site_type_symbol
 _atom_site_label
 _atom_site_symmetry_multiplicity
 _atom_site_fract_x
 _atom_site_fract_y
 _atom_site_fract_z
 _atom_site_occupancy
  Sm  Sm0  1  0.257062  0.895349  0.085538  1
  Sm  Sm1  1  0.742938  0.104651  0.914462  1
  Sm  Sm2  1  0.764569  0.701976  0.259362  1
  Sm  Sm3  1  0.235431  0.298024  0.740638  1
  Sm  Sm4  1  0.749860  0.597402  0.592309  1
  Sm  Sm5  1  0.250140  0.402598  0.407691  1
  Sm  Sm6  1  0.228847  0.825733  0.763976  1
  Sm  Sm7  1  0.771153  0.174267  0.236024  1
  Si  Si8  1  0.785285  0.495650  0.820773  1
  Si  Si9  1  0.214715  0.504350  0.179227  1
  Si  Si10  1  0.198784  0.754699  0.480999  1
  Si  Si11  1  0.801216  0.245301  0.519001  1
  Si  Si12  1  0.698048  0.753384  0.972930  1
  Si  Si13  1  0.301952  0.246616  0.027070  1
  Si  Si14  1  0.295082  0.000926  0.319507  1
  Si  Si15  1  0.704918  0.999074  0.680493  1
  O  O16  1  0.703128  0.577584  0.926497  1
  O  O17  1  0.296872  0.422416  0.073503  1
  O  O18  1  0.953387  0.853178  0.952461  1
  O  O19  1  0.046613  0.146822  0.047539  1
  O  O20  1  0.550217  0.483910  0.737808  1
  O  O21  1  0.449783  0.516090  0.262192  1
  O  O22  1  0.440100  0.650859  0.475564  1
  O  O23  1  0.559900  0.349141  0.524436  1
  O  O24  1  0.244891  0.927575  0.431782  1
  O  O25  1  0.755109  0.072425  0.568218  1
  O  O26  1  0.098211  0.772228  0.595687  1
  O  O27  1  0.901789  0.227772  0.404313  1
  O  O28  1  0.894730  0.325633  0.842896  1
  O  O29  1  0.105270  0.674367  0.157104  1
  O  O30  1  0.621599  0.753071  0.091755  1
  O  O31  1  0.378401  0.246929  0.908245  1
  O  O32  1  0.018582  0.353938  0.582771  1
  O  O33  1  0.981418  0.646062  0.417229  1
  O  O34  1  0.520354  0.140881  0.081845  1
  O  O35  1  0.479646  0.859119  0.918155  1
  O  O36  1  0.484980  0.084504  0.738809  1
  O  O37  1  0.515020  0.915496  0.261191  1
  O  O38  1  0.609148  0.816796  0.677744  1
  O  O39  1  0.390852  0.183204  0.322256  1
  O  O40  1  0.956360  0.028250  0.755347  1
  O  O41  1  0.043640  0.971750  0.244653  1
  O  O42  1  0.993907  0.408928  0.236354  1
  O  O43  1  0.006093  0.591072  0.763646  1
