# generated using pymatgen
data_In2P2O7
_symmetry_space_group_name_H-M   'P 1'
_cell_length_a   7.65664689
_cell_length_b   10.62309388
_cell_length_c   8.61560007
_cell_angle_alpha   90.00000000
_cell_angle_beta   106.37113607
_cell_angle_gamma   90.00000000
_symmetry_Int_Tables_number   1
_chemical_formula_structural   In2P2O7
_chemical_formula_sum   'In8 P8 O28'
_cell_volume   672.35752880
_cell_formula_units_Z   4
loop_
 _symmetry_equiv_pos_site_id
 _symmetry_equiv_pos_as_xyz
  1  'x, y, z'
loop_
 _atom_site_type_symbol
 _atom_site_label
 _atom_site_symmetry_multiplicity
 _atom_site_fract_x
 _atom_site_fract_y
 _atom_site_fract_z
 _atom_site_occupancy
  In  In0  1  0.328130  0.679783  0.935296  1
  In  In1  1  0.671870  0.179783  0.564704  1
  In  In2  1  0.671870  0.320217  0.064704  1
  In  In3  1  0.328130  0.820217  0.435296  1
  In  In4  1  0.739160  0.600794  0.758346  1
  In  In5  1  0.260840  0.100794  0.741654  1
  In  In6  1  0.260840  0.399206  0.241654  1
  In  In7  1  0.739160  0.899206  0.258346  1
  P  P8  1  0.935994  0.634955  0.190853  1
  P  P9  1  0.064006  0.134955  0.309147  1
  P  P10  1  0.064006  0.365045  0.809147  1
  P  P11  1  0.935994  0.865045  0.690853  1
  P  P12  1  0.629952  0.597863  0.325503  1
  P  P13  1  0.370048  0.097863  0.174497  1
  P  P14  1  0.370048  0.402137  0.674497  1
  P  P15  1  0.629952  0.902137  0.825503  1
  O  O16  1  0.816547  0.604735  0.021120  1
  O  O17  1  0.183453  0.104735  0.478880  1
  O  O18  1  0.183453  0.395265  0.978880  1
  O  O19  1  0.816547  0.895265  0.521120  1
  O  O20  1  0.126195  0.576747  0.234692  1
  O  O21  1  0.873805  0.076747  0.265308  1
  O  O22  1  0.873805  0.423253  0.765308  1
  O  O23  1  0.126195  0.923253  0.734692  1
  O  O24  1  0.834033  0.568752  0.313392  1
  O  O25  1  0.165967  0.068752  0.186608  1
  O  O26  1  0.165967  0.431248  0.686608  1
  O  O27  1  0.834033  0.931248  0.813392  1
  O  O28  1  0.572680  0.729100  0.250128  1
  O  O29  1  0.427320  0.229100  0.249872  1
  O  O30  1  0.427320  0.270900  0.749872  1
  O  O31  1  0.572680  0.770900  0.750128  1
  O  O32  1  0.635872  0.907684  0.001469  1
  O  O33  1  0.364128  0.407684  0.498531  1
  O  O34  1  0.364128  0.092316  0.998531  1
  O  O35  1  0.635872  0.592316  0.501469  1
  O  O36  1  0.955019  0.776018  0.233722  1
  O  O37  1  0.044981  0.276018  0.266278  1
  O  O38  1  0.044981  0.223982  0.766278  1
  O  O39  1  0.955019  0.723982  0.733722  1
  O  O40  1  0.492766  0.996017  0.278755  1
  O  O41  1  0.507234  0.496017  0.221245  1
  O  O42  1  0.507234  0.003983  0.721245  1
  O  O43  1  0.492766  0.503983  0.778755  1
