# generated using pymatgen
data_Hg5Au6
_symmetry_space_group_name_H-M   'P 1'
_cell_length_a   7.20417795
_cell_length_b   7.20417795
_cell_length_c   10.41049253
_cell_angle_alpha   90.00000000
_cell_angle_beta   90.00000000
_cell_angle_gamma   120.00000000
_symmetry_Int_Tables_number   1
_chemical_formula_structural   Hg5Au6
_chemical_formula_sum   'Hg10 Au12'
_cell_volume   467.91909926
_cell_formula_units_Z   2
loop_
 _symmetry_equiv_pos_site_id
 _symmetry_equiv_pos_as_xyz
  1  'x, y, z'
loop_
 _atom_site_type_symbol
 _atom_site_label
 _atom_site_symmetry_multiplicity
 _atom_site_fract_x
 _atom_site_fract_y
 _atom_site_fract_z
 _atom_site_occupancy
  Hg  Hg0  1  0.585056  0.000000  0.250000  1
  Hg  Hg1  1  0.585056  0.585056  0.750000  1
  Hg  Hg2  1  0.000000  0.414944  0.750000  1
  Hg  Hg3  1  0.000000  0.585056  0.250000  1
  Hg  Hg4  1  0.414944  0.414944  0.250000  1
  Hg  Hg5  1  0.414944  0.000000  0.750000  1
  Hg  Hg6  1  0.333333  0.666667  0.000000  1
  Hg  Hg7  1  0.666667  0.333333  0.500000  1
  Hg  Hg8  1  0.666667  0.333333  0.000000  1
  Hg  Hg9  1  0.333333  0.666667  0.500000  1
  Au  Au10  1  0.238602  0.000000  0.110741  1
  Au  Au11  1  0.238602  0.238602  0.610741  1
  Au  Au12  1  0.000000  0.761398  0.610741  1
  Au  Au13  1  0.000000  0.238602  0.110741  1
  Au  Au14  1  0.761398  0.761398  0.110741  1
  Au  Au15  1  0.238602  0.000000  0.389259  1
  Au  Au16  1  0.761398  0.761398  0.389259  1
  Au  Au17  1  0.761398  0.000000  0.610741  1
  Au  Au18  1  0.000000  0.238602  0.389259  1
  Au  Au19  1  0.000000  0.761398  0.889259  1
  Au  Au20  1  0.761398  0.000000  0.889259  1
  Au  Au21  1  0.238602  0.238602  0.889259  1
