# generated using pymatgen
data_Yb15C19
_symmetry_space_group_name_H-M   'P 1'
_cell_length_a   8.22618889
_cell_length_b   8.22618889
_cell_length_c   15.77713439
_cell_angle_alpha   90.00000000
_cell_angle_beta   90.00000000
_cell_angle_gamma   90.00000000
_symmetry_Int_Tables_number   1
_chemical_formula_structural   Yb15C19
_chemical_formula_sum   'Yb30 C38'
_cell_volume   1067.64158170
_cell_formula_units_Z   2
loop_
 _symmetry_equiv_pos_site_id
 _symmetry_equiv_pos_as_xyz
  1  'x, y, z'
loop_
 _atom_site_type_symbol
 _atom_site_label
 _atom_site_symmetry_multiplicity
 _atom_site_fract_x
 _atom_site_fract_y
 _atom_site_fract_z
 _atom_site_occupancy
  Yb  Yb0  1  0.500000  0.500000  0.500000  1
  Yb  Yb1  1  0.000000  0.000000  0.000000  1
  Yb  Yb2  1  0.000000  0.000000  0.332108  1
  Yb  Yb3  1  0.000000  0.000000  0.667892  1
  Yb  Yb4  1  0.500000  0.500000  0.167892  1
  Yb  Yb5  1  0.500000  0.500000  0.832108  1
  Yb  Yb6  1  0.601832  0.208494  0.656654  1
  Yb  Yb7  1  0.398168  0.791506  0.656654  1
  Yb  Yb8  1  0.291506  0.898168  0.156654  1
  Yb  Yb9  1  0.791506  0.601832  0.343346  1
  Yb  Yb10  1  0.208494  0.398168  0.343346  1
  Yb  Yb11  1  0.898168  0.708494  0.843346  1
  Yb  Yb12  1  0.101832  0.291506  0.843346  1
  Yb  Yb13  1  0.708494  0.101832  0.156654  1
  Yb  Yb14  1  0.791506  0.601832  0.656654  1
  Yb  Yb15  1  0.208494  0.398168  0.656654  1
  Yb  Yb16  1  0.898168  0.708494  0.156654  1
  Yb  Yb17  1  0.398168  0.791506  0.343346  1
  Yb  Yb18  1  0.601832  0.208494  0.343346  1
  Yb  Yb19  1  0.708494  0.101832  0.843346  1
  Yb  Yb20  1  0.291506  0.898168  0.843346  1
  Yb  Yb21  1  0.101832  0.291506  0.156654  1
  Yb  Yb22  1  0.701378  0.905399  0.500000  1
  Yb  Yb23  1  0.298622  0.094601  0.500000  1
  Yb  Yb24  1  0.594601  0.798622  0.000000  1
  Yb  Yb25  1  0.094601  0.701378  0.500000  1
  Yb  Yb26  1  0.905399  0.298622  0.500000  1
  Yb  Yb27  1  0.798622  0.405399  0.000000  1
  Yb  Yb28  1  0.201378  0.594601  0.000000  1
  Yb  Yb29  1  0.405399  0.201378  0.000000  1
  C  C30  1  0.500000  0.500000  0.000000  1
  C  C31  1  0.000000  0.000000  0.500000  1
  C  C32  1  0.500000  0.500000  0.660072  1
  C  C33  1  0.500000  0.500000  0.339928  1
  C  C34  1  0.000000  0.000000  0.839928  1
  C  C35  1  0.000000  0.000000  0.160072  1
  C  C36  1  0.907691  0.298453  0.676733  1
  C  C37  1  0.092309  0.701547  0.676733  1
  C  C38  1  0.201547  0.592309  0.176733  1
  C  C39  1  0.701547  0.907691  0.323267  1
  C  C40  1  0.298453  0.092309  0.323267  1
  C  C41  1  0.592309  0.798453  0.823267  1
  C  C42  1  0.407691  0.201547  0.823267  1
  C  C43  1  0.798453  0.407691  0.176733  1
  C  C44  1  0.649295  0.850705  0.750000  1
  C  C45  1  0.350705  0.149295  0.750000  1
  C  C46  1  0.598429  0.201758  0.500000  1
  C  C47  1  0.649295  0.850705  0.250000  1
  C  C48  1  0.850705  0.350705  0.250000  1
  C  C49  1  0.850705  0.350705  0.750000  1
  C  C50  1  0.149295  0.649295  0.750000  1
  C  C51  1  0.350705  0.149295  0.250000  1
  C  C52  1  0.701547  0.907691  0.676733  1
  C  C53  1  0.298453  0.092309  0.676733  1
  C  C54  1  0.592309  0.798453  0.176733  1
  C  C55  1  0.092309  0.701547  0.323267  1
  C  C56  1  0.907691  0.298453  0.323267  1
  C  C57  1  0.798453  0.407691  0.823267  1
  C  C58  1  0.201547  0.592309  0.823267  1
  C  C59  1  0.407691  0.201547  0.176733  1
  C  C60  1  0.701758  0.098429  0.000000  1
  C  C61  1  0.098429  0.298242  0.000000  1
  C  C62  1  0.901571  0.701758  0.000000  1
  C  C63  1  0.201758  0.401571  0.500000  1
  C  C64  1  0.798242  0.598429  0.500000  1
  C  C65  1  0.298242  0.901571  0.000000  1
  C  C66  1  0.401571  0.798242  0.500000  1
  C  C67  1  0.149295  0.649295  0.250000  1
