# generated using pymatgen
data_TbF3
_symmetry_space_group_name_H-M   'P 1'
_cell_length_a   4.44595880
_cell_length_b   6.46480269
_cell_length_c   6.96554199
_cell_angle_alpha   90.00000000
_cell_angle_beta   90.00000000
_cell_angle_gamma   90.00000000
_symmetry_Int_Tables_number   1
_chemical_formula_structural   TbF3
_chemical_formula_sum   'Tb4 F12'
_cell_volume   200.20532425
_cell_formula_units_Z   4
loop_
 _symmetry_equiv_pos_site_id
 _symmetry_equiv_pos_as_xyz
  1  'x, y, z'
loop_
 _atom_site_type_symbol
 _atom_site_label
 _atom_site_symmetry_multiplicity
 _atom_site_fract_x
 _atom_site_fract_y
 _atom_site_fract_z
 _atom_site_occupancy
  Tb  Tb0  1  0.938559  0.631422  0.750000  1
  Tb  Tb1  1  0.438559  0.868578  0.250000  1
  Tb  Tb2  1  0.561441  0.131422  0.750000  1
  Tb  Tb3  1  0.061441  0.368578  0.250000  1
  F  F4  1  0.378088  0.164267  0.436820  1
  F  F5  1  0.878088  0.335733  0.563180  1
  F  F6  1  0.121912  0.664267  0.063180  1
  F  F7  1  0.621912  0.835733  0.936820  1
  F  F8  1  0.588490  0.522613  0.250000  1
  F  F9  1  0.088490  0.977387  0.750000  1
  F  F10  1  0.911510  0.022613  0.250000  1
  F  F11  1  0.411510  0.477387  0.750000  1
  F  F12  1  0.378088  0.164267  0.063180  1
  F  F13  1  0.878088  0.335733  0.936820  1
  F  F14  1  0.121912  0.664267  0.436820  1
  F  F15  1  0.621912  0.835733  0.563180  1
