# generated using pymatgen
data_PrS2
_symmetry_space_group_name_H-M   'P 1'
_cell_length_a   4.10327905
_cell_length_b   8.08621086
_cell_length_c   16.36673274
_cell_angle_alpha   90.00000000
_cell_angle_beta   90.00000000
_cell_angle_gamma   90.00000000
_symmetry_Int_Tables_number   1
_chemical_formula_structural   PrS2
_chemical_formula_sum   'Pr8 S16'
_cell_volume   543.04785869
_cell_formula_units_Z   8
loop_
 _symmetry_equiv_pos_site_id
 _symmetry_equiv_pos_as_xyz
  1  'x, y, z'
loop_
 _atom_site_type_symbol
 _atom_site_label
 _atom_site_symmetry_multiplicity
 _atom_site_fract_x
 _atom_site_fract_y
 _atom_site_fract_z
 _atom_site_occupancy
  Pr  Pr0  1  0.218241  0.128658  0.388019  1
  Pr  Pr1  1  0.718241  0.371343  0.611981  1
  Pr  Pr2  1  0.281759  0.628657  0.111981  1
  Pr  Pr3  1  0.781759  0.871343  0.888019  1
  Pr  Pr4  1  0.781759  0.871343  0.611981  1
  Pr  Pr5  1  0.281759  0.628657  0.388019  1
  Pr  Pr6  1  0.718241  0.371343  0.888019  1
  Pr  Pr7  1  0.218241  0.128658  0.111981  1
  S  S8  1  0.741033  0.374742  0.433521  1
  S  S9  1  0.241033  0.125258  0.566479  1
  S  S10  1  0.758967  0.874742  0.066479  1
  S  S11  1  0.258967  0.625258  0.933521  1
  S  S12  1  0.258967  0.625258  0.566479  1
  S  S13  1  0.758967  0.874742  0.433521  1
  S  S14  1  0.241033  0.125258  0.933521  1
  S  S15  1  0.741033  0.374742  0.066479  1
  S  S16  1  0.143656  0.390717  0.250000  1
  S  S17  1  0.643656  0.109283  0.750000  1
  S  S18  1  0.356344  0.890717  0.250000  1
  S  S19  1  0.856344  0.609283  0.750000  1
  S  S20  1  0.664482  0.100936  0.250000  1
  S  S21  1  0.164482  0.399064  0.750000  1
  S  S22  1  0.835518  0.600936  0.250000  1
  S  S23  1  0.335518  0.899064  0.750000  1
