# generated using pymatgen
data_Ba2SrUO6
_symmetry_space_group_name_H-M   'P 1'
_cell_length_a   6.30032318
_cell_length_b   6.37198898
_cell_length_c   10.91011881
_cell_angle_alpha   90.00000000
_cell_angle_beta   125.03296156
_cell_angle_gamma   90.00000000
_symmetry_Int_Tables_number   1
_chemical_formula_structural   Ba2SrUO6
_chemical_formula_sum   'Ba4 Sr2 U2 O12'
_cell_volume   358.63840370
_cell_formula_units_Z   2
loop_
 _symmetry_equiv_pos_site_id
 _symmetry_equiv_pos_as_xyz
  1  'x, y, z'
loop_
 _atom_site_type_symbol
 _atom_site_label
 _atom_site_symmetry_multiplicity
 _atom_site_fract_x
 _atom_site_fract_y
 _atom_site_fract_z
 _atom_site_occupancy
  Ba  Ba0  1  0.242107  0.464756  0.751069  1
  Ba  Ba1  1  0.757893  0.964756  0.748931  1
  Ba  Ba2  1  0.242107  0.035244  0.251069  1
  Ba  Ba3  1  0.757893  0.535244  0.248931  1
  Sr  Sr4  1  0.500000  0.500000  0.500000  1
  Sr  Sr5  1  0.500000  0.000000  0.000000  1
  U  U6  1  0.000000  0.500000  0.000000  1
  U  U7  1  0.000000  0.000000  0.500000  1
  O  O8  1  0.314056  0.468546  0.226256  1
  O  O9  1  0.685944  0.968546  0.273744  1
  O  O10  1  0.685944  0.531454  0.773744  1
  O  O11  1  0.314056  0.031454  0.726256  1
  O  O12  1  0.776928  0.190164  0.542270  1
  O  O13  1  0.223072  0.690164  0.957730  1
  O  O14  1  0.223072  0.809836  0.457730  1
  O  O15  1  0.776928  0.309836  0.042270  1
  O  O16  1  0.864493  0.765469  0.052152  1
  O  O17  1  0.135507  0.265469  0.447848  1
  O  O18  1  0.135507  0.234531  0.947848  1
  O  O19  1  0.864493  0.734531  0.552152  1
