# generated using pymatgen
data_ScSnPt
_symmetry_space_group_name_H-M   'P 1'
_cell_length_a   7.45325873
_cell_length_b   7.45325873
_cell_length_c   7.43038370
_cell_angle_alpha   90.00000000
_cell_angle_beta   90.00000000
_cell_angle_gamma   120.00000000
_symmetry_Int_Tables_number   1
_chemical_formula_structural   ScSnPt
_chemical_formula_sum   'Sc6 Sn6 Pt6'
_cell_volume   357.46561048
_cell_formula_units_Z   6
loop_
 _symmetry_equiv_pos_site_id
 _symmetry_equiv_pos_as_xyz
  1  'x, y, z'
loop_
 _atom_site_type_symbol
 _atom_site_label
 _atom_site_symmetry_multiplicity
 _atom_site_fract_x
 _atom_site_fract_y
 _atom_site_fract_z
 _atom_site_occupancy
  Sc  Sc0  1  0.404584  0.018012  0.250000  1
  Sc  Sc1  1  0.613428  0.595416  0.250000  1
  Sc  Sc2  1  0.981988  0.386572  0.250000  1
  Sc  Sc3  1  0.386572  0.981988  0.750000  1
  Sc  Sc4  1  0.595416  0.613428  0.750000  1
  Sc  Sc5  1  0.018012  0.404584  0.750000  1
  Sn  Sn6  1  0.272606  0.272606  0.000000  1
  Sn  Sn7  1  0.000000  0.727394  0.000000  1
  Sn  Sn8  1  0.000000  0.727394  0.500000  1
  Sn  Sn9  1  0.727394  0.000000  0.500000  1
  Sn  Sn10  1  0.272606  0.272606  0.500000  1
  Sn  Sn11  1  0.727394  0.000000  0.000000  1
  Pt  Pt12  1  0.000000  0.000000  0.750000  1
  Pt  Pt13  1  0.000000  0.000000  0.250000  1
  Pt  Pt14  1  0.666667  0.333333  0.963424  1
  Pt  Pt15  1  0.333333  0.666667  0.463424  1
  Pt  Pt16  1  0.333333  0.666667  0.036576  1
  Pt  Pt17  1  0.666667  0.333333  0.536576  1
