# generated using pymatgen
data_HoSi
_symmetry_space_group_name_H-M   'P 1'
_cell_length_a   5.65929120
_cell_length_b   5.65929120
_cell_length_c   3.81909521
_cell_angle_alpha   90.00000000
_cell_angle_beta   90.00000000
_cell_angle_gamma   135.77395138
_symmetry_Int_Tables_number   1
_chemical_formula_structural   HoSi
_chemical_formula_sum   'Ho2 Si2'
_cell_volume   85.31455945
_cell_formula_units_Z   2
loop_
 _symmetry_equiv_pos_site_id
 _symmetry_equiv_pos_as_xyz
  1  'x, y, z'
loop_
 _atom_site_type_symbol
 _atom_site_label
 _atom_site_symmetry_multiplicity
 _atom_site_fract_x
 _atom_site_fract_y
 _atom_site_fract_z
 _atom_site_occupancy
  Ho  Ho0  1  0.140223  0.859777  0.250000  1
  Ho  Ho1  1  0.859777  0.140223  0.750000  1
  Si  Si2  1  0.423236  0.576764  0.250000  1
  Si  Si3  1  0.576764  0.423236  0.750000  1
