# generated using pymatgen
data_Sn3N4
_symmetry_space_group_name_H-M   'P 1'
_cell_length_a   6.46468720
_cell_length_b   6.46468720
_cell_length_c   6.46468720
_cell_angle_alpha   60.00000000
_cell_angle_beta   60.00000000
_cell_angle_gamma   60.00000000
_symmetry_Int_Tables_number   1
_chemical_formula_structural   Sn3N4
_chemical_formula_sum   'Sn6 N8'
_cell_volume   191.04142593
_cell_formula_units_Z   2
loop_
 _symmetry_equiv_pos_site_id
 _symmetry_equiv_pos_as_xyz
  1  'x, y, z'
loop_
 _atom_site_type_symbol
 _atom_site_label
 _atom_site_symmetry_multiplicity
 _atom_site_fract_x
 _atom_site_fract_y
 _atom_site_fract_z
 _atom_site_occupancy
  Sn  Sn0  1  0.625000  0.125000  0.125000  1
  Sn  Sn1  1  0.125000  0.125000  0.625000  1
  Sn  Sn2  1  0.125000  0.125000  0.125000  1
  Sn  Sn3  1  0.125000  0.625000  0.125000  1
  Sn  Sn4  1  0.750000  0.750000  0.750000  1
  Sn  Sn5  1  0.500000  0.500000  0.500000  1
  N  N6  1  0.884065  0.347805  0.884065  1
  N  N7  1  0.365935  0.365935  0.365935  1
  N  N8  1  0.902195  0.365935  0.365935  1
  N  N9  1  0.365935  0.365935  0.902195  1
  N  N10  1  0.347805  0.884065  0.884065  1
  N  N11  1  0.884065  0.884065  0.347805  1
  N  N12  1  0.365935  0.902195  0.365935  1
  N  N13  1  0.884065  0.884065  0.884065  1
