# generated using pymatgen
data_KCd(NO2)3
_symmetry_space_group_name_H-M   'P 1'
_cell_length_a   5.45178011
_cell_length_b   5.45178011
_cell_length_c   5.45178011
_cell_angle_alpha   90.78219581
_cell_angle_beta   90.78219581
_cell_angle_gamma   90.78219581
_symmetry_Int_Tables_number   1
_chemical_formula_structural   KCd(NO2)3
_chemical_formula_sum   'K1 Cd1 N3 O6'
_cell_volume   161.99158286
_cell_formula_units_Z   1
loop_
 _symmetry_equiv_pos_site_id
 _symmetry_equiv_pos_as_xyz
  1  'x, y, z'
loop_
 _atom_site_type_symbol
 _atom_site_label
 _atom_site_symmetry_multiplicity
 _atom_site_fract_x
 _atom_site_fract_y
 _atom_site_fract_z
 _atom_site_occupancy
  K  K0  1  0.630930  0.630930  0.630930  1
  Cd  Cd1  1  0.110251  0.110251  0.110251  1
  N  N2  1  0.122425  0.565135  0.170693  1
  N  N3  1  0.170693  0.122425  0.565135  1
  N  N4  1  0.565135  0.170693  0.122425  1
  O  O5  1  0.172954  0.322736  0.681690  1
  O  O6  1  0.322736  0.681690  0.172954  1
  O  O7  1  0.692476  0.158888  0.929556  1
  O  O8  1  0.158888  0.929556  0.692476  1
  O  O9  1  0.929556  0.692476  0.158888  1
  O  O10  1  0.681690  0.172954  0.322736  1
