# generated using pymatgen
data_NdB4
_symmetry_space_group_name_H-M   'P 1'
_cell_length_a   7.23841713
_cell_length_b   7.23841713
_cell_length_c   4.11995758
_cell_angle_alpha   90.00000000
_cell_angle_beta   90.00000000
_cell_angle_gamma   90.00000000
_symmetry_Int_Tables_number   1
_chemical_formula_structural   NdB4
_chemical_formula_sum   'Nd4 B16'
_cell_volume   215.86386951
_cell_formula_units_Z   4
loop_
 _symmetry_equiv_pos_site_id
 _symmetry_equiv_pos_as_xyz
  1  'x, y, z'
loop_
 _atom_site_type_symbol
 _atom_site_label
 _atom_site_symmetry_multiplicity
 _atom_site_fract_x
 _atom_site_fract_y
 _atom_site_fract_z
 _atom_site_occupancy
  Nd  Nd0  1  0.182853  0.682853  0.000000  1
  Nd  Nd1  1  0.682853  0.817147  0.000000  1
  Nd  Nd2  1  0.317147  0.182853  0.000000  1
  Nd  Nd3  1  0.817147  0.317147  0.000000  1
  B  B4  1  0.911989  0.588011  0.500000  1
  B  B5  1  0.588011  0.088011  0.500000  1
  B  B6  1  0.411989  0.911989  0.500000  1
  B  B7  1  0.088011  0.411989  0.500000  1
  B  B8  1  0.038870  0.174220  0.500000  1
  B  B9  1  0.174220  0.961130  0.500000  1
  B  B10  1  0.825780  0.038870  0.500000  1
  B  B11  1  0.961130  0.825780  0.500000  1
  B  B12  1  0.461130  0.674220  0.500000  1
  B  B13  1  0.538870  0.325780  0.500000  1
  B  B14  1  0.674220  0.538870  0.500000  1
  B  B15  1  0.325780  0.461130  0.500000  1
  B  B16  1  0.000000  0.000000  0.204796  1
  B  B17  1  0.500000  0.500000  0.795204  1
  B  B18  1  0.000000  0.000000  0.795204  1
  B  B19  1  0.500000  0.500000  0.204796  1
