# generated using pymatgen
data_Cs2LiMnO4
_symmetry_space_group_name_H-M   'P 1'
_cell_length_a   6.90172512
_cell_length_b   6.90172512
_cell_length_c   8.31034264
_cell_angle_alpha   90.00000000
_cell_angle_beta   90.00000000
_cell_angle_gamma   127.72869758
_symmetry_Int_Tables_number   1
_chemical_formula_structural   Cs2LiMnO4
_chemical_formula_sum   'Cs4 Li2 Mn2 O8'
_cell_volume   313.08714307
_cell_formula_units_Z   2
loop_
 _symmetry_equiv_pos_site_id
 _symmetry_equiv_pos_as_xyz
  1  'x, y, z'
loop_
 _atom_site_type_symbol
 _atom_site_label
 _atom_site_symmetry_multiplicity
 _atom_site_fract_x
 _atom_site_fract_y
 _atom_site_fract_z
 _atom_site_occupancy
  Cs  Cs0  1  0.393528  0.606472  0.545098  1
  Cs  Cs1  1  0.606472  0.393528  0.045098  1
  Cs  Cs2  1  0.073591  0.926409  0.410632  1
  Cs  Cs3  1  0.926409  0.073591  0.910632  1
  Li  Li4  1  0.207907  0.792093  0.826966  1
  Li  Li5  1  0.792093  0.207907  0.326966  1
  Mn  Mn6  1  0.698563  0.301437  0.607858  1
  Mn  Mn7  1  0.301437  0.698563  0.107858  1
  O  O8  1  0.102388  0.429404  0.210721  1
  O  O9  1  0.897612  0.570596  0.710721  1
  O  O10  1  0.360590  0.639410  0.919121  1
  O  O11  1  0.639410  0.360590  0.419121  1
  O  O12  1  0.570596  0.897612  0.210721  1
  O  O13  1  0.429404  0.102388  0.710721  1
  O  O14  1  0.835222  0.164778  0.560983  1
  O  O15  1  0.164778  0.835222  0.060983  1
