# generated using pymatgen
data_Lu2O3
_symmetry_space_group_name_H-M   'P 1'
_cell_length_a   8.97613693
_cell_length_b   8.97613693
_cell_length_c   8.97613693
_cell_angle_alpha   109.47122063
_cell_angle_beta   109.47122063
_cell_angle_gamma   109.47122063
_symmetry_Int_Tables_number   1
_chemical_formula_structural   Lu2O3
_chemical_formula_sum   'Lu16 O24'
_cell_volume   556.73242489
_cell_formula_units_Z   8
loop_
 _symmetry_equiv_pos_site_id
 _symmetry_equiv_pos_as_xyz
  1  'x, y, z'
loop_
 _atom_site_type_symbol
 _atom_site_label
 _atom_site_symmetry_multiplicity
 _atom_site_fract_x
 _atom_site_fract_y
 _atom_site_fract_z
 _atom_site_occupancy
  Lu  Lu0  1  0.250000  0.716511  0.466511  1
  Lu  Lu1  1  0.033489  0.750000  0.783489  1
  Lu  Lu2  1  0.783489  0.033489  0.750000  1
  Lu  Lu3  1  0.466511  0.250000  0.716511  1
  Lu  Lu4  1  0.716511  0.466511  0.250000  1
  Lu  Lu5  1  0.750000  0.783489  0.033489  1
  Lu  Lu6  1  0.750000  0.283489  0.533489  1
  Lu  Lu7  1  0.966511  0.250000  0.216511  1
  Lu  Lu8  1  0.216511  0.966511  0.250000  1
  Lu  Lu9  1  0.533489  0.750000  0.283489  1
  Lu  Lu10  1  0.283489  0.533489  0.750000  1
  Lu  Lu11  1  0.250000  0.216511  0.966511  1
  Lu  Lu12  1  1.000000  0.500000  0.000000  1
  Lu  Lu13  1  0.500000  1.000000  0.000000  1
  Lu  Lu14  1  1.000000  1.000000  0.500000  1
  Lu  Lu15  1  0.500000  0.500000  0.500000  1
  O  O16  1  0.032616  0.488853  0.761204  1
  O  O17  1  0.227649  0.271412  0.738796  1
  O  O18  1  0.272351  0.011147  0.043763  1
  O  O19  1  0.228588  0.456237  0.467384  1
  O  O20  1  0.456237  0.467384  0.228588  1
  O  O21  1  0.761204  0.032616  0.488853  1
  O  O22  1  0.271412  0.738796  0.227649  1
  O  O23  1  0.043763  0.272351  0.011147  1
  O  O24  1  0.488853  0.761204  0.032616  1
  O  O25  1  0.738796  0.227649  0.271412  1
  O  O26  1  0.011147  0.043763  0.272351  1
  O  O27  1  0.467384  0.228588  0.456237  1
  O  O28  1  0.967384  0.511147  0.238796  1
  O  O29  1  0.772351  0.728588  0.261204  1
  O  O30  1  0.727649  0.988853  0.956237  1
  O  O31  1  0.771412  0.543763  0.532616  1
  O  O32  1  0.532616  0.771412  0.543763  1
  O  O33  1  0.988853  0.956237  0.727649  1
  O  O34  1  0.261204  0.772351  0.728588  1
  O  O35  1  0.511147  0.238796  0.967384  1
  O  O36  1  0.956237  0.727649  0.988853  1
  O  O37  1  0.728588  0.261204  0.772351  1
  O  O38  1  0.238796  0.967384  0.511147  1
  O  O39  1  0.543763  0.532616  0.771412  1
