# generated using pymatgen
data_Tb(P3Ru)4
_symmetry_space_group_name_H-M   'P 1'
_cell_length_a   6.99947913
_cell_length_b   6.99947913
_cell_length_c   6.99947913
_cell_angle_alpha   109.47122063
_cell_angle_beta   109.47122063
_cell_angle_gamma   109.47122063
_symmetry_Int_Tables_number   1
_chemical_formula_structural   Tb(P3Ru)4
_chemical_formula_sum   'Tb1 P12 Ru4'
_cell_volume   263.98258560
_cell_formula_units_Z   1
loop_
 _symmetry_equiv_pos_site_id
 _symmetry_equiv_pos_as_xyz
  1  'x, y, z'
loop_
 _atom_site_type_symbol
 _atom_site_label
 _atom_site_symmetry_multiplicity
 _atom_site_fract_x
 _atom_site_fract_y
 _atom_site_fract_z
 _atom_site_occupancy
  Tb  Tb0  1  0.000000  0.000000  0.000000  1
  P  P1  1  0.500027  0.857117  0.642910  1
  P  P2  1  0.214207  0.857117  0.357090  1
  P  P3  1  0.785793  0.142883  0.642910  1
  P  P4  1  0.142883  0.357090  0.499973  1
  P  P5  1  0.357090  0.499973  0.142883  1
  P  P6  1  0.499973  0.142883  0.357090  1
  P  P7  1  0.142883  0.642910  0.785793  1
  P  P8  1  0.357090  0.214207  0.857117  1
  P  P9  1  0.857117  0.642910  0.500027  1
  P  P10  1  0.642910  0.785793  0.142883  1
  P  P11  1  0.857117  0.357090  0.214207  1
  P  P12  1  0.642910  0.500027  0.857117  1
  Ru  Ru13  1  0.500000  1.000000  1.000000  1
  Ru  Ru14  1  1.000000  1.000000  0.500000  1
  Ru  Ru15  1  1.000000  0.500000  1.000000  1
  Ru  Ru16  1  0.500000  0.500000  0.500000  1
