# generated using pymatgen
data_Li3B(PO4)2
_symmetry_space_group_name_H-M   'P 1'
_cell_length_a   5.24981579
_cell_length_b   7.50027949
_cell_length_c   7.83155780
_cell_angle_alpha   101.16174354
_cell_angle_beta   105.72608140
_cell_angle_gamma   90.07302899
_symmetry_Int_Tables_number   1
_chemical_formula_structural   Li3B(PO4)2
_chemical_formula_sum   'Li6 B2 P4 O16'
_cell_volume   290.73906135
_cell_formula_units_Z   2
loop_
 _symmetry_equiv_pos_site_id
 _symmetry_equiv_pos_as_xyz
  1  'x, y, z'
loop_
 _atom_site_type_symbol
 _atom_site_label
 _atom_site_symmetry_multiplicity
 _atom_site_fract_x
 _atom_site_fract_y
 _atom_site_fract_z
 _atom_site_occupancy
  Li  Li0  1  0.221437  0.868624  0.691494  1
  Li  Li1  1  0.778563  0.131376  0.308506  1
  Li  Li2  1  0.328223  0.516290  0.854302  1
  Li  Li3  1  0.671777  0.483710  0.145698  1
  Li  Li4  1  0.858867  0.473848  0.611134  1
  Li  Li5  1  0.141133  0.526152  0.388866  1
  B  B6  1  0.741979  0.038024  0.768468  1
  B  B7  1  0.258021  0.961976  0.231532  1
  P  P8  1  0.627250  0.785205  0.452465  1
  P  P9  1  0.372750  0.214795  0.547535  1
  P  P10  1  0.882386  0.749323  0.944375  1
  P  P11  1  0.117614  0.250677  0.055625  1
  O  O12  1  0.945359  0.184831  0.853620  1
  O  O13  1  0.054641  0.815169  0.146380  1
  O  O14  1  0.526940  0.888367  0.288384  1
  O  O15  1  0.473060  0.111633  0.711616  1
  O  O16  1  0.056962  0.693172  0.816161  1
  O  O17  1  0.943038  0.306828  0.183839  1
  O  O18  1  0.795975  0.630735  0.399185  1
  O  O19  1  0.204025  0.369265  0.600815  1
  O  O20  1  0.716147  0.916841  0.890807  1
  O  O21  1  0.283853  0.083159  0.109193  1
  O  O22  1  0.693181  0.596592  0.943360  1
  O  O23  1  0.306819  0.403408  0.056640  1
  O  O24  1  0.818624  0.935540  0.606840  1
  O  O25  1  0.181376  0.064460  0.393160  1
  O  O26  1  0.398545  0.725054  0.516134  1
  O  O27  1  0.601455  0.274946  0.483866  1
