# generated using pymatgen
data_YCuAs2
_symmetry_space_group_name_H-M   'P 1'
_cell_length_a   3.90758656
_cell_length_b   3.90758656
_cell_length_c   9.93084507
_cell_angle_alpha   90.00000000
_cell_angle_beta   90.00000000
_cell_angle_gamma   90.00000000
_symmetry_Int_Tables_number   1
_chemical_formula_structural   YCuAs2
_chemical_formula_sum   'Y2 Cu2 As4'
_cell_volume   151.63638452
_cell_formula_units_Z   2
loop_
 _symmetry_equiv_pos_site_id
 _symmetry_equiv_pos_as_xyz
  1  'x, y, z'
loop_
 _atom_site_type_symbol
 _atom_site_label
 _atom_site_symmetry_multiplicity
 _atom_site_fract_x
 _atom_site_fract_y
 _atom_site_fract_z
 _atom_site_occupancy
  Y  Y0  1  0.000000  0.500000  0.762368  1
  Y  Y1  1  0.500000  0.000000  0.237632  1
  Cu  Cu2  1  0.500000  0.500000  0.500000  1
  Cu  Cu3  1  0.000000  0.000000  0.500000  1
  As  As4  1  0.000000  0.000000  0.000000  1
  As  As5  1  0.500000  0.500000  0.000000  1
  As  As6  1  0.000000  0.500000  0.339697  1
  As  As7  1  0.500000  0.000000  0.660303  1
