# generated using pymatgen
data_CoSO4
_symmetry_space_group_name_H-M   'P 1'
_cell_length_a   4.81581038
_cell_length_b   6.77451032
_cell_length_c   8.68720203
_cell_angle_alpha   90.00000000
_cell_angle_beta   90.00000000
_cell_angle_gamma   90.00000000
_symmetry_Int_Tables_number   1
_chemical_formula_structural   CoSO4
_chemical_formula_sum   'Co4 S4 O16'
_cell_volume   283.41785651
_cell_formula_units_Z   4
loop_
 _symmetry_equiv_pos_site_id
 _symmetry_equiv_pos_as_xyz
  1  'x, y, z'
loop_
 _atom_site_type_symbol
 _atom_site_label
 _atom_site_symmetry_multiplicity
 _atom_site_fract_x
 _atom_site_fract_y
 _atom_site_fract_z
 _atom_site_occupancy
  Co  Co0  1  0.500000  0.000000  0.500000  1
  Co  Co1  1  0.000000  0.000000  0.000000  1
  Co  Co2  1  0.000000  0.500000  0.000000  1
  Co  Co3  1  0.500000  0.500000  0.500000  1
  S  S4  1  0.973014  0.750000  0.678479  1
  S  S5  1  0.526986  0.750000  0.178479  1
  S  S6  1  0.026986  0.250000  0.321521  1
  S  S7  1  0.473014  0.250000  0.821521  1
  O  O8  1  0.768456  0.250000  0.874711  1
  O  O9  1  0.836399  0.567462  0.625377  1
  O  O10  1  0.957083  0.750000  0.853187  1
  O  O11  1  0.836399  0.932538  0.625377  1
  O  O12  1  0.231544  0.750000  0.125289  1
  O  O13  1  0.268456  0.750000  0.625289  1
  O  O14  1  0.336399  0.067462  0.874623  1
  O  O15  1  0.163601  0.067462  0.374623  1
  O  O16  1  0.542917  0.750000  0.353187  1
  O  O17  1  0.663601  0.567462  0.125377  1
  O  O18  1  0.731544  0.250000  0.374711  1
  O  O19  1  0.336399  0.432538  0.874623  1
  O  O20  1  0.163601  0.432538  0.374623  1
  O  O21  1  0.457083  0.250000  0.646813  1
  O  O22  1  0.663601  0.932538  0.125377  1
  O  O23  1  0.042917  0.250000  0.146813  1
