# generated using pymatgen
data_K2LiB(PO4)2
_symmetry_space_group_name_H-M   'P 1'
_cell_length_a   8.46534265
_cell_length_b   8.90386593
_cell_length_c   12.51431413
_cell_angle_alpha   90.00000000
_cell_angle_beta   127.26574609
_cell_angle_gamma   90.00000000
_symmetry_Int_Tables_number   1
_chemical_formula_structural   K2LiB(PO4)2
_chemical_formula_sum   'K8 Li4 B4 P8 O32'
_cell_volume   750.67781638
_cell_formula_units_Z   4
loop_
 _symmetry_equiv_pos_site_id
 _symmetry_equiv_pos_as_xyz
  1  'x, y, z'
loop_
 _atom_site_type_symbol
 _atom_site_label
 _atom_site_symmetry_multiplicity
 _atom_site_fract_x
 _atom_site_fract_y
 _atom_site_fract_z
 _atom_site_occupancy
  K  K0  1  0.721813  0.275428  0.178000  1
  K  K1  1  0.721813  0.224572  0.678000  1
  K  K2  1  0.278187  0.724572  0.822000  1
  K  K3  1  0.278187  0.775428  0.322000  1
  K  K4  1  0.937104  0.776572  0.413102  1
  K  K5  1  0.937104  0.723428  0.913102  1
  K  K6  1  0.062896  0.223428  0.586898  1
  K  K7  1  0.062896  0.276572  0.086898  1
  Li  Li8  1  0.808357  0.583517  0.119738  1
  Li  Li9  1  0.808357  0.916483  0.619738  1
  Li  Li10  1  0.191643  0.416483  0.880262  1
  Li  Li11  1  0.191643  0.083517  0.380262  1
  B  B12  1  0.466761  0.586431  0.625737  1
  B  B13  1  0.466761  0.913569  0.125737  1
  B  B14  1  0.533239  0.413569  0.374263  1
  B  B15  1  0.533239  0.086431  0.874263  1
  P  P16  1  0.791166  0.922811  0.107818  1
  P  P17  1  0.791166  0.577189  0.607818  1
  P  P18  1  0.208834  0.077189  0.892182  1
  P  P19  1  0.208834  0.422811  0.392182  1
  P  P20  1  0.530755  0.395046  0.829984  1
  P  P21  1  0.530755  0.104954  0.329984  1
  P  P22  1  0.469245  0.604954  0.170016  1
  P  P23  1  0.469245  0.895046  0.670016  1
  O  O24  1  0.552257  0.219621  0.811167  1
  O  O25  1  0.552257  0.280379  0.311167  1
  O  O26  1  0.447743  0.780379  0.188833  1
  O  O27  1  0.447743  0.719621  0.688833  1
  O  O28  1  0.705272  0.443544  0.970485  1
  O  O29  1  0.705272  0.056456  0.470485  1
  O  O30  1  0.294728  0.556456  0.029515  1
  O  O31  1  0.294728  0.943544  0.529515  1
  O  O32  1  0.556804  0.461578  0.723125  1
  O  O33  1  0.556804  0.038422  0.223125  1
  O  O34  1  0.443196  0.538422  0.276875  1
  O  O35  1  0.443196  0.961578  0.776875  1
  O  O36  1  0.326438  0.429276  0.791462  1
  O  O37  1  0.326438  0.070724  0.291462  1
  O  O38  1  0.673562  0.570724  0.208538  1
  O  O39  1  0.673562  0.929276  0.708538  1
  O  O40  1  0.735280  0.047866  0.998114  1
  O  O41  1  0.735280  0.452134  0.498114  1
  O  O42  1  0.264720  0.952134  0.001886  1
  O  O43  1  0.264720  0.547866  0.501886  1
  O  O44  1  0.934430  0.993847  0.245093  1
  O  O45  1  0.934430  0.506153  0.745093  1
  O  O46  1  0.065570  0.006153  0.754907  1
  O  O47  1  0.065570  0.493847  0.254907  1
  O  O48  1  0.870935  0.782282  0.086368  1
  O  O49  1  0.870935  0.717718  0.586368  1
  O  O50  1  0.129065  0.217718  0.913632  1
  O  O51  1  0.129065  0.282282  0.413632  1
  O  O52  1  0.590844  0.874438  0.082663  1
  O  O53  1  0.590844  0.625562  0.582663  1
  O  O54  1  0.409156  0.125562  0.917337  1
  O  O55  1  0.409156  0.374438  0.417337  1
