# generated using pymatgen
data_ErCoSn
_symmetry_space_group_name_H-M   'P 1'
_cell_length_a   4.56228859
_cell_length_b   7.18719980
_cell_length_c   7.32130376
_cell_angle_alpha   90.00000000
_cell_angle_beta   90.00000000
_cell_angle_gamma   90.00000000
_symmetry_Int_Tables_number   1
_chemical_formula_structural   ErCoSn
_chemical_formula_sum   'Er4 Co4 Sn4'
_cell_volume   240.06613337
_cell_formula_units_Z   4
loop_
 _symmetry_equiv_pos_site_id
 _symmetry_equiv_pos_as_xyz
  1  'x, y, z'
loop_
 _atom_site_type_symbol
 _atom_site_label
 _atom_site_symmetry_multiplicity
 _atom_site_fract_x
 _atom_site_fract_y
 _atom_site_fract_z
 _atom_site_occupancy
  Er  Er0  1  0.250000  0.478357  0.202150  1
  Er  Er1  1  0.250000  0.978357  0.297850  1
  Er  Er2  1  0.750000  0.021643  0.702150  1
  Er  Er3  1  0.750000  0.521643  0.797850  1
  Co  Co4  1  0.750000  0.840845  0.059136  1
  Co  Co5  1  0.250000  0.159155  0.940864  1
  Co  Co6  1  0.750000  0.340845  0.440864  1
  Co  Co7  1  0.250000  0.659155  0.559136  1
  Sn  Sn8  1  0.750000  0.703639  0.392779  1
  Sn  Sn9  1  0.250000  0.796361  0.892779  1
  Sn  Sn10  1  0.250000  0.296361  0.607221  1
  Sn  Sn11  1  0.750000  0.203639  0.107221  1
