# generated using pymatgen
data_Ba2Mn2Sb2O
_symmetry_space_group_name_H-M   'P 1'
_cell_length_a   4.80455969
_cell_length_b   4.80455969
_cell_length_c   20.37980372
_cell_angle_alpha   90.00000000
_cell_angle_beta   90.00000000
_cell_angle_gamma   120.00000000
_symmetry_Int_Tables_number   1
_chemical_formula_structural   Ba2Mn2Sb2O
_chemical_formula_sum   'Ba4 Mn4 Sb4 O2'
_cell_volume   407.41575157
_cell_formula_units_Z   2
loop_
 _symmetry_equiv_pos_site_id
 _symmetry_equiv_pos_as_xyz
  1  'x, y, z'
loop_
 _atom_site_type_symbol
 _atom_site_label
 _atom_site_symmetry_multiplicity
 _atom_site_fract_x
 _atom_site_fract_y
 _atom_site_fract_z
 _atom_site_occupancy
  Ba  Ba0  1  0.000000  0.000000  0.500000  1
  Ba  Ba1  1  0.000000  0.000000  0.000000  1
  Ba  Ba2  1  0.000000  0.000000  0.750000  1
  Ba  Ba3  1  0.000000  0.000000  0.250000  1
  Mn  Mn4  1  0.666667  0.333333  0.148826  1
  Mn  Mn5  1  0.666667  0.333333  0.351174  1
  Mn  Mn6  1  0.333333  0.666667  0.851174  1
  Mn  Mn7  1  0.333333  0.666667  0.648826  1
  Sb  Sb8  1  0.666667  0.333333  0.611416  1
  Sb  Sb9  1  0.666667  0.333333  0.888584  1
  Sb  Sb10  1  0.333333  0.666667  0.388584  1
  Sb  Sb11  1  0.333333  0.666667  0.111416  1
  O  O12  1  0.666667  0.333333  0.250000  1
  O  O13  1  0.333333  0.666667  0.750000  1
