# generated using pymatgen
data_BaY4Si5O17
_symmetry_space_group_name_H-M   'P 1'
_cell_length_a   5.59546489
_cell_length_b   20.02954199
_cell_length_c   6.94933909
_cell_angle_alpha   90.00000000
_cell_angle_beta   106.68374627
_cell_angle_gamma   90.00000000
_symmetry_Int_Tables_number   1
_chemical_formula_structural   BaY4Si5O17
_chemical_formula_sum   'Ba2 Y8 Si10 O34'
_cell_volume   746.05813901
_cell_formula_units_Z   2
loop_
 _symmetry_equiv_pos_site_id
 _symmetry_equiv_pos_as_xyz
  1  'x, y, z'
loop_
 _atom_site_type_symbol
 _atom_site_label
 _atom_site_symmetry_multiplicity
 _atom_site_fract_x
 _atom_site_fract_y
 _atom_site_fract_z
 _atom_site_occupancy
  Ba  Ba0  1  0.244237  0.750000  0.809599  1
  Ba  Ba1  1  0.755763  0.250000  0.190401  1
  Y  Y2  1  0.301760  0.538775  0.117459  1
  Y  Y3  1  0.698240  0.038775  0.882541  1
  Y  Y4  1  0.698240  0.461225  0.882541  1
  Y  Y5  1  0.301760  0.961225  0.117459  1
  Y  Y6  1  0.647692  0.658167  0.481805  1
  Y  Y7  1  0.352308  0.158167  0.518195  1
  Y  Y8  1  0.352308  0.341833  0.518195  1
  Y  Y9  1  0.647692  0.841833  0.481805  1
  Si  Si10  1  0.063428  0.750000  0.280988  1
  Si  Si11  1  0.936572  0.250000  0.719012  1
  Si  Si12  1  0.771338  0.635742  0.007955  1
  Si  Si13  1  0.228662  0.135742  0.992045  1
  Si  Si14  1  0.228662  0.364258  0.992045  1
  Si  Si15  1  0.771338  0.864258  0.007955  1
  Si  Si16  1  0.196161  0.560736  0.594795  1
  Si  Si17  1  0.803839  0.060736  0.405205  1
  Si  Si18  1  0.803839  0.439264  0.405205  1
  Si  Si19  1  0.196161  0.939264  0.594795  1
  O  O20  1  0.867074  0.750000  0.416357  1
  O  O21  1  0.132926  0.250000  0.583643  1
  O  O22  1  0.355940  0.750000  0.417749  1
  O  O23  1  0.644060  0.250000  0.582251  1
  O  O24  1  0.016979  0.683918  0.130585  1
  O  O25  1  0.983021  0.183918  0.869415  1
  O  O26  1  0.983021  0.316082  0.869415  1
  O  O27  1  0.016979  0.816082  0.130585  1
  O  O28  1  0.638148  0.673280  0.797100  1
  O  O29  1  0.361852  0.173280  0.202900  1
  O  O30  1  0.361852  0.326720  0.202900  1
  O  O31  1  0.638148  0.826720  0.797100  1
  O  O32  1  0.897981  0.563574  0.983285  1
  O  O33  1  0.102019  0.063574  0.016715  1
  O  O34  1  0.102019  0.436426  0.016715  1
  O  O35  1  0.897981  0.936426  0.983285  1
  O  O36  1  0.579634  0.629476  0.148503  1
  O  O37  1  0.420366  0.129476  0.851497  1
  O  O38  1  0.420366  0.370524  0.851497  1
  O  O39  1  0.579634  0.870524  0.148503  1
  O  O40  1  0.041925  0.627828  0.614921  1
  O  O41  1  0.958075  0.127828  0.385079  1
  O  O42  1  0.958075  0.372172  0.385079  1
  O  O43  1  0.041925  0.872172  0.614921  1
  O  O44  1  0.374524  0.534218  0.812462  1
  O  O45  1  0.625476  0.034218  0.187538  1
  O  O46  1  0.625476  0.465782  0.187538  1
  O  O47  1  0.374524  0.965782  0.812462  1
  O  O48  1  0.000000  0.500000  0.500000  1
  O  O49  1  0.000000  0.000000  0.500000  1
  O  O50  1  0.368722  0.573327  0.440240  1
  O  O51  1  0.631278  0.073327  0.559760  1
  O  O52  1  0.631278  0.426673  0.559760  1
  O  O53  1  0.368722  0.926673  0.440240  1
