# generated using pymatgen
data_Nd3Fe29
_symmetry_space_group_name_H-M   'P 1'
_cell_length_a   6.47937169
_cell_length_b   6.47937169
_cell_length_c   10.50996158
_cell_angle_alpha   85.39888783
_cell_angle_beta   94.60111217
_cell_angle_gamma   97.05767508
_symmetry_Int_Tables_number   1
_chemical_formula_structural   Nd3Fe29
_chemical_formula_sum   'Nd3 Fe29'
_cell_volume   435.37198844
_cell_formula_units_Z   1
loop_
 _symmetry_equiv_pos_site_id
 _symmetry_equiv_pos_as_xyz
  1  'x, y, z'
loop_
 _atom_site_type_symbol
 _atom_site_label
 _atom_site_symmetry_multiplicity
 _atom_site_fract_x
 _atom_site_fract_y
 _atom_site_fract_z
 _atom_site_occupancy
  Nd  Nd0  1  0.186641  0.813359  0.599258  1
  Nd  Nd1  1  0.813359  0.186641  0.400742  1
  Nd  Nd2  1  0.000000  0.000000  0.000000  1
  Fe  Fe3  1  0.500000  1.000000  0.000000  1
  Fe  Fe4  1  0.000000  0.500000  0.000000  1
  Fe  Fe5  1  0.188905  0.316165  0.596249  1
  Fe  Fe6  1  0.500000  0.500000  0.500000  1
  Fe  Fe7  1  0.708158  0.291842  0.859961  1
  Fe  Fe8  1  0.291842  0.708158  0.140039  1
  Fe  Fe9  1  0.479024  0.520976  0.747184  1
  Fe  Fe10  1  0.520976  0.479024  0.252816  1
  Fe  Fe11  1  0.683735  0.865709  0.196093  1
  Fe  Fe12  1  0.865709  0.683735  0.803907  1
  Fe  Fe13  1  0.316265  0.134291  0.803907  1
  Fe  Fe14  1  0.134291  0.316265  0.196093  1
  Fe  Fe15  1  0.460255  0.830447  0.375092  1
  Fe  Fe16  1  0.830447  0.460255  0.624908  1
  Fe  Fe17  1  0.539745  0.169553  0.624908  1
  Fe  Fe18  1  0.169553  0.539745  0.375092  1
  Fe  Fe19  1  0.360074  0.360074  0.000000  1
  Fe  Fe20  1  0.639926  0.639926  0.000000  1
  Fe  Fe21  1  0.719787  0.280213  0.106261  1
  Fe  Fe22  1  0.280213  0.719787  0.893739  1
  Fe  Fe23  1  0.902882  0.591121  0.197647  1
  Fe  Fe24  1  0.591121  0.902882  0.802353  1
  Fe  Fe25  1  0.097118  0.408879  0.802353  1
  Fe  Fe26  1  0.408879  0.097118  0.197647  1
  Fe  Fe27  1  0.095530  0.904470  0.290960  1
  Fe  Fe28  1  0.904470  0.095530  0.709040  1
  Fe  Fe29  1  0.683835  0.811095  0.596249  1
  Fe  Fe30  1  0.811095  0.683835  0.403751  1
  Fe  Fe31  1  0.316165  0.188905  0.403751  1
