# generated using pymatgen
data_Na(FeSb3)4
_symmetry_space_group_name_H-M   'P 1'
_cell_length_a   7.96978881
_cell_length_b   7.96978881
_cell_length_c   7.96978881
_cell_angle_alpha   109.47122063
_cell_angle_beta   109.47122063
_cell_angle_gamma   109.47122063
_symmetry_Int_Tables_number   1
_chemical_formula_structural   Na(FeSb3)4
_chemical_formula_sum   'Na1 Fe4 Sb12'
_cell_volume   389.68936123
_cell_formula_units_Z   1
loop_
 _symmetry_equiv_pos_site_id
 _symmetry_equiv_pos_as_xyz
  1  'x, y, z'
loop_
 _atom_site_type_symbol
 _atom_site_label
 _atom_site_symmetry_multiplicity
 _atom_site_fract_x
 _atom_site_fract_y
 _atom_site_fract_z
 _atom_site_occupancy
  Na  Na0  1  0.000000  0.000000  0.000000  1
  Fe  Fe1  1  0.500000  0.500000  0.500000  1
  Fe  Fe2  1  0.000000  0.500000  1.000000  1
  Fe  Fe3  1  0.000000  0.000000  0.500000  1
  Fe  Fe4  1  0.500000  0.000000  1.000000  1
  Sb  Sb5  1  0.495040  0.333914  0.161126  1
  Sb  Sb6  1  0.333914  0.838874  0.172788  1
  Sb  Sb7  1  0.161126  0.827212  0.666086  1
  Sb  Sb8  1  0.666086  0.838874  0.504960  1
  Sb  Sb9  1  0.838874  0.172788  0.333914  1
  Sb  Sb10  1  0.666086  0.161126  0.827212  1
  Sb  Sb11  1  0.838874  0.504960  0.666086  1
  Sb  Sb12  1  0.161126  0.495040  0.333914  1
  Sb  Sb13  1  0.333914  0.161126  0.495040  1
  Sb  Sb14  1  0.172788  0.333914  0.838874  1
  Sb  Sb15  1  0.827212  0.666086  0.161126  1
  Sb  Sb16  1  0.504960  0.666086  0.838874  1
