# generated using pymatgen
data_Ba(YTe2)2
_symmetry_space_group_name_H-M   'P 1'
_cell_length_a   4.49326768
_cell_length_b   13.83038130
_cell_length_c   16.33211366
_cell_angle_alpha   90.00000000
_cell_angle_beta   90.00000000
_cell_angle_gamma   90.00000000
_symmetry_Int_Tables_number   1
_chemical_formula_structural   Ba(YTe2)2
_chemical_formula_sum   'Ba4 Y8 Te16'
_cell_volume   1014.93642496
_cell_formula_units_Z   4
loop_
 _symmetry_equiv_pos_site_id
 _symmetry_equiv_pos_as_xyz
  1  'x, y, z'
loop_
 _atom_site_type_symbol
 _atom_site_label
 _atom_site_symmetry_multiplicity
 _atom_site_fract_x
 _atom_site_fract_y
 _atom_site_fract_z
 _atom_site_occupancy
  Ba  Ba0  1  0.250000  0.738523  0.169641  1
  Ba  Ba1  1  0.750000  0.261477  0.830359  1
  Ba  Ba2  1  0.250000  0.238523  0.330359  1
  Ba  Ba3  1  0.750000  0.761477  0.669641  1
  Y  Y4  1  0.250000  0.059007  0.109666  1
  Y  Y5  1  0.750000  0.940993  0.890334  1
  Y  Y6  1  0.250000  0.559007  0.390334  1
  Y  Y7  1  0.750000  0.440993  0.609666  1
  Y  Y8  1  0.750000  0.919061  0.403596  1
  Y  Y9  1  0.250000  0.080939  0.596404  1
  Y  Y10  1  0.750000  0.419061  0.096404  1
  Y  Y11  1  0.250000  0.580939  0.903596  1
  Te  Te12  1  0.750000  0.527626  0.784091  1
  Te  Te13  1  0.250000  0.472374  0.215909  1
  Te  Te14  1  0.750000  0.027626  0.715909  1
  Te  Te15  1  0.250000  0.972374  0.284091  1
  Te  Te16  1  0.750000  0.909519  0.076176  1
  Te  Te17  1  0.250000  0.090481  0.923824  1
  Te  Te18  1  0.750000  0.409519  0.423824  1
  Te  Te19  1  0.250000  0.590481  0.576176  1
  Te  Te20  1  0.750000  0.704610  0.339034  1
  Te  Te21  1  0.250000  0.295390  0.660966  1
  Te  Te22  1  0.750000  0.204610  0.160966  1
  Te  Te23  1  0.250000  0.795390  0.839034  1
  Te  Te24  1  0.750000  0.627273  0.028700  1
  Te  Te25  1  0.250000  0.372727  0.971300  1
  Te  Te26  1  0.750000  0.127273  0.471300  1
  Te  Te27  1  0.250000  0.872727  0.528700  1
