# generated using pymatgen
data_Ba2MnSe3
_symmetry_space_group_name_H-M   'P 1'
_cell_length_a   4.52444122
_cell_length_b   9.24743594
_cell_length_c   17.90888224
_cell_angle_alpha   90.00000000
_cell_angle_beta   90.00000000
_cell_angle_gamma   90.00000000
_symmetry_Int_Tables_number   1
_chemical_formula_structural   Ba2MnSe3
_chemical_formula_sum   'Ba8 Mn4 Se12'
_cell_volume   749.29832650
_cell_formula_units_Z   4
loop_
 _symmetry_equiv_pos_site_id
 _symmetry_equiv_pos_as_xyz
  1  'x, y, z'
loop_
 _atom_site_type_symbol
 _atom_site_label
 _atom_site_symmetry_multiplicity
 _atom_site_fract_x
 _atom_site_fract_y
 _atom_site_fract_z
 _atom_site_occupancy
  Ba  Ba0  1  0.250000  0.753257  0.957677  1
  Ba  Ba1  1  0.750000  0.246743  0.042323  1
  Ba  Ba2  1  0.250000  0.253257  0.542323  1
  Ba  Ba3  1  0.750000  0.746743  0.457677  1
  Ba  Ba4  1  0.250000  0.916844  0.214098  1
  Ba  Ba5  1  0.750000  0.083156  0.785902  1
  Ba  Ba6  1  0.250000  0.416844  0.285902  1
  Ba  Ba7  1  0.750000  0.583156  0.714098  1
  Mn  Mn8  1  0.750000  0.629482  0.134097  1
  Mn  Mn9  1  0.250000  0.870518  0.634097  1
  Mn  Mn10  1  0.750000  0.129482  0.365903  1
  Mn  Mn11  1  0.250000  0.370518  0.865903  1
  Se  Se12  1  0.250000  0.626471  0.572419  1
  Se  Se13  1  0.750000  0.373529  0.427581  1
  Se  Se14  1  0.250000  0.126471  0.927581  1
  Se  Se15  1  0.750000  0.873529  0.072419  1
  Se  Se16  1  0.250000  0.502783  0.100841  1
  Se  Se17  1  0.750000  0.997217  0.600841  1
  Se  Se18  1  0.250000  0.002783  0.399159  1
  Se  Se19  1  0.750000  0.497217  0.899159  1
  Se  Se20  1  0.750000  0.679755  0.272600  1
  Se  Se21  1  0.250000  0.320245  0.727400  1
  Se  Se22  1  0.750000  0.179755  0.227400  1
  Se  Se23  1  0.250000  0.820245  0.772600  1
