# generated using pymatgen
data_Na2Al2Si3O10
_symmetry_space_group_name_H-M   'P 1'
_cell_length_a   8.80026595
_cell_length_b   8.80026595
_cell_length_c   11.72473125
_cell_angle_alpha   50.27070785
_cell_angle_beta   129.72929215
_cell_angle_gamma   136.66972409
_symmetry_Int_Tables_number   1
_chemical_formula_structural   Na2Al2Si3O10
_chemical_formula_sum   'Na4 Al4 Si6 O20'
_cell_volume   452.32957682
_cell_formula_units_Z   2
loop_
 _symmetry_equiv_pos_site_id
 _symmetry_equiv_pos_as_xyz
  1  'x, y, z'
loop_
 _atom_site_type_symbol
 _atom_site_label
 _atom_site_symmetry_multiplicity
 _atom_site_fract_x
 _atom_site_fract_y
 _atom_site_fract_z
 _atom_site_occupancy
  Na  Na0  1  0.389371  0.901471  0.362766  1
  Na  Na1  1  0.901471  0.389371  0.637234  1
  Na  Na2  1  0.763160  0.032595  0.144785  1
  Na  Na3  1  0.032595  0.763160  0.855215  1
  Al  Al4  1  0.746368  0.483975  0.213185  1
  Al  Al5  1  0.483975  0.746368  0.786815  1
  Al  Al6  1  0.280843  0.463567  0.283167  1
  Al  Al7  1  0.463567  0.280843  0.716833  1
  Si  Si8  1  0.995759  0.995759  0.000000  1
  Si  Si9  1  0.753603  0.753603  0.500000  1
  Si  Si10  1  0.998350  0.254422  0.469929  1
  Si  Si11  1  0.254422  0.998350  0.530071  1
  Si  Si12  1  0.460207  0.280030  0.959964  1
  Si  Si13  1  0.280030  0.460207  0.040036  1
  O  O14  1  0.981500  0.756094  0.144441  1
  O  O15  1  0.756094  0.981500  0.855559  1
  O  O16  1  0.525783  0.716605  0.340512  1
  O  O17  1  0.716605  0.525783  0.659488  1
  O  O18  1  0.857528  0.356192  0.420440  1
  O  O19  1  0.356192  0.857528  0.579560  1
  O  O20  1  0.526851  0.187720  0.921315  1
  O  O21  1  0.187720  0.526851  0.078685  1
  O  O22  1  0.571228  0.250041  0.144626  1
  O  O23  1  0.250041  0.571228  0.855374  1
  O  O24  1  0.247301  0.345254  0.606785  1
  O  O25  1  0.345254  0.247301  0.393215  1
  O  O26  1  0.553507  0.554400  0.850390  1
  O  O27  1  0.554400  0.553507  0.149610  1
  O  O28  1  0.033323  0.332675  0.315508  1
  O  O29  1  0.332675  0.033323  0.684492  1
  O  O30  1  0.169674  0.105334  0.917873  1
  O  O31  1  0.105334  0.169674  0.082127  1
  O  O32  1  0.829210  0.960057  0.534431  1
  O  O33  1  0.960057  0.829210  0.465569  1
