# generated using pymatgen
data_ThB12
_symmetry_space_group_name_H-M   'P 1'
_cell_length_a   5.37460036
_cell_length_b   5.37460036
_cell_length_c   5.37460036
_cell_angle_alpha   60.00000000
_cell_angle_beta   60.00000000
_cell_angle_gamma   60.00000000
_symmetry_Int_Tables_number   1
_chemical_formula_structural   ThB12
_chemical_formula_sum   'Th1 B12'
_cell_volume   109.78007724
_cell_formula_units_Z   1
loop_
 _symmetry_equiv_pos_site_id
 _symmetry_equiv_pos_as_xyz
  1  'x, y, z'
loop_
 _atom_site_type_symbol
 _atom_site_label
 _atom_site_symmetry_multiplicity
 _atom_site_fract_x
 _atom_site_fract_y
 _atom_site_fract_z
 _atom_site_occupancy
  Th  Th0  1  0.000000  0.000000  0.000000  1
  B  B1  1  0.162616  0.837384  0.500000  1
  B  B2  1  0.500000  0.162616  0.837384  1
  B  B3  1  0.500000  0.837384  0.500000  1
  B  B4  1  0.162616  0.500000  0.837384  1
  B  B5  1  0.837384  0.500000  0.500000  1
  B  B6  1  0.500000  0.162616  0.500000  1
  B  B7  1  0.837384  0.500000  0.162616  1
  B  B8  1  0.162616  0.500000  0.500000  1
  B  B9  1  0.837384  0.162616  0.500000  1
  B  B10  1  0.500000  0.837384  0.162616  1
  B  B11  1  0.500000  0.500000  0.837384  1
  B  B12  1  0.500000  0.500000  0.162616  1
