# generated using pymatgen
data_Y2Al
_symmetry_space_group_name_H-M   'P 1'
_cell_length_a   5.11495571
_cell_length_b   6.60678035
_cell_length_c   9.49106231
_cell_angle_alpha   90.00000000
_cell_angle_beta   90.00000000
_cell_angle_gamma   90.00000000
_symmetry_Int_Tables_number   1
_chemical_formula_structural   Y2Al
_chemical_formula_sum   'Y8 Al4'
_cell_volume   320.73515949
_cell_formula_units_Z   4
loop_
 _symmetry_equiv_pos_site_id
 _symmetry_equiv_pos_as_xyz
  1  'x, y, z'
loop_
 _atom_site_type_symbol
 _atom_site_label
 _atom_site_symmetry_multiplicity
 _atom_site_fract_x
 _atom_site_fract_y
 _atom_site_fract_z
 _atom_site_occupancy
  Y  Y0  1  0.750000  0.186471  0.072688  1
  Y  Y1  1  0.250000  0.813529  0.927312  1
  Y  Y2  1  0.750000  0.686471  0.427312  1
  Y  Y3  1  0.250000  0.313529  0.572688  1
  Y  Y4  1  0.750000  0.027155  0.708170  1
  Y  Y5  1  0.250000  0.972845  0.291830  1
  Y  Y6  1  0.750000  0.527155  0.791830  1
  Y  Y7  1  0.250000  0.472845  0.208170  1
  Al  Al8  1  0.750000  0.709198  0.103734  1
  Al  Al9  1  0.250000  0.290802  0.896266  1
  Al  Al10  1  0.750000  0.209198  0.396266  1
  Al  Al11  1  0.250000  0.790802  0.603734  1
