# generated using pymatgen
data_BaHo2CuO5
_symmetry_space_group_name_H-M   'P 1'
_cell_length_a   5.68849879
_cell_length_b   7.20474738
_cell_length_c   12.21924394
_cell_angle_alpha   90.00000000
_cell_angle_beta   90.00000000
_cell_angle_gamma   90.00000000
_symmetry_Int_Tables_number   1
_chemical_formula_structural   BaHo2CuO5
_chemical_formula_sum   'Ba4 Ho8 Cu4 O20'
_cell_volume   500.79589781
_cell_formula_units_Z   4
loop_
 _symmetry_equiv_pos_site_id
 _symmetry_equiv_pos_as_xyz
  1  'x, y, z'
loop_
 _atom_site_type_symbol
 _atom_site_label
 _atom_site_symmetry_multiplicity
 _atom_site_fract_x
 _atom_site_fract_y
 _atom_site_fract_z
 _atom_site_occupancy
  Ba  Ba0  1  0.750000  0.068889  0.095782  1
  Ba  Ba1  1  0.750000  0.431111  0.595782  1
  Ba  Ba2  1  0.250000  0.568889  0.404218  1
  Ba  Ba3  1  0.250000  0.931111  0.904218  1
  Ho  Ho4  1  0.250000  0.396917  0.073902  1
  Ho  Ho5  1  0.750000  0.613479  0.212991  1
  Ho  Ho6  1  0.750000  0.886521  0.712991  1
  Ho  Ho7  1  0.250000  0.113479  0.287009  1
  Ho  Ho8  1  0.750000  0.603083  0.926098  1
  Ho  Ho9  1  0.750000  0.896917  0.426098  1
  Ho  Ho10  1  0.250000  0.103083  0.573902  1
  Ho  Ho11  1  0.250000  0.386521  0.787009  1
  Cu  Cu12  1  0.250000  0.782264  0.160636  1
  Cu  Cu13  1  0.750000  0.217736  0.839364  1
  Cu  Cu14  1  0.750000  0.282264  0.339364  1
  Cu  Cu15  1  0.250000  0.717736  0.660636  1
  O  O16  1  0.250000  0.414640  0.600183  1
  O  O17  1  0.750000  0.585360  0.399817  1
  O  O18  1  0.750000  0.914640  0.899817  1
  O  O19  1  0.250000  0.085360  0.100183  1
  O  O20  1  0.003119  0.856411  0.271913  1
  O  O21  1  0.503119  0.143589  0.728087  1
  O  O22  1  0.996881  0.356411  0.228087  1
  O  O23  1  0.496881  0.643589  0.771913  1
  O  O24  1  0.996881  0.143589  0.728087  1
  O  O25  1  0.496881  0.856411  0.271913  1
  O  O26  1  0.003119  0.643589  0.771913  1
  O  O27  1  0.503119  0.356411  0.228087  1
  O  O28  1  0.494926  0.660912  0.068057  1
  O  O29  1  0.994926  0.339088  0.931943  1
  O  O30  1  0.505074  0.160912  0.431943  1
  O  O31  1  0.005074  0.839088  0.568057  1
  O  O32  1  0.994926  0.160912  0.431943  1
  O  O33  1  0.494926  0.839088  0.568057  1
  O  O34  1  0.005074  0.660912  0.068057  1
  O  O35  1  0.505074  0.339088  0.931943  1
