# generated using pymatgen
data_Na3Cu2SbO6
_symmetry_space_group_name_H-M   'P 1'
_cell_length_a   5.35164837
_cell_length_b   5.35164837
_cell_length_c   5.95539540
_cell_angle_alpha   76.63845109
_cell_angle_beta   103.36154891
_cell_angle_gamma   66.63432291
_symmetry_Int_Tables_number   1
_chemical_formula_structural   Na3Cu2SbO6
_chemical_formula_sum   'Na3 Cu2 Sb1 O6'
_cell_volume   142.04350349
_cell_formula_units_Z   1
loop_
 _symmetry_equiv_pos_site_id
 _symmetry_equiv_pos_as_xyz
  1  'x, y, z'
loop_
 _atom_site_type_symbol
 _atom_site_label
 _atom_site_symmetry_multiplicity
 _atom_site_fract_x
 _atom_site_fract_y
 _atom_site_fract_z
 _atom_site_occupancy
  Na  Na0  1  0.827410  0.827410  0.500000  1
  Na  Na1  1  0.172590  0.172590  0.500000  1
  Na  Na2  1  0.500000  0.500000  0.500000  1
  Cu  Cu3  1  0.333381  0.333381  0.000000  1
  Cu  Cu4  1  0.666619  0.666619  0.000000  1
  Sb  Sb5  1  0.000000  0.000000  0.000000  1
  O  O6  1  0.639139  0.032365  0.773544  1
  O  O7  1  0.745861  0.254139  0.168223  1
  O  O8  1  0.254139  0.745861  0.831777  1
  O  O9  1  0.967635  0.360861  0.773544  1
  O  O10  1  0.360861  0.967635  0.226456  1
  O  O11  1  0.032365  0.639139  0.226456  1
