# generated using pymatgen
data_YGa2Ni
_symmetry_space_group_name_H-M   'P 1'
_cell_length_a   5.47729370
_cell_length_b   5.47729370
_cell_length_c   6.66156112
_cell_angle_alpha   90.00000000
_cell_angle_beta   90.00000000
_cell_angle_gamma   135.65300917
_symmetry_Int_Tables_number   1
_chemical_formula_structural   YGa2Ni
_chemical_formula_sum   'Y2 Ga4 Ni2'
_cell_volume   139.69681555
_cell_formula_units_Z   2
loop_
 _symmetry_equiv_pos_site_id
 _symmetry_equiv_pos_as_xyz
  1  'x, y, z'
loop_
 _atom_site_type_symbol
 _atom_site_label
 _atom_site_symmetry_multiplicity
 _atom_site_fract_x
 _atom_site_fract_y
 _atom_site_fract_z
 _atom_site_occupancy
  Y  Y0  1  0.928250  0.071750  0.750000  1
  Y  Y1  1  0.071750  0.928250  0.250000  1
  Ga  Ga2  1  0.644613  0.355387  0.946078  1
  Ga  Ga3  1  0.644613  0.355387  0.553922  1
  Ga  Ga4  1  0.355387  0.644613  0.053922  1
  Ga  Ga5  1  0.355387  0.644613  0.446078  1
  Ni  Ni6  1  0.210026  0.789974  0.750000  1
  Ni  Ni7  1  0.789974  0.210026  0.250000  1
