# generated using pymatgen
data_Cu4Ag(AsO4)3
_symmetry_space_group_name_H-M   'P 1'
_cell_length_a   8.77826999
_cell_length_b   8.77826999
_cell_length_c   7.58887985
_cell_angle_alpha   70.34275731
_cell_angle_beta   109.65724269
_cell_angle_gamma   88.63782719
_symmetry_Int_Tables_number   1
_chemical_formula_structural   Cu4Ag(AsO4)3
_chemical_formula_sum   'Cu8 Ag2 As6 O24'
_cell_volume   512.39061395
_cell_formula_units_Z   2
loop_
 _symmetry_equiv_pos_site_id
 _symmetry_equiv_pos_as_xyz
  1  'x, y, z'
loop_
 _atom_site_type_symbol
 _atom_site_label
 _atom_site_symmetry_multiplicity
 _atom_site_fract_x
 _atom_site_fract_y
 _atom_site_fract_z
 _atom_site_occupancy
  Cu  Cu0  1  0.064702  0.620660  0.141512  1
  Cu  Cu1  1  0.264697  0.264697  0.750000  1
  Cu  Cu2  1  0.735303  0.735303  0.250000  1
  Cu  Cu3  1  0.379340  0.935298  0.641512  1
  Cu  Cu4  1  0.935298  0.379340  0.858488  1
  Cu  Cu5  1  0.620660  0.064702  0.358488  1
  Cu  Cu6  1  0.506856  0.506856  0.750000  1
  Cu  Cu7  1  0.493144  0.493144  0.250000  1
  Ag  Ag8  1  0.011323  0.011323  0.250000  1
  Ag  Ag9  1  0.988677  0.988677  0.750000  1
  As  As10  1  0.107870  0.653298  0.616136  1
  As  As11  1  0.726753  0.726753  0.750000  1
  As  As12  1  0.273247  0.273247  0.250000  1
  As  As13  1  0.653298  0.107870  0.883864  1
  As  As14  1  0.346702  0.892130  0.116136  1
  As  As15  1  0.892130  0.346702  0.383864  1
  O  O16  1  0.154622  0.245489  0.035641  1
  O  O17  1  0.245489  0.154622  0.464359  1
  O  O18  1  0.845378  0.754511  0.964359  1
  O  O19  1  0.754511  0.845378  0.535641  1
  O  O20  1  0.973477  0.414039  0.198045  1
  O  O21  1  0.414039  0.973477  0.301955  1
  O  O22  1  0.026523  0.585961  0.801955  1
  O  O23  1  0.585961  0.026523  0.698045  1
  O  O24  1  0.976656  0.686212  0.373374  1
  O  O25  1  0.686212  0.976656  0.126626  1
  O  O26  1  0.023344  0.313788  0.626626  1
  O  O27  1  0.313788  0.023344  0.873374  1
  O  O28  1  0.273014  0.480599  0.238077  1
  O  O29  1  0.480599  0.273014  0.261923  1
  O  O30  1  0.726986  0.519401  0.761923  1
  O  O31  1  0.519401  0.726986  0.738077  1
  O  O32  1  0.171555  0.839684  0.608041  1
  O  O33  1  0.839684  0.171555  0.891959  1
  O  O34  1  0.828445  0.160316  0.391959  1
  O  O35  1  0.160316  0.828445  0.108041  1
  O  O36  1  0.504491  0.273473  0.825842  1
  O  O37  1  0.273473  0.504491  0.674158  1
  O  O38  1  0.495509  0.726527  0.174158  1
  O  O39  1  0.726527  0.495509  0.325842  1
