# generated using pymatgen
data_NaNd(GaS2)4
_symmetry_space_group_name_H-M   'P 1'
_cell_length_a   14.45863971
_cell_length_b   11.94023403
_cell_length_c   11.90717446
_cell_angle_alpha   74.64448339
_cell_angle_beta   52.78193962
_cell_angle_gamma   52.57357699
_symmetry_Int_Tables_number   1
_chemical_formula_structural   NaNd(GaS2)4
_chemical_formula_sum   'Na4 Nd4 Ga16 S32'
_cell_volume   1282.70777576
_cell_formula_units_Z   4
loop_
 _symmetry_equiv_pos_site_id
 _symmetry_equiv_pos_as_xyz
  1  'x, y, z'
loop_
 _atom_site_type_symbol
 _atom_site_label
 _atom_site_symmetry_multiplicity
 _atom_site_fract_x
 _atom_site_fract_y
 _atom_site_fract_z
 _atom_site_occupancy
  Na  Na0  1  0.753700  0.753700  0.246300  1
  Na  Na1  1  0.003700  0.003700  0.496300  1
  Na  Na2  1  0.496300  0.496300  0.003700  1
  Na  Na3  1  0.246300  0.246300  0.753700  1
  Nd  Nd4  1  0.250000  0.250000  0.250000  1
  Nd  Nd5  1  0.000000  0.000000  0.000000  1
  Nd  Nd6  1  0.750000  0.750000  0.750000  1
  Nd  Nd7  1  0.500000  0.500000  0.500000  1
  Ga  Ga8  1  0.092328  0.655973  0.266638  1
  Ga  Ga9  1  0.985061  0.266638  0.655973  1
  Ga  Ga10  1  0.655973  0.092328  0.985061  1
  Ga  Ga11  1  0.266638  0.985061  0.092328  1
  Ga  Ga12  1  0.157672  0.594027  0.983362  1
  Ga  Ga13  1  0.264939  0.983362  0.594027  1
  Ga  Ga14  1  0.594027  0.157672  0.264939  1
  Ga  Ga15  1  0.983362  0.264939  0.157672  1
  Ga  Ga16  1  0.014608  0.740591  0.758270  1
  Ga  Ga17  1  0.486531  0.758270  0.740591  1
  Ga  Ga18  1  0.740591  0.014608  0.486531  1
  Ga  Ga19  1  0.758270  0.486531  0.014608  1
  Ga  Ga20  1  0.235392  0.509409  0.491730  1
  Ga  Ga21  1  0.763469  0.491730  0.509409  1
  Ga  Ga22  1  0.509409  0.235392  0.763469  1
  Ga  Ga23  1  0.491730  0.763469  0.235392  1
  S  S24  1  0.037641  0.042891  0.717410  1
  S  S25  1  0.717410  0.202058  0.037641  1
  S  S26  1  0.042891  0.037641  0.202058  1
  S  S27  1  0.202058  0.717410  0.042891  1
  S  S28  1  0.212359  0.207109  0.532590  1
  S  S29  1  0.047942  0.532590  0.207109  1
  S  S30  1  0.207109  0.212359  0.047942  1
  S  S31  1  0.532590  0.047942  0.212359  1
  S  S32  1  0.706996  0.711798  0.549465  1
  S  S33  1  0.031741  0.549465  0.711798  1
  S  S34  1  0.711798  0.706996  0.031741  1
  S  S35  1  0.549465  0.031741  0.706996  1
  S  S36  1  0.543004  0.538202  0.700535  1
  S  S37  1  0.218259  0.700535  0.538202  1
  S  S38  1  0.538202  0.543004  0.218259  1
  S  S39  1  0.700535  0.218259  0.543004  1
  S  S40  1  0.809529  0.939769  0.777866  1
  S  S41  1  0.472836  0.777866  0.939769  1
  S  S42  1  0.939769  0.809529  0.472836  1
  S  S43  1  0.777866  0.472836  0.809529  1
  S  S44  1  0.974904  0.783492  0.963197  1
  S  S45  1  0.278407  0.963197  0.783492  1
  S  S46  1  0.783492  0.974904  0.278407  1
  S  S47  1  0.963197  0.278407  0.974904  1
  S  S48  1  0.275096  0.466508  0.286803  1
  S  S49  1  0.971593  0.286803  0.466508  1
  S  S50  1  0.466508  0.275096  0.971593  1
  S  S51  1  0.286803  0.971593  0.275096  1
  S  S52  1  0.472134  0.777164  0.440471  1
  S  S53  1  0.310231  0.440471  0.777164  1
  S  S54  1  0.777164  0.472134  0.310231  1
  S  S55  1  0.440471  0.310231  0.472134  1
