# generated using pymatgen
data_CaCd2
_symmetry_space_group_name_H-M   'P 1'
_cell_length_a   6.21842565
_cell_length_b   6.21842565
_cell_length_c   6.21842565
_cell_angle_alpha   132.27864595
_cell_angle_beta   107.71439547
_cell_angle_gamma   91.31739112
_symmetry_Int_Tables_number   1
_chemical_formula_structural   CaCd2
_chemical_formula_sum   'Ca2 Cd4'
_cell_volume   160.38873465
_cell_formula_units_Z   2
loop_
 _symmetry_equiv_pos_site_id
 _symmetry_equiv_pos_as_xyz
  1  'x, y, z'
loop_
 _atom_site_type_symbol
 _atom_site_label
 _atom_site_symmetry_multiplicity
 _atom_site_fract_x
 _atom_site_fract_y
 _atom_site_fract_z
 _atom_site_occupancy
  Ca  Ca0  1  0.224708  0.474708  0.250000  1
  Ca  Ca1  1  0.775292  0.525292  0.750000  1
  Cd  Cd2  1  0.804370  0.834216  0.470155  1
  Cd  Cd3  1  0.195630  0.165784  0.529845  1
  Cd  Cd4  1  0.635939  0.165784  0.970155  1
  Cd  Cd5  1  0.364061  0.834216  0.029845  1
