# generated using pymatgen
data_NaPr2IrO6
_symmetry_space_group_name_H-M   'P 1'
_cell_length_a   5.58127583
_cell_length_b   6.01083143
_cell_length_c   9.73556952
_cell_angle_alpha   90.00000000
_cell_angle_beta   124.15188033
_cell_angle_gamma   90.00000000
_symmetry_Int_Tables_number   1
_chemical_formula_structural   NaPr2IrO6
_chemical_formula_sum   'Na2 Pr4 Ir2 O12'
_cell_volume   270.28682184
_cell_formula_units_Z   2
loop_
 _symmetry_equiv_pos_site_id
 _symmetry_equiv_pos_as_xyz
  1  'x, y, z'
loop_
 _atom_site_type_symbol
 _atom_site_label
 _atom_site_symmetry_multiplicity
 _atom_site_fract_x
 _atom_site_fract_y
 _atom_site_fract_z
 _atom_site_occupancy
  Na  Na0  1  0.000000  0.500000  0.500000  1
  Na  Na1  1  0.000000  0.000000  0.000000  1
  Pr  Pr2  1  0.774326  0.426929  0.753224  1
  Pr  Pr3  1  0.774326  0.073071  0.253224  1
  Pr  Pr4  1  0.225674  0.926929  0.746776  1
  Pr  Pr5  1  0.225674  0.573071  0.246776  1
  Ir  Ir6  1  0.500000  0.000000  0.500000  1
  Ir  Ir7  1  0.500000  0.500000  0.000000  1
  O  O8  1  0.730164  0.719002  0.566400  1
  O  O9  1  0.269836  0.219002  0.933600  1
  O  O10  1  0.269836  0.280998  0.433600  1
  O  O11  1  0.730164  0.780998  0.066400  1
  O  O12  1  0.614511  0.047356  0.732469  1
  O  O13  1  0.385489  0.547356  0.767531  1
  O  O14  1  0.385489  0.952644  0.267531  1
  O  O15  1  0.614511  0.452644  0.232469  1
  O  O16  1  0.846344  0.325204  0.051735  1
  O  O17  1  0.153656  0.825204  0.448265  1
  O  O18  1  0.153656  0.674796  0.948265  1
  O  O19  1  0.846344  0.174796  0.551735  1
