# generated using pymatgen
data_SrWO4
_symmetry_space_group_name_H-M   'P 1'
_cell_length_a   7.18522783
_cell_length_b   7.18522783
_cell_length_c   7.18522783
_cell_angle_alpha   134.64597541
_cell_angle_beta   134.64597541
_cell_angle_gamma   66.08077422
_symmetry_Int_Tables_number   1
_chemical_formula_structural   SrWO4
_chemical_formula_sum   'Sr2 W2 O8'
_cell_volume   184.88584764
_cell_formula_units_Z   2
loop_
 _symmetry_equiv_pos_site_id
 _symmetry_equiv_pos_as_xyz
  1  'x, y, z'
loop_
 _atom_site_type_symbol
 _atom_site_label
 _atom_site_symmetry_multiplicity
 _atom_site_fract_x
 _atom_site_fract_y
 _atom_site_fract_z
 _atom_site_occupancy
  Sr  Sr0  1  0.750000  0.250000  0.500000  1
  Sr  Sr1  1  0.000000  0.000000  0.000000  1
  W  W2  1  0.250000  0.750000  0.500000  1
  W  W3  1  0.500000  0.500000  0.000000  1
  O  O4  1  0.571159  0.971864  0.876049  1
  O  O5  1  0.095815  0.695110  0.123951  1
  O  O6  1  0.445110  0.821159  0.099295  1
  O  O7  1  0.721864  0.345815  0.900705  1
  O  O8  1  0.178841  0.278136  0.623951  1
  O  O9  1  0.654185  0.554890  0.376049  1
  O  O10  1  0.304890  0.428841  0.400705  1
  O  O11  1  0.028136  0.904185  0.599295  1
