# generated using pymatgen
data_Y5Pt4
_symmetry_space_group_name_H-M   'P 1'
_cell_length_a   7.53693129
_cell_length_b   7.60729378
_cell_length_c   14.74598221
_cell_angle_alpha   90.00000000
_cell_angle_beta   90.00000000
_cell_angle_gamma   90.00000000
_symmetry_Int_Tables_number   1
_chemical_formula_structural   Y5Pt4
_chemical_formula_sum   'Y20 Pt16'
_cell_volume   845.47048261
_cell_formula_units_Z   4
loop_
 _symmetry_equiv_pos_site_id
 _symmetry_equiv_pos_as_xyz
  1  'x, y, z'
loop_
 _atom_site_type_symbol
 _atom_site_label
 _atom_site_symmetry_multiplicity
 _atom_site_fract_x
 _atom_site_fract_y
 _atom_site_fract_z
 _atom_site_occupancy
  Y  Y0  1  0.681387  0.988221  0.250000  1
  Y  Y1  1  0.181387  0.511779  0.250000  1
  Y  Y2  1  0.818613  0.488221  0.750000  1
  Y  Y3  1  0.318613  0.011779  0.750000  1
  Y  Y4  1  0.656300  0.833269  0.622342  1
  Y  Y5  1  0.156300  0.666731  0.877658  1
  Y  Y6  1  0.843700  0.333269  0.377658  1
  Y  Y7  1  0.343700  0.166731  0.122342  1
  Y  Y8  1  0.343700  0.166731  0.377658  1
  Y  Y9  1  0.843700  0.333269  0.122342  1
  Y  Y10  1  0.156300  0.666731  0.622342  1
  Y  Y11  1  0.656300  0.833269  0.877658  1
  Y  Y12  1  0.997834  0.819259  0.406925  1
  Y  Y13  1  0.497834  0.680741  0.093075  1
  Y  Y14  1  0.502166  0.319259  0.593075  1
  Y  Y15  1  0.002166  0.180741  0.906925  1
  Y  Y16  1  0.002166  0.180741  0.593075  1
  Y  Y17  1  0.502166  0.319259  0.906925  1
  Y  Y18  1  0.497834  0.680741  0.406925  1
  Y  Y19  1  0.997834  0.819259  0.093075  1
  Pt  Pt20  1  0.815061  0.641165  0.250000  1
  Pt  Pt21  1  0.315061  0.858835  0.250000  1
  Pt  Pt22  1  0.684939  0.141165  0.750000  1
  Pt  Pt23  1  0.184939  0.358835  0.750000  1
  Pt  Pt24  1  0.547268  0.387676  0.250000  1
  Pt  Pt25  1  0.047268  0.112324  0.250000  1
  Pt  Pt26  1  0.952732  0.887676  0.750000  1
  Pt  Pt27  1  0.452732  0.612324  0.750000  1
  Pt  Pt28  1  0.817035  0.532107  0.541886  1
  Pt  Pt29  1  0.317035  0.967893  0.958114  1
  Pt  Pt30  1  0.682965  0.032107  0.458114  1
  Pt  Pt31  1  0.182965  0.467893  0.041886  1
  Pt  Pt32  1  0.182965  0.467893  0.458114  1
  Pt  Pt33  1  0.682965  0.032107  0.041886  1
  Pt  Pt34  1  0.317035  0.967893  0.541886  1
  Pt  Pt35  1  0.817035  0.532107  0.958114  1
