# generated using pymatgen
data_MnAl6
_symmetry_space_group_name_H-M   'P 1'
_cell_length_a   4.96433086
_cell_length_b   4.96433086
_cell_length_c   8.81915296
_cell_angle_alpha   90.00000000
_cell_angle_beta   90.00000000
_cell_angle_gamma   98.81538997
_symmetry_Int_Tables_number   1
_chemical_formula_structural   MnAl6
_chemical_formula_sum   'Mn2 Al12'
_cell_volume   214.77689453
_cell_formula_units_Z   2
loop_
 _symmetry_equiv_pos_site_id
 _symmetry_equiv_pos_as_xyz
  1  'x, y, z'
loop_
 _atom_site_type_symbol
 _atom_site_label
 _atom_site_symmetry_multiplicity
 _atom_site_fract_x
 _atom_site_fract_y
 _atom_site_fract_z
 _atom_site_occupancy
  Mn  Mn0  1  0.543141  0.543141  0.750000  1
  Mn  Mn1  1  0.456859  0.456859  0.250000  1
  Al  Al2  1  0.396199  0.031282  0.750000  1
  Al  Al3  1  0.603801  0.968718  0.250000  1
  Al  Al4  1  0.673336  0.326664  1.000000  1
  Al  Al5  1  0.326664  0.673336  0.500000  1
  Al  Al6  1  0.326664  0.673336  0.000000  1
  Al  Al7  1  0.673336  0.326664  0.500000  1
  Al  Al8  1  0.140228  0.140228  0.100423  1
  Al  Al9  1  0.859772  0.859772  0.600423  1
  Al  Al10  1  0.140228  0.140228  0.399577  1
  Al  Al11  1  0.859772  0.859772  0.899577  1
  Al  Al12  1  0.968718  0.603801  0.250000  1
  Al  Al13  1  0.031282  0.396199  0.750000  1
