# generated using pymatgen
data_ZnWO4
_symmetry_space_group_name_H-M   'P 1'
_cell_length_a   4.75913001
_cell_length_b   5.85530159
_cell_length_c   5.01788352
_cell_angle_alpha   90.00000000
_cell_angle_beta   91.81138877
_cell_angle_gamma   90.00000000
_symmetry_Int_Tables_number   1
_chemical_formula_structural   ZnWO4
_chemical_formula_sum   'Zn2 W2 O8'
_cell_volume   139.75917944
_cell_formula_units_Z   2
loop_
 _symmetry_equiv_pos_site_id
 _symmetry_equiv_pos_as_xyz
  1  'x, y, z'
loop_
 _atom_site_type_symbol
 _atom_site_label
 _atom_site_symmetry_multiplicity
 _atom_site_fract_x
 _atom_site_fract_y
 _atom_site_fract_z
 _atom_site_occupancy
  Zn  Zn0  1  0.500000  0.678000  0.750000  1
  Zn  Zn1  1  0.500000  0.322000  0.250000  1
  W  W2  1  0.000000  0.174383  0.750000  1
  W  W3  1  0.000000  0.825617  0.250000  1
  O  O4  1  0.214951  0.106505  0.434643  1
  O  O5  1  0.785049  0.106505  0.065357  1
  O  O6  1  0.785049  0.893495  0.565357  1
  O  O7  1  0.214951  0.893495  0.934643  1
  O  O8  1  0.257842  0.370401  0.905064  1
  O  O9  1  0.742158  0.370401  0.594936  1
  O  O10  1  0.742158  0.629599  0.094936  1
  O  O11  1  0.257842  0.629599  0.405064  1
