# generated using pymatgen
data_NaGeAu3
_symmetry_space_group_name_H-M   'P 1'
_cell_length_a   9.20486044
_cell_length_b   9.20486044
_cell_length_c   9.20486044
_cell_angle_alpha   90.00000000
_cell_angle_beta   90.00000000
_cell_angle_gamma   90.00000000
_symmetry_Int_Tables_number   1
_chemical_formula_structural   NaGeAu3
_chemical_formula_sum   'Na8 Ge8 Au24'
_cell_volume   779.92281506
_cell_formula_units_Z   8
loop_
 _symmetry_equiv_pos_site_id
 _symmetry_equiv_pos_as_xyz
  1  'x, y, z'
loop_
 _atom_site_type_symbol
 _atom_site_label
 _atom_site_symmetry_multiplicity
 _atom_site_fract_x
 _atom_site_fract_y
 _atom_site_fract_z
 _atom_site_occupancy
  Na  Na0  1  0.099005  0.099005  0.099005  1
  Na  Na1  1  0.400995  0.900995  0.599005  1
  Na  Na2  1  0.599005  0.400995  0.900995  1
  Na  Na3  1  0.900995  0.599005  0.400995  1
  Na  Na4  1  0.900995  0.900995  0.900995  1
  Na  Na5  1  0.599005  0.099005  0.400995  1
  Na  Na6  1  0.400995  0.599005  0.099005  1
  Na  Na7  1  0.099005  0.400995  0.599005  1
  Ge  Ge8  1  0.112484  0.887516  0.387516  1
  Ge  Ge9  1  0.887516  0.387516  0.112484  1
  Ge  Ge10  1  0.612484  0.612484  0.612484  1
  Ge  Ge11  1  0.612484  0.887516  0.112484  1
  Ge  Ge12  1  0.887516  0.112484  0.612484  1
  Ge  Ge13  1  0.112484  0.612484  0.887516  1
  Ge  Ge14  1  0.387516  0.387516  0.387516  1
  Ge  Ge15  1  0.387516  0.112484  0.887516  1
  Au  Au16  1  0.590874  0.731471  0.361136  1
  Au  Au17  1  0.731471  0.361136  0.590874  1
  Au  Au18  1  0.768529  0.638864  0.090874  1
  Au  Au19  1  0.268529  0.861136  0.909126  1
  Au  Au20  1  0.638864  0.090874  0.768529  1
  Au  Au21  1  0.590874  0.768529  0.861136  1
  Au  Au22  1  0.861136  0.590874  0.768529  1
  Au  Au23  1  0.638864  0.409126  0.268529  1
  Au  Au24  1  0.090874  0.731471  0.138864  1
  Au  Au25  1  0.138864  0.090874  0.731471  1
  Au  Au26  1  0.909126  0.231471  0.361136  1
  Au  Au27  1  0.409126  0.268529  0.638864  1
  Au  Au28  1  0.361136  0.909126  0.231471  1
  Au  Au29  1  0.268529  0.638864  0.409126  1
  Au  Au30  1  0.231471  0.361136  0.909126  1
  Au  Au31  1  0.731471  0.138864  0.090874  1
  Au  Au32  1  0.090874  0.768529  0.638864  1
  Au  Au33  1  0.861136  0.909126  0.268529  1
  Au  Au34  1  0.909126  0.268529  0.861136  1
  Au  Au35  1  0.361136  0.590874  0.731471  1
  Au  Au36  1  0.138864  0.409126  0.231471  1
  Au  Au37  1  0.409126  0.231471  0.138864  1
  Au  Au38  1  0.231471  0.138864  0.409126  1
  Au  Au39  1  0.768529  0.861136  0.590874  1
