# generated using pymatgen
data_BaGd2NiO5
_symmetry_space_group_name_H-M   'P 1'
_cell_length_a   6.76244617
_cell_length_b   6.76244617
_cell_length_c   6.76244617
_cell_angle_alpha   147.05988037
_cell_angle_beta   128.52152997
_cell_angle_gamma   62.48066030
_symmetry_Int_Tables_number   1
_chemical_formula_structural   BaGd2NiO5
_chemical_formula_sum   'Ba1 Gd2 Ni1 O5'
_cell_volume   130.22010623
_cell_formula_units_Z   1
loop_
 _symmetry_equiv_pos_site_id
 _symmetry_equiv_pos_as_xyz
  1  'x, y, z'
loop_
 _atom_site_type_symbol
 _atom_site_label
 _atom_site_symmetry_multiplicity
 _atom_site_fract_x
 _atom_site_fract_y
 _atom_site_fract_z
 _atom_site_occupancy
  Ba  Ba0  1  0.000000  0.000000  0.000000  1
  Gd  Gd1  1  0.296570  0.796570  0.500000  1
  Gd  Gd2  1  0.703430  0.203430  0.500000  1
  Ni  Ni3  1  0.500000  0.500000  0.000000  1
  O  O4  1  0.593672  0.352288  0.241385  1
  O  O5  1  0.406328  0.647712  0.758615  1
  O  O6  1  0.889097  0.647712  0.241385  1
  O  O7  1  0.110903  0.352288  0.758615  1
  O  O8  1  0.500000  0.000000  0.500000  1
