# generated using pymatgen
data_K2IrF6
_symmetry_space_group_name_H-M   'P 1'
_cell_length_a   5.89249027
_cell_length_b   5.89249027
_cell_length_c   4.73881590
_cell_angle_alpha   90.00000000
_cell_angle_beta   90.00000000
_cell_angle_gamma   120.00000000
_symmetry_Int_Tables_number   1
_chemical_formula_structural   K2IrF6
_chemical_formula_sum   'K2 Ir1 F6'
_cell_volume   142.49453789
_cell_formula_units_Z   1
loop_
 _symmetry_equiv_pos_site_id
 _symmetry_equiv_pos_as_xyz
  1  'x, y, z'
loop_
 _atom_site_type_symbol
 _atom_site_label
 _atom_site_symmetry_multiplicity
 _atom_site_fract_x
 _atom_site_fract_y
 _atom_site_fract_z
 _atom_site_occupancy
  K  K0  1  0.666667  0.333333  0.289747  1
  K  K1  1  0.333333  0.666667  0.710253  1
  Ir  Ir2  1  0.000000  0.000000  0.000000  1
  F  F3  1  0.837793  0.162207  0.773592  1
  F  F4  1  0.837793  0.675585  0.773592  1
  F  F5  1  0.324415  0.162207  0.773592  1
  F  F6  1  0.162207  0.837793  0.226408  1
  F  F7  1  0.162207  0.324415  0.226408  1
  F  F8  1  0.675585  0.837793  0.226408  1
