# generated using pymatgen
data_CeZr3O8
_symmetry_space_group_name_H-M   'P 1'
_cell_length_a   7.42353555
_cell_length_b   7.42353555
_cell_length_c   5.31916718
_cell_angle_alpha   89.35913933
_cell_angle_beta   90.64086067
_cell_angle_gamma   89.63599945
_symmetry_Int_Tables_number   1
_chemical_formula_structural   CeZr3O8
_chemical_formula_sum   'Ce2 Zr6 O16'
_cell_volume   293.09052306
_cell_formula_units_Z   2
loop_
 _symmetry_equiv_pos_site_id
 _symmetry_equiv_pos_as_xyz
  1  'x, y, z'
loop_
 _atom_site_type_symbol
 _atom_site_label
 _atom_site_symmetry_multiplicity
 _atom_site_fract_x
 _atom_site_fract_y
 _atom_site_fract_z
 _atom_site_occupancy
  Ce  Ce0  1  0.630328  0.630328  0.250000  1
  Ce  Ce1  1  0.369672  0.369672  0.750000  1
  Zr  Zr2  1  0.124349  0.621918  0.248147  1
  Zr  Zr3  1  0.875651  0.378082  0.751853  1
  Zr  Zr4  1  0.621918  0.124349  0.251853  1
  Zr  Zr5  1  0.378082  0.875651  0.748147  1
  Zr  Zr6  1  0.118515  0.118515  0.250000  1
  Zr  Zr7  1  0.881485  0.881485  0.750000  1
  O  O8  1  0.643356  0.377899  0.525385  1
  O  O9  1  0.356644  0.622101  0.474615  1
  O  O10  1  0.377899  0.643356  0.974615  1
  O  O11  1  0.622101  0.356644  0.025385  1
  O  O12  1  0.104802  0.355014  0.531065  1
  O  O13  1  0.895198  0.644986  0.468935  1
  O  O14  1  0.868440  0.617593  0.952057  1
  O  O15  1  0.131560  0.382407  0.047943  1
  O  O16  1  0.617593  0.868440  0.547943  1
  O  O17  1  0.382407  0.131560  0.452057  1
  O  O18  1  0.355014  0.104802  0.968935  1
  O  O19  1  0.644986  0.895198  0.031065  1
  O  O20  1  0.134395  0.901591  0.560163  1
  O  O21  1  0.865605  0.098409  0.439837  1
  O  O22  1  0.901591  0.134395  0.939837  1
  O  O23  1  0.098409  0.865605  0.060163  1
