# generated using pymatgen
data_CePIr
_symmetry_space_group_name_H-M   'P 1'
_cell_length_a   7.75447397
_cell_length_b   7.75447397
_cell_length_c   7.75447397
_cell_angle_alpha   149.86977471
_cell_angle_beta   149.86977471
_cell_angle_gamma   43.13259292
_symmetry_Int_Tables_number   1
_chemical_formula_structural   CePIr
_chemical_formula_sum   'Ce2 P2 Ir2'
_cell_volume   117.18300274
_cell_formula_units_Z   2
loop_
 _symmetry_equiv_pos_site_id
 _symmetry_equiv_pos_as_xyz
  1  'x, y, z'
loop_
 _atom_site_type_symbol
 _atom_site_label
 _atom_site_symmetry_multiplicity
 _atom_site_fract_x
 _atom_site_fract_y
 _atom_site_fract_z
 _atom_site_occupancy
  Ce  Ce0  1  0.749345  0.749345  0.000000  1
  Ce  Ce1  1  0.499345  0.999345  0.500000  1
  P  P2  1  0.330045  0.330045  0.000000  1
  P  P3  1  0.080045  0.580045  0.500000  1
  Ir  Ir4  1  0.915080  0.415080  0.500000  1
  Ir  Ir5  1  0.165080  0.165080  0.000000  1
