# generated using pymatgen
data_Ca5(GaAs3)2
_symmetry_space_group_name_H-M   'P 1'
_cell_length_a   4.17458054
_cell_length_b   11.44401906
_cell_length_c   13.28657020
_cell_angle_alpha   90.00000000
_cell_angle_beta   90.00000000
_cell_angle_gamma   90.00000000
_symmetry_Int_Tables_number   1
_chemical_formula_structural   Ca5(GaAs3)2
_chemical_formula_sum   'Ca10 Ga4 As12'
_cell_volume   634.75232927
_cell_formula_units_Z   2
loop_
 _symmetry_equiv_pos_site_id
 _symmetry_equiv_pos_as_xyz
  1  'x, y, z'
loop_
 _atom_site_type_symbol
 _atom_site_label
 _atom_site_symmetry_multiplicity
 _atom_site_fract_x
 _atom_site_fract_y
 _atom_site_fract_z
 _atom_site_occupancy
  Ca  Ca0  1  0.500000  0.089077  0.751572  1
  Ca  Ca1  1  0.500000  0.589077  0.748428  1
  Ca  Ca2  1  0.500000  0.324922  0.514024  1
  Ca  Ca3  1  0.500000  0.675078  0.485976  1
  Ca  Ca4  1  0.500000  0.824922  0.985976  1
  Ca  Ca5  1  0.500000  0.910923  0.248428  1
  Ca  Ca6  1  0.500000  0.175078  0.014024  1
  Ca  Ca7  1  0.500000  0.500000  0.000000  1
  Ca  Ca8  1  0.500000  0.000000  0.500000  1
  Ca  Ca9  1  0.500000  0.410923  0.251572  1
  Ga  Ga10  1  0.000000  0.827878  0.787490  1
  Ga  Ga11  1  0.000000  0.172122  0.212510  1
  Ga  Ga12  1  0.000000  0.672122  0.287490  1
  Ga  Ga13  1  0.000000  0.327878  0.712510  1
  As  As14  1  0.500000  0.839413  0.680358  1
  As  As15  1  0.000000  0.480544  0.406423  1
  As  As16  1  0.500000  0.160587  0.319642  1
  As  As17  1  0.000000  0.019456  0.906423  1
  As  As18  1  0.000000  0.844742  0.402842  1
  As  As19  1  0.000000  0.980544  0.093577  1
  As  As20  1  0.000000  0.344742  0.097158  1
  As  As21  1  0.000000  0.519456  0.593577  1
  As  As22  1  0.000000  0.155258  0.597158  1
  As  As23  1  0.000000  0.655258  0.902842  1
  As  As24  1  0.500000  0.660587  0.180358  1
  As  As25  1  0.500000  0.339413  0.819642  1
