# generated using pymatgen
data_HoB2C
_symmetry_space_group_name_H-M   'P 1'
_cell_length_a   6.78262268
_cell_length_b   6.78262268
_cell_length_c   7.41606934
_cell_angle_alpha   90.00000000
_cell_angle_beta   90.00000000
_cell_angle_gamma   90.00000000
_symmetry_Int_Tables_number   1
_chemical_formula_structural   HoB2C
_chemical_formula_sum   'Ho8 B16 C8'
_cell_volume   341.16863454
_cell_formula_units_Z   8
loop_
 _symmetry_equiv_pos_site_id
 _symmetry_equiv_pos_as_xyz
  1  'x, y, z'
loop_
 _atom_site_type_symbol
 _atom_site_label
 _atom_site_symmetry_multiplicity
 _atom_site_fract_x
 _atom_site_fract_y
 _atom_site_fract_z
 _atom_site_occupancy
  Ho  Ho0  1  0.309539  0.809539  0.750000  1
  Ho  Ho1  1  0.190461  0.309539  0.250000  1
  Ho  Ho2  1  0.809539  0.690461  0.250000  1
  Ho  Ho3  1  0.690461  0.190461  0.750000  1
  Ho  Ho4  1  0.690461  0.190461  0.250000  1
  Ho  Ho5  1  0.809539  0.690461  0.750000  1
  Ho  Ho6  1  0.190461  0.309539  0.750000  1
  Ho  Ho7  1  0.309539  0.809539  0.250000  1
  B  B8  1  0.151983  0.034603  0.000000  1
  B  B9  1  0.534603  0.651983  0.500000  1
  B  B10  1  0.848017  0.965397  0.000000  1
  B  B11  1  0.348017  0.534603  0.000000  1
  B  B12  1  0.651983  0.465397  0.000000  1
  B  B13  1  0.034603  0.848017  0.500000  1
  B  B14  1  0.965397  0.151983  0.500000  1
  B  B15  1  0.465397  0.348017  0.500000  1
  B  B16  1  0.097007  0.594614  0.000000  1
  B  B17  1  0.405386  0.097007  0.500000  1
  B  B18  1  0.594614  0.902993  0.500000  1
  B  B19  1  0.597007  0.905386  0.000000  1
  B  B20  1  0.402993  0.094614  0.000000  1
  B  B21  1  0.902993  0.405386  0.000000  1
  B  B22  1  0.094614  0.597007  0.500000  1
  B  B23  1  0.905386  0.402993  0.500000  1
  C  C24  1  0.177392  0.040454  0.500000  1
  C  C25  1  0.677392  0.459546  0.500000  1
  C  C26  1  0.322608  0.540454  0.500000  1
  C  C27  1  0.959546  0.177392  0.000000  1
  C  C28  1  0.040454  0.822608  0.000000  1
  C  C29  1  0.540454  0.677392  0.000000  1
  C  C30  1  0.822608  0.959546  0.500000  1
  C  C31  1  0.459546  0.322608  0.000000  1
