# generated using pymatgen
data_KCuPdSe5
_symmetry_space_group_name_H-M   'P 1'
_cell_length_a   6.27905261
_cell_length_b   7.40717276
_cell_length_c   9.10410722
_cell_angle_alpha   90.00000000
_cell_angle_beta   103.32945827
_cell_angle_gamma   90.00000000
_symmetry_Int_Tables_number   1
_chemical_formula_structural   KCuPdSe5
_chemical_formula_sum   'K2 Cu2 Pd2 Se10'
_cell_volume   412.02520792
_cell_formula_units_Z   2
loop_
 _symmetry_equiv_pos_site_id
 _symmetry_equiv_pos_as_xyz
  1  'x, y, z'
loop_
 _atom_site_type_symbol
 _atom_site_label
 _atom_site_symmetry_multiplicity
 _atom_site_fract_x
 _atom_site_fract_y
 _atom_site_fract_z
 _atom_site_occupancy
  K  K0  1  0.257912  0.250000  0.046292  1
  K  K1  1  0.742088  0.750000  0.953708  1
  Cu  Cu2  1  0.881683  0.750000  0.391672  1
  Cu  Cu3  1  0.118317  0.250000  0.608328  1
  Pd  Pd4  1  0.500000  0.500000  0.500000  1
  Pd  Pd5  1  0.500000  0.000000  0.500000  1
  Se  Se6  1  0.268651  0.750000  0.364776  1
  Se  Se7  1  0.731349  0.250000  0.635224  1
  Se  Se8  1  0.287700  0.750000  0.105863  1
  Se  Se9  1  0.712300  0.250000  0.894137  1
  Se  Se10  1  0.959088  0.250000  0.341916  1
  Se  Se11  1  0.040912  0.750000  0.658084  1
  Se  Se12  1  0.681891  0.010468  0.283608  1
  Se  Se13  1  0.318109  0.510468  0.716392  1
  Se  Se14  1  0.318109  0.989532  0.716392  1
  Se  Se15  1  0.681891  0.489532  0.283608  1
