# generated using pymatgen
data_TbZnSn
_symmetry_space_group_name_H-M   'P 1'
_cell_length_a   4.51579754
_cell_length_b   4.51579754
_cell_length_c   15.99229268
_cell_angle_alpha   90.00000000
_cell_angle_beta   90.00000000
_cell_angle_gamma   120.00000000
_symmetry_Int_Tables_number   1
_chemical_formula_structural   TbZnSn
_chemical_formula_sum   'Tb4 Zn4 Sn4'
_cell_volume   282.42964914
_cell_formula_units_Z   4
loop_
 _symmetry_equiv_pos_site_id
 _symmetry_equiv_pos_as_xyz
  1  'x, y, z'
loop_
 _atom_site_type_symbol
 _atom_site_label
 _atom_site_symmetry_multiplicity
 _atom_site_fract_x
 _atom_site_fract_y
 _atom_site_fract_z
 _atom_site_occupancy
  Tb  Tb0  1  0.000000  0.000000  0.750000  1
  Tb  Tb1  1  0.000000  0.000000  0.250000  1
  Tb  Tb2  1  0.000000  0.000000  0.500000  1
  Tb  Tb3  1  0.000000  0.000000  0.000000  1
  Zn  Zn4  1  0.666667  0.333333  0.839648  1
  Zn  Zn5  1  0.666667  0.333333  0.660352  1
  Zn  Zn6  1  0.333333  0.666667  0.160352  1
  Zn  Zn7  1  0.333333  0.666667  0.339648  1
  Sn  Sn8  1  0.666667  0.333333  0.113560  1
  Sn  Sn9  1  0.666667  0.333333  0.386440  1
  Sn  Sn10  1  0.333333  0.666667  0.886440  1
  Sn  Sn11  1  0.333333  0.666667  0.613560  1
