# generated using pymatgen
data_Ce2CdPd2
_symmetry_space_group_name_H-M   'P 1'
_cell_length_a   7.82922782
_cell_length_b   7.82922782
_cell_length_c   3.83329999
_cell_angle_alpha   90.00000000
_cell_angle_beta   90.00000000
_cell_angle_gamma   90.00000000
_symmetry_Int_Tables_number   1
_chemical_formula_structural   Ce2CdPd2
_chemical_formula_sum   'Ce4 Cd2 Pd4'
_cell_volume   234.96905448
_cell_formula_units_Z   2
loop_
 _symmetry_equiv_pos_site_id
 _symmetry_equiv_pos_as_xyz
  1  'x, y, z'
loop_
 _atom_site_type_symbol
 _atom_site_label
 _atom_site_symmetry_multiplicity
 _atom_site_fract_x
 _atom_site_fract_y
 _atom_site_fract_z
 _atom_site_occupancy
  Ce  Ce0  1  0.327621  0.827621  0.500000  1
  Ce  Ce1  1  0.827621  0.672379  0.500000  1
  Ce  Ce2  1  0.172379  0.327621  0.500000  1
  Ce  Ce3  1  0.672379  0.172379  0.500000  1
  Cd  Cd4  1  0.000000  0.000000  0.000000  1
  Cd  Cd5  1  0.500000  0.500000  0.000000  1
  Pd  Pd6  1  0.369688  0.130312  0.000000  1
  Pd  Pd7  1  0.869688  0.369688  0.000000  1
  Pd  Pd8  1  0.130312  0.630312  0.000000  1
  Pd  Pd9  1  0.630312  0.869688  0.000000  1
