# generated using pymatgen
data_Sc2(SO4)3
_symmetry_space_group_name_H-M   'P 1'
_cell_length_a   9.17373074
_cell_length_b   9.17373074
_cell_length_c   9.17373074
_cell_angle_alpha   57.69112100
_cell_angle_beta   57.69112100
_cell_angle_gamma   57.69112100
_symmetry_Int_Tables_number   1
_chemical_formula_structural   Sc2(SO4)3
_chemical_formula_sum   'Sc4 S6 O24'
_cell_volume   516.95167892
_cell_formula_units_Z   2
loop_
 _symmetry_equiv_pos_site_id
 _symmetry_equiv_pos_as_xyz
  1  'x, y, z'
loop_
 _atom_site_type_symbol
 _atom_site_label
 _atom_site_symmetry_multiplicity
 _atom_site_fract_x
 _atom_site_fract_y
 _atom_site_fract_z
 _atom_site_occupancy
  Sc  Sc0  1  0.855857  0.855857  0.855857  1
  Sc  Sc1  1  0.144143  0.144143  0.144143  1
  Sc  Sc2  1  0.644143  0.644143  0.644143  1
  Sc  Sc3  1  0.355857  0.355857  0.355857  1
  S  S4  1  0.963546  0.250000  0.536454  1
  S  S5  1  0.536454  0.963546  0.250000  1
  S  S6  1  0.250000  0.536454  0.963546  1
  S  S7  1  0.036454  0.750000  0.463546  1
  S  S8  1  0.750000  0.463546  0.036454  1
  S  S9  1  0.463546  0.036454  0.750000  1
  O  O10  1  0.772430  0.625925  0.008612  1
  O  O11  1  0.625925  0.008612  0.772430  1
  O  O12  1  0.008612  0.772430  0.625925  1
  O  O13  1  0.227570  0.374075  0.991388  1
  O  O14  1  0.374075  0.991388  0.227570  1
  O  O15  1  0.991388  0.227570  0.374075  1
  O  O16  1  0.727570  0.491388  0.874075  1
  O  O17  1  0.491388  0.874075  0.727570  1
  O  O18  1  0.874075  0.727570  0.491388  1
  O  O19  1  0.272430  0.508612  0.125925  1
  O  O20  1  0.936132  0.085958  0.701968  1
  O  O21  1  0.701968  0.936132  0.085958  1
  O  O22  1  0.085958  0.701968  0.936132  1
  O  O23  1  0.063868  0.914042  0.298032  1
  O  O24  1  0.298032  0.063868  0.914042  1
  O  O25  1  0.914042  0.298032  0.063868  1
  O  O26  1  0.798032  0.414042  0.563868  1
  O  O27  1  0.563868  0.798032  0.414042  1
  O  O28  1  0.414042  0.563868  0.798032  1
  O  O29  1  0.201968  0.585958  0.436132  1
  O  O30  1  0.436132  0.201968  0.585958  1
  O  O31  1  0.585958  0.436132  0.201968  1
  O  O32  1  0.125925  0.272430  0.508612  1
  O  O33  1  0.508612  0.125925  0.272430  1
