# generated using pymatgen
data_CaAgSb
_symmetry_space_group_name_H-M   'P 1'
_cell_length_a   4.62570803
_cell_length_b   7.74745821
_cell_length_c   8.52533072
_cell_angle_alpha   90.00000000
_cell_angle_beta   90.00000000
_cell_angle_gamma   90.00000000
_symmetry_Int_Tables_number   1
_chemical_formula_structural   CaAgSb
_chemical_formula_sum   'Ca4 Ag4 Sb4'
_cell_volume   305.52636622
_cell_formula_units_Z   4
loop_
 _symmetry_equiv_pos_site_id
 _symmetry_equiv_pos_as_xyz
  1  'x, y, z'
loop_
 _atom_site_type_symbol
 _atom_site_label
 _atom_site_symmetry_multiplicity
 _atom_site_fract_x
 _atom_site_fract_y
 _atom_site_fract_z
 _atom_site_occupancy
  Ca  Ca0  1  0.750000  0.478838  0.806677  1
  Ca  Ca1  1  0.250000  0.521162  0.193323  1
  Ca  Ca2  1  0.250000  0.021162  0.306677  1
  Ca  Ca3  1  0.750000  0.978838  0.693323  1
  Ag  Ag4  1  0.750000  0.858465  0.064099  1
  Ag  Ag5  1  0.750000  0.358465  0.435901  1
  Ag  Ag6  1  0.250000  0.141535  0.935901  1
  Ag  Ag7  1  0.250000  0.641535  0.564099  1
  Sb  Sb8  1  0.750000  0.742387  0.385186  1
  Sb  Sb9  1  0.250000  0.257613  0.614814  1
  Sb  Sb10  1  0.750000  0.242387  0.114814  1
  Sb  Sb11  1  0.250000  0.757613  0.885186  1
