# generated using pymatgen
data_KSiSbO5
_symmetry_space_group_name_H-M   'P 1'
_cell_length_a   6.56847435
_cell_length_b   10.79028307
_cell_length_c   13.20997727
_cell_angle_alpha   90.00000000
_cell_angle_beta   90.00000000
_cell_angle_gamma   90.00000000
_symmetry_Int_Tables_number   1
_chemical_formula_structural   KSiSbO5
_chemical_formula_sum   'K8 Si8 Sb8 O40'
_cell_volume   936.26635395
_cell_formula_units_Z   8
loop_
 _symmetry_equiv_pos_site_id
 _symmetry_equiv_pos_as_xyz
  1  'x, y, z'
loop_
 _atom_site_type_symbol
 _atom_site_label
 _atom_site_symmetry_multiplicity
 _atom_site_fract_x
 _atom_site_fract_y
 _atom_site_fract_z
 _atom_site_occupancy
  K  K0  1  0.197083  0.563229  0.392511  1
  K  K1  1  0.225028  0.807149  0.619438  1
  K  K2  1  0.725028  0.307149  0.880562  1
  K  K3  1  0.274972  0.807149  0.119438  1
  K  K4  1  0.774972  0.307149  0.380562  1
  K  K5  1  0.697083  0.063229  0.107489  1
  K  K6  1  0.302917  0.563229  0.892511  1
  K  K7  1  0.802917  0.063229  0.607489  1
  Si  Si8  1  0.828497  0.750600  0.999973  1
  Si  Si9  1  0.328497  0.250600  0.500027  1
  Si  Si10  1  0.671503  0.750600  0.499973  1
  Si  Si11  1  0.171503  0.250600  0.000027  1
  Si  Si12  1  0.503049  0.501442  0.181042  1
  Si  Si13  1  0.496951  0.001442  0.818958  1
  Si  Si14  1  0.996951  0.501442  0.681042  1
  Si  Si15  1  0.003049  0.001442  0.318958  1
  Sb  Sb16  1  0.753020  0.750075  0.252154  1
  Sb  Sb17  1  0.246980  0.250075  0.747846  1
  Sb  Sb18  1  0.746980  0.750075  0.752154  1
  Sb  Sb19  1  0.253020  0.250075  0.247846  1
  Sb  Sb20  1  0.999818  0.501009  0.119384  1
  Sb  Sb21  1  0.000182  0.001009  0.880616  1
  Sb  Sb22  1  0.500182  0.501009  0.619384  1
  Sb  Sb23  1  0.499818  0.001009  0.380616  1
  O  O24  1  0.532799  0.875891  0.271334  1
  O  O25  1  0.467201  0.375891  0.728666  1
  O  O26  1  0.967201  0.875891  0.771334  1
  O  O27  1  0.032799  0.375891  0.228666  1
  O  O28  1  0.478900  0.131391  0.273904  1
  O  O29  1  0.521100  0.631391  0.726096  1
  O  O30  1  0.021100  0.131391  0.773904  1
  O  O31  1  0.978900  0.631391  0.226096  1
  O  O32  1  0.957975  0.885827  0.240562  1
  O  O33  1  0.042025  0.385827  0.759438  1
  O  O34  1  0.542025  0.885827  0.740562  1
  O  O35  1  0.457975  0.385827  0.259438  1
  O  O36  1  0.040658  0.119178  0.241243  1
  O  O37  1  0.959342  0.619178  0.758757  1
  O  O38  1  0.459342  0.119178  0.741243  1
  O  O39  1  0.681554  0.730989  0.900733  1
  O  O40  1  0.540658  0.619178  0.258757  1
  O  O41  1  0.800864  0.473739  0.607863  1
  O  O42  1  0.300864  0.973739  0.892137  1
  O  O43  1  0.699136  0.473739  0.107863  1
  O  O44  1  0.805072  0.031846  0.391141  1
  O  O45  1  0.194928  0.531846  0.608859  1
  O  O46  1  0.694928  0.031846  0.891141  1
  O  O47  1  0.305072  0.531846  0.108859  1
  O  O48  1  0.487755  0.133785  0.486663  1
  O  O49  1  0.512245  0.633785  0.513337  1
  O  O50  1  0.012245  0.133785  0.986663  1
  O  O51  1  0.987755  0.633785  0.013337  1
  O  O52  1  0.471586  0.375871  0.510161  1
  O  O53  1  0.528414  0.875871  0.489839  1
  O  O54  1  0.028414  0.375871  0.010161  1
  O  O55  1  0.971586  0.875871  0.989839  1
  O  O56  1  0.186476  0.268981  0.398413  1
  O  O57  1  0.813524  0.768981  0.601587  1
  O  O58  1  0.313524  0.268981  0.898413  1
  O  O59  1  0.686476  0.768981  0.101587  1
  O  O60  1  0.181554  0.230989  0.599267  1
  O  O61  1  0.818446  0.730989  0.400733  1
  O  O62  1  0.318446  0.230989  0.099267  1
  O  O63  1  0.199136  0.973739  0.392137  1
