# generated using pymatgen
data_Gd3OsO7
_symmetry_space_group_name_H-M   'P 1'
_cell_length_a   6.52564159
_cell_length_b   6.52564159
_cell_length_c   7.44682298
_cell_angle_alpha   90.00000000
_cell_angle_beta   90.00000000
_cell_angle_gamma   110.55343676
_symmetry_Int_Tables_number   1
_chemical_formula_structural   Gd3OsO7
_chemical_formula_sum   'Gd6 Os2 O14'
_cell_volume   296.92956008
_cell_formula_units_Z   2
loop_
 _symmetry_equiv_pos_site_id
 _symmetry_equiv_pos_as_xyz
  1  'x, y, z'
loop_
 _atom_site_type_symbol
 _atom_site_label
 _atom_site_symmetry_multiplicity
 _atom_site_fract_x
 _atom_site_fract_y
 _atom_site_fract_z
 _atom_site_occupancy
  Gd  Gd0  1  0.522848  0.066522  0.250000  1
  Gd  Gd1  1  0.477152  0.933478  0.750000  1
  Gd  Gd2  1  0.066522  0.522848  0.250000  1
  Gd  Gd3  1  0.000000  0.000000  0.000000  1
  Gd  Gd4  1  0.933478  0.477152  0.750000  1
  Gd  Gd5  1  0.000000  0.000000  0.500000  1
  Os  Os6  1  0.500000  0.500000  0.500000  1
  Os  Os7  1  0.500000  0.500000  0.000000  1
  O  O8  1  0.818349  0.563513  0.037194  1
  O  O9  1  0.181651  0.436487  0.962806  1
  O  O10  1  0.575873  0.575873  0.750000  1
  O  O11  1  0.818349  0.563513  0.462806  1
  O  O12  1  0.436487  0.181651  0.962806  1
  O  O13  1  0.424127  0.424127  0.250000  1
  O  O14  1  0.107607  0.843056  0.750000  1
  O  O15  1  0.563513  0.818349  0.037194  1
  O  O16  1  0.156944  0.892393  0.250000  1
  O  O17  1  0.843056  0.107607  0.750000  1
  O  O18  1  0.181651  0.436487  0.537194  1
  O  O19  1  0.436487  0.181651  0.537194  1
  O  O20  1  0.563513  0.818349  0.462806  1
  O  O21  1  0.892393  0.156944  0.250000  1
