# generated using pymatgen
data_RbHo2Cu3S5
_symmetry_space_group_name_H-M   'P 1'
_cell_length_a   7.23759720
_cell_length_b   7.23759720
_cell_length_c   16.49585815
_cell_angle_alpha   90.00000000
_cell_angle_beta   90.00000000
_cell_angle_gamma   148.38533316
_symmetry_Int_Tables_number   1
_chemical_formula_structural   RbHo2Cu3S5
_chemical_formula_sum   'Rb2 Ho4 Cu6 S10'
_cell_volume   452.96432056
_cell_formula_units_Z   2
loop_
 _symmetry_equiv_pos_site_id
 _symmetry_equiv_pos_as_xyz
  1  'x, y, z'
loop_
 _atom_site_type_symbol
 _atom_site_label
 _atom_site_symmetry_multiplicity
 _atom_site_fract_x
 _atom_site_fract_y
 _atom_site_fract_z
 _atom_site_occupancy
  Rb  Rb0  1  0.565547  0.434453  0.750000  1
  Rb  Rb1  1  0.434453  0.565547  0.250000  1
  Ho  Ho2  1  0.308015  0.691985  0.592728  1
  Ho  Ho3  1  0.691985  0.308015  0.407272  1
  Ho  Ho4  1  0.308015  0.691985  0.907272  1
  Ho  Ho5  1  0.691985  0.308015  0.092728  1
  Cu  Cu6  1  0.084106  0.915894  0.963678  1
  Cu  Cu7  1  0.915894  0.084106  0.036322  1
  Cu  Cu8  1  0.915894  0.084106  0.463678  1
  Cu  Cu9  1  0.844853  0.155147  0.750000  1
  Cu  Cu10  1  0.155147  0.844853  0.250000  1
  Cu  Cu11  1  0.084106  0.915894  0.536322  1
  S  S12  1  0.667732  0.332268  0.569490  1
  S  S13  1  0.332268  0.667732  0.430510  1
  S  S14  1  0.332268  0.667732  0.069490  1
  S  S15  1  0.667732  0.332268  0.930510  1
  S  S16  1  0.737781  0.262219  0.250000  1
  S  S17  1  0.262219  0.737781  0.750000  1
  S  S18  1  0.061414  0.938586  0.113108  1
  S  S19  1  0.061414  0.938586  0.386892  1
  S  S20  1  0.938586  0.061414  0.886892  1
  S  S21  1  0.938586  0.061414  0.613108  1
