# generated using pymatgen
data_Ag8GeSe6
_symmetry_space_group_name_H-M   'P 1'
_cell_length_a   7.84894306
_cell_length_b   8.04497607
_cell_length_c   11.02933648
_cell_angle_alpha   90.00000000
_cell_angle_beta   90.00000000
_cell_angle_gamma   90.00000000
_symmetry_Int_Tables_number   1
_chemical_formula_structural   Ag8GeSe6
_chemical_formula_sum   'Ag16 Ge2 Se12'
_cell_volume   696.44258911
_cell_formula_units_Z   2
loop_
 _symmetry_equiv_pos_site_id
 _symmetry_equiv_pos_as_xyz
  1  'x, y, z'
loop_
 _atom_site_type_symbol
 _atom_site_label
 _atom_site_symmetry_multiplicity
 _atom_site_fract_x
 _atom_site_fract_y
 _atom_site_fract_z
 _atom_site_occupancy
  Ag  Ag0  1  0.275390  0.000000  0.481089  1
  Ag  Ag1  1  0.724610  0.500000  0.981089  1
  Ag  Ag2  1  0.844895  0.200121  0.157104  1
  Ag  Ag3  1  0.155105  0.299879  0.657104  1
  Ag  Ag4  1  0.155105  0.700121  0.657104  1
  Ag  Ag5  1  0.844895  0.799879  0.157104  1
  Ag  Ag6  1  0.464151  0.198091  0.268327  1
  Ag  Ag7  1  0.535849  0.301909  0.768327  1
  Ag  Ag8  1  0.535849  0.698091  0.768327  1
  Ag  Ag9  1  0.464151  0.801909  0.268327  1
  Ag  Ag10  1  0.897907  0.208399  0.863583  1
  Ag  Ag11  1  0.102093  0.291601  0.363583  1
  Ag  Ag12  1  0.102093  0.708399  0.363583  1
  Ag  Ag13  1  0.897907  0.791601  0.863583  1
  Ag  Ag14  1  0.617779  0.500000  0.542663  1
  Ag  Ag15  1  0.382221  0.000000  0.042663  1
  Ge  Ge16  1  0.750446  0.000000  0.518993  1
  Ge  Ge17  1  0.249554  0.500000  0.018993  1
  Se  Se18  1  0.750012  0.751363  0.399042  1
  Se  Se19  1  0.249988  0.748637  0.899042  1
  Se  Se20  1  0.490628  0.500000  0.150332  1
  Se  Se21  1  0.509372  0.000000  0.650332  1
  Se  Se22  1  0.004528  0.500000  0.150596  1
  Se  Se23  1  0.995472  0.000000  0.650596  1
  Se  Se24  1  0.810450  0.500000  0.746651  1
  Se  Se25  1  0.189550  0.000000  0.246651  1
  Se  Se26  1  0.283873  0.500000  0.497363  1
  Se  Se27  1  0.716127  0.000000  0.997363  1
  Se  Se28  1  0.750012  0.248637  0.399042  1
  Se  Se29  1  0.249988  0.251363  0.899042  1
