# generated using pymatgen
data_Na2MgAlF7
_symmetry_space_group_name_H-M   'P 1'
_cell_length_a   7.23747684
_cell_length_b   7.23747684
_cell_length_c   7.23747684
_cell_angle_alpha   120.71522300
_cell_angle_beta   118.07301859
_cell_angle_gamma   91.06760946
_symmetry_Int_Tables_number   1
_chemical_formula_structural   Na2MgAlF7
_chemical_formula_sum   'Na4 Mg2 Al2 F14'
_cell_volume   270.29737606
_cell_formula_units_Z   2
loop_
 _symmetry_equiv_pos_site_id
 _symmetry_equiv_pos_as_xyz
  1  'x, y, z'
loop_
 _atom_site_type_symbol
 _atom_site_label
 _atom_site_symmetry_multiplicity
 _atom_site_fract_x
 _atom_site_fract_y
 _atom_site_fract_z
 _atom_site_occupancy
  Na  Na0  1  0.472886  0.414079  0.386965  1
  Na  Na1  1  0.527114  0.914079  0.941194  1
  Na  Na2  1  0.500000  0.920146  0.420146  1
  Na  Na3  1  0.000000  0.420146  0.420146  1
  Mg  Mg4  1  0.001861  0.909707  0.411568  1
  Mg  Mg5  1  0.998139  0.409707  0.907846  1
  Al  Al6  1  0.500000  0.409797  0.909797  1
  Al  Al7  1  0.000000  0.909797  0.909797  1
  F  F8  1  0.043742  0.207300  0.025124  1
  F  F9  1  0.956258  0.981382  0.163557  1
  F  F10  1  0.682176  0.707300  0.163557  1
  F  F11  1  0.317824  0.481382  0.025124  1
  F  F12  1  0.040499  0.837364  0.654877  1
  F  F13  1  0.959501  0.614378  0.796866  1
  F  F14  1  0.682487  0.337364  0.796866  1
  F  F15  1  0.317513  0.114378  0.654877  1
  F  F16  1  0.887437  0.158982  0.546419  1
  F  F17  1  0.112563  0.658982  0.271545  1
  F  F18  1  0.633504  0.324694  0.130573  1
  F  F19  1  0.366496  0.497069  0.691190  1
  F  F20  1  0.694121  0.824694  0.691190  1
  F  F21  1  0.305879  0.997069  0.130573  1
