# generated using pymatgen
data_DyNiO3
_symmetry_space_group_name_H-M   'P 1'
_cell_length_a   5.21173633
_cell_length_b   5.62269740
_cell_length_c   7.45341537
_cell_angle_alpha   90.00000000
_cell_angle_beta   90.00000000
_cell_angle_gamma   90.00000000
_symmetry_Int_Tables_number   1
_chemical_formula_structural   DyNiO3
_chemical_formula_sum   'Dy4 Ni4 O12'
_cell_volume   218.41500558
_cell_formula_units_Z   4
loop_
 _symmetry_equiv_pos_site_id
 _symmetry_equiv_pos_as_xyz
  1  'x, y, z'
loop_
 _atom_site_type_symbol
 _atom_site_label
 _atom_site_symmetry_multiplicity
 _atom_site_fract_x
 _atom_site_fract_y
 _atom_site_fract_z
 _atom_site_occupancy
  Dy  Dy0  1  0.021193  0.922447  0.750000  1
  Dy  Dy1  1  0.521193  0.577553  0.250000  1
  Dy  Dy2  1  0.478807  0.422447  0.750000  1
  Dy  Dy3  1  0.978807  0.077553  0.250000  1
  Ni  Ni4  1  0.500000  0.000000  0.500000  1
  Ni  Ni5  1  0.000000  0.500000  0.500000  1
  Ni  Ni6  1  0.000000  0.500000  0.000000  1
  Ni  Ni7  1  0.500000  0.000000  0.000000  1
  O  O8  1  0.696959  0.307688  0.447998  1
  O  O9  1  0.196959  0.192312  0.552002  1
  O  O10  1  0.803041  0.807688  0.052002  1
  O  O11  1  0.303041  0.692312  0.947998  1
  O  O12  1  0.303041  0.692312  0.552002  1
  O  O13  1  0.803041  0.807688  0.447998  1
  O  O14  1  0.196959  0.192312  0.947998  1
  O  O15  1  0.696959  0.307688  0.052002  1
  O  O16  1  0.104596  0.469459  0.250000  1
  O  O17  1  0.604596  0.030541  0.750000  1
  O  O18  1  0.395404  0.969459  0.250000  1
  O  O19  1  0.895404  0.530541  0.750000  1
