# generated using pymatgen
data_Mg23Al30
_symmetry_space_group_name_H-M   'P 1'
_cell_length_a   10.32930607
_cell_length_b   10.32930607
_cell_length_c   10.32930607
_cell_angle_alpha   76.52536208
_cell_angle_beta   76.52536208
_cell_angle_gamma   76.52536208
_symmetry_Int_Tables_number   1
_chemical_formula_structural   Mg23Al30
_chemical_formula_sum   'Mg23 Al30'
_cell_volume   1023.46208714
_cell_formula_units_Z   1
loop_
 _symmetry_equiv_pos_site_id
 _symmetry_equiv_pos_as_xyz
  1  'x, y, z'
loop_
 _atom_site_type_symbol
 _atom_site_label
 _atom_site_symmetry_multiplicity
 _atom_site_fract_x
 _atom_site_fract_y
 _atom_site_fract_z
 _atom_site_occupancy
  Mg  Mg0  1  0.381706  0.430447  0.808671  1
  Mg  Mg1  1  0.430447  0.808671  0.381706  1
  Mg  Mg2  1  0.808671  0.381706  0.430447  1
  Mg  Mg3  1  0.618294  0.569553  0.191329  1
  Mg  Mg4  1  0.569553  0.191329  0.618294  1
  Mg  Mg5  1  0.191329  0.618294  0.569553  1
  Mg  Mg6  1  0.451234  0.651671  0.943034  1
  Mg  Mg7  1  0.651671  0.943034  0.451234  1
  Mg  Mg8  1  0.943034  0.451234  0.651671  1
  Mg  Mg9  1  0.548766  0.348329  0.056966  1
  Mg  Mg10  1  0.348329  0.056966  0.548766  1
  Mg  Mg11  1  0.056966  0.548766  0.348329  1
  Mg  Mg12  1  0.387528  0.905267  0.081177  1
  Mg  Mg13  1  0.905267  0.081177  0.387528  1
  Mg  Mg14  1  0.081177  0.387528  0.905267  1
  Mg  Mg15  1  0.612472  0.094733  0.918823  1
  Mg  Mg16  1  0.094733  0.918823  0.612472  1
  Mg  Mg17  1  0.918823  0.612472  0.094733  1
  Mg  Mg18  1  0.077178  0.077178  0.077178  1
  Mg  Mg19  1  0.922822  0.922822  0.922822  1
  Mg  Mg20  1  0.338116  0.338116  0.338116  1
  Mg  Mg21  1  0.661884  0.661884  0.661884  1
  Mg  Mg22  1  0.500000  0.500000  0.500000  1
  Al  Al23  1  0.491206  0.084846  0.240127  1
  Al  Al24  1  0.374001  0.743502  0.669012  1
  Al  Al25  1  0.669012  0.374001  0.743502  1
  Al  Al26  1  0.743502  0.669012  0.374001  1
  Al  Al27  1  0.625999  0.256498  0.330988  1
  Al  Al28  1  0.330988  0.625999  0.256498  1
  Al  Al29  1  0.256498  0.330988  0.625999  1
  Al  Al30  1  0.084846  0.240127  0.491206  1
  Al  Al31  1  0.240127  0.491206  0.084846  1
  Al  Al32  1  0.508794  0.915154  0.759873  1
  Al  Al33  1  0.915154  0.759873  0.508794  1
  Al  Al34  1  0.759873  0.508794  0.915154  1
  Al  Al35  1  0.317762  0.218304  0.069646  1
  Al  Al36  1  0.218304  0.069646  0.317762  1
  Al  Al37  1  0.069646  0.317762  0.218304  1
  Al  Al38  1  0.682238  0.781696  0.930354  1
  Al  Al39  1  0.781696  0.930354  0.682238  1
  Al  Al40  1  0.930354  0.682238  0.781696  1
  Al  Al41  1  0.334649  0.140079  0.838751  1
  Al  Al42  1  0.140079  0.838751  0.334648  1
  Al  Al43  1  0.838751  0.334649  0.140079  1
  Al  Al44  1  0.665351  0.859921  0.161249  1
  Al  Al45  1  0.859921  0.161249  0.665352  1
  Al  Al46  1  0.161249  0.665352  0.859921  1
  Al  Al47  1  0.091140  0.149139  0.764985  1
  Al  Al48  1  0.149139  0.764985  0.091140  1
  Al  Al49  1  0.764985  0.091140  0.149139  1
  Al  Al50  1  0.908860  0.850861  0.235015  1
  Al  Al51  1  0.850861  0.235015  0.908860  1
  Al  Al52  1  0.235015  0.908860  0.850861  1
