# generated using pymatgen
data_SnHgP14
_symmetry_space_group_name_H-M   'P 1'
_cell_length_a   9.87327281
_cell_length_b   11.09709403
_cell_length_c   13.50772699
_cell_angle_alpha   90.00000000
_cell_angle_beta   90.00000000
_cell_angle_gamma   90.00000000
_symmetry_Int_Tables_number   1
_chemical_formula_structural   SnHgP14
_chemical_formula_sum   'Sn4 Hg4 P56'
_cell_volume   1479.96920106
_cell_formula_units_Z   4
loop_
 _symmetry_equiv_pos_site_id
 _symmetry_equiv_pos_as_xyz
  1  'x, y, z'
loop_
 _atom_site_type_symbol
 _atom_site_label
 _atom_site_symmetry_multiplicity
 _atom_site_fract_x
 _atom_site_fract_y
 _atom_site_fract_z
 _atom_site_occupancy
  Sn  Sn0  1  0.250000  0.902613  0.166690  1
  Sn  Sn1  1  0.750000  0.097387  0.833310  1
  Sn  Sn2  1  0.750000  0.402613  0.333310  1
  Sn  Sn3  1  0.250000  0.597387  0.666690  1
  Hg  Hg4  1  0.250000  0.996410  0.816595  1
  Hg  Hg5  1  0.750000  0.003590  0.183405  1
  Hg  Hg6  1  0.750000  0.496410  0.683405  1
  Hg  Hg7  1  0.250000  0.503590  0.316595  1
  P  P8  1  0.250000  0.837728  0.974531  1
  P  P9  1  0.750000  0.162272  0.025469  1
  P  P10  1  0.750000  0.337728  0.525469  1
  P  P11  1  0.250000  0.662272  0.474531  1
  P  P12  1  0.250000  0.392185  0.908879  1
  P  P13  1  0.750000  0.607815  0.091121  1
  P  P14  1  0.750000  0.892185  0.591121  1
  P  P15  1  0.250000  0.107815  0.408879  1
  P  P16  1  0.076114  0.152537  0.023430  1
  P  P17  1  0.576114  0.847463  0.976570  1
  P  P18  1  0.923886  0.652537  0.476570  1
  P  P19  1  0.423886  0.347463  0.523430  1
  P  P20  1  0.923886  0.847463  0.976570  1
  P  P21  1  0.423886  0.152537  0.023430  1
  P  P22  1  0.076114  0.347463  0.523430  1
  P  P23  1  0.576114  0.652537  0.476570  1
  P  P24  1  0.582247  0.288969  0.056648  1
  P  P25  1  0.082247  0.711031  0.943352  1
  P  P26  1  0.417753  0.788969  0.443352  1
  P  P27  1  0.917753  0.211031  0.556648  1
  P  P28  1  0.417753  0.711031  0.943352  1
  P  P29  1  0.917753  0.288969  0.056648  1
  P  P30  1  0.582247  0.211031  0.556648  1
  P  P31  1  0.082247  0.788969  0.443352  1
  P  P32  1  0.077362  0.589670  0.081545  1
  P  P33  1  0.577362  0.410330  0.918455  1
  P  P34  1  0.922638  0.089670  0.418455  1
  P  P35  1  0.422638  0.910330  0.581545  1
  P  P36  1  0.922638  0.410330  0.918455  1
  P  P37  1  0.422638  0.589670  0.081545  1
  P  P38  1  0.077362  0.910330  0.581545  1
  P  P39  1  0.577362  0.089670  0.418455  1
  P  P40  1  0.076384  0.176655  0.320712  1
  P  P41  1  0.576384  0.823345  0.679288  1
  P  P42  1  0.923616  0.676655  0.179288  1
  P  P43  1  0.423616  0.323345  0.820712  1
  P  P44  1  0.923616  0.823345  0.679288  1
  P  P45  1  0.423616  0.176655  0.320712  1
  P  P46  1  0.076384  0.323345  0.820712  1
  P  P47  1  0.576384  0.676655  0.179288  1
  P  P48  1  0.045100  0.365886  0.362932  1
  P  P49  1  0.545100  0.634114  0.637068  1
  P  P50  1  0.954900  0.865886  0.137068  1
  P  P51  1  0.454900  0.134114  0.862932  1
  P  P52  1  0.954900  0.634114  0.637068  1
  P  P53  1  0.454900  0.365886  0.362932  1
  P  P54  1  0.045100  0.134114  0.862932  1
  P  P55  1  0.545100  0.865886  0.137068  1
  P  P56  1  0.250000  0.277114  0.045832  1
  P  P57  1  0.750000  0.722886  0.954168  1
  P  P58  1  0.750000  0.777114  0.454168  1
  P  P59  1  0.250000  0.222886  0.545832  1
  P  P60  1  0.250000  0.656236  0.171447  1
  P  P61  1  0.750000  0.343764  0.828553  1
  P  P62  1  0.750000  0.156236  0.328553  1
  P  P63  1  0.250000  0.843764  0.671447  1
