# generated using pymatgen
data_NaNd2IrO6
_symmetry_space_group_name_H-M   'P 1'
_cell_length_a   5.55198378
_cell_length_b   5.98614977
_cell_length_c   9.67885078
_cell_angle_alpha   90.00000000
_cell_angle_beta   124.00283497
_cell_angle_gamma   90.00000000
_symmetry_Int_Tables_number   1
_chemical_formula_structural   NaNd2IrO6
_chemical_formula_sum   'Na2 Nd4 Ir2 O12'
_cell_volume   266.67314331
_cell_formula_units_Z   2
loop_
 _symmetry_equiv_pos_site_id
 _symmetry_equiv_pos_as_xyz
  1  'x, y, z'
loop_
 _atom_site_type_symbol
 _atom_site_label
 _atom_site_symmetry_multiplicity
 _atom_site_fract_x
 _atom_site_fract_y
 _atom_site_fract_z
 _atom_site_occupancy
  Na  Na0  1  0.000000  0.500000  0.500000  1
  Na  Na1  1  0.000000  0.000000  0.000000  1
  Nd  Nd2  1  0.775522  0.074175  0.253827  1
  Nd  Nd3  1  0.224478  0.574175  0.246173  1
  Nd  Nd4  1  0.775522  0.425825  0.753827  1
  Nd  Nd5  1  0.224478  0.925825  0.746173  1
  Ir  Ir6  1  0.500000  0.500000  0.000000  1
  Ir  Ir7  1  0.500000  0.000000  0.500000  1
  O  O8  1  0.730773  0.718173  0.568795  1
  O  O9  1  0.269227  0.218173  0.931205  1
  O  O10  1  0.269227  0.281827  0.431205  1
  O  O11  1  0.730773  0.781827  0.068795  1
  O  O12  1  0.610020  0.050630  0.732559  1
  O  O13  1  0.389980  0.550630  0.767441  1
  O  O14  1  0.389980  0.949370  0.267441  1
  O  O15  1  0.610020  0.449370  0.232559  1
  O  O16  1  0.849512  0.326128  0.053105  1
  O  O17  1  0.150488  0.826128  0.446895  1
  O  O18  1  0.150488  0.673872  0.946895  1
  O  O19  1  0.849512  0.173872  0.553105  1
