# generated using pymatgen
data_Cu3Sn
_symmetry_space_group_name_H-M   'P 1'
_cell_length_a   5.54046018
_cell_length_b   5.54046018
_cell_length_c   4.34966472
_cell_angle_alpha   90.00000000
_cell_angle_beta   90.00000000
_cell_angle_gamma   120.00000000
_symmetry_Int_Tables_number   1
_chemical_formula_structural   Cu3Sn
_chemical_formula_sum   'Cu6 Sn2'
_cell_volume   115.63201380
_cell_formula_units_Z   2
loop_
 _symmetry_equiv_pos_site_id
 _symmetry_equiv_pos_as_xyz
  1  'x, y, z'
loop_
 _atom_site_type_symbol
 _atom_site_label
 _atom_site_symmetry_multiplicity
 _atom_site_fract_x
 _atom_site_fract_y
 _atom_site_fract_z
 _atom_site_occupancy
  Cu  Cu0  1  0.156061  0.843939  0.750000  1
  Cu  Cu1  1  0.312122  0.156061  0.250000  1
  Cu  Cu2  1  0.843939  0.687878  0.250000  1
  Cu  Cu3  1  0.156061  0.312122  0.750000  1
  Cu  Cu4  1  0.687878  0.843939  0.750000  1
  Cu  Cu5  1  0.843939  0.156061  0.250000  1
  Sn  Sn6  1  0.333333  0.666667  0.250000  1
  Sn  Sn7  1  0.666667  0.333333  0.750000  1
