# generated using pymatgen
data_Sr2Cu(SeO3)3
_symmetry_space_group_name_H-M   'P 1'
_cell_length_a   7.32926877
_cell_length_b   7.89418941
_cell_length_c   8.77806832
_cell_angle_alpha   102.26333231
_cell_angle_beta   105.34951644
_cell_angle_gamma   96.66863587
_symmetry_Int_Tables_number   1
_chemical_formula_structural   Sr2Cu(SeO3)3
_chemical_formula_sum   'Sr4 Cu2 Se6 O18'
_cell_volume   470.52126188
_cell_formula_units_Z   2
loop_
 _symmetry_equiv_pos_site_id
 _symmetry_equiv_pos_as_xyz
  1  'x, y, z'
loop_
 _atom_site_type_symbol
 _atom_site_label
 _atom_site_symmetry_multiplicity
 _atom_site_fract_x
 _atom_site_fract_y
 _atom_site_fract_z
 _atom_site_occupancy
  Sr  Sr0  1  0.624372  0.484447  0.807376  1
  Sr  Sr1  1  0.375628  0.515553  0.192624  1
  Sr  Sr2  1  0.758863  0.909895  0.609210  1
  Sr  Sr3  1  0.241137  0.090105  0.390790  1
  Cu  Cu4  1  0.085616  0.341067  0.747578  1
  Cu  Cu5  1  0.914384  0.658933  0.252422  1
  Se  Se6  1  0.899924  0.202102  0.030018  1
  Se  Se7  1  0.226798  0.631293  0.586756  1
  Se  Se8  1  0.365167  0.081753  0.795360  1
  Se  Se9  1  0.634833  0.918247  0.204640  1
  Se  Se10  1  0.773202  0.368707  0.413244  1
  Se  Se11  1  0.100076  0.797898  0.969982  1
  O  O12  1  0.171003  0.622968  0.379439  1
  O  O13  1  0.828997  0.377032  0.620561  1
  O  O14  1  0.223304  0.406558  0.590194  1
  O  O15  1  0.776696  0.593442  0.409806  1
  O  O16  1  0.470928  0.701444  0.648570  1
  O  O17  1  0.529072  0.298556  0.351430  1
  O  O18  1  0.057542  0.818467  0.158678  1
  O  O19  1  0.942458  0.181533  0.841322  1
  O  O20  1  0.184504  0.602686  0.942304  1
  O  O21  1  0.815496  0.397314  0.057696  1
  O  O22  1  0.874673  0.751661  0.833419  1
  O  O23  1  0.125327  0.248339  0.166581  1
  O  O24  1  0.484597  0.870701  0.318006  1
  O  O25  1  0.515403  0.129299  0.681994  1
  O  O26  1  0.847411  0.998231  0.358168  1
  O  O27  1  0.152589  0.001769  0.641832  1
  O  O28  1  0.661556  0.701731  0.119113  1
  O  O29  1  0.338444  0.298269  0.880887  1
