# generated using pymatgen
data_CeAsRh
_symmetry_space_group_name_H-M   'P 1'
_cell_length_a   4.39910512
_cell_length_b   7.32620791
_cell_length_c   7.56948905
_cell_angle_alpha   90.00000000
_cell_angle_beta   90.00000000
_cell_angle_gamma   90.00000000
_symmetry_Int_Tables_number   1
_chemical_formula_structural   CeAsRh
_chemical_formula_sum   'Ce4 As4 Rh4'
_cell_volume   243.95523628
_cell_formula_units_Z   4
loop_
 _symmetry_equiv_pos_site_id
 _symmetry_equiv_pos_as_xyz
  1  'x, y, z'
loop_
 _atom_site_type_symbol
 _atom_site_label
 _atom_site_symmetry_multiplicity
 _atom_site_fract_x
 _atom_site_fract_y
 _atom_site_fract_z
 _atom_site_occupancy
  Ce  Ce0  1  0.250000  0.771189  0.508724  1
  Ce  Ce1  1  0.750000  0.228811  0.491276  1
  Ce  Ce2  1  0.750000  0.271189  0.991276  1
  Ce  Ce3  1  0.250000  0.728811  0.008724  1
  As  As4  1  0.250000  0.410118  0.717633  1
  As  As5  1  0.750000  0.589882  0.282367  1
  As  As6  1  0.750000  0.910118  0.782367  1
  As  As7  1  0.250000  0.089882  0.217633  1
  Rh  Rh8  1  0.250000  0.430774  0.250804  1
  Rh  Rh9  1  0.750000  0.569226  0.749196  1
  Rh  Rh10  1  0.750000  0.930774  0.249196  1
  Rh  Rh11  1  0.250000  0.069226  0.750804  1
