# generated using pymatgen
data_Rb2As2Pt
_symmetry_space_group_name_H-M   'P 1'
_cell_length_a   8.12346150
_cell_length_b   8.12346150
_cell_length_c   6.41497895
_cell_angle_alpha   90.00000000
_cell_angle_beta   90.00000000
_cell_angle_gamma   130.47666950
_symmetry_Int_Tables_number   1
_chemical_formula_structural   Rb2As2Pt
_chemical_formula_sum   'Rb4 As4 Pt2'
_cell_volume   322.01342610
_cell_formula_units_Z   2
loop_
 _symmetry_equiv_pos_site_id
 _symmetry_equiv_pos_as_xyz
  1  'x, y, z'
loop_
 _atom_site_type_symbol
 _atom_site_label
 _atom_site_symmetry_multiplicity
 _atom_site_fract_x
 _atom_site_fract_y
 _atom_site_fract_z
 _atom_site_occupancy
  Rb  Rb0  1  0.205809  0.794191  0.750000  1
  Rb  Rb1  1  0.582452  0.417548  0.750000  1
  Rb  Rb2  1  0.794191  0.205809  0.250000  1
  Rb  Rb3  1  0.417548  0.582452  0.250000  1
  As  As4  1  0.076375  0.284451  0.750000  1
  As  As5  1  0.284451  0.076375  0.250000  1
  As  As6  1  0.923625  0.715549  0.250000  1
  As  As7  1  0.715549  0.923625  0.750000  1
  Pt  Pt8  1  0.000000  0.000000  0.000000  1
  Pt  Pt9  1  0.000000  0.000000  0.500000  1
