# generated using pymatgen
data_UMoO6
_symmetry_space_group_name_H-M   'P 1'
_cell_length_a   7.28503134
_cell_length_b   5.56939904
_cell_length_c   13.74892872
_cell_angle_alpha   90.00000000
_cell_angle_beta   104.52927170
_cell_angle_gamma   90.00000000
_symmetry_Int_Tables_number   1
_chemical_formula_structural   UMoO6
_chemical_formula_sum   'U4 Mo4 O24'
_cell_volume   539.99876987
_cell_formula_units_Z   4
loop_
 _symmetry_equiv_pos_site_id
 _symmetry_equiv_pos_as_xyz
  1  'x, y, z'
loop_
 _atom_site_type_symbol
 _atom_site_label
 _atom_site_symmetry_multiplicity
 _atom_site_fract_x
 _atom_site_fract_y
 _atom_site_fract_z
 _atom_site_occupancy
  U  U0  1  0.165974  0.677877  0.351954  1
  U  U1  1  0.834026  0.177877  0.148046  1
  U  U2  1  0.834026  0.322123  0.648046  1
  U  U3  1  0.165974  0.822123  0.851954  1
  Mo  Mo4  1  0.290714  0.413553  0.105133  1
  Mo  Mo5  1  0.709286  0.586447  0.894867  1
  Mo  Mo6  1  0.290714  0.086447  0.605133  1
  Mo  Mo7  1  0.709286  0.913553  0.394867  1
  O  O8  1  0.525296  0.312638  0.105794  1
  O  O9  1  0.075840  0.953459  0.280672  1
  O  O10  1  0.757626  0.604572  0.586078  1
  O  O11  1  0.303790  0.576109  0.218832  1
  O  O12  1  0.799655  0.113665  0.498743  1
  O  O13  1  0.924160  0.453459  0.219328  1
  O  O14  1  0.075840  0.546541  0.780672  1
  O  O15  1  0.242374  0.104572  0.913922  1
  O  O16  1  0.868625  0.831390  0.892245  1
  O  O17  1  0.525296  0.187362  0.605794  1
  O  O18  1  0.924160  0.046541  0.719328  1
  O  O19  1  0.303790  0.923891  0.718832  1
  O  O20  1  0.131375  0.168610  0.107755  1
  O  O21  1  0.757626  0.895428  0.086078  1
  O  O22  1  0.200345  0.613665  0.001257  1
  O  O23  1  0.696210  0.423891  0.781168  1
  O  O24  1  0.242374  0.395428  0.413922  1
  O  O25  1  0.868625  0.668610  0.392245  1
  O  O26  1  0.799655  0.386335  0.998743  1
  O  O27  1  0.200345  0.886335  0.501257  1
  O  O28  1  0.696210  0.076109  0.281168  1
  O  O29  1  0.474704  0.812638  0.394206  1
  O  O30  1  0.131375  0.331390  0.607755  1
  O  O31  1  0.474704  0.687362  0.894206  1
