# generated using pymatgen
data_C
_symmetry_space_group_name_H-M   'P 1'
_cell_length_a   3.34210145
_cell_length_b   3.34210145
_cell_length_c   3.34210145
_cell_angle_alpha   98.13661840
_cell_angle_beta   98.13661840
_cell_angle_gamma   135.80176821
_symmetry_Int_Tables_number   1
_chemical_formula_structural   C
_chemical_formula_sum   C4
_cell_volume   24.11250386
_cell_formula_units_Z   4
loop_
 _symmetry_equiv_pos_site_id
 _symmetry_equiv_pos_as_xyz
  1  'x, y, z'
loop_
 _atom_site_type_symbol
 _atom_site_label
 _atom_site_symmetry_multiplicity
 _atom_site_fract_x
 _atom_site_fract_y
 _atom_site_fract_z
 _atom_site_occupancy
  C  C0  1  0.180288  0.180288  0.360576  1
  C  C1  1  0.819712  0.819712  0.639424  1
  C  C2  1  0.180288  0.819712  0.000000  1
  C  C3  1  0.819712  0.180288  0.000000  1
