# generated using pymatgen
data_Ge9Pd25
_symmetry_space_group_name_H-M   'P 1'
_cell_length_a   7.49113087
_cell_length_b   7.49113087
_cell_length_c   10.74609819
_cell_angle_alpha   90.00000000
_cell_angle_beta   90.00000000
_cell_angle_gamma   120.00000000
_symmetry_Int_Tables_number   1
_chemical_formula_structural   Ge9Pd25
_chemical_formula_sum   'Ge9 Pd25'
_cell_volume   522.24730180
_cell_formula_units_Z   1
loop_
 _symmetry_equiv_pos_site_id
 _symmetry_equiv_pos_as_xyz
  1  'x, y, z'
loop_
 _atom_site_type_symbol
 _atom_site_label
 _atom_site_symmetry_multiplicity
 _atom_site_fract_x
 _atom_site_fract_y
 _atom_site_fract_z
 _atom_site_occupancy
  Ge  Ge0  1  0.000000  0.000000  0.000000  1
  Ge  Ge1  1  0.666667  0.333333  0.019860  1
  Ge  Ge2  1  0.333333  0.666667  0.980140  1
  Ge  Ge3  1  0.342651  0.334792  0.321898  1
  Ge  Ge4  1  0.992141  0.657349  0.321898  1
  Ge  Ge5  1  0.665208  0.007859  0.321898  1
  Ge  Ge6  1  0.657349  0.665208  0.678102  1
  Ge  Ge7  1  0.007859  0.342651  0.678102  1
  Ge  Ge8  1  0.334792  0.992141  0.678102  1
  Pd  Pd9  1  0.656535  0.930208  0.080139  1
  Pd  Pd10  1  0.069792  0.726327  0.080139  1
  Pd  Pd11  1  0.273673  0.343465  0.080139  1
  Pd  Pd12  1  0.417705  0.091410  0.185707  1
  Pd  Pd13  1  0.908590  0.326295  0.185707  1
  Pd  Pd14  1  0.673705  0.582295  0.185707  1
  Pd  Pd15  1  0.582295  0.908590  0.814293  1
  Pd  Pd16  1  0.091410  0.673705  0.814293  1
  Pd  Pd17  1  0.326295  0.417705  0.814293  1
  Pd  Pd18  1  0.333333  0.666667  0.607668  1
  Pd  Pd19  1  0.666667  0.333333  0.392332  1
  Pd  Pd20  1  0.333333  0.666667  0.243121  1
  Pd  Pd21  1  0.666667  0.333333  0.756879  1
  Pd  Pd22  1  0.000000  0.000000  0.248769  1
  Pd  Pd23  1  0.000000  0.000000  0.751231  1
  Pd  Pd24  1  0.000000  0.000000  0.500000  1
  Pd  Pd25  1  0.726327  0.656535  0.919861  1
  Pd  Pd26  1  0.930208  0.273673  0.919861  1
  Pd  Pd27  1  0.343465  0.069792  0.919861  1
  Pd  Pd28  1  0.379927  0.307303  0.568826  1
  Pd  Pd29  1  0.927376  0.620073  0.568826  1
  Pd  Pd30  1  0.692697  0.072624  0.568826  1
  Pd  Pd31  1  0.620073  0.692697  0.431174  1
  Pd  Pd32  1  0.072624  0.379927  0.431174  1
  Pd  Pd33  1  0.307303  0.927376  0.431174  1
