# generated using pymatgen
data_LaCrS3
_symmetry_space_group_name_H-M   'P 1'
_cell_length_a   3.82887027
_cell_length_b   7.88366292
_cell_length_c   13.14069475
_cell_angle_alpha   90.00000000
_cell_angle_beta   90.00000000
_cell_angle_gamma   90.00000000
_symmetry_Int_Tables_number   1
_chemical_formula_structural   LaCrS3
_chemical_formula_sum   'La4 Cr4 S12'
_cell_volume   396.65873800
_cell_formula_units_Z   4
loop_
 _symmetry_equiv_pos_site_id
 _symmetry_equiv_pos_as_xyz
  1  'x, y, z'
loop_
 _atom_site_type_symbol
 _atom_site_label
 _atom_site_symmetry_multiplicity
 _atom_site_fract_x
 _atom_site_fract_y
 _atom_site_fract_z
 _atom_site_occupancy
  La  La0  1  0.250000  0.586906  0.671503  1
  La  La1  1  0.750000  0.413094  0.328497  1
  La  La2  1  0.250000  0.086906  0.828497  1
  La  La3  1  0.750000  0.913094  0.171503  1
  Cr  Cr4  1  0.250000  0.838427  0.447529  1
  Cr  Cr5  1  0.750000  0.161573  0.552471  1
  Cr  Cr6  1  0.250000  0.338427  0.052471  1
  Cr  Cr7  1  0.750000  0.661573  0.947529  1
  S  S8  1  0.250000  0.988812  0.604299  1
  S  S9  1  0.750000  0.011188  0.395701  1
  S  S10  1  0.250000  0.488812  0.895701  1
  S  S11  1  0.750000  0.511188  0.104299  1
  S  S12  1  0.250000  0.836644  0.005360  1
  S  S13  1  0.750000  0.163356  0.994640  1
  S  S14  1  0.250000  0.336644  0.494640  1
  S  S15  1  0.750000  0.663356  0.505360  1
  S  S16  1  0.750000  0.804248  0.787055  1
  S  S17  1  0.250000  0.195752  0.212945  1
  S  S18  1  0.750000  0.304248  0.712945  1
  S  S19  1  0.250000  0.695752  0.287055  1
