# generated using pymatgen
data_LaRh
_symmetry_space_group_name_H-M   'P 1'
_cell_length_a   5.99689771
_cell_length_b   5.99689771
_cell_length_c   4.27356600
_cell_angle_alpha   90.00000000
_cell_angle_beta   90.00000000
_cell_angle_gamma   141.38913513
_symmetry_Int_Tables_number   1
_chemical_formula_structural   LaRh
_chemical_formula_sum   'La2 Rh2'
_cell_volume   95.90640751
_cell_formula_units_Z   2
loop_
 _symmetry_equiv_pos_site_id
 _symmetry_equiv_pos_as_xyz
  1  'x, y, z'
loop_
 _atom_site_type_symbol
 _atom_site_label
 _atom_site_symmetry_multiplicity
 _atom_site_fract_x
 _atom_site_fract_y
 _atom_site_fract_z
 _atom_site_occupancy
  La  La0  1  0.139184  0.860816  0.250000  1
  La  La1  1  0.860816  0.139184  0.750000  1
  Rh  Rh2  1  0.411787  0.588213  0.250000  1
  Rh  Rh3  1  0.588213  0.411787  0.750000  1
