# generated using pymatgen
data_SnB4O7
_symmetry_space_group_name_H-M   'P 1'
_cell_length_a   4.27968797
_cell_length_b   4.49426174
_cell_length_c   10.98269806
_cell_angle_alpha   90.00000000
_cell_angle_beta   90.00000000
_cell_angle_gamma   90.00000000
_symmetry_Int_Tables_number   1
_chemical_formula_structural   SnB4O7
_chemical_formula_sum   'Sn2 B8 O14'
_cell_volume   211.24163076
_cell_formula_units_Z   2
loop_
 _symmetry_equiv_pos_site_id
 _symmetry_equiv_pos_as_xyz
  1  'x, y, z'
loop_
 _atom_site_type_symbol
 _atom_site_label
 _atom_site_symmetry_multiplicity
 _atom_site_fract_x
 _atom_site_fract_y
 _atom_site_fract_z
 _atom_site_occupancy
  Sn  Sn0  1  0.604826  0.833504  0.500000  1
  Sn  Sn1  1  0.104826  0.166496  0.000000  1
  B  B2  1  0.556485  0.672212  0.122607  1
  B  B3  1  0.025924  0.824125  0.751201  1
  B  B4  1  0.525924  0.175875  0.748799  1
  B  B5  1  0.056485  0.327788  0.377393  1
  B  B6  1  0.056485  0.327788  0.622607  1
  B  B7  1  0.556485  0.672212  0.877393  1
  B  B8  1  0.025924  0.824125  0.248799  1
  B  B9  1  0.525924  0.175875  0.251201  1
  O  O10  1  0.948330  0.236041  0.500000  1
  O  O11  1  0.448330  0.763959  0.000000  1
  O  O12  1  0.379268  0.872871  0.217796  1
  O  O13  1  0.879268  0.127129  0.282204  1
  O  O14  1  0.879268  0.127129  0.717796  1
  O  O15  1  0.379268  0.872871  0.782204  1
  O  O16  1  0.479906  0.360249  0.144220  1
  O  O17  1  0.979906  0.639751  0.355780  1
  O  O18  1  0.979906  0.639751  0.644220  1
  O  O19  1  0.479906  0.360249  0.855780  1
  O  O20  1  0.885219  0.731861  0.137737  1
  O  O21  1  0.385219  0.268139  0.362263  1
  O  O22  1  0.385219  0.268139  0.637737  1
  O  O23  1  0.885219  0.731861  0.862263  1
