# generated using pymatgen
data_HfB4Ir3
_symmetry_space_group_name_H-M   'P 1'
_cell_length_a   7.62124262
_cell_length_b   7.62124262
_cell_length_c   3.52577185
_cell_angle_alpha   90.00000000
_cell_angle_beta   90.00000000
_cell_angle_gamma   120.00000000
_symmetry_Int_Tables_number   1
_chemical_formula_structural   HfB4Ir3
_chemical_formula_sum   'Hf2 B8 Ir6'
_cell_volume   177.35213141
_cell_formula_units_Z   2
loop_
 _symmetry_equiv_pos_site_id
 _symmetry_equiv_pos_as_xyz
  1  'x, y, z'
loop_
 _atom_site_type_symbol
 _atom_site_label
 _atom_site_symmetry_multiplicity
 _atom_site_fract_x
 _atom_site_fract_y
 _atom_site_fract_z
 _atom_site_occupancy
  Hf  Hf0  1  0.666667  0.333333  0.250000  1
  Hf  Hf1  1  0.333333  0.666667  0.750000  1
  B  B2  1  0.949253  0.551288  0.750000  1
  B  B3  1  0.448712  0.397966  0.750000  1
  B  B4  1  0.602034  0.050747  0.750000  1
  B  B5  1  0.050747  0.448712  0.250000  1
  B  B6  1  0.551288  0.602034  0.250000  1
  B  B7  1  0.397966  0.949253  0.250000  1
  B  B8  1  0.000000  0.000000  0.500000  1
  B  B9  1  0.000000  0.000000  0.000000  1
  Ir  Ir10  1  0.743465  0.667987  0.750000  1
  Ir  Ir11  1  0.332013  0.075478  0.750000  1
  Ir  Ir12  1  0.924522  0.256535  0.750000  1
  Ir  Ir13  1  0.256535  0.332013  0.250000  1
  Ir  Ir14  1  0.667987  0.924522  0.250000  1
  Ir  Ir15  1  0.075478  0.743465  0.250000  1
