# generated using pymatgen
data_LaCoCu12
_symmetry_space_group_name_H-M   'P 1'
_cell_length_a   8.15275510
_cell_length_b   8.15275510
_cell_length_c   8.15275510
_cell_angle_alpha   60.00000000
_cell_angle_beta   60.00000000
_cell_angle_gamma   60.00000000
_symmetry_Int_Tables_number   1
_chemical_formula_structural   LaCoCu12
_chemical_formula_sum   'La2 Co2 Cu24'
_cell_volume   383.17590551
_cell_formula_units_Z   2
loop_
 _symmetry_equiv_pos_site_id
 _symmetry_equiv_pos_as_xyz
  1  'x, y, z'
loop_
 _atom_site_type_symbol
 _atom_site_label
 _atom_site_symmetry_multiplicity
 _atom_site_fract_x
 _atom_site_fract_y
 _atom_site_fract_z
 _atom_site_occupancy
  La  La0  1  0.250000  0.250000  0.250000  1
  La  La1  1  0.750000  0.750000  0.750000  1
  Co  Co2  1  0.000000  0.000000  0.000000  1
  Co  Co3  1  0.500000  0.500000  0.500000  1
  Cu  Cu4  1  0.703952  0.937843  0.062157  1
  Cu  Cu5  1  0.937843  0.703952  0.296048  1
  Cu  Cu6  1  0.062157  0.296048  0.703952  1
  Cu  Cu7  1  0.562157  0.796048  0.437843  1
  Cu  Cu8  1  0.796048  0.562157  0.203952  1
  Cu  Cu9  1  0.203952  0.562157  0.437843  1
  Cu  Cu10  1  0.796048  0.437843  0.562157  1
  Cu  Cu11  1  0.203952  0.796048  0.562157  1
  Cu  Cu12  1  0.562157  0.437843  0.203952  1
  Cu  Cu13  1  0.703952  0.296048  0.937843  1
  Cu  Cu14  1  0.937843  0.296048  0.062157  1
  Cu  Cu15  1  0.703952  0.062157  0.296048  1
  Cu  Cu16  1  0.296048  0.703952  0.062157  1
  Cu  Cu17  1  0.062157  0.937843  0.296048  1
  Cu  Cu18  1  0.062157  0.703952  0.937843  1
  Cu  Cu19  1  0.937843  0.062157  0.703952  1
  Cu  Cu20  1  0.296048  0.937843  0.703952  1
  Cu  Cu21  1  0.437843  0.796048  0.203952  1
  Cu  Cu22  1  0.203952  0.437843  0.796048  1
  Cu  Cu23  1  0.437843  0.562157  0.796048  1
  Cu  Cu24  1  0.796048  0.203952  0.437843  1
  Cu  Cu25  1  0.437843  0.203952  0.562157  1
  Cu  Cu26  1  0.562157  0.203952  0.796048  1
  Cu  Cu27  1  0.296048  0.062157  0.937843  1
