# generated using pymatgen
data_Ba2Re6S11
_symmetry_space_group_name_H-M   'P 1'
_cell_length_a   12.04235019
_cell_length_b   12.04235019
_cell_length_c   12.04235019
_cell_angle_alpha   45.53475755
_cell_angle_beta   45.53475755
_cell_angle_gamma   45.53475755
_symmetry_Int_Tables_number   1
_chemical_formula_structural   Ba2Re6S11
_chemical_formula_sum   'Ba4 Re12 S22'
_cell_volume   810.50658335
_cell_formula_units_Z   2
loop_
 _symmetry_equiv_pos_site_id
 _symmetry_equiv_pos_as_xyz
  1  'x, y, z'
loop_
 _atom_site_type_symbol
 _atom_site_label
 _atom_site_symmetry_multiplicity
 _atom_site_fract_x
 _atom_site_fract_y
 _atom_site_fract_z
 _atom_site_occupancy
  Ba  Ba0  1  0.188622  0.188622  0.188622  1
  Ba  Ba1  1  0.311378  0.311378  0.311378  1
  Ba  Ba2  1  0.811378  0.811378  0.811378  1
  Ba  Ba3  1  0.688622  0.688622  0.688622  1
  Re  Re4  1  0.883110  0.011186  0.207222  1
  Re  Re5  1  0.011186  0.207222  0.883110  1
  Re  Re6  1  0.707222  0.511186  0.383110  1
  Re  Re7  1  0.511186  0.383110  0.707222  1
  Re  Re8  1  0.383110  0.707222  0.511186  1
  Re  Re9  1  0.792778  0.116890  0.988814  1
  Re  Re10  1  0.116890  0.988814  0.792778  1
  Re  Re11  1  0.988814  0.792778  0.116890  1
  Re  Re12  1  0.207222  0.883110  0.011186  1
  Re  Re13  1  0.616890  0.292778  0.488814  1
  Re  Re14  1  0.488814  0.616890  0.292778  1
  Re  Re15  1  0.292778  0.488814  0.616890  1
  S  S16  1  0.409160  0.409160  0.409160  1
  S  S17  1  0.090840  0.090840  0.090840  1
  S  S18  1  0.590840  0.590840  0.590840  1
  S  S19  1  0.909160  0.909160  0.909160  1
  S  S20  1  0.250000  0.982183  0.517817  1
  S  S21  1  0.982183  0.517817  0.250000  1
  S  S22  1  0.517817  0.250000  0.982183  1
  S  S23  1  0.750000  0.017817  0.482183  1
  S  S24  1  0.017817  0.482183  0.750000  1
  S  S25  1  0.482183  0.750000  0.017817  1
  S  S26  1  0.427223  0.192613  0.789499  1
  S  S27  1  0.192613  0.789499  0.427223  1
  S  S28  1  0.789499  0.427223  0.192613  1
  S  S29  1  0.072777  0.710501  0.307387  1
  S  S30  1  0.710501  0.307387  0.072777  1
  S  S31  1  0.307387  0.072777  0.710501  1
  S  S32  1  0.692613  0.927223  0.289499  1
  S  S33  1  0.289499  0.692613  0.927223  1
  S  S34  1  0.927223  0.289499  0.692613  1
  S  S35  1  0.210501  0.572777  0.807387  1
  S  S36  1  0.807387  0.210501  0.572777  1
  S  S37  1  0.572777  0.807387  0.210501  1
