# generated using pymatgen
data_YSO4F
_symmetry_space_group_name_H-M   'P 1'
_cell_length_a   6.45182882
_cell_length_b   7.00275592
_cell_length_c   8.41210976
_cell_angle_alpha   90.00000000
_cell_angle_beta   90.00000000
_cell_angle_gamma   90.00000000
_symmetry_Int_Tables_number   1
_chemical_formula_structural   YSO4F
_chemical_formula_sum   'Y4 S4 O16 F4'
_cell_volume   380.06401871
_cell_formula_units_Z   4
loop_
 _symmetry_equiv_pos_site_id
 _symmetry_equiv_pos_as_xyz
  1  'x, y, z'
loop_
 _atom_site_type_symbol
 _atom_site_label
 _atom_site_symmetry_multiplicity
 _atom_site_fract_x
 _atom_site_fract_y
 _atom_site_fract_z
 _atom_site_occupancy
  Y  Y0  1  0.652079  0.750000  0.445676  1
  Y  Y1  1  0.152079  0.250000  0.054324  1
  Y  Y2  1  0.347921  0.250000  0.554324  1
  Y  Y3  1  0.847921  0.750000  0.945676  1
  S  S4  1  0.185848  0.750000  0.592687  1
  S  S5  1  0.685848  0.250000  0.907313  1
  S  S6  1  0.814152  0.250000  0.407313  1
  S  S7  1  0.314152  0.750000  0.092687  1
  O  O8  1  0.012356  0.750000  0.480233  1
  O  O9  1  0.512356  0.250000  0.019767  1
  O  O10  1  0.987644  0.250000  0.519767  1
  O  O11  1  0.487644  0.750000  0.980233  1
  O  O12  1  0.382084  0.750000  0.258384  1
  O  O13  1  0.882084  0.250000  0.241616  1
  O  O14  1  0.617916  0.250000  0.741616  1
  O  O15  1  0.117916  0.750000  0.758384  1
  O  O16  1  0.326316  0.918060  0.561261  1
  O  O17  1  0.826316  0.081940  0.938739  1
  O  O18  1  0.673684  0.418060  0.438739  1
  O  O19  1  0.173684  0.581940  0.061261  1
  O  O20  1  0.826316  0.418060  0.938739  1
  O  O21  1  0.326316  0.581940  0.561261  1
  O  O22  1  0.173684  0.918060  0.061261  1
  O  O23  1  0.673684  0.081940  0.438739  1
  F  F24  1  0.701665  0.750000  0.705594  1
  F  F25  1  0.201665  0.250000  0.794406  1
  F  F26  1  0.298335  0.250000  0.294406  1
  F  F27  1  0.798335  0.750000  0.205594  1
