# generated using pymatgen
data_Ba3Ho4O9
_symmetry_space_group_name_H-M   'P 1'
_cell_length_a   9.21345493
_cell_length_b   9.21345493
_cell_length_c   9.21345493
_cell_angle_alpha   38.83506966
_cell_angle_beta   38.83506966
_cell_angle_gamma   38.83506966
_symmetry_Int_Tables_number   1
_chemical_formula_structural   Ba3Ho4O9
_chemical_formula_sum   'Ba3 Ho4 O9'
_cell_volume   276.49810135
_cell_formula_units_Z   1
loop_
 _symmetry_equiv_pos_site_id
 _symmetry_equiv_pos_as_xyz
  1  'x, y, z'
loop_
 _atom_site_type_symbol
 _atom_site_label
 _atom_site_symmetry_multiplicity
 _atom_site_fract_x
 _atom_site_fract_y
 _atom_site_fract_z
 _atom_site_occupancy
  Ba  Ba0  1  0.001607  0.001607  0.001607  1
  Ba  Ba1  1  0.835993  0.835993  0.835993  1
  Ba  Ba2  1  0.423888  0.423888  0.423888  1
  Ho  Ho3  1  0.575043  0.575043  0.575043  1
  Ho  Ho4  1  0.136513  0.136513  0.136513  1
  Ho  Ho5  1  0.262249  0.262249  0.262249  1
  Ho  Ho6  1  0.700114  0.700114  0.700114  1
  O  O7  1  0.417845  0.958437  0.544536  1
  O  O8  1  0.958437  0.544536  0.417845  1
  O  O9  1  0.544536  0.417845  0.958437  1
  O  O10  1  0.304423  0.873307  0.406438  1
  O  O11  1  0.873307  0.406438  0.304423  1
  O  O12  1  0.406438  0.304423  0.873307  1
  O  O13  1  0.420211  0.857821  0.977673  1
  O  O14  1  0.977673  0.420211  0.857821  1
  O  O15  1  0.857821  0.977673  0.420211  1
