# generated using pymatgen
data_LaNiO3
_symmetry_space_group_name_H-M   'P 1'
_cell_length_a   5.43320370
_cell_length_b   5.43320370
_cell_length_c   5.43320370
_cell_angle_alpha   61.46395927
_cell_angle_beta   61.46395927
_cell_angle_gamma   61.46395927
_symmetry_Int_Tables_number   1
_chemical_formula_structural   LaNiO3
_chemical_formula_sum   'La2 Ni2 O6'
_cell_volume   117.13827013
_cell_formula_units_Z   2
loop_
 _symmetry_equiv_pos_site_id
 _symmetry_equiv_pos_as_xyz
  1  'x, y, z'
loop_
 _atom_site_type_symbol
 _atom_site_label
 _atom_site_symmetry_multiplicity
 _atom_site_fract_x
 _atom_site_fract_y
 _atom_site_fract_z
 _atom_site_occupancy
  La  La0  1  0.250000  0.250000  0.250000  1
  La  La1  1  0.750000  0.750000  0.750000  1
  Ni  Ni2  1  0.500000  0.500000  0.500000  1
  Ni  Ni3  1  0.000000  0.000000  0.000000  1
  O  O4  1  0.813359  0.686641  0.250000  1
  O  O5  1  0.686641  0.250000  0.813359  1
  O  O6  1  0.250000  0.813359  0.686641  1
  O  O7  1  0.186641  0.313359  0.750000  1
  O  O8  1  0.750000  0.186641  0.313359  1
  O  O9  1  0.313359  0.750000  0.186641  1
