# generated using pymatgen
data_Cr2GaN
_symmetry_space_group_name_H-M   'P 1'
_cell_length_a   2.94012958
_cell_length_b   2.94012958
_cell_length_c   12.21434250
_cell_angle_alpha   90.00000000
_cell_angle_beta   90.00000000
_cell_angle_gamma   120.00000000
_symmetry_Int_Tables_number   1
_chemical_formula_structural   Cr2GaN
_chemical_formula_sum   'Cr4 Ga2 N2'
_cell_volume   91.43946340
_cell_formula_units_Z   2
loop_
 _symmetry_equiv_pos_site_id
 _symmetry_equiv_pos_as_xyz
  1  'x, y, z'
loop_
 _atom_site_type_symbol
 _atom_site_label
 _atom_site_symmetry_multiplicity
 _atom_site_fract_x
 _atom_site_fract_y
 _atom_site_fract_z
 _atom_site_occupancy
  Cr  Cr0  1  0.666667  0.333333  0.580045  1
  Cr  Cr1  1  0.333333  0.666667  0.419955  1
  Cr  Cr2  1  0.333333  0.666667  0.080045  1
  Cr  Cr3  1  0.666667  0.333333  0.919955  1
  Ga  Ga4  1  0.666667  0.333333  0.250000  1
  Ga  Ga5  1  0.333333  0.666667  0.750000  1
  N  N6  1  0.000000  0.000000  0.500000  1
  N  N7  1  0.000000  0.000000  0.000000  1
