# generated using pymatgen
data_K2CuAs
_symmetry_space_group_name_H-M   'P 1'
_cell_length_a   6.32932008
_cell_length_b   6.32932008
_cell_length_c   5.93140376
_cell_angle_alpha   90.00000000
_cell_angle_beta   90.00000000
_cell_angle_gamma   106.05906270
_symmetry_Int_Tables_number   1
_chemical_formula_structural   K2CuAs
_chemical_formula_sum   'K4 Cu2 As2'
_cell_volume   228.34137993
_cell_formula_units_Z   2
loop_
 _symmetry_equiv_pos_site_id
 _symmetry_equiv_pos_as_xyz
  1  'x, y, z'
loop_
 _atom_site_type_symbol
 _atom_site_label
 _atom_site_symmetry_multiplicity
 _atom_site_fract_x
 _atom_site_fract_y
 _atom_site_fract_z
 _atom_site_occupancy
  K  K0  1  0.182564  0.521732  0.250000  1
  K  K1  1  0.817436  0.478268  0.750000  1
  K  K2  1  0.478268  0.817436  0.750000  1
  K  K3  1  0.521732  0.182564  0.250000  1
  Cu  Cu4  1  0.000000  0.000000  0.500000  1
  Cu  Cu5  1  0.000000  0.000000  0.000000  1
  As  As6  1  0.759522  0.759522  0.250000  1
  As  As7  1  0.240478  0.240478  0.750000  1
