# generated using pymatgen
data_ThCu6
_symmetry_space_group_name_H-M   'P 1'
_cell_length_a   5.07840634
_cell_length_b   8.10591276
_cell_length_c   10.11905971
_cell_angle_alpha   90.00000000
_cell_angle_beta   90.00000000
_cell_angle_gamma   90.00000000
_symmetry_Int_Tables_number   1
_chemical_formula_structural   ThCu6
_chemical_formula_sum   'Th4 Cu24'
_cell_volume   416.55229462
_cell_formula_units_Z   4
loop_
 _symmetry_equiv_pos_site_id
 _symmetry_equiv_pos_as_xyz
  1  'x, y, z'
loop_
 _atom_site_type_symbol
 _atom_site_label
 _atom_site_symmetry_multiplicity
 _atom_site_fract_x
 _atom_site_fract_y
 _atom_site_fract_z
 _atom_site_occupancy
  Th  Th0  1  0.250000  0.760108  0.935332  1
  Th  Th1  1  0.750000  0.239892  0.064668  1
  Th  Th2  1  0.250000  0.260108  0.564668  1
  Th  Th3  1  0.750000  0.739892  0.435332  1
  Cu  Cu4  1  0.994765  0.064142  0.308506  1
  Cu  Cu5  1  0.494765  0.935858  0.691494  1
  Cu  Cu6  1  0.505235  0.564142  0.191494  1
  Cu  Cu7  1  0.005235  0.435858  0.808506  1
  Cu  Cu8  1  0.750000  0.853881  0.142748  1
  Cu  Cu9  1  0.250000  0.146119  0.857252  1
  Cu  Cu10  1  0.750000  0.353881  0.357252  1
  Cu  Cu11  1  0.250000  0.646119  0.642748  1
  Cu  Cu12  1  0.750000  0.182783  0.756060  1
  Cu  Cu13  1  0.250000  0.817217  0.243940  1
  Cu  Cu14  1  0.750000  0.682783  0.743940  1
  Cu  Cu15  1  0.250000  0.317217  0.256060  1
  Cu  Cu16  1  0.750000  0.437729  0.596433  1
  Cu  Cu17  1  0.250000  0.562271  0.403567  1
  Cu  Cu18  1  0.750000  0.937729  0.903567  1
  Cu  Cu19  1  0.250000  0.062271  0.096433  1
  Cu  Cu20  1  0.750000  0.098594  0.515359  1
  Cu  Cu21  1  0.250000  0.901406  0.484641  1
  Cu  Cu22  1  0.750000  0.598594  0.984641  1
  Cu  Cu23  1  0.250000  0.401406  0.015359  1
  Cu  Cu24  1  0.994765  0.564142  0.191494  1
  Cu  Cu25  1  0.494765  0.435858  0.808506  1
  Cu  Cu26  1  0.505235  0.064142  0.308506  1
  Cu  Cu27  1  0.005235  0.935858  0.691494  1
