# generated using pymatgen
data_LiZnPS4
_symmetry_space_group_name_H-M   'P 1'
_cell_length_a   6.13202601
_cell_length_b   6.13202601
_cell_length_c   6.13202601
_cell_angle_alpha   123.33612700
_cell_angle_beta   123.33612700
_cell_angle_gamma   84.31268601
_symmetry_Int_Tables_number   1
_chemical_formula_structural   LiZnPS4
_chemical_formula_sum   'Li1 Zn1 P1 S4'
_cell_volume   153.98992959
_cell_formula_units_Z   1
loop_
 _symmetry_equiv_pos_site_id
 _symmetry_equiv_pos_as_xyz
  1  'x, y, z'
loop_
 _atom_site_type_symbol
 _atom_site_label
 _atom_site_symmetry_multiplicity
 _atom_site_fract_x
 _atom_site_fract_y
 _atom_site_fract_z
 _atom_site_occupancy
  Li  Li0  1  0.000000  0.000000  0.000000  1
  Zn  Zn1  1  0.500000  0.500000  0.000000  1
  P  P2  1  0.750000  0.250000  0.500000  1
  S  S3  1  0.426096  0.357533  0.513952  1
  S  S4  1  0.087855  0.573904  0.931436  1
  S  S5  1  0.642467  0.156419  0.068564  1
  S  S6  1  0.843581  0.912145  0.486048  1
