# generated using pymatgen
data_BaSi6
_symmetry_space_group_name_H-M   'P 1'
_cell_length_a   5.70181230
_cell_length_b   5.70181230
_cell_length_c   12.00789506
_cell_angle_alpha   90.00000000
_cell_angle_beta   90.00000000
_cell_angle_gamma   133.47039717
_symmetry_Int_Tables_number   1
_chemical_formula_structural   BaSi6
_chemical_formula_sum   'Ba2 Si12'
_cell_volume   283.31381174
_cell_formula_units_Z   2
loop_
 _symmetry_equiv_pos_site_id
 _symmetry_equiv_pos_as_xyz
  1  'x, y, z'
loop_
 _atom_site_type_symbol
 _atom_site_label
 _atom_site_symmetry_multiplicity
 _atom_site_fract_x
 _atom_site_fract_y
 _atom_site_fract_z
 _atom_site_occupancy
  Ba  Ba0  1  0.279531  0.720469  0.250000  1
  Ba  Ba1  1  0.720469  0.279531  0.750000  1
  Si  Si2  1  0.978527  0.021473  0.097769  1
  Si  Si3  1  0.021473  0.978527  0.902231  1
  Si  Si4  1  0.754660  0.245340  0.463036  1
  Si  Si5  1  0.245340  0.754660  0.536964  1
  Si  Si6  1  0.245340  0.754660  0.963036  1
  Si  Si7  1  0.754660  0.245340  0.036964  1
  Si  Si8  1  0.437581  0.562419  0.646985  1
  Si  Si9  1  0.562419  0.437581  0.353015  1
  Si  Si10  1  0.562419  0.437581  0.146985  1
  Si  Si11  1  0.437581  0.562419  0.853015  1
  Si  Si12  1  0.978527  0.021473  0.402231  1
  Si  Si13  1  0.021473  0.978527  0.597769  1
