# generated using pymatgen
data_K3GdF6
_symmetry_space_group_name_H-M   'P 1'
_cell_length_a   6.44399337
_cell_length_b   6.68886169
_cell_length_c   11.15242082
_cell_angle_alpha   90.00000000
_cell_angle_beta   124.25155896
_cell_angle_gamma   90.00000000
_symmetry_Int_Tables_number   1
_chemical_formula_structural   K3GdF6
_chemical_formula_sum   'K6 Gd2 F12'
_cell_volume   397.33646043
_cell_formula_units_Z   2
loop_
 _symmetry_equiv_pos_site_id
 _symmetry_equiv_pos_as_xyz
  1  'x, y, z'
loop_
 _atom_site_type_symbol
 _atom_site_label
 _atom_site_symmetry_multiplicity
 _atom_site_fract_x
 _atom_site_fract_y
 _atom_site_fract_z
 _atom_site_occupancy
  K  K0  1  0.724365  0.948211  0.241830  1
  K  K1  1  0.275635  0.448211  0.258170  1
  K  K2  1  0.275635  0.051789  0.758170  1
  K  K3  1  0.724365  0.551789  0.741830  1
  K  K4  1  0.500000  0.000000  0.500000  1
  K  K5  1  0.500000  0.500000  0.000000  1
  Gd  Gd6  1  0.000000  0.500000  0.500000  1
  Gd  Gd7  1  0.000000  0.000000  0.000000  1
  F  F8  1  0.896681  0.933832  0.775516  1
  F  F9  1  0.103319  0.433832  0.724484  1
  F  F10  1  0.103319  0.066168  0.224484  1
  F  F11  1  0.896681  0.566168  0.275516  1
  F  F12  1  0.249517  0.729249  0.077999  1
  F  F13  1  0.750483  0.229249  0.422001  1
  F  F14  1  0.750483  0.270751  0.922001  1
  F  F15  1  0.249517  0.770751  0.577999  1
  F  F16  1  0.333026  0.321387  0.551022  1
  F  F17  1  0.666974  0.821387  0.948978  1
  F  F18  1  0.666974  0.678613  0.448978  1
  F  F19  1  0.333026  0.178613  0.051022  1
