# generated using pymatgen
data_CrGaP2
_symmetry_space_group_name_H-M   'P 1'
_cell_length_a   3.85984722
_cell_length_b   3.85984722
_cell_length_c   5.46983182
_cell_angle_alpha   90.00000000
_cell_angle_beta   90.00000000
_cell_angle_gamma   90.00000000
_symmetry_Int_Tables_number   1
_chemical_formula_structural   CrGaP2
_chemical_formula_sum   'Cr1 Ga1 P2'
_cell_volume   81.49185486
_cell_formula_units_Z   1
loop_
 _symmetry_equiv_pos_site_id
 _symmetry_equiv_pos_as_xyz
  1  'x, y, z'
loop_
 _atom_site_type_symbol
 _atom_site_label
 _atom_site_symmetry_multiplicity
 _atom_site_fract_x
 _atom_site_fract_y
 _atom_site_fract_z
 _atom_site_occupancy
  Cr  Cr0  1  0.000000  0.000000  0.000000  1
  Ga  Ga1  1  0.500000  0.500000  0.500000  1
  P  P2  1  0.500000  0.000000  0.757194  1
  P  P3  1  0.000000  0.500000  0.242806  1
