# generated using pymatgen
data_KGaTe2
_symmetry_space_group_name_H-M   'P 1'
_cell_length_a   8.47171395
_cell_length_b   8.47171395
_cell_length_c   16.91836006
_cell_angle_alpha   82.84592504
_cell_angle_beta   97.15407496
_cell_angle_gamma   89.99476273
_symmetry_Int_Tables_number   1
_chemical_formula_structural   KGaTe2
_chemical_formula_sum   'K8 Ga8 Te16'
_cell_volume   1195.24718842
_cell_formula_units_Z   8
loop_
 _symmetry_equiv_pos_site_id
 _symmetry_equiv_pos_as_xyz
  1  'x, y, z'
loop_
 _atom_site_type_symbol
 _atom_site_label
 _atom_site_symmetry_multiplicity
 _atom_site_fract_x
 _atom_site_fract_y
 _atom_site_fract_z
 _atom_site_occupancy
  K  K0  1  0.345637  0.779253  0.881474  1
  K  K1  1  0.779253  0.345637  0.618526  1
  K  K2  1  0.654363  0.220747  0.118526  1
  K  K3  1  0.220747  0.654363  0.381474  1
  K  K4  1  0.778521  0.849301  0.607314  1
  K  K5  1  0.849301  0.778521  0.892686  1
  K  K6  1  0.221479  0.150699  0.392686  1
  K  K7  1  0.150699  0.221479  0.107314  1
  Ga  Ga8  1  0.581960  0.290766  0.836331  1
  Ga  Ga9  1  0.290766  0.581960  0.663669  1
  Ga  Ga10  1  0.418040  0.709234  0.163669  1
  Ga  Ga11  1  0.709234  0.418040  0.336331  1
  Ga  Ga12  1  0.290688  0.086769  0.662672  1
  Ga  Ga13  1  0.086769  0.290688  0.837328  1
  Ga  Ga14  1  0.709312  0.913231  0.337328  1
  Ga  Ga15  1  0.913231  0.709312  0.162672  1
  Te  Te16  1  0.359740  0.267093  0.934938  1
  Te  Te17  1  0.267093  0.359740  0.565062  1
  Te  Te18  1  0.640260  0.732907  0.065062  1
  Te  Te19  1  0.732907  0.640260  0.434938  1
  Te  Te20  1  0.573865  0.050947  0.749515  1
  Te  Te21  1  0.050947  0.573865  0.750485  1
  Te  Te22  1  0.426135  0.949053  0.250485  1
  Te  Te23  1  0.949053  0.426135  0.249515  1
  Te  Te24  1  0.265271  0.857315  0.566884  1
  Te  Te25  1  0.857315  0.265271  0.933116  1
  Te  Te26  1  0.734729  0.142685  0.433116  1
  Te  Te27  1  0.142685  0.734729  0.066884  1
  Te  Te28  1  0.051529  0.051529  0.750000  1
  Te  Te29  1  0.948471  0.948471  0.250000  1
  Te  Te30  1  0.574361  0.574361  0.750000  1
  Te  Te31  1  0.425639  0.425639  0.250000  1
