# generated using pymatgen
data_SmHSO5
_symmetry_space_group_name_H-M   'P 1'
_cell_length_a   4.49364766
_cell_length_b   12.34664299
_cell_length_c   7.04976119
_cell_angle_alpha   90.00000000
_cell_angle_beta   111.20069654
_cell_angle_gamma   90.00000000
_symmetry_Int_Tables_number   1
_chemical_formula_structural   SmHSO5
_chemical_formula_sum   'Sm4 H4 S4 O20'
_cell_volume   364.65908397
_cell_formula_units_Z   4
loop_
 _symmetry_equiv_pos_site_id
 _symmetry_equiv_pos_as_xyz
  1  'x, y, z'
loop_
 _atom_site_type_symbol
 _atom_site_label
 _atom_site_symmetry_multiplicity
 _atom_site_fract_x
 _atom_site_fract_y
 _atom_site_fract_z
 _atom_site_occupancy
  Sm  Sm0  1  0.339602  0.563179  0.197892  1
  Sm  Sm1  1  0.660398  0.063179  0.302108  1
  Sm  Sm2  1  0.660398  0.436821  0.802108  1
  Sm  Sm3  1  0.339602  0.936821  0.697892  1
  H  H4  1  0.288107  0.342147  0.015911  1
  H  H5  1  0.288107  0.157853  0.515911  1
  H  H6  1  0.711893  0.657853  0.984089  1
  H  H7  1  0.711893  0.842147  0.484089  1
  S  S8  1  0.095541  0.853486  0.113971  1
  S  S9  1  0.904459  0.353486  0.386029  1
  S  S10  1  0.904459  0.146514  0.886029  1
  S  S11  1  0.095541  0.646514  0.613971  1
  O  O12  1  0.738423  0.585223  0.045368  1
  O  O13  1  0.261577  0.085223  0.454632  1
  O  O14  1  0.261577  0.414777  0.954632  1
  O  O15  1  0.738423  0.914777  0.545368  1
  O  O16  1  0.034807  0.901718  0.289501  1
  O  O17  1  0.965193  0.401718  0.210499  1
  O  O18  1  0.965193  0.098282  0.710499  1
  O  O19  1  0.034807  0.598282  0.789501  1
  O  O20  1  0.280981  0.752571  0.178202  1
  O  O21  1  0.719019  0.252571  0.321798  1
  O  O22  1  0.719019  0.247429  0.821798  1
  O  O23  1  0.280981  0.747429  0.678202  1
  O  O24  1  0.296128  0.933473  0.047795  1
  O  O25  1  0.703872  0.433473  0.452205  1
  O  O26  1  0.703872  0.066527  0.952205  1
  O  O27  1  0.296128  0.566527  0.547795  1
  O  O28  1  0.796990  0.831855  0.943521  1
  O  O29  1  0.203010  0.331855  0.556479  1
  O  O30  1  0.203010  0.168145  0.056479  1
  O  O31  1  0.796990  0.668145  0.443521  1
