# generated using pymatgen
data_Sr(As3Pt2)2
_symmetry_space_group_name_H-M   'P 1'
_cell_length_a   6.07258360
_cell_length_b   6.07258360
_cell_length_c   12.15198912
_cell_angle_alpha   89.32578710
_cell_angle_beta   90.67421290
_cell_angle_gamma   91.85042764
_symmetry_Int_Tables_number   1
_chemical_formula_structural   Sr(As3Pt2)2
_chemical_formula_sum   'Sr2 As12 Pt8'
_cell_volume   447.82628928
_cell_formula_units_Z   2
loop_
 _symmetry_equiv_pos_site_id
 _symmetry_equiv_pos_as_xyz
  1  'x, y, z'
loop_
 _atom_site_type_symbol
 _atom_site_label
 _atom_site_symmetry_multiplicity
 _atom_site_fract_x
 _atom_site_fract_y
 _atom_site_fract_z
 _atom_site_occupancy
  Sr  Sr0  1  0.596076  0.596076  0.250000  1
  Sr  Sr1  1  0.403924  0.403924  0.750000  1
  As  As2  1  0.863502  0.096276  0.808431  1
  As  As3  1  0.096276  0.863502  0.691569  1
  As  As4  1  0.136498  0.903724  0.191569  1
  As  As5  1  0.903724  0.136498  0.308431  1
  As  As6  1  0.120778  0.623360  0.443687  1
  As  As7  1  0.623360  0.120778  0.056313  1
  As  As8  1  0.879222  0.376640  0.556313  1
  As  As9  1  0.376640  0.879222  0.943687  1
  As  As10  1  0.615500  0.876745  0.554957  1
  As  As11  1  0.876745  0.615500  0.945043  1
  As  As12  1  0.123255  0.384500  0.054957  1
  As  As13  1  0.384500  0.123255  0.445042  1
  Pt  Pt14  1  0.076604  0.506098  0.249706  1
  Pt  Pt15  1  0.506098  0.076604  0.250294  1
  Pt  Pt16  1  0.500000  0.500000  0.000000  1
  Pt  Pt17  1  0.500000  0.500000  0.500000  1
  Pt  Pt18  1  0.000000  0.000000  0.000000  1
  Pt  Pt19  1  1.000000  0.000000  0.500000  1
  Pt  Pt20  1  0.493902  0.923396  0.749706  1
  Pt  Pt21  1  0.923396  0.493902  0.750294  1
