# generated using pymatgen
data_Er2AlSi2
_symmetry_space_group_name_H-M   'P 1'
_cell_length_a   5.55508069
_cell_length_b   5.55508069
_cell_length_c   5.55508069
_cell_angle_alpha   137.41416226
_cell_angle_beta   117.02415565
_cell_angle_gamma   79.01041959
_symmetry_Int_Tables_number   1
_chemical_formula_structural   Er2AlSi2
_chemical_formula_sum   'Er2 Al1 Si2'
_cell_volume   100.34822209
_cell_formula_units_Z   1
loop_
 _symmetry_equiv_pos_site_id
 _symmetry_equiv_pos_as_xyz
  1  'x, y, z'
loop_
 _atom_site_type_symbol
 _atom_site_label
 _atom_site_symmetry_multiplicity
 _atom_site_fract_x
 _atom_site_fract_y
 _atom_site_fract_z
 _atom_site_occupancy
  Er  Er0  1  0.288846  0.788846  0.500000  1
  Er  Er1  1  0.711154  0.211154  0.500000  1
  Al  Al2  1  0.000000  0.000000  0.000000  1
  Si  Si3  1  0.289138  0.500000  0.789138  1
  Si  Si4  1  0.710862  0.500000  0.210862  1
