# generated using pymatgen
data_Ce2Ga10Pd
_symmetry_space_group_name_H-M   'P 1'
_cell_length_a   13.45576563
_cell_length_b   13.45576563
_cell_length_c   13.45576563
_cell_angle_alpha   161.09437839
_cell_angle_beta   161.09437839
_cell_angle_gamma   26.86076409
_symmetry_Int_Tables_number   1
_chemical_formula_structural   Ce2Ga10Pd
_chemical_formula_sum   'Ce2 Ga10 Pd1'
_cell_volume   255.66765548
_cell_formula_units_Z   1
loop_
 _symmetry_equiv_pos_site_id
 _symmetry_equiv_pos_as_xyz
  1  'x, y, z'
loop_
 _atom_site_type_symbol
 _atom_site_label
 _atom_site_symmetry_multiplicity
 _atom_site_fract_x
 _atom_site_fract_y
 _atom_site_fract_z
 _atom_site_occupancy
  Ce  Ce0  1  0.644239  0.644239  0.000000  1
  Ce  Ce1  1  0.355761  0.355761  0.000000  1
  Ga  Ga2  1  0.802382  0.802382  0.000000  1
  Ga  Ga3  1  0.197618  0.197618  0.000000  1
  Ga  Ga4  1  0.894551  0.894551  0.000000  1
  Ga  Ga5  1  0.250000  0.750000  0.500000  1
  Ga  Ga6  1  0.750000  0.250000  0.500000  1
  Ga  Ga7  1  0.947963  0.447963  0.500000  1
  Ga  Ga8  1  0.447963  0.947963  0.500000  1
  Ga  Ga9  1  0.052037  0.552037  0.500000  1
  Ga  Ga10  1  0.552037  0.052037  0.500000  1
  Ga  Ga11  1  0.105449  0.105449  0.000000  1
  Pd  Pd12  1  0.500000  0.500000  0.000000  1
