# generated using pymatgen
data_K2CeAl(SiO3)4
_symmetry_space_group_name_H-M   'P 1'
_cell_length_a   14.07806204
_cell_length_b   14.07806204
_cell_length_c   15.10621600
_cell_angle_alpha   57.81729453
_cell_angle_beta   122.18270547
_cell_angle_gamma   149.26211713
_symmetry_Int_Tables_number   1
_chemical_formula_structural   K2CeAl(SiO3)4
_chemical_formula_sum   'K8 Ce4 Al4 Si16 O48'
_cell_volume   1275.59473534
_cell_formula_units_Z   4
loop_
 _symmetry_equiv_pos_site_id
 _symmetry_equiv_pos_as_xyz
  1  'x, y, z'
loop_
 _atom_site_type_symbol
 _atom_site_label
 _atom_site_symmetry_multiplicity
 _atom_site_fract_x
 _atom_site_fract_y
 _atom_site_fract_z
 _atom_site_occupancy
  K  K0  1  0.804050  0.190331  0.525662  1
  K  K1  1  0.809669  0.195950  0.025662  1
  K  K2  1  0.195950  0.809669  0.474338  1
  K  K3  1  0.190331  0.804050  0.974338  1
  K  K4  1  0.204608  0.279131  0.536877  1
  K  K5  1  0.720869  0.795392  0.036877  1
  K  K6  1  0.795392  0.720869  0.463123  1
  K  K7  1  0.279131  0.204608  0.963123  1
  Ce  Ce8  1  0.018316  0.556585  0.750599  1
  Ce  Ce9  1  0.443415  0.981684  0.250599  1
  Ce  Ce10  1  0.981684  0.443415  0.249401  1
  Ce  Ce11  1  0.556585  0.018316  0.749401  1
  Al  Al12  1  0.882604  0.740130  0.728566  1
  Al  Al13  1  0.259870  0.117396  0.228566  1
  Al  Al14  1  0.117396  0.259870  0.271434  1
  Al  Al15  1  0.740130  0.882604  0.771434  1
  Si  Si16  1  0.368441  0.695298  0.995959  1
  Si  Si17  1  0.304702  0.631559  0.495959  1
  Si  Si18  1  0.631559  0.304702  0.004041  1
  Si  Si19  1  0.695298  0.368441  0.504041  1
  Si  Si20  1  0.363789  0.678751  0.209580  1
  Si  Si21  1  0.321249  0.636211  0.709580  1
  Si  Si22  1  0.636211  0.321249  0.790420  1
  Si  Si23  1  0.678751  0.363789  0.290420  1
  Si  Si24  1  0.261075  0.026070  0.658882  1
  Si  Si25  1  0.973930  0.738925  0.158882  1
  Si  Si26  1  0.738925  0.973930  0.341118  1
  Si  Si27  1  0.026070  0.261075  0.841118  1
  Si  Si28  1  0.675968  0.798744  0.577863  1
  Si  Si29  1  0.201256  0.324032  0.077863  1
  Si  Si30  1  0.324032  0.201256  0.422137  1
  Si  Si31  1  0.798744  0.675968  0.922137  1
  O  O32  1  0.459457  0.239932  0.690687  1
  O  O33  1  0.760068  0.540543  0.190687  1
  O  O34  1  0.540543  0.760068  0.309313  1
  O  O35  1  0.239932  0.459457  0.809313  1
  O  O36  1  0.226587  0.050539  0.529502  1
  O  O37  1  0.949461  0.773413  0.029502  1
  O  O38  1  0.773413  0.949461  0.470498  1
  O  O39  1  0.050539  0.226587  0.970498  1
  O  O40  1  0.780396  0.926634  0.655445  1
  O  O41  1  0.073366  0.219604  0.155445  1
  O  O42  1  0.219604  0.073366  0.344555  1
  O  O43  1  0.926634  0.780396  0.844555  1
  O  O44  1  0.364798  0.553194  0.048680  1
  O  O45  1  0.446806  0.635202  0.548680  1
  O  O46  1  0.635202  0.446806  0.951320  1
  O  O47  1  0.553194  0.364798  0.451320  1
  O  O48  1  0.432413  0.763544  0.100154  1
  O  O49  1  0.236456  0.567587  0.600154  1
  O  O50  1  0.567587  0.236456  0.899846  1
  O  O51  1  0.763544  0.432413  0.399846  1
  O  O52  1  0.584657  0.162370  0.568211  1
  O  O53  1  0.837630  0.415343  0.068211  1
  O  O54  1  0.415343  0.837630  0.431789  1
  O  O55  1  0.162370  0.584657  0.931789  1
  O  O56  1  0.881365  0.541361  0.570113  1
  O  O57  1  0.458639  0.118635  0.070113  1
  O  O58  1  0.118635  0.458639  0.429887  1
  O  O59  1  0.541361  0.881365  0.929887  1
  O  O60  1  0.090141  0.939895  0.675672  1
  O  O61  1  0.060105  0.909859  0.175672  1
  O  O62  1  0.909859  0.060105  0.324328  1
  O  O63  1  0.939895  0.090141  0.824328  1
  O  O64  1  0.177489  0.447844  0.236088  1
  O  O65  1  0.552156  0.822511  0.736088  1
  O  O66  1  0.822511  0.552156  0.763912  1
  O  O67  1  0.447844  0.177489  0.263912  1
  O  O68  1  0.706133  0.689789  0.627915  1
  O  O69  1  0.310211  0.293867  0.127915  1
  O  O70  1  0.293867  0.310211  0.372085  1
  O  O71  1  0.689789  0.706133  0.872085  1
  O  O72  1  0.271357  0.898705  0.723416  1
  O  O73  1  0.101295  0.728643  0.223416  1
  O  O74  1  0.728643  0.101295  0.276584  1
  O  O75  1  0.898705  0.271357  0.776584  1
  O  O76  1  0.260587  0.702791  0.696366  1
  O  O77  1  0.297209  0.739413  0.196366  1
  O  O78  1  0.739413  0.297209  0.303634  1
  O  O79  1  0.702791  0.260587  0.803634  1
