# generated using pymatgen
data_RbEu(PO3)4
_symmetry_space_group_name_H-M   'P 1'
_cell_length_a   10.65966301
_cell_length_b   9.15081565
_cell_length_c   13.04578656
_cell_angle_alpha   90.00000000
_cell_angle_beta   124.75052907
_cell_angle_gamma   90.00000000
_symmetry_Int_Tables_number   1
_chemical_formula_structural   RbEu(PO3)4
_chemical_formula_sum   'Rb4 Eu4 P16 O48'
_cell_volume   1045.57697162
_cell_formula_units_Z   4
loop_
 _symmetry_equiv_pos_site_id
 _symmetry_equiv_pos_as_xyz
  1  'x, y, z'
loop_
 _atom_site_type_symbol
 _atom_site_label
 _atom_site_symmetry_multiplicity
 _atom_site_fract_x
 _atom_site_fract_y
 _atom_site_fract_z
 _atom_site_occupancy
  Rb  Rb0  1  0.757900  0.434271  0.958550  1
  Rb  Rb1  1  0.757900  0.065729  0.458550  1
  Rb  Rb2  1  0.242100  0.565729  0.041450  1
  Rb  Rb3  1  0.242100  0.934271  0.541450  1
  Eu  Eu4  1  0.683925  0.726255  0.684149  1
  Eu  Eu5  1  0.683925  0.773745  0.184149  1
  Eu  Eu6  1  0.316075  0.273745  0.315851  1
  Eu  Eu7  1  0.316075  0.226255  0.815851  1
  P  P8  1  0.679748  0.327074  0.639661  1
  P  P9  1  0.679748  0.172926  0.139661  1
  P  P10  1  0.320252  0.672926  0.360339  1
  P  P11  1  0.320252  0.827074  0.860339  1
  P  P12  1  0.027231  0.528419  0.276380  1
  P  P13  1  0.027231  0.971581  0.776380  1
  P  P14  1  0.972769  0.471581  0.723620  1
  P  P15  1  0.972769  0.028419  0.223620  1
  P  P16  1  0.800962  0.896759  0.978341  1
  P  P17  1  0.800962  0.603241  0.478341  1
  P  P18  1  0.199038  0.103241  0.021659  1
  P  P19  1  0.199038  0.396759  0.521659  1
  P  P20  1  0.615518  0.094091  0.759600  1
  P  P21  1  0.615518  0.405909  0.259600  1
  P  P22  1  0.384482  0.905909  0.240400  1
  P  P23  1  0.384482  0.594091  0.740400  1
  O  O24  1  0.871320  0.595109  0.197271  1
  O  O25  1  0.871320  0.904891  0.697271  1
  O  O26  1  0.128680  0.404891  0.802729  1
  O  O27  1  0.128680  0.095109  0.302729  1
  O  O28  1  0.043431  0.458676  0.398364  1
  O  O29  1  0.043431  0.041324  0.898364  1
  O  O30  1  0.956569  0.541324  0.601636  1
  O  O31  1  0.956569  0.958676  0.101636  1
  O  O32  1  0.068520  0.418102  0.214505  1
  O  O33  1  0.068520  0.081898  0.714505  1
  O  O34  1  0.931480  0.581898  0.785495  1
  O  O35  1  0.931480  0.918102  0.285495  1
  O  O36  1  0.638040  0.466352  0.674194  1
  O  O37  1  0.638040  0.033648  0.174194  1
  O  O38  1  0.361960  0.533648  0.325806  1
  O  O39  1  0.361960  0.966352  0.825806  1
  O  O40  1  0.699149  0.658250  0.515040  1
  O  O41  1  0.699149  0.841750  0.015040  1
  O  O42  1  0.300851  0.341750  0.484960  1
  O  O43  1  0.300851  0.158250  0.984960  1
  O  O44  1  0.837032  0.793141  0.909120  1
  O  O45  1  0.837032  0.706859  0.409120  1
  O  O46  1  0.162968  0.206859  0.090880  1
  O  O47  1  0.162968  0.293141  0.590880  1
  O  O48  1  0.423722  0.741211  0.486129  1
  O  O49  1  0.423722  0.758789  0.986129  1
  O  O50  1  0.576278  0.258789  0.513871  1
  O  O51  1  0.576278  0.241211  0.013871  1
  O  O52  1  0.724211  0.208118  0.748540  1
  O  O53  1  0.724211  0.291882  0.248540  1
  O  O54  1  0.275789  0.791882  0.251460  1
  O  O55  1  0.275789  0.708118  0.751460  1
  O  O56  1  0.736159  0.050295  0.903807  1
  O  O57  1  0.736159  0.449705  0.403807  1
  O  O58  1  0.263841  0.949705  0.096193  1
  O  O59  1  0.263841  0.550295  0.596193  1
  O  O60  1  0.514209  0.676675  0.753607  1
  O  O61  1  0.514209  0.823325  0.253607  1
  O  O62  1  0.485791  0.323325  0.246393  1
  O  O63  1  0.485791  0.176675  0.746393  1
  O  O64  1  0.578600  0.964436  0.676365  1
  O  O65  1  0.578600  0.535564  0.176365  1
  O  O66  1  0.421400  0.035564  0.323635  1
  O  O67  1  0.421400  0.464436  0.823635  1
  O  O68  1  0.153811  0.658572  0.337044  1
  O  O69  1  0.153811  0.841428  0.837044  1
  O  O70  1  0.846189  0.341428  0.662956  1
  O  O71  1  0.846189  0.158572  0.162956  1
