# generated using pymatgen
data_Zn13Rh
_symmetry_space_group_name_H-M   'P 1'
_cell_length_a   6.67815995
_cell_length_b   6.67815995
_cell_length_c   5.15244871
_cell_angle_alpha   80.39565142
_cell_angle_beta   99.60434858
_cell_angle_gamma   110.59180446
_symmetry_Int_Tables_number   1
_chemical_formula_structural   Zn13Rh
_chemical_formula_sum   'Zn13 Rh1'
_cell_volume   210.63035249
_cell_formula_units_Z   1
loop_
 _symmetry_equiv_pos_site_id
 _symmetry_equiv_pos_as_xyz
  1  'x, y, z'
loop_
 _atom_site_type_symbol
 _atom_site_label
 _atom_site_symmetry_multiplicity
 _atom_site_fract_x
 _atom_site_fract_y
 _atom_site_fract_z
 _atom_site_occupancy
  Zn  Zn0  1  0.000000  0.000000  0.000000  1
  Zn  Zn1  1  0.778483  0.618391  0.320711  1
  Zn  Zn2  1  0.618391  0.778483  0.679289  1
  Zn  Zn3  1  0.221517  0.381609  0.679289  1
  Zn  Zn4  1  0.381609  0.221517  0.320711  1
  Zn  Zn5  1  0.002731  0.361383  0.197816  1
  Zn  Zn6  1  0.361383  0.002731  0.802184  1
  Zn  Zn7  1  0.997269  0.638617  0.802184  1
  Zn  Zn8  1  0.638617  0.997269  0.197816  1
  Zn  Zn9  1  0.223942  0.776058  0.369418  1
  Zn  Zn10  1  0.776058  0.223942  0.630582  1
  Zn  Zn11  1  0.387534  0.612466  0.071331  1
  Zn  Zn12  1  0.612466  0.387534  0.928669  1
  Rh  Rh13  1  1.000000  0.000000  0.500000  1
