# generated using pymatgen
data_Ba3Mn2O8
_symmetry_space_group_name_H-M   'P 1'
_cell_length_a   7.98857309
_cell_length_b   7.98857309
_cell_length_c   7.98857309
_cell_angle_alpha   42.63933376
_cell_angle_beta   42.63933376
_cell_angle_gamma   42.63933376
_symmetry_Int_Tables_number   1
_chemical_formula_structural   Ba3Mn2O8
_chemical_formula_sum   'Ba3 Mn2 O8'
_cell_volume   211.87306521
_cell_formula_units_Z   1
loop_
 _symmetry_equiv_pos_site_id
 _symmetry_equiv_pos_as_xyz
  1  'x, y, z'
loop_
 _atom_site_type_symbol
 _atom_site_label
 _atom_site_symmetry_multiplicity
 _atom_site_fract_x
 _atom_site_fract_y
 _atom_site_fract_z
 _atom_site_occupancy
  Ba  Ba0  1  0.207517  0.207517  0.207517  1
  Ba  Ba1  1  0.792483  0.792483  0.792483  1
  Ba  Ba2  1  0.000000  0.000000  0.000000  1
  Mn  Mn3  1  0.407208  0.407208  0.407208  1
  Mn  Mn4  1  0.592792  0.592792  0.592792  1
  O  O5  1  0.329044  0.329044  0.329044  1
  O  O6  1  0.670956  0.670956  0.670956  1
  O  O7  1  0.243303  0.726840  0.726840  1
  O  O8  1  0.726840  0.726840  0.243303  1
  O  O9  1  0.726840  0.243303  0.726840  1
  O  O10  1  0.273160  0.756697  0.273160  1
  O  O11  1  0.273160  0.273160  0.756697  1
  O  O12  1  0.756697  0.273160  0.273160  1
