# generated using pymatgen
data_Y5(Si7Os2)2
_symmetry_space_group_name_H-M   'P 1'
_cell_length_a   7.97114249
_cell_length_b   8.06904417
_cell_length_c   12.82413044
_cell_angle_alpha   90.00000000
_cell_angle_beta   98.80282023
_cell_angle_gamma   90.00000000
_symmetry_Int_Tables_number   1
_chemical_formula_structural   Y5(Si7Os2)2
_chemical_formula_sum   'Y10 Si28 Os8'
_cell_volume   815.12573455
_cell_formula_units_Z   2
loop_
 _symmetry_equiv_pos_site_id
 _symmetry_equiv_pos_as_xyz
  1  'x, y, z'
loop_
 _atom_site_type_symbol
 _atom_site_label
 _atom_site_symmetry_multiplicity
 _atom_site_fract_x
 _atom_site_fract_y
 _atom_site_fract_z
 _atom_site_occupancy
  Y  Y0  1  0.341638  0.746125  0.363855  1
  Y  Y1  1  0.158362  0.246125  0.636145  1
  Y  Y2  1  0.658362  0.253875  0.636145  1
  Y  Y3  1  0.841638  0.753875  0.363855  1
  Y  Y4  1  0.161850  0.748372  0.634082  1
  Y  Y5  1  0.338150  0.248372  0.365918  1
  Y  Y6  1  0.838150  0.251628  0.365918  1
  Y  Y7  1  0.661850  0.751628  0.634082  1
  Y  Y8  1  0.000000  0.500000  0.000000  1
  Y  Y9  1  0.500000  0.000000  0.000000  1
  Si  Si10  1  0.605473  0.999727  0.440702  1
  Si  Si11  1  0.894527  0.499727  0.559298  1
  Si  Si12  1  0.394527  0.000273  0.559298  1
  Si  Si13  1  0.105473  0.500273  0.440702  1
  Si  Si14  1  0.387630  0.500651  0.553026  1
  Si  Si15  1  0.112370  0.000651  0.446974  1
  Si  Si16  1  0.612370  0.499349  0.446974  1
  Si  Si17  1  0.887630  0.999349  0.553026  1
  Si  Si18  1  0.822568  0.005231  0.179057  1
  Si  Si19  1  0.677432  0.505231  0.820943  1
  Si  Si20  1  0.177432  0.994769  0.820943  1
  Si  Si21  1  0.322568  0.494769  0.179057  1
  Si  Si22  1  0.762849  0.507678  0.179349  1
  Si  Si23  1  0.737151  0.007678  0.820651  1
  Si  Si24  1  0.237151  0.492322  0.820651  1
  Si  Si25  1  0.262849  0.992322  0.179349  1
  Si  Si26  1  0.538034  0.279144  0.179500  1
  Si  Si27  1  0.961966  0.779144  0.820500  1
  Si  Si28  1  0.666123  0.332385  0.000385  1
  Si  Si29  1  0.833877  0.832385  0.999615  1
  Si  Si30  1  0.333877  0.667615  0.999615  1
  Si  Si31  1  0.166123  0.167615  0.000385  1
  Si  Si32  1  0.050126  0.779443  0.178930  1
  Si  Si33  1  0.449874  0.279443  0.821070  1
  Si  Si34  1  0.949874  0.220557  0.821070  1
  Si  Si35  1  0.550126  0.720557  0.178930  1
  Si  Si36  1  0.038034  0.220856  0.179500  1
  Si  Si37  1  0.461966  0.720856  0.820500  1
  Os  Os38  1  0.871373  0.126195  0.001363  1
  Os  Os39  1  0.628627  0.626195  0.998637  1
  Os  Os40  1  0.128627  0.873805  0.998637  1
  Os  Os41  1  0.371373  0.373805  0.001363  1
  Os  Os42  1  0.061834  0.499003  0.253055  1
  Os  Os43  1  0.438166  0.999003  0.746945  1
  Os  Os44  1  0.938166  0.500997  0.746945  1
  Os  Os45  1  0.561834  0.000997  0.253055  1
