# generated using pymatgen
data_YAsPt
_symmetry_space_group_name_H-M   'P 1'
_cell_length_a   4.30682765
_cell_length_b   4.30682765
_cell_length_c   15.36099825
_cell_angle_alpha   90.00000000
_cell_angle_beta   90.00000000
_cell_angle_gamma   120.00000000
_symmetry_Int_Tables_number   1
_chemical_formula_structural   YAsPt
_chemical_formula_sum   'Y4 As4 Pt4'
_cell_volume   246.75448620
_cell_formula_units_Z   4
loop_
 _symmetry_equiv_pos_site_id
 _symmetry_equiv_pos_as_xyz
  1  'x, y, z'
loop_
 _atom_site_type_symbol
 _atom_site_label
 _atom_site_symmetry_multiplicity
 _atom_site_fract_x
 _atom_site_fract_y
 _atom_site_fract_z
 _atom_site_occupancy
  Y  Y0  1  0.000000  0.000000  0.000000  1
  Y  Y1  1  0.000000  0.000000  0.500000  1
  Y  Y2  1  0.000000  0.000000  0.250000  1
  Y  Y3  1  0.000000  0.000000  0.750000  1
  As  As4  1  0.333333  0.666667  0.883356  1
  As  As5  1  0.666667  0.333333  0.383356  1
  As  As6  1  0.666667  0.333333  0.116644  1
  As  As7  1  0.333333  0.666667  0.616644  1
  Pt  Pt8  1  0.333333  0.666667  0.365038  1
  Pt  Pt9  1  0.666667  0.333333  0.865038  1
  Pt  Pt10  1  0.666667  0.333333  0.634962  1
  Pt  Pt11  1  0.333333  0.666667  0.134962  1
