# generated using pymatgen
data_Sm(BO2)3
_symmetry_space_group_name_H-M   'P 1'
_cell_length_a   6.38482964
_cell_length_b   6.38482964
_cell_length_c   6.35967330
_cell_angle_alpha   62.56023297
_cell_angle_beta   117.43976703
_cell_angle_gamma   100.82077707
_symmetry_Int_Tables_number   1
_chemical_formula_structural   Sm(BO2)3
_chemical_formula_sum   'Sm2 B6 O12'
_cell_volume   204.10509880
_cell_formula_units_Z   2
loop_
 _symmetry_equiv_pos_site_id
 _symmetry_equiv_pos_as_xyz
  1  'x, y, z'
loop_
 _atom_site_type_symbol
 _atom_site_label
 _atom_site_symmetry_multiplicity
 _atom_site_fract_x
 _atom_site_fract_y
 _atom_site_fract_z
 _atom_site_occupancy
  Sm  Sm0  1  0.296304  0.296304  0.250000  1
  Sm  Sm1  1  0.703696  0.703696  0.750000  1
  B  B2  1  0.292563  0.838733  0.087778  1
  B  B3  1  0.838733  0.292563  0.412222  1
  B  B4  1  0.722541  0.722541  0.250000  1
  B  B5  1  0.277459  0.277459  0.750000  1
  B  B6  1  0.707437  0.161267  0.912222  1
  B  B7  1  0.161267  0.707437  0.587778  1
  O  O8  1  0.509312  0.717465  0.291564  1
  O  O9  1  0.713695  0.916560  0.005585  1
  O  O10  1  0.916560  0.713695  0.494415  1
  O  O11  1  0.286305  0.083440  0.994415  1
  O  O12  1  0.294005  0.886596  0.506698  1
  O  O13  1  0.886596  0.294005  0.993302  1
  O  O14  1  0.705995  0.113404  0.493302  1
  O  O15  1  0.113404  0.705995  0.006698  1
  O  O16  1  0.490688  0.282535  0.708436  1
  O  O17  1  0.282535  0.490688  0.791564  1
  O  O18  1  0.083440  0.286305  0.505585  1
  O  O19  1  0.717465  0.509312  0.208436  1
