# generated using pymatgen
data_Al7CoCu2
_symmetry_space_group_name_H-M   'P 1'
_cell_length_a   6.30970783
_cell_length_b   6.30970783
_cell_length_c   14.73952203
_cell_angle_alpha   90.00000000
_cell_angle_beta   90.00000000
_cell_angle_gamma   90.00000000
_symmetry_Int_Tables_number   1
_chemical_formula_structural   Al7CoCu2
_chemical_formula_sum   'Al28 Co4 Cu8'
_cell_volume   586.81593701
_cell_formula_units_Z   4
loop_
 _symmetry_equiv_pos_site_id
 _symmetry_equiv_pos_as_xyz
  1  'x, y, z'
loop_
 _atom_site_type_symbol
 _atom_site_label
 _atom_site_symmetry_multiplicity
 _atom_site_fract_x
 _atom_site_fract_y
 _atom_site_fract_z
 _atom_site_occupancy
  Al  Al0  1  0.000000  0.000000  0.132176  1
  Al  Al1  1  0.500000  0.500000  0.367824  1
  Al  Al2  1  0.000000  0.000000  0.867824  1
  Al  Al3  1  0.500000  0.500000  0.632176  1
  Al  Al4  1  0.154854  0.654854  0.250000  1
  Al  Al5  1  0.345146  0.154854  0.250000  1
  Al  Al6  1  0.654854  0.845146  0.250000  1
  Al  Al7  1  0.845146  0.345146  0.250000  1
  Al  Al8  1  0.845146  0.345146  0.750000  1
  Al  Al9  1  0.654854  0.845146  0.750000  1
  Al  Al10  1  0.345146  0.154854  0.750000  1
  Al  Al11  1  0.154854  0.654854  0.750000  1
  Al  Al12  1  0.204715  0.414193  0.099711  1
  Al  Al13  1  0.585807  0.204715  0.099711  1
  Al  Al14  1  0.414193  0.795285  0.099711  1
  Al  Al15  1  0.704715  0.085807  0.400289  1
  Al  Al16  1  0.295285  0.914193  0.400289  1
  Al  Al17  1  0.795285  0.585807  0.099711  1
  Al  Al18  1  0.914193  0.704715  0.400289  1
  Al  Al19  1  0.085807  0.295285  0.400289  1
  Al  Al20  1  0.795285  0.585807  0.900289  1
  Al  Al21  1  0.414193  0.795285  0.900289  1
  Al  Al22  1  0.585807  0.204715  0.900289  1
  Al  Al23  1  0.295285  0.914193  0.599711  1
  Al  Al24  1  0.704715  0.085807  0.599711  1
  Al  Al25  1  0.204715  0.414193  0.900289  1
  Al  Al26  1  0.085807  0.295285  0.599711  1
  Al  Al27  1  0.914193  0.704715  0.599711  1
  Co  Co28  1  0.000000  0.000000  0.297504  1
  Co  Co29  1  0.500000  0.500000  0.202496  1
  Co  Co30  1  0.000000  0.000000  0.702496  1
  Co  Co31  1  0.500000  0.500000  0.797504  1
  Cu  Cu32  1  0.270984  0.091931  0.000000  1
  Cu  Cu33  1  0.908069  0.270984  0.000000  1
  Cu  Cu34  1  0.091931  0.729016  0.000000  1
  Cu  Cu35  1  0.770984  0.408069  0.500000  1
  Cu  Cu36  1  0.229016  0.591931  0.500000  1
  Cu  Cu37  1  0.729016  0.908069  0.000000  1
  Cu  Cu38  1  0.591931  0.770984  0.500000  1
  Cu  Cu39  1  0.408069  0.229016  0.500000  1
