# generated using pymatgen
data_K2CuPb(NO2)6
_symmetry_space_group_name_H-M   'P 1'
_cell_length_a   7.67846831
_cell_length_b   7.67846831
_cell_length_c   7.67846831
_cell_angle_alpha   60.00000000
_cell_angle_beta   60.00000000
_cell_angle_gamma   60.00000000
_symmetry_Int_Tables_number   1
_chemical_formula_structural   K2CuPb(NO2)6
_chemical_formula_sum   'K2 Cu1 Pb1 N6 O12'
_cell_volume   320.11703926
_cell_formula_units_Z   1
loop_
 _symmetry_equiv_pos_site_id
 _symmetry_equiv_pos_as_xyz
  1  'x, y, z'
loop_
 _atom_site_type_symbol
 _atom_site_label
 _atom_site_symmetry_multiplicity
 _atom_site_fract_x
 _atom_site_fract_y
 _atom_site_fract_z
 _atom_site_occupancy
  K  K0  1  0.750000  0.750000  0.750000  1
  K  K1  1  0.250000  0.250000  0.250000  1
  Cu  Cu2  1  0.000000  0.000000  0.000000  1
  Pb  Pb3  1  0.500000  0.500000  0.500000  1
  N  N4  1  0.800887  0.800887  0.199113  1
  N  N5  1  0.199113  0.800887  0.800887  1
  N  N6  1  0.199113  0.800887  0.199113  1
  N  N7  1  0.800887  0.199113  0.800887  1
  N  N8  1  0.800887  0.199113  0.199113  1
  N  N9  1  0.199113  0.199113  0.800887  1
  O  O10  1  0.358286  0.840298  0.641714  1
  O  O11  1  0.358286  0.159702  0.840298  1
  O  O12  1  0.641714  0.840298  0.159702  1
  O  O13  1  0.840298  0.641714  0.358286  1
  O  O14  1  0.159702  0.358286  0.641714  1
  O  O15  1  0.641714  0.358286  0.840298  1
  O  O16  1  0.840298  0.358286  0.159702  1
  O  O17  1  0.641714  0.159702  0.358286  1
  O  O18  1  0.358286  0.641714  0.159702  1
  O  O19  1  0.159702  0.840298  0.358286  1
  O  O20  1  0.159702  0.641714  0.840298  1
  O  O21  1  0.840298  0.159702  0.641714  1
