# generated using pymatgen
data_Sc2Al3Ru
_symmetry_space_group_name_H-M   'P 1'
_cell_length_a   5.30207615
_cell_length_b   5.30207615
_cell_length_c   8.55175824
_cell_angle_alpha   90.00000000
_cell_angle_beta   90.00000000
_cell_angle_gamma   120.00000000
_symmetry_Int_Tables_number   1
_chemical_formula_structural   Sc2Al3Ru
_chemical_formula_sum   'Sc4 Al6 Ru2'
_cell_volume   208.19867850
_cell_formula_units_Z   2
loop_
 _symmetry_equiv_pos_site_id
 _symmetry_equiv_pos_as_xyz
  1  'x, y, z'
loop_
 _atom_site_type_symbol
 _atom_site_label
 _atom_site_symmetry_multiplicity
 _atom_site_fract_x
 _atom_site_fract_y
 _atom_site_fract_z
 _atom_site_occupancy
  Sc  Sc0  1  0.333333  0.666667  0.055479  1
  Sc  Sc1  1  0.666667  0.333333  0.555479  1
  Sc  Sc2  1  0.333333  0.666667  0.444521  1
  Sc  Sc3  1  0.666667  0.333333  0.944521  1
  Al  Al4  1  0.834879  0.669757  0.250000  1
  Al  Al5  1  0.165121  0.834879  0.750000  1
  Al  Al6  1  0.669757  0.834879  0.750000  1
  Al  Al7  1  0.330243  0.165121  0.250000  1
  Al  Al8  1  0.834879  0.165121  0.250000  1
  Al  Al9  1  0.165121  0.330243  0.750000  1
  Ru  Ru10  1  0.000000  0.000000  0.500000  1
  Ru  Ru11  1  0.000000  0.000000  0.000000  1
