# generated using pymatgen
data_TbB2C
_symmetry_space_group_name_H-M   'P 1'
_cell_length_a   6.80701298
_cell_length_b   6.80701298
_cell_length_c   7.54674232
_cell_angle_alpha   90.00000000
_cell_angle_beta   90.00000000
_cell_angle_gamma   90.00000000
_symmetry_Int_Tables_number   1
_chemical_formula_structural   TbB2C
_chemical_formula_sum   'Tb8 B16 C8'
_cell_volume   349.68151812
_cell_formula_units_Z   8
loop_
 _symmetry_equiv_pos_site_id
 _symmetry_equiv_pos_as_xyz
  1  'x, y, z'
loop_
 _atom_site_type_symbol
 _atom_site_label
 _atom_site_symmetry_multiplicity
 _atom_site_fract_x
 _atom_site_fract_y
 _atom_site_fract_z
 _atom_site_occupancy
  Tb  Tb0  1  0.309860  0.809860  0.750000  1
  Tb  Tb1  1  0.190140  0.309860  0.250000  1
  Tb  Tb2  1  0.809860  0.690140  0.250000  1
  Tb  Tb3  1  0.690140  0.190140  0.750000  1
  Tb  Tb4  1  0.690140  0.190140  0.250000  1
  Tb  Tb5  1  0.809860  0.690140  0.750000  1
  Tb  Tb6  1  0.190140  0.309860  0.750000  1
  Tb  Tb7  1  0.309860  0.809860  0.250000  1
  B  B8  1  0.151387  0.034753  0.000000  1
  B  B9  1  0.534753  0.651387  0.500000  1
  B  B10  1  0.848613  0.965247  0.000000  1
  B  B11  1  0.348613  0.534753  0.000000  1
  B  B12  1  0.651387  0.465247  0.000000  1
  B  B13  1  0.034753  0.848613  0.500000  1
  B  B14  1  0.965247  0.151387  0.500000  1
  B  B15  1  0.465247  0.348613  0.500000  1
  B  B16  1  0.097066  0.595343  0.000000  1
  B  B17  1  0.404657  0.097066  0.500000  1
  B  B18  1  0.595343  0.902934  0.500000  1
  B  B19  1  0.597066  0.904657  0.000000  1
  B  B20  1  0.402934  0.095343  0.000000  1
  B  B21  1  0.902934  0.404657  0.000000  1
  B  B22  1  0.095343  0.597066  0.500000  1
  B  B23  1  0.904657  0.402934  0.500000  1
  C  C24  1  0.177292  0.040574  0.500000  1
  C  C25  1  0.677292  0.459426  0.500000  1
  C  C26  1  0.322708  0.540574  0.500000  1
  C  C27  1  0.959426  0.177292  0.000000  1
  C  C28  1  0.040574  0.822708  0.000000  1
  C  C29  1  0.540574  0.677292  0.000000  1
  C  C30  1  0.822708  0.959426  0.500000  1
  C  C31  1  0.459426  0.322708  0.000000  1
