# generated using pymatgen
data_Tb2Ge2Ru
_symmetry_space_group_name_H-M   'P 1'
_cell_length_a   5.84136154
_cell_length_b   5.84136154
_cell_length_c   10.26403145
_cell_angle_alpha   63.65647936
_cell_angle_beta   116.34352064
_cell_angle_gamma   136.75669452
_symmetry_Int_Tables_number   1
_chemical_formula_structural   Tb2Ge2Ru
_chemical_formula_sum   'Tb4 Ge4 Ru2'
_cell_volume   210.83802395
_cell_formula_units_Z   2
loop_
 _symmetry_equiv_pos_site_id
 _symmetry_equiv_pos_as_xyz
  1  'x, y, z'
loop_
 _atom_site_type_symbol
 _atom_site_label
 _atom_site_symmetry_multiplicity
 _atom_site_fract_x
 _atom_site_fract_y
 _atom_site_fract_z
 _atom_site_occupancy
  Tb  Tb0  1  0.684218  0.315782  0.612048  1
  Tb  Tb1  1  0.315782  0.684218  0.387952  1
  Tb  Tb2  1  0.498045  0.501955  0.826324  1
  Tb  Tb3  1  0.501955  0.498045  0.173676  1
  Ge  Ge4  1  0.854156  0.145844  0.935561  1
  Ge  Ge5  1  0.145844  0.854156  0.064439  1
  Ge  Ge6  1  0.989474  0.010526  0.624953  1
  Ge  Ge7  1  0.010526  0.989474  0.375047  1
  Ru  Ru8  1  0.771449  0.228551  0.127934  1
  Ru  Ru9  1  0.228551  0.771449  0.872066  1
