# generated using pymatgen
data_LiNi2P2O9
_symmetry_space_group_name_H-M   'P 1'
_cell_length_a   6.25759087
_cell_length_b   7.43748458
_cell_length_c   13.85284823
_cell_angle_alpha   90.00000000
_cell_angle_beta   90.00000000
_cell_angle_gamma   90.00000000
_symmetry_Int_Tables_number   1
_chemical_formula_structural   LiNi2P2O9
_chemical_formula_sum   'Li4 Ni8 P8 O36'
_cell_volume   644.72174683
_cell_formula_units_Z   4
loop_
 _symmetry_equiv_pos_site_id
 _symmetry_equiv_pos_as_xyz
  1  'x, y, z'
loop_
 _atom_site_type_symbol
 _atom_site_label
 _atom_site_symmetry_multiplicity
 _atom_site_fract_x
 _atom_site_fract_y
 _atom_site_fract_z
 _atom_site_occupancy
  Li  Li0  1  0.750000  0.939352  0.777998  1
  Li  Li1  1  0.750000  0.560648  0.277998  1
  Li  Li2  1  0.250000  0.439352  0.722002  1
  Li  Li3  1  0.250000  0.060648  0.222002  1
  Ni  Ni4  1  0.750000  0.347938  0.879897  1
  Ni  Ni5  1  0.250000  0.652062  0.120103  1
  Ni  Ni6  1  0.250000  0.847938  0.620103  1
  Ni  Ni7  1  0.750000  0.152062  0.379897  1
  Ni  Ni8  1  0.500000  0.000000  0.000000  1
  Ni  Ni9  1  0.500000  0.500000  0.500000  1
  Ni  Ni10  1  0.000000  0.500000  0.500000  1
  Ni  Ni11  1  0.000000  0.000000  0.000000  1
  P  P12  1  0.250000  0.362545  0.935042  1
  P  P13  1  0.750000  0.637455  0.064958  1
  P  P14  1  0.750000  0.862545  0.564958  1
  P  P15  1  0.250000  0.137455  0.435042  1
  P  P16  1  0.750000  0.399126  0.696248  1
  P  P17  1  0.750000  0.100874  0.196248  1
  P  P18  1  0.250000  0.899126  0.803752  1
  P  P19  1  0.250000  0.600874  0.303752  1
  O  O20  1  0.042775  0.580611  0.362045  1
  O  O21  1  0.542775  0.419389  0.637955  1
  O  O22  1  0.957225  0.080611  0.137955  1
  O  O23  1  0.457225  0.919389  0.862045  1
  O  O24  1  0.957225  0.419389  0.637955  1
  O  O25  1  0.457225  0.580611  0.362045  1
  O  O26  1  0.042775  0.919389  0.862045  1
  O  O27  1  0.542775  0.080611  0.137955  1
  O  O28  1  0.250000  0.314279  0.493850  1
  O  O29  1  0.750000  0.685721  0.506150  1
  O  O30  1  0.750000  0.814279  0.006150  1
  O  O31  1  0.250000  0.185721  0.993850  1
  O  O32  1  0.750000  0.135735  0.956331  1
  O  O33  1  0.250000  0.864265  0.043669  1
  O  O34  1  0.250000  0.635735  0.543669  1
  O  O35  1  0.750000  0.364265  0.456331  1
  O  O36  1  0.750000  0.218723  0.755122  1
  O  O37  1  0.250000  0.781277  0.244878  1
  O  O38  1  0.250000  0.718723  0.744878  1
  O  O39  1  0.750000  0.281277  0.255122  1
  O  O40  1  0.437983  0.135897  0.362256  1
  O  O41  1  0.937983  0.864103  0.637744  1
  O  O42  1  0.562017  0.635897  0.137744  1
  O  O43  1  0.062017  0.364103  0.862256  1
  O  O44  1  0.562017  0.864103  0.637744  1
  O  O45  1  0.062017  0.135897  0.362256  1
  O  O46  1  0.437983  0.364103  0.862256  1
  O  O47  1  0.937983  0.635897  0.137744  1
  O  O48  1  0.750000  0.469146  0.002383  1
  O  O49  1  0.250000  0.037877  0.717285  1
  O  O50  1  0.250000  0.462123  0.217285  1
  O  O51  1  0.750000  0.537877  0.782715  1
  O  O52  1  0.750000  0.030854  0.502383  1
  O  O53  1  0.250000  0.969146  0.497617  1
  O  O54  1  0.250000  0.530854  0.997617  1
  O  O55  1  0.750000  0.962123  0.282715  1
