# generated using pymatgen
data_La2C3
_symmetry_space_group_name_H-M   'P 1'
_cell_length_a   7.63737590
_cell_length_b   7.63737590
_cell_length_c   7.63737590
_cell_angle_alpha   109.47122063
_cell_angle_beta   109.47122063
_cell_angle_gamma   109.47122063
_symmetry_Int_Tables_number   1
_chemical_formula_structural   La2C3
_chemical_formula_sum   'La8 C12'
_cell_volume   342.93405000
_cell_formula_units_Z   4
loop_
 _symmetry_equiv_pos_site_id
 _symmetry_equiv_pos_as_xyz
  1  'x, y, z'
loop_
 _atom_site_type_symbol
 _atom_site_label
 _atom_site_symmetry_multiplicity
 _atom_site_fract_x
 _atom_site_fract_y
 _atom_site_fract_z
 _atom_site_occupancy
  La  La0  1  0.604415  0.604415  0.604415  1
  La  La1  1  0.395585  0.500000  0.000000  1
  La  La2  1  0.500000  1.000000  0.395585  1
  La  La3  1  1.000000  0.395585  0.500000  1
  La  La4  1  0.500000  1.000000  0.895585  1
  La  La5  1  1.000000  0.895585  0.500000  1
  La  La6  1  0.895585  0.500000  1.000000  1
  La  La7  1  0.104415  0.104415  0.104415  1
  C  C8  1  0.750000  0.799601  0.049601  1
  C  C9  1  0.750000  0.950399  0.200399  1
  C  C10  1  0.299601  0.250000  0.549601  1
  C  C11  1  0.549601  0.299601  0.250000  1
  C  C12  1  0.200399  0.750000  0.950399  1
  C  C13  1  0.950399  0.200399  0.750000  1
  C  C14  1  0.250000  0.700399  0.450399  1
  C  C15  1  0.700399  0.450399  0.250000  1
  C  C16  1  0.250000  0.549601  0.299601  1
  C  C17  1  0.450399  0.250000  0.700399  1
  C  C18  1  0.049601  0.750000  0.799601  1
  C  C19  1  0.799601  0.049601  0.750000  1
