# generated using pymatgen
data_ErCoC2
_symmetry_space_group_name_H-M   'P 1'
_cell_length_a   3.73967609
_cell_length_b   3.73967609
_cell_length_c   3.51142199
_cell_angle_alpha   90.00000000
_cell_angle_beta   90.00000000
_cell_angle_gamma   106.03875058
_symmetry_Int_Tables_number   1
_chemical_formula_structural   ErCoC2
_chemical_formula_sum   'Er1 Co1 C2'
_cell_volume   47.19633839
_cell_formula_units_Z   1
loop_
 _symmetry_equiv_pos_site_id
 _symmetry_equiv_pos_as_xyz
  1  'x, y, z'
loop_
 _atom_site_type_symbol
 _atom_site_label
 _atom_site_symmetry_multiplicity
 _atom_site_fract_x
 _atom_site_fract_y
 _atom_site_fract_z
 _atom_site_occupancy
  Er  Er0  1  0.008486  0.991514  0.000000  1
  Co  Co1  1  0.391290  0.608710  0.500000  1
  C  C2  1  0.855545  0.451022  0.500000  1
  C  C3  1  0.548978  0.144455  0.500000  1
