# generated using pymatgen
data_Zr2Zn
_symmetry_space_group_name_H-M   'P 1'
_cell_length_a   6.13570318
_cell_length_b   6.13570318
_cell_length_c   6.13570318
_cell_angle_alpha   148.75627890
_cell_angle_beta   148.75627890
_cell_angle_gamma   44.77017505
_symmetry_Int_Tables_number   1
_chemical_formula_structural   Zr2Zn
_chemical_formula_sum   'Zr2 Zn1'
_cell_volume   61.95264100
_cell_formula_units_Z   1
loop_
 _symmetry_equiv_pos_site_id
 _symmetry_equiv_pos_as_xyz
  1  'x, y, z'
loop_
 _atom_site_type_symbol
 _atom_site_label
 _atom_site_symmetry_multiplicity
 _atom_site_fract_x
 _atom_site_fract_y
 _atom_site_fract_z
 _atom_site_occupancy
  Zr  Zr0  1  0.656736  0.656736  0.000000  1
  Zr  Zr1  1  0.343264  0.343264  0.000000  1
  Zn  Zn2  1  0.000000  0.000000  0.000000  1
