# generated using pymatgen
data_DyPtF7
_symmetry_space_group_name_H-M   'P 1'
_cell_length_a   8.89106148
_cell_length_b   5.54934200
_cell_length_c   12.00018975
_cell_angle_alpha   90.00000000
_cell_angle_beta   117.57047604
_cell_angle_gamma   90.00000000
_symmetry_Int_Tables_number   1
_chemical_formula_structural   DyPtF7
_chemical_formula_sum   'Dy4 Pt4 F28'
_cell_volume   524.84810902
_cell_formula_units_Z   4
loop_
 _symmetry_equiv_pos_site_id
 _symmetry_equiv_pos_as_xyz
  1  'x, y, z'
loop_
 _atom_site_type_symbol
 _atom_site_label
 _atom_site_symmetry_multiplicity
 _atom_site_fract_x
 _atom_site_fract_y
 _atom_site_fract_z
 _atom_site_occupancy
  Dy  Dy0  1  0.813863  0.760899  0.235668  1
  Dy  Dy1  1  0.186137  0.260899  0.264332  1
  Dy  Dy2  1  0.186137  0.239101  0.764332  1
  Dy  Dy3  1  0.813863  0.739101  0.735668  1
  Pt  Pt4  1  0.272387  0.758777  0.043004  1
  Pt  Pt5  1  0.727613  0.258777  0.456996  1
  Pt  Pt6  1  0.727613  0.241223  0.956996  1
  Pt  Pt7  1  0.272387  0.741223  0.543004  1
  F  F8  1  0.703534  0.436090  0.084678  1
  F  F9  1  0.296466  0.936090  0.415322  1
  F  F10  1  0.296466  0.563910  0.915322  1
  F  F11  1  0.703534  0.063910  0.584678  1
  F  F12  1  0.277856  0.440287  0.457323  1
  F  F13  1  0.722144  0.940287  0.042677  1
  F  F14  1  0.722144  0.559713  0.542677  1
  F  F15  1  0.277856  0.059713  0.957323  1
  F  F16  1  0.521406  0.774263  0.141291  1
  F  F17  1  0.478594  0.274263  0.358709  1
  F  F18  1  0.478594  0.225737  0.858709  1
  F  F19  1  0.521406  0.725737  0.641291  1
  F  F20  1  0.023477  0.754414  0.949579  1
  F  F21  1  0.976523  0.254414  0.550421  1
  F  F22  1  0.976523  0.245586  0.050421  1
  F  F23  1  0.023477  0.745586  0.449579  1
  F  F24  1  0.725263  0.965794  0.363971  1
  F  F25  1  0.274737  0.465794  0.136029  1
  F  F26  1  0.274737  0.034206  0.636029  1
  F  F27  1  0.725263  0.534206  0.863971  1
  F  F28  1  0.745700  0.051942  0.824675  1
  F  F29  1  0.254300  0.551942  0.675325  1
  F  F30  1  0.254300  0.948058  0.175325  1
  F  F31  1  0.745700  0.448058  0.324675  1
  F  F32  1  0.969831  0.414965  0.767453  1
  F  F33  1  0.030169  0.914965  0.732547  1
  F  F34  1  0.030169  0.585035  0.232547  1
  F  F35  1  0.969831  0.085035  0.267453  1
