# generated using pymatgen
data_LiFe(SiO3)2
_symmetry_space_group_name_H-M   'P 1'
_cell_length_a   5.33480529
_cell_length_b   8.80175686
_cell_length_c   9.37432579
_cell_angle_alpha   90.00000000
_cell_angle_beta   101.92753009
_cell_angle_gamma   90.00000000
_symmetry_Int_Tables_number   1
_chemical_formula_structural   LiFe(SiO3)2
_chemical_formula_sum   'Li4 Fe4 Si8 O24'
_cell_volume   430.67411919
_cell_formula_units_Z   4
loop_
 _symmetry_equiv_pos_site_id
 _symmetry_equiv_pos_as_xyz
  1  'x, y, z'
loop_
 _atom_site_type_symbol
 _atom_site_label
 _atom_site_symmetry_multiplicity
 _atom_site_fract_x
 _atom_site_fract_y
 _atom_site_fract_z
 _atom_site_occupancy
  Li  Li0  1  0.990662  0.002612  0.752330  1
  Li  Li1  1  0.509338  0.502612  0.247670  1
  Li  Li2  1  0.009338  0.997388  0.247670  1
  Li  Li3  1  0.490662  0.497388  0.752330  1
  Fe  Fe4  1  0.987548  0.647281  0.749688  1
  Fe  Fe5  1  0.487548  0.852719  0.749688  1
  Fe  Fe6  1  0.012452  0.352719  0.250312  1
  Fe  Fe7  1  0.512452  0.147281  0.250312  1
  Si  Si8  1  0.770910  0.661352  0.047820  1
  Si  Si9  1  0.209120  0.660900  0.452603  1
  Si  Si10  1  0.290880  0.160900  0.547397  1
  Si  Si11  1  0.790880  0.339100  0.547397  1
  Si  Si12  1  0.709120  0.839100  0.452603  1
  Si  Si13  1  0.729090  0.161352  0.952180  1
  Si  Si14  1  0.270910  0.838648  0.047820  1
  Si  Si15  1  0.229090  0.338648  0.952180  1
  O  O16  1  0.229198  0.496878  0.377601  1
  O  O17  1  0.418733  0.770924  0.396758  1
  O  O18  1  0.081267  0.270924  0.603242  1
  O  O19  1  0.581267  0.229076  0.603242  1
  O  O20  1  0.918733  0.729076  0.396758  1
  O  O21  1  0.973736  0.233530  0.892845  1
  O  O22  1  0.526264  0.733530  0.107155  1
  O  O23  1  0.026264  0.766470  0.107155  1
  O  O24  1  0.473736  0.266470  0.892845  1
  O  O25  1  0.772315  0.835947  0.633544  1
  O  O26  1  0.270802  0.996878  0.622399  1
  O  O27  1  0.770802  0.503122  0.622399  1
  O  O28  1  0.294403  0.333795  0.132680  1
  O  O29  1  0.205597  0.833795  0.867320  1
  O  O30  1  0.705597  0.666205  0.867320  1
  O  O31  1  0.794403  0.166205  0.132680  1
  O  O32  1  0.227685  0.164053  0.366456  1
  O  O33  1  0.727685  0.335947  0.366456  1
  O  O34  1  0.697785  0.993174  0.882075  1
  O  O35  1  0.272315  0.664053  0.633544  1
  O  O36  1  0.197785  0.506826  0.882075  1
  O  O37  1  0.302215  0.006826  0.117925  1
  O  O38  1  0.802215  0.493174  0.117925  1
  O  O39  1  0.729198  0.003122  0.377601  1
