# generated using pymatgen
data_Zn3TeO6
_symmetry_space_group_name_H-M   'P 1'
_cell_length_a   8.79406309
_cell_length_b   8.79406309
_cell_length_c   10.54130834
_cell_angle_alpha   87.56742546
_cell_angle_beta   92.43257454
_cell_angle_gamma   118.62509192
_symmetry_Int_Tables_number   1
_chemical_formula_structural   Zn3TeO6
_chemical_formula_sum   'Zn18 Te6 O36'
_cell_volume   714.70433028
_cell_formula_units_Z   6
loop_
 _symmetry_equiv_pos_site_id
 _symmetry_equiv_pos_as_xyz
  1  'x, y, z'
loop_
 _atom_site_type_symbol
 _atom_site_label
 _atom_site_symmetry_multiplicity
 _atom_site_fract_x
 _atom_site_fract_y
 _atom_site_fract_z
 _atom_site_occupancy
  Zn  Zn0  1  0.200908  0.200908  0.250000  1
  Zn  Zn1  1  0.799092  0.799092  0.750000  1
  Zn  Zn2  1  0.622559  0.677246  0.447703  1
  Zn  Zn3  1  0.677246  0.622559  0.052297  1
  Zn  Zn4  1  0.377441  0.322754  0.552297  1
  Zn  Zn5  1  0.322754  0.377441  0.947703  1
  Zn  Zn6  1  0.998557  0.726849  0.257464  1
  Zn  Zn7  1  0.726849  0.998557  0.242536  1
  Zn  Zn8  1  0.001443  0.273151  0.742536  1
  Zn  Zn9  1  0.273151  0.001443  0.757464  1
  Zn  Zn10  1  0.935149  0.342814  0.074679  1
  Zn  Zn11  1  0.342814  0.935149  0.425321  1
  Zn  Zn12  1  0.064851  0.657186  0.925321  1
  Zn  Zn13  1  0.657186  0.064851  0.574679  1
  Zn  Zn14  1  0.101459  0.425789  0.441312  1
  Zn  Zn15  1  0.425789  0.101459  0.058688  1
  Zn  Zn16  1  0.898541  0.574211  0.558688  1
  Zn  Zn17  1  0.574211  0.898541  0.941312  1
  Te  Te18  1  0.000000  1.000000  0.500000  1
  Te  Te19  1  0.000000  0.000000  0.000000  1
  Te  Te20  1  0.333862  0.662570  0.194459  1
  Te  Te21  1  0.662570  0.333862  0.305541  1
  Te  Te22  1  0.666138  0.337430  0.805541  1
  Te  Te23  1  0.337430  0.666138  0.694459  1
  O  O24  1  0.910708  0.768058  0.428905  1
  O  O25  1  0.768058  0.910708  0.071095  1
  O  O26  1  0.089292  0.231942  0.571095  1
  O  O27  1  0.231942  0.089292  0.928905  1
  O  O28  1  0.574356  0.430054  0.427738  1
  O  O29  1  0.430054  0.574356  0.072262  1
  O  O30  1  0.425644  0.569946  0.572262  1
  O  O31  1  0.569946  0.425644  0.927738  1
  O  O32  1  0.768278  0.547744  0.200967  1
  O  O33  1  0.547744  0.768278  0.299033  1
  O  O34  1  0.231722  0.452256  0.799033  1
  O  O35  1  0.452256  0.231722  0.700967  1
  O  O36  1  0.879022  0.430930  0.405161  1
  O  O37  1  0.430930  0.879022  0.094839  1
  O  O38  1  0.241106  0.444258  0.294848  1
  O  O39  1  0.120978  0.569070  0.594839  1
  O  O40  1  0.222777  0.740691  0.317357  1
  O  O41  1  0.740691  0.222777  0.182643  1
  O  O42  1  0.777223  0.259309  0.682643  1
  O  O43  1  0.259309  0.777223  0.817357  1
  O  O44  1  0.113381  0.586904  0.099643  1
  O  O45  1  0.586904  0.113381  0.400357  1
  O  O46  1  0.886619  0.413096  0.900357  1
  O  O47  1  0.413096  0.886619  0.599643  1
  O  O48  1  0.907207  0.047380  0.842035  1
  O  O49  1  0.047380  0.907207  0.657965  1
  O  O50  1  0.092793  0.952620  0.157965  1
  O  O51  1  0.952620  0.092793  0.342035  1
  O  O52  1  0.762531  0.909465  0.559486  1
  O  O53  1  0.909465  0.762531  0.940514  1
  O  O54  1  0.237469  0.090535  0.440514  1
  O  O55  1  0.090535  0.237469  0.059486  1
  O  O56  1  0.555742  0.758894  0.794848  1
  O  O57  1  0.758894  0.555742  0.705152  1
  O  O58  1  0.444258  0.241106  0.205152  1
  O  O59  1  0.569070  0.120978  0.905161  1
