# generated using pymatgen
data_ZnP2
_symmetry_space_group_name_H-M   'P 1'
_cell_length_a   5.10161308
_cell_length_b   5.10161308
_cell_length_c   18.62802758
_cell_angle_alpha   90.00000000
_cell_angle_beta   90.00000000
_cell_angle_gamma   90.00000000
_symmetry_Int_Tables_number   1
_chemical_formula_structural   ZnP2
_chemical_formula_sum   'Zn8 P16'
_cell_volume   484.82154051
_cell_formula_units_Z   8
loop_
 _symmetry_equiv_pos_site_id
 _symmetry_equiv_pos_as_xyz
  1  'x, y, z'
loop_
 _atom_site_type_symbol
 _atom_site_label
 _atom_site_symmetry_multiplicity
 _atom_site_fract_x
 _atom_site_fract_y
 _atom_site_fract_z
 _atom_site_occupancy
  Zn  Zn0  1  0.345905  0.863961  0.449306  1
  Zn  Zn1  1  0.654095  0.136039  0.949306  1
  Zn  Zn2  1  0.863961  0.345905  0.550694  1
  Zn  Zn3  1  0.363961  0.154095  0.699306  1
  Zn  Zn4  1  0.636039  0.845905  0.199306  1
  Zn  Zn5  1  0.154095  0.363961  0.300694  1
  Zn  Zn6  1  0.845905  0.636039  0.800694  1
  Zn  Zn7  1  0.136039  0.654095  0.050694  1
  P  P8  1  0.990486  0.018800  0.375924  1
  P  P9  1  0.009514  0.981200  0.875924  1
  P  P10  1  0.018800  0.990486  0.624076  1
  P  P11  1  0.518800  0.509514  0.625924  1
  P  P12  1  0.481200  0.490486  0.125924  1
  P  P13  1  0.509514  0.518800  0.374076  1
  P  P14  1  0.490486  0.481200  0.874076  1
  P  P15  1  0.981200  0.009514  0.124076  1
  P  P16  1  0.801754  0.318396  0.059515  1
  P  P17  1  0.181604  0.301754  0.809515  1
  P  P18  1  0.818396  0.698246  0.309515  1
  P  P19  1  0.301754  0.181604  0.190485  1
  P  P20  1  0.698246  0.818396  0.690485  1
  P  P21  1  0.198246  0.681604  0.559515  1
  P  P22  1  0.318396  0.801754  0.940485  1
  P  P23  1  0.681604  0.198246  0.440485  1
