# generated using pymatgen
data_ThMnSe3
_symmetry_space_group_name_H-M   'P 1'
_cell_length_a   6.68220472
_cell_length_b   6.68220472
_cell_length_c   9.37008654
_cell_angle_alpha   90.00000000
_cell_angle_beta   90.00000000
_cell_angle_gamma   144.69796682
_symmetry_Int_Tables_number   1
_chemical_formula_structural   ThMnSe3
_chemical_formula_sum   'Th2 Mn2 Se6'
_cell_volume   241.78300388
_cell_formula_units_Z   2
loop_
 _symmetry_equiv_pos_site_id
 _symmetry_equiv_pos_as_xyz
  1  'x, y, z'
loop_
 _atom_site_type_symbol
 _atom_site_label
 _atom_site_symmetry_multiplicity
 _atom_site_fract_x
 _atom_site_fract_y
 _atom_site_fract_z
 _atom_site_occupancy
  Th  Th0  1  0.750677  0.249323  0.250000  1
  Th  Th1  1  0.249323  0.750677  0.750000  1
  Mn  Mn2  1  0.000000  0.000000  0.500000  1
  Mn  Mn3  1  0.000000  0.000000  0.000000  1
  Se  Se4  1  0.917840  0.082160  0.750000  1
  Se  Se5  1  0.082160  0.917840  0.250000  1
  Se  Se6  1  0.643074  0.356926  0.942238  1
  Se  Se7  1  0.356926  0.643074  0.057762  1
  Se  Se8  1  0.356926  0.643074  0.442238  1
  Se  Se9  1  0.643074  0.356926  0.557762  1
