# generated using pymatgen
data_MgIr2
_symmetry_space_group_name_H-M   'P 1'
_cell_length_a   5.21247777
_cell_length_b   5.21247777
_cell_length_c   8.45303960
_cell_angle_alpha   90.00000000
_cell_angle_beta   90.00000000
_cell_angle_gamma   120.00000000
_symmetry_Int_Tables_number   1
_chemical_formula_structural   MgIr2
_chemical_formula_sum   'Mg4 Ir8'
_cell_volume   198.89870992
_cell_formula_units_Z   4
loop_
 _symmetry_equiv_pos_site_id
 _symmetry_equiv_pos_as_xyz
  1  'x, y, z'
loop_
 _atom_site_type_symbol
 _atom_site_label
 _atom_site_symmetry_multiplicity
 _atom_site_fract_x
 _atom_site_fract_y
 _atom_site_fract_z
 _atom_site_occupancy
  Mg  Mg0  1  0.333333  0.666667  0.069374  1
  Mg  Mg1  1  0.666667  0.333333  0.569374  1
  Mg  Mg2  1  0.666667  0.333333  0.930626  1
  Mg  Mg3  1  0.333333  0.666667  0.430626  1
  Ir  Ir4  1  0.000000  0.000000  0.000000  1
  Ir  Ir5  1  0.000000  0.000000  0.500000  1
  Ir  Ir6  1  0.828138  0.656276  0.250000  1
  Ir  Ir7  1  0.171862  0.828138  0.750000  1
  Ir  Ir8  1  0.656276  0.828138  0.750000  1
  Ir  Ir9  1  0.343724  0.171862  0.250000  1
  Ir  Ir10  1  0.828138  0.171862  0.250000  1
  Ir  Ir11  1  0.171862  0.343724  0.750000  1
