# generated using pymatgen
data_YB4Rh
_symmetry_space_group_name_H-M   'P 1'
_cell_length_a   3.57644638
_cell_length_b   5.97059368
_cell_length_c   11.58605748
_cell_angle_alpha   90.00000000
_cell_angle_beta   90.00000000
_cell_angle_gamma   90.00000000
_symmetry_Int_Tables_number   1
_chemical_formula_structural   YB4Rh
_chemical_formula_sum   'Y4 B16 Rh4'
_cell_volume   247.40297286
_cell_formula_units_Z   4
loop_
 _symmetry_equiv_pos_site_id
 _symmetry_equiv_pos_as_xyz
  1  'x, y, z'
loop_
 _atom_site_type_symbol
 _atom_site_label
 _atom_site_symmetry_multiplicity
 _atom_site_fract_x
 _atom_site_fract_y
 _atom_site_fract_z
 _atom_site_occupancy
  Y  Y0  1  0.000000  0.368576  0.148941  1
  Y  Y1  1  0.000000  0.631424  0.851059  1
  Y  Y2  1  0.000000  0.868576  0.351059  1
  Y  Y3  1  0.000000  0.131424  0.648941  1
  B  B4  1  0.500000  0.789851  0.686906  1
  B  B5  1  0.500000  0.210149  0.313094  1
  B  B6  1  0.500000  0.289851  0.813094  1
  B  B7  1  0.500000  0.710149  0.186906  1
  B  B8  1  0.500000  0.863520  0.530725  1
  B  B9  1  0.500000  0.136480  0.469275  1
  B  B10  1  0.500000  0.363520  0.969275  1
  B  B11  1  0.500000  0.636480  0.030725  1
  B  B12  1  0.500000  0.021743  0.192482  1
  B  B13  1  0.500000  0.978257  0.807518  1
  B  B14  1  0.500000  0.521743  0.307518  1
  B  B15  1  0.500000  0.478257  0.692482  1
  B  B16  1  0.500000  0.112130  0.046918  1
  B  B17  1  0.500000  0.887870  0.953082  1
  B  B18  1  0.500000  0.612130  0.453082  1
  B  B19  1  0.500000  0.387870  0.546918  1
  Rh  Rh20  1  0.000000  0.857604  0.094335  1
  Rh  Rh21  1  0.000000  0.142396  0.905665  1
  Rh  Rh22  1  0.000000  0.357604  0.405665  1
  Rh  Rh23  1  0.000000  0.642396  0.594335  1
