# generated using pymatgen
data_NaYTiO4
_symmetry_space_group_name_H-M   'P 1'
_cell_length_a   5.30364791
_cell_length_b   5.43983197
_cell_length_c   12.47126556
_cell_angle_alpha   90.00000000
_cell_angle_beta   90.00000000
_cell_angle_gamma   90.00000000
_symmetry_Int_Tables_number   1
_chemical_formula_structural   NaYTiO4
_chemical_formula_sum   'Na4 Y4 Ti4 O16'
_cell_volume   359.80790224
_cell_formula_units_Z   4
loop_
 _symmetry_equiv_pos_site_id
 _symmetry_equiv_pos_as_xyz
  1  'x, y, z'
loop_
 _atom_site_type_symbol
 _atom_site_label
 _atom_site_symmetry_multiplicity
 _atom_site_fract_x
 _atom_site_fract_y
 _atom_site_fract_z
 _atom_site_occupancy
  Na  Na0  1  0.750000  0.998349  0.586572  1
  Na  Na1  1  0.750000  0.498349  0.413428  1
  Na  Na2  1  0.250000  0.001651  0.413428  1
  Na  Na3  1  0.250000  0.501651  0.586572  1
  Y  Y4  1  0.750000  0.974704  0.893919  1
  Y  Y5  1  0.750000  0.474704  0.106081  1
  Y  Y6  1  0.250000  0.525296  0.893919  1
  Y  Y7  1  0.250000  0.025296  0.106081  1
  Ti  Ti8  1  0.250000  0.008643  0.737537  1
  Ti  Ti9  1  0.750000  0.491357  0.737537  1
  Ti  Ti10  1  0.250000  0.508643  0.262463  1
  Ti  Ti11  1  0.750000  0.991357  0.262463  1
  O  O12  1  0.250000  0.548962  0.402367  1
  O  O13  1  0.750000  0.451038  0.597633  1
  O  O14  1  0.250000  0.048962  0.597633  1
  O  O15  1  0.750000  0.951038  0.402367  1
  O  O16  1  0.250000  0.427659  0.063954  1
  O  O17  1  0.750000  0.572341  0.936046  1
  O  O18  1  0.250000  0.927659  0.936046  1
  O  O19  1  0.750000  0.072341  0.063954  1
  O  O20  1  0.500000  0.750000  0.756459  1
  O  O21  1  0.000000  0.250000  0.243541  1
  O  O22  1  0.500000  0.250000  0.243541  1
  O  O23  1  0.000000  0.750000  0.756459  1
  O  O24  1  0.000000  0.750000  0.210469  1
  O  O25  1  0.500000  0.250000  0.789531  1
  O  O26  1  0.000000  0.250000  0.789531  1
  O  O27  1  0.500000  0.750000  0.210469  1
