# generated using pymatgen
data_Re2W3C
_symmetry_space_group_name_H-M   'P 1'
_cell_length_a   6.95722461
_cell_length_b   6.95722461
_cell_length_c   6.95722461
_cell_angle_alpha   90.00000000
_cell_angle_beta   90.00000000
_cell_angle_gamma   90.00000000
_symmetry_Int_Tables_number   1
_chemical_formula_structural   Re2W3C
_chemical_formula_sum   'Re8 W12 C4'
_cell_volume   336.75036382
_cell_formula_units_Z   4
loop_
 _symmetry_equiv_pos_site_id
 _symmetry_equiv_pos_as_xyz
  1  'x, y, z'
loop_
 _atom_site_type_symbol
 _atom_site_label
 _atom_site_symmetry_multiplicity
 _atom_site_fract_x
 _atom_site_fract_y
 _atom_site_fract_z
 _atom_site_occupancy
  Re  Re0  1  0.681833  0.681833  0.681833  1
  Re  Re1  1  0.931833  0.568167  0.431833  1
  Re  Re2  1  0.568167  0.431833  0.931833  1
  Re  Re3  1  0.431833  0.931833  0.568167  1
  Re  Re4  1  0.181833  0.818167  0.318167  1
  Re  Re5  1  0.818167  0.318167  0.181833  1
  Re  Re6  1  0.318167  0.181833  0.818167  1
  Re  Re7  1  0.068167  0.068167  0.068167  1
  W  W8  1  0.625000  0.294538  0.544538  1
  W  W9  1  0.705462  0.044538  0.875000  1
  W  W10  1  0.544538  0.625000  0.294538  1
  W  W11  1  0.955462  0.375000  0.794538  1
  W  W12  1  0.125000  0.205462  0.455462  1
  W  W13  1  0.375000  0.794538  0.955462  1
  W  W14  1  0.875000  0.705462  0.044538  1
  W  W15  1  0.205462  0.455462  0.125000  1
  W  W16  1  0.794538  0.955462  0.375000  1
  W  W17  1  0.044538  0.875000  0.705462  1
  W  W18  1  0.455462  0.125000  0.205462  1
  W  W19  1  0.294538  0.544538  0.625000  1
  C  C20  1  0.875000  0.125000  0.625000  1
  C  C21  1  0.125000  0.625000  0.875000  1
  C  C22  1  0.625000  0.875000  0.125000  1
  C  C23  1  0.375000  0.375000  0.375000  1
