# generated using pymatgen
data_Na7(CoO3)2
_symmetry_space_group_name_H-M   'P 1'
_cell_length_a   7.89902595
_cell_length_b   7.89902595
_cell_length_c   10.64175301
_cell_angle_alpha   76.06213672
_cell_angle_beta   103.93786328
_cell_angle_gamma   136.61114951
_symmetry_Int_Tables_number   1
_chemical_formula_structural   Na7(CoO3)2
_chemical_formula_sum   'Na14 Co4 O12'
_cell_volume   440.53153593
_cell_formula_units_Z   2
loop_
 _symmetry_equiv_pos_site_id
 _symmetry_equiv_pos_as_xyz
  1  'x, y, z'
loop_
 _atom_site_type_symbol
 _atom_site_label
 _atom_site_symmetry_multiplicity
 _atom_site_fract_x
 _atom_site_fract_y
 _atom_site_fract_z
 _atom_site_occupancy
  Na  Na0  1  0.427023  0.761176  0.094673  1
  Na  Na1  1  0.189879  0.742212  0.805999  1
  Na  Na2  1  0.697203  0.576836  0.650774  1
  Na  Na3  1  0.572977  0.238824  0.905327  1
  Na  Na4  1  0.423164  0.302797  0.150774  1
  Na  Na5  1  0.071414  0.071414  0.750000  1
  Na  Na6  1  0.810121  0.257788  0.194001  1
  Na  Na7  1  0.742212  0.189879  0.694001  1
  Na  Na8  1  0.928586  0.928586  0.250000  1
  Na  Na9  1  0.761176  0.427023  0.405327  1
  Na  Na10  1  0.257788  0.810121  0.305999  1
  Na  Na11  1  0.576836  0.697203  0.849226  1
  Na  Na12  1  0.302797  0.423164  0.349226  1
  Na  Na13  1  0.238824  0.572977  0.594673  1
  Co  Co14  1  0.240386  0.992180  0.539265  1
  Co  Co15  1  0.007820  0.759614  0.039265  1
  Co  Co16  1  0.992180  0.240386  0.960735  1
  Co  Co17  1  0.759614  0.007820  0.460735  1
  O  O18  1  0.152915  0.394172  0.812646  1
  O  O19  1  0.136388  0.327829  0.123977  1
  O  O20  1  0.847085  0.605828  0.187354  1
  O  O21  1  0.996181  0.342981  0.419223  1
  O  O22  1  0.605828  0.847085  0.312646  1
  O  O23  1  0.327829  0.136388  0.376023  1
  O  O24  1  0.672171  0.863612  0.623977  1
  O  O25  1  0.863612  0.672171  0.876023  1
  O  O26  1  0.394172  0.152915  0.687354  1
  O  O27  1  0.003819  0.657019  0.580777  1
  O  O28  1  0.657019  0.003819  0.919223  1
  O  O29  1  0.342981  0.996181  0.080777  1
