# generated using pymatgen
data_KNaFe(Si2O5)2
_symmetry_space_group_name_H-M   'P 1'
_cell_length_a   7.05698826
_cell_length_b   8.30659384
_cell_length_c   10.06901063
_cell_angle_alpha   105.21923742
_cell_angle_beta   101.12915894
_cell_angle_gamma   113.83963580
_symmetry_Int_Tables_number   1
_chemical_formula_structural   KNaFe(Si2O5)2
_chemical_formula_sum   'K2 Na2 Fe2 Si8 O20'
_cell_volume   490.11653625
_cell_formula_units_Z   2
loop_
 _symmetry_equiv_pos_site_id
 _symmetry_equiv_pos_as_xyz
  1  'x, y, z'
loop_
 _atom_site_type_symbol
 _atom_site_label
 _atom_site_symmetry_multiplicity
 _atom_site_fract_x
 _atom_site_fract_y
 _atom_site_fract_z
 _atom_site_occupancy
  K  K0  1  0.827885  0.186530  0.984482  1
  K  K1  1  0.172115  0.813470  0.015518  1
  Na  Na2  1  0.751848  0.718965  0.589987  1
  Na  Na3  1  0.248152  0.281035  0.410013  1
  Fe  Fe4  1  0.248736  0.699088  0.591646  1
  Fe  Fe5  1  0.751264  0.300912  0.408354  1
  Si  Si6  1  0.742270  0.908069  0.215353  1
  Si  Si7  1  0.257730  0.091931  0.784647  1
  Si  Si8  1  0.672666  0.373494  0.729972  1
  Si  Si9  1  0.327334  0.626506  0.270028  1
  Si  Si10  1  0.574603  0.695281  0.868687  1
  Si  Si11  1  0.425397  0.304719  0.131313  1
  Si  Si12  1  0.105308  0.374203  0.730195  1
  Si  Si13  1  0.894692  0.625797  0.269805  1
  O  O14  1  0.094999  0.167718  0.713899  1
  O  O15  1  0.905001  0.832282  0.286101  1
  O  O16  1  0.331992  0.544082  0.865932  1
  O  O17  1  0.668008  0.455918  0.134068  1
  O  O18  1  0.604124  0.350784  0.562416  1
  O  O19  1  0.395876  0.649216  0.437584  1
  O  O20  1  0.718391  0.582124  0.840006  1
  O  O21  1  0.281609  0.417876  0.159994  1
  O  O22  1  0.906666  0.373654  0.793519  1
  O  O23  1  0.093334  0.626346  0.206481  1
  O  O24  1  0.499086  0.204605  0.768701  1
  O  O25  1  0.500914  0.795395  0.231299  1
  O  O26  1  0.708321  0.851327  0.038773  1
  O  O27  1  0.291679  0.148673  0.961227  1
  O  O28  1  0.850789  0.134242  0.288370  1
  O  O29  1  0.149211  0.865758  0.711630  1
  O  O30  1  0.438816  0.199841  0.242150  1
  O  O31  1  0.561184  0.800159  0.757850  1
  O  O32  1  0.913500  0.586946  0.418507  1
  O  O33  1  0.086500  0.413054  0.581493  1
