# generated using pymatgen
data_Zr9CoMo4
_symmetry_space_group_name_H-M   'P 1'
_cell_length_a   8.80690232
_cell_length_b   8.80690232
_cell_length_c   8.44427869
_cell_angle_alpha   90.00000000
_cell_angle_beta   90.00000000
_cell_angle_gamma   120.00000000
_symmetry_Int_Tables_number   1
_chemical_formula_structural   Zr9CoMo4
_chemical_formula_sum   'Zr18 Co2 Mo8'
_cell_volume   567.20434496
_cell_formula_units_Z   2
loop_
 _symmetry_equiv_pos_site_id
 _symmetry_equiv_pos_as_xyz
  1  'x, y, z'
loop_
 _atom_site_type_symbol
 _atom_site_label
 _atom_site_symmetry_multiplicity
 _atom_site_fract_x
 _atom_site_fract_y
 _atom_site_fract_z
 _atom_site_occupancy
  Zr  Zr0  1  0.542457  0.084914  0.250000  1
  Zr  Zr1  1  0.457543  0.915086  0.750000  1
  Zr  Zr2  1  0.915086  0.457543  0.250000  1
  Zr  Zr3  1  0.542457  0.457543  0.250000  1
  Zr  Zr4  1  0.457543  0.542457  0.750000  1
  Zr  Zr5  1  0.084914  0.542457  0.750000  1
  Zr  Zr6  1  0.200940  0.401879  0.057777  1
  Zr  Zr7  1  0.799060  0.598121  0.557777  1
  Zr  Zr8  1  0.598121  0.799060  0.057777  1
  Zr  Zr9  1  0.200940  0.799060  0.057777  1
  Zr  Zr10  1  0.799060  0.200940  0.557777  1
  Zr  Zr11  1  0.401879  0.200940  0.557777  1
  Zr  Zr12  1  0.799060  0.598121  0.942223  1
  Zr  Zr13  1  0.799060  0.200940  0.942223  1
  Zr  Zr14  1  0.401879  0.200940  0.942223  1
  Zr  Zr15  1  0.598121  0.799060  0.442223  1
  Zr  Zr16  1  0.200940  0.799060  0.442223  1
  Zr  Zr17  1  0.200940  0.401879  0.442223  1
  Co  Co18  1  0.333333  0.666667  0.250000  1
  Co  Co19  1  0.666667  0.333333  0.750000  1
  Mo  Mo20  1  0.000000  0.000000  0.000000  1
  Mo  Mo21  1  0.000000  0.000000  0.500000  1
  Mo  Mo22  1  0.889522  0.779045  0.250000  1
  Mo  Mo23  1  0.110478  0.220955  0.750000  1
  Mo  Mo24  1  0.220955  0.110478  0.250000  1
  Mo  Mo25  1  0.889522  0.110478  0.250000  1
  Mo  Mo26  1  0.110478  0.889522  0.750000  1
  Mo  Mo27  1  0.779045  0.889522  0.750000  1
