# generated using pymatgen
data_Ba7Al13
_symmetry_space_group_name_H-M   'P 1'
_cell_length_a   6.06170300
_cell_length_b   6.06170300
_cell_length_c   17.28000969
_cell_angle_alpha   90.00000000
_cell_angle_beta   90.00000000
_cell_angle_gamma   120.00000000
_symmetry_Int_Tables_number   1
_chemical_formula_structural   Ba7Al13
_chemical_formula_sum   'Ba7 Al13'
_cell_volume   549.87493098
_cell_formula_units_Z   1
loop_
 _symmetry_equiv_pos_site_id
 _symmetry_equiv_pos_as_xyz
  1  'x, y, z'
loop_
 _atom_site_type_symbol
 _atom_site_label
 _atom_site_symmetry_multiplicity
 _atom_site_fract_x
 _atom_site_fract_y
 _atom_site_fract_z
 _atom_site_occupancy
  Ba  Ba0  1  0.666667  0.333333  0.321589  1
  Ba  Ba1  1  0.333333  0.666667  0.678411  1
  Ba  Ba2  1  0.666667  0.333333  0.108047  1
  Ba  Ba3  1  0.333333  0.666667  0.891953  1
  Ba  Ba4  1  0.000000  0.000000  0.606854  1
  Ba  Ba5  1  0.000000  0.000000  0.393146  1
  Ba  Ba6  1  0.000000  0.000000  0.000000  1
  Al  Al7  1  0.500000  0.500000  0.500000  1
  Al  Al8  1  0.000000  0.500000  0.500000  1
  Al  Al9  1  0.500000  0.000000  0.500000  1
  Al  Al10  1  0.839222  0.160778  0.784211  1
  Al  Al11  1  0.839222  0.678444  0.784211  1
  Al  Al12  1  0.321556  0.160778  0.784211  1
  Al  Al13  1  0.678444  0.839222  0.215789  1
  Al  Al14  1  0.333333  0.666667  0.347560  1
  Al  Al15  1  0.666667  0.333333  0.652440  1
  Al  Al16  1  0.333333  0.666667  0.098107  1
  Al  Al17  1  0.666667  0.333333  0.901893  1
  Al  Al18  1  0.160778  0.839222  0.215789  1
  Al  Al19  1  0.160778  0.321556  0.215789  1
