# generated using pymatgen
data_Ho2InGe2
_symmetry_space_group_name_H-M   'P 1'
_cell_length_a   7.40257221
_cell_length_b   7.40257221
_cell_length_c   4.16997818
_cell_angle_alpha   90.00000000
_cell_angle_beta   90.00000000
_cell_angle_gamma   90.00000000
_symmetry_Int_Tables_number   1
_chemical_formula_structural   Ho2InGe2
_chemical_formula_sum   'Ho4 In2 Ge4'
_cell_volume   228.50677841
_cell_formula_units_Z   2
loop_
 _symmetry_equiv_pos_site_id
 _symmetry_equiv_pos_as_xyz
  1  'x, y, z'
loop_
 _atom_site_type_symbol
 _atom_site_label
 _atom_site_symmetry_multiplicity
 _atom_site_fract_x
 _atom_site_fract_y
 _atom_site_fract_z
 _atom_site_occupancy
  Ho  Ho0  1  0.322481  0.822481  0.500000  1
  Ho  Ho1  1  0.822481  0.677519  0.500000  1
  Ho  Ho2  1  0.177519  0.322481  0.500000  1
  Ho  Ho3  1  0.677519  0.177519  0.500000  1
  In  In4  1  0.000000  0.000000  0.000000  1
  In  In5  1  0.500000  0.500000  0.000000  1
  Ge  Ge6  1  0.122354  0.622354  0.000000  1
  Ge  Ge7  1  0.622354  0.877646  0.000000  1
  Ge  Ge8  1  0.377646  0.122354  0.000000  1
  Ge  Ge9  1  0.877646  0.377646  0.000000  1
