# generated using pymatgen
data_Cs2Na2Sr(B3O5)6
_symmetry_space_group_name_H-M   'P 1'
_cell_length_a   8.59957347
_cell_length_b   8.65495633
_cell_length_c   17.46180205
_cell_angle_alpha   90.00000000
_cell_angle_beta   92.80568070
_cell_angle_gamma   90.00000000
_symmetry_Int_Tables_number   1
_chemical_formula_structural   Cs2Na2Sr(B3O5)6
_chemical_formula_sum   'Cs4 Na4 Sr2 B36 O60'
_cell_volume   1298.10537195
_cell_formula_units_Z   2
loop_
 _symmetry_equiv_pos_site_id
 _symmetry_equiv_pos_as_xyz
  1  'x, y, z'
loop_
 _atom_site_type_symbol
 _atom_site_label
 _atom_site_symmetry_multiplicity
 _atom_site_fract_x
 _atom_site_fract_y
 _atom_site_fract_z
 _atom_site_occupancy
  Cs  Cs0  1  0.501402  0.460613  0.195371  1
  Cs  Cs1  1  0.498598  0.960613  0.304629  1
  Cs  Cs2  1  0.498598  0.539387  0.804629  1
  Cs  Cs3  1  0.501402  0.039387  0.695371  1
  Na  Na4  1  0.225737  0.261062  0.381487  1
  Na  Na5  1  0.774263  0.761062  0.118513  1
  Na  Na6  1  0.774263  0.738938  0.618513  1
  Na  Na7  1  0.225737  0.238938  0.881487  1
  Sr  Sr8  1  0.000000  0.000000  0.000000  1
  Sr  Sr9  1  0.000000  0.500000  0.500000  1
  B  B10  1  0.171513  0.650971  0.082264  1
  B  B11  1  0.828487  0.150971  0.417736  1
  B  B12  1  0.828487  0.349029  0.917736  1
  B  B13  1  0.171513  0.849029  0.582264  1
  B  B14  1  0.177668  0.621012  0.942130  1
  B  B15  1  0.822332  0.121012  0.557870  1
  B  B16  1  0.822332  0.378988  0.057870  1
  B  B17  1  0.177668  0.878988  0.442130  1
  B  B18  1  0.222697  0.396631  0.025492  1
  B  B19  1  0.777303  0.896631  0.474508  1
  B  B20  1  0.777303  0.603369  0.974508  1
  B  B21  1  0.222697  0.103369  0.525492  1
  B  B22  1  0.330269  0.142052  0.085412  1
  B  B23  1  0.669731  0.642052  0.414588  1
  B  B24  1  0.669731  0.857948  0.914588  1
  B  B25  1  0.330269  0.357948  0.585412  1
  B  B26  1  0.375595  0.860815  0.092421  1
  B  B27  1  0.624405  0.360815  0.407579  1
  B  B28  1  0.624405  0.139185  0.907579  1
  B  B29  1  0.375595  0.639185  0.592421  1
  B  B30  1  0.596163  0.039781  0.104742  1
  B  B31  1  0.403837  0.539781  0.395258  1
  B  B32  1  0.403837  0.960219  0.895258  1
  B  B33  1  0.596163  0.460219  0.604742  1
  B  B34  1  0.953702  0.190246  0.288952  1
  B  B35  1  0.046298  0.690246  0.211048  1
  B  B36  1  0.046298  0.809754  0.711048  1
  B  B37  1  0.953702  0.309754  0.788952  1
  B  B38  1  0.851021  0.165797  0.155741  1
  B  B39  1  0.148979  0.665797  0.344259  1
  B  B40  1  0.148979  0.834203  0.844259  1
  B  B41  1  0.851021  0.334203  0.655741  1
  B  B42  1  0.134380  0.172954  0.185396  1
  B  B43  1  0.865620  0.672954  0.314604  1
  B  B44  1  0.865620  0.827046  0.814604  1
  B  B45  1  0.134380  0.327046  0.685396  1
  O  O46  1  0.328274  0.713962  0.101930  1
  O  O47  1  0.671726  0.213962  0.398070  1
  O  O48  1  0.671726  0.286038  0.898070  1
  O  O49  1  0.328274  0.786038  0.601930  1
  O  O50  1  0.052286  0.707169  0.133199  1
  O  O51  1  0.947714  0.207169  0.366801  1
  O  O52  1  0.947714  0.292831  0.866801  1
  O  O53  1  0.052286  0.792831  0.633199  1
  O  O54  1  0.121564  0.701765  0.002995  1
  O  O55  1  0.878436  0.201765  0.497005  1
  O  O56  1  0.878436  0.298235  0.997005  1
  O  O57  1  0.121564  0.798235  0.502995  1
  O  O58  1  0.187238  0.480672  0.087876  1
  O  O59  1  0.812762  0.980672  0.412124  1
  O  O60  1  0.812762  0.519328  0.912124  1
  O  O61  1  0.187238  0.019328  0.587876  1
  O  O62  1  0.189988  0.677769  0.870381  1
  O  O63  1  0.810012  0.177769  0.629619  1
  O  O64  1  0.810012  0.322231  0.129619  1
  O  O65  1  0.189988  0.822231  0.370381  1
  O  O66  1  0.230575  0.468002  0.953388  1
  O  O67  1  0.769425  0.968002  0.546612  1
  O  O68  1  0.769425  0.531998  0.046612  1
  O  O69  1  0.230575  0.031998  0.453388  1
  O  O70  1  0.253485  0.240186  0.025546  1
  O  O71  1  0.746515  0.740186  0.474454  1
  O  O72  1  0.746515  0.759814  0.974454  1
  O  O73  1  0.253485  0.259814  0.525546  1
  O  O74  1  0.283013  0.980664  0.065738  1
  O  O75  1  0.716987  0.480664  0.434262  1
  O  O76  1  0.716987  0.019336  0.934262  1
  O  O77  1  0.283013  0.519336  0.565738  1
  O  O78  1  0.501823  0.161515  0.086157  1
  O  O79  1  0.498177  0.661515  0.413843  1
  O  O80  1  0.498177  0.838485  0.913843  1
  O  O81  1  0.501823  0.338485  0.586157  1
  O  O82  1  0.284932  0.177540  0.164528  1
  O  O83  1  0.715068  0.677540  0.335472  1
  O  O84  1  0.715068  0.822460  0.835472  1
  O  O85  1  0.284932  0.322460  0.664528  1
  O  O86  1  0.532144  0.891488  0.115054  1
  O  O87  1  0.467856  0.391488  0.384946  1
  O  O88  1  0.467856  0.108512  0.884946  1
  O  O89  1  0.532144  0.608512  0.615054  1
  O  O90  1  0.754936  0.043706  0.116935  1
  O  O91  1  0.245064  0.543706  0.383065  1
  O  O92  1  0.245064  0.956294  0.883065  1
  O  O93  1  0.754936  0.456294  0.616935  1
  O  O94  1  0.105342  0.209564  0.261558  1
  O  O95  1  0.894658  0.709564  0.238442  1
  O  O96  1  0.894658  0.790436  0.738442  1
  O  O97  1  0.105342  0.290436  0.761558  1
  O  O98  1  0.830848  0.159483  0.239322  1
  O  O99  1  0.169152  0.659483  0.260678  1
  O  O100  1  0.169152  0.840517  0.760678  1
  O  O101  1  0.830848  0.340517  0.739322  1
  O  O102  1  0.013335  0.128319  0.136281  1
  O  O103  1  0.986665  0.628319  0.363719  1
  O  O104  1  0.986665  0.871681  0.863719  1
  O  O105  1  0.013335  0.371681  0.636281  1
