# generated using pymatgen
data_Lu2MgS4
_symmetry_space_group_name_H-M   'P 1'
_cell_length_a   7.77414904
_cell_length_b   7.77414904
_cell_length_c   7.77414904
_cell_angle_alpha   60.00000000
_cell_angle_beta   60.00000000
_cell_angle_gamma   60.00000000
_symmetry_Int_Tables_number   1
_chemical_formula_structural   Lu2MgS4
_chemical_formula_sum   'Lu4 Mg2 S8'
_cell_volume   332.23362823
_cell_formula_units_Z   2
loop_
 _symmetry_equiv_pos_site_id
 _symmetry_equiv_pos_as_xyz
  1  'x, y, z'
loop_
 _atom_site_type_symbol
 _atom_site_label
 _atom_site_symmetry_multiplicity
 _atom_site_fract_x
 _atom_site_fract_y
 _atom_site_fract_z
 _atom_site_occupancy
  Lu  Lu0  1  0.125000  0.625000  0.125000  1
  Lu  Lu1  1  0.625000  0.125000  0.125000  1
  Lu  Lu2  1  0.125000  0.125000  0.625000  1
  Lu  Lu3  1  0.125000  0.125000  0.125000  1
  Mg  Mg4  1  0.750000  0.750000  0.750000  1
  Mg  Mg5  1  0.500000  0.500000  0.500000  1
  S  S6  1  0.369040  0.369040  0.369040  1
  S  S7  1  0.880960  0.357121  0.880960  1
  S  S8  1  0.880960  0.880960  0.880960  1
  S  S9  1  0.892879  0.369040  0.369040  1
  S  S10  1  0.369040  0.892879  0.369040  1
  S  S11  1  0.880960  0.880960  0.357121  1
  S  S12  1  0.357121  0.880960  0.880960  1
  S  S13  1  0.369040  0.369040  0.892879  1
