# generated using pymatgen
data_Tl2WO4
_symmetry_space_group_name_H-M   'P 1'
_cell_length_a   6.44006319
_cell_length_b   6.44006319
_cell_length_c   8.46381750
_cell_angle_alpha   90.00000000
_cell_angle_beta   90.00000000
_cell_angle_gamma   120.00000000
_symmetry_Int_Tables_number   1
_chemical_formula_structural   Tl2WO4
_chemical_formula_sum   'Tl4 W2 O8'
_cell_volume   304.00251738
_cell_formula_units_Z   2
loop_
 _symmetry_equiv_pos_site_id
 _symmetry_equiv_pos_as_xyz
  1  'x, y, z'
loop_
 _atom_site_type_symbol
 _atom_site_label
 _atom_site_symmetry_multiplicity
 _atom_site_fract_x
 _atom_site_fract_y
 _atom_site_fract_z
 _atom_site_occupancy
  Tl  Tl0  1  0.333333  0.666667  0.813737  1
  Tl  Tl1  1  0.666667  0.333333  0.186263  1
  Tl  Tl2  1  0.000000  0.000000  0.500000  1
  Tl  Tl3  1  0.000000  0.000000  0.000000  1
  W  W4  1  0.333333  0.666667  0.312710  1
  W  W5  1  0.666667  0.333333  0.687290  1
  O  O6  1  0.819983  0.180017  0.760722  1
  O  O7  1  0.819983  0.639965  0.760722  1
  O  O8  1  0.360035  0.180017  0.760722  1
  O  O9  1  0.639965  0.819983  0.239278  1
  O  O10  1  0.180017  0.360035  0.239278  1
  O  O11  1  0.180017  0.819983  0.239278  1
  O  O12  1  0.666667  0.333333  0.472035  1
  O  O13  1  0.333333  0.666667  0.527965  1
