# generated using pymatgen
data_PuSe2
_symmetry_space_group_name_H-M   'P 1'
_cell_length_a   4.09448191
_cell_length_b   4.09448191
_cell_length_c   8.26400678
_cell_angle_alpha   90.00000000
_cell_angle_beta   90.00000000
_cell_angle_gamma   90.00000000
_symmetry_Int_Tables_number   1
_chemical_formula_structural   PuSe2
_chemical_formula_sum   'Pu2 Se4'
_cell_volume   138.54427303
_cell_formula_units_Z   2
loop_
 _symmetry_equiv_pos_site_id
 _symmetry_equiv_pos_as_xyz
  1  'x, y, z'
loop_
 _atom_site_type_symbol
 _atom_site_label
 _atom_site_symmetry_multiplicity
 _atom_site_fract_x
 _atom_site_fract_y
 _atom_site_fract_z
 _atom_site_occupancy
  Pu  Pu0  1  0.000000  0.500000  0.722576  1
  Pu  Pu1  1  0.500000  0.000000  0.277424  1
  Se  Se2  1  0.000000  0.500000  0.361190  1
  Se  Se3  1  0.500000  0.000000  0.638810  1
  Se  Se4  1  0.000000  0.000000  0.000000  1
  Se  Se5  1  0.500000  0.500000  0.000000  1
