# generated using pymatgen
data_La2MoO6
_symmetry_space_group_name_H-M   'P 1'
_cell_length_a   16.71375090
_cell_length_b   16.71375090
_cell_length_c   16.71375090
_cell_angle_alpha   159.89823603
_cell_angle_beta   159.89823603
_cell_angle_gamma   28.57792483
_symmetry_Int_Tables_number   1
_chemical_formula_structural   La2MoO6
_chemical_formula_sum   'La8 Mo4 O24'
_cell_volume   551.23608155
_cell_formula_units_Z   4
loop_
 _symmetry_equiv_pos_site_id
 _symmetry_equiv_pos_as_xyz
  1  'x, y, z'
loop_
 _atom_site_type_symbol
 _atom_site_label
 _atom_site_symmetry_multiplicity
 _atom_site_fract_x
 _atom_site_fract_y
 _atom_site_fract_z
 _atom_site_occupancy
  La  La0  1  0.836885  0.836885  0.000000  1
  La  La1  1  0.586885  0.086885  0.500000  1
  La  La2  1  0.413115  0.913115  0.500000  1
  La  La3  1  0.663115  0.663115  0.000000  1
  La  La4  1  0.913115  0.413115  0.500000  1
  La  La5  1  0.163115  0.163115  0.000000  1
  La  La6  1  0.336885  0.336885  0.000000  1
  La  La7  1  0.086885  0.586885  0.500000  1
  Mo  Mo8  1  0.000000  0.000000  0.000000  1
  Mo  Mo9  1  0.750000  0.250000  0.500000  1
  Mo  Mo10  1  0.250000  0.750000  0.500000  1
  Mo  Mo11  1  0.500000  0.500000  0.000000  1
  O  O12  1  0.868692  0.375000  0.993692  1
  O  O13  1  0.125000  0.631308  0.006308  1
  O  O14  1  0.625000  0.118692  0.993692  1
  O  O15  1  0.381308  0.875000  0.006308  1
  O  O16  1  0.881308  0.875000  0.506308  1
  O  O17  1  0.625000  0.618692  0.493692  1
  O  O18  1  0.125000  0.131308  0.506308  1
  O  O19  1  0.368692  0.375000  0.493692  1
  O  O20  1  0.115706  0.953808  0.498104  1
  O  O21  1  0.882398  0.044297  0.498104  1
  O  O22  1  0.546192  0.384294  0.501896  1
  O  O23  1  0.134294  0.132398  0.338101  1
  O  O24  1  0.294297  0.632398  0.998104  1
  O  O25  1  0.382398  0.884294  0.838101  1
  O  O26  1  0.046192  0.544297  0.161899  1
  O  O27  1  0.955703  0.453808  0.838101  1
  O  O28  1  0.615706  0.117602  0.161899  1
  O  O29  1  0.203808  0.865706  0.998104  1
  O  O30  1  0.867602  0.205703  0.001896  1
  O  O31  1  0.634294  0.296192  0.001896  1
  O  O32  1  0.455703  0.617602  0.501896  1
  O  O33  1  0.367602  0.365706  0.661899  1
  O  O34  1  0.703808  0.705703  0.338101  1
  O  O35  1  0.794297  0.796192  0.661899  1
