# generated using pymatgen
data_HgB4O7
_symmetry_space_group_name_H-M   'P 1'
_cell_length_a   8.55795731
_cell_length_b   8.96606192
_cell_length_c   14.38455401
_cell_angle_alpha   90.00000000
_cell_angle_beta   90.00000000
_cell_angle_gamma   90.00000000
_symmetry_Int_Tables_number   1
_chemical_formula_structural   HgB4O7
_chemical_formula_sum   'Hg8 B32 O56'
_cell_volume   1103.74373320
_cell_formula_units_Z   8
loop_
 _symmetry_equiv_pos_site_id
 _symmetry_equiv_pos_as_xyz
  1  'x, y, z'
loop_
 _atom_site_type_symbol
 _atom_site_label
 _atom_site_symmetry_multiplicity
 _atom_site_fract_x
 _atom_site_fract_y
 _atom_site_fract_z
 _atom_site_occupancy
  Hg  Hg0  1  0.638873  0.115039  0.382811  1
  Hg  Hg1  1  0.138873  0.384961  0.617189  1
  Hg  Hg2  1  0.361127  0.615039  0.117189  1
  Hg  Hg3  1  0.861127  0.884961  0.882811  1
  Hg  Hg4  1  0.361127  0.884961  0.617189  1
  Hg  Hg5  1  0.861127  0.615039  0.382811  1
  Hg  Hg6  1  0.638873  0.384961  0.882811  1
  Hg  Hg7  1  0.138873  0.115039  0.117189  1
  B  B8  1  0.451305  0.281887  0.062420  1
  B  B9  1  0.215218  0.156057  0.450968  1
  B  B10  1  0.715218  0.343943  0.549032  1
  B  B11  1  0.784782  0.656057  0.049032  1
  B  B12  1  0.284782  0.843943  0.950968  1
  B  B13  1  0.784782  0.843943  0.549032  1
  B  B14  1  0.284782  0.656057  0.450968  1
  B  B15  1  0.215218  0.343943  0.950968  1
  B  B16  1  0.715218  0.156057  0.049032  1
  B  B17  1  0.951305  0.218113  0.937580  1
  B  B18  1  0.548695  0.781887  0.437580  1
  B  B19  1  0.048695  0.718113  0.562420  1
  B  B20  1  0.548695  0.718113  0.937580  1
  B  B21  1  0.048695  0.781887  0.062420  1
  B  B22  1  0.451305  0.218113  0.562420  1
  B  B23  1  0.951305  0.281887  0.437580  1
  B  B24  1  0.507227  0.334069  0.233673  1
  B  B25  1  0.007227  0.165931  0.766327  1
  B  B26  1  0.492773  0.834069  0.266327  1
  B  B27  1  0.992773  0.665931  0.733673  1
  B  B28  1  0.492773  0.665931  0.766327  1
  B  B29  1  0.992773  0.834069  0.233673  1
  B  B30  1  0.507227  0.165931  0.733673  1
  B  B31  1  0.007227  0.334069  0.266327  1
  B  B32  1  0.519191  0.069881  0.161865  1
  B  B33  1  0.019191  0.430119  0.838135  1
  B  B34  1  0.480809  0.569881  0.338135  1
  B  B35  1  0.980809  0.930119  0.661865  1
  B  B36  1  0.480809  0.930119  0.838135  1
  B  B37  1  0.980809  0.569881  0.161865  1
  B  B38  1  0.519191  0.430119  0.661865  1
  B  B39  1  0.019191  0.069881  0.338135  1
  O  O40  1  0.460766  0.383957  0.146759  1
  O  O41  1  0.673471  0.062123  0.118832  1
  O  O42  1  0.173471  0.437877  0.881168  1
  O  O43  1  0.326529  0.562123  0.381168  1
  O  O44  1  0.826529  0.937877  0.618832  1
  O  O45  1  0.326529  0.937877  0.881168  1
  O  O46  1  0.826529  0.562123  0.118832  1
  O  O47  1  0.673471  0.437877  0.618832  1
  O  O48  1  0.032752  0.424504  0.192494  1
  O  O49  1  0.532752  0.075496  0.807506  1
  O  O50  1  0.967248  0.924504  0.307506  1
  O  O51  1  0.467248  0.575496  0.692494  1
  O  O52  1  0.967248  0.575496  0.807506  1
  O  O53  1  0.467248  0.924504  0.192494  1
  O  O54  1  0.032752  0.075496  0.692494  1
  O  O55  1  0.532752  0.424504  0.307506  1
  O  O56  1  0.403198  0.134300  0.095325  1
  O  O57  1  0.903198  0.365700  0.904675  1
  O  O58  1  0.596802  0.634300  0.404675  1
  O  O59  1  0.096802  0.865700  0.595325  1
  O  O60  1  0.596802  0.865700  0.904675  1
  O  O61  1  0.096802  0.634300  0.095325  1
  O  O62  1  0.403198  0.365700  0.595325  1
  O  O63  1  0.903198  0.134300  0.404675  1
  O  O64  1  0.357239  0.357821  0.994245  1
  O  O65  1  0.857239  0.142179  0.005755  1
  O  O66  1  0.642761  0.857821  0.505755  1
  O  O67  1  0.142761  0.642179  0.494245  1
  O  O68  1  0.642761  0.642179  0.005755  1
  O  O69  1  0.142761  0.857821  0.994245  1
  O  O70  1  0.357239  0.142179  0.494245  1
  O  O71  1  0.857239  0.357821  0.505755  1
  O  O72  1  0.173471  0.062123  0.381168  1
  O  O73  1  0.960766  0.116043  0.853241  1
  O  O74  1  0.539234  0.883957  0.353241  1
  O  O75  1  0.039234  0.616043  0.646759  1
  O  O76  1  0.539234  0.616043  0.853241  1
  O  O77  1  0.039234  0.883957  0.146759  1
  O  O78  1  0.460766  0.116043  0.646759  1
  O  O79  1  0.960766  0.383957  0.353241  1
  O  O80  1  0.111729  0.267875  0.478915  1
  O  O81  1  0.030309  0.319032  0.755891  1
  O  O82  1  0.469691  0.680968  0.255891  1
  O  O83  1  0.969691  0.819032  0.744109  1
  O  O84  1  0.469691  0.819032  0.755891  1
  O  O85  1  0.969691  0.680968  0.244109  1
  O  O86  1  0.530309  0.319032  0.744109  1
  O  O87  1  0.030309  0.180968  0.255891  1
  O  O88  1  0.611729  0.267875  0.021085  1
  O  O89  1  0.111729  0.232125  0.978915  1
  O  O90  1  0.388271  0.767875  0.478915  1
  O  O91  1  0.888271  0.732125  0.521085  1
  O  O92  1  0.388271  0.732125  0.978915  1
  O  O93  1  0.888271  0.767875  0.021085  1
  O  O94  1  0.611729  0.232125  0.521085  1
  O  O95  1  0.530309  0.180968  0.244109  1
