# generated using pymatgen
data_K2Sn2Hg3S8
_symmetry_space_group_name_H-M   'P 1'
_cell_length_a   6.71082020
_cell_length_b   6.71082020
_cell_length_c   20.04598264
_cell_angle_alpha   90.00000000
_cell_angle_beta   90.00000000
_cell_angle_gamma   96.70864564
_symmetry_Int_Tables_number   1
_chemical_formula_structural   K2Sn2Hg3S8
_chemical_formula_sum   'K4 Sn4 Hg6 S16'
_cell_volume   896.59173189
_cell_formula_units_Z   2
loop_
 _symmetry_equiv_pos_site_id
 _symmetry_equiv_pos_as_xyz
  1  'x, y, z'
loop_
 _atom_site_type_symbol
 _atom_site_label
 _atom_site_symmetry_multiplicity
 _atom_site_fract_x
 _atom_site_fract_y
 _atom_site_fract_z
 _atom_site_occupancy
  K  K0  1  0.552897  0.140411  0.117718  1
  K  K1  1  0.140411  0.552897  0.882282  1
  K  K2  1  0.052897  0.640411  0.382282  1
  K  K3  1  0.640411  0.052897  0.617718  1
  Sn  Sn4  1  0.051290  0.624616  0.136035  1
  Sn  Sn5  1  0.624616  0.051290  0.863965  1
  Sn  Sn6  1  0.551290  0.124616  0.363965  1
  Sn  Sn7  1  0.124616  0.551290  0.636035  1
  Hg  Hg8  1  0.608123  0.687275  0.247018  1
  Hg  Hg9  1  0.687275  0.608123  0.752982  1
  Hg  Hg10  1  0.108123  0.187275  0.252982  1
  Hg  Hg11  1  0.187275  0.108123  0.747018  1
  Hg  Hg12  1  0.984431  0.984431  0.000000  1
  Hg  Hg13  1  0.484431  0.484431  0.500000  1
  S  S14  1  0.598379  0.769442  0.367024  1
  S  S15  1  0.769442  0.598379  0.632976  1
  S  S16  1  0.098379  0.269442  0.132976  1
  S  S17  1  0.269442  0.098379  0.867024  1
  S  S18  1  0.697725  0.673321  0.128139  1
  S  S19  1  0.673321  0.697725  0.871861  1
  S  S20  1  0.197725  0.173321  0.371861  1
  S  S21  1  0.173321  0.197725  0.628139  1
  S  S22  1  0.215363  0.760242  0.032944  1
  S  S23  1  0.760242  0.215363  0.967056  1
  S  S24  1  0.715363  0.260242  0.467056  1
  S  S25  1  0.260242  0.715363  0.532944  1
  S  S26  1  0.204140  0.779015  0.232877  1
  S  S27  1  0.779015  0.204140  0.767123  1
  S  S28  1  0.279015  0.704140  0.732877  1
  S  S29  1  0.704140  0.279015  0.267123  1
