# generated using pymatgen
data_Ce4Si3Rh4
_symmetry_space_group_name_H-M   'P 1'
_cell_length_a   10.67127801
_cell_length_b   10.67127801
_cell_length_c   7.90445007
_cell_angle_alpha   70.59499521
_cell_angle_beta   109.40500479
_cell_angle_gamma   149.41767328
_symmetry_Int_Tables_number   1
_chemical_formula_structural   Ce4Si3Rh4
_chemical_formula_sum   'Ce8 Si6 Rh8'
_cell_volume   429.94059582
_cell_formula_units_Z   2
loop_
 _symmetry_equiv_pos_site_id
 _symmetry_equiv_pos_as_xyz
  1  'x, y, z'
loop_
 _atom_site_type_symbol
 _atom_site_label
 _atom_site_symmetry_multiplicity
 _atom_site_fract_x
 _atom_site_fract_y
 _atom_site_fract_z
 _atom_site_occupancy
  Ce  Ce0  1  0.446938  0.785695  0.098238  1
  Ce  Ce1  1  0.785695  0.446938  0.401762  1
  Ce  Ce2  1  0.553062  0.214305  0.901762  1
  Ce  Ce3  1  0.214305  0.553062  0.598238  1
  Ce  Ce4  1  0.927916  0.798606  0.670248  1
  Ce  Ce5  1  0.798606  0.927916  0.829752  1
  Ce  Ce6  1  0.072084  0.201394  0.329752  1
  Ce  Ce7  1  0.201394  0.072084  0.170248  1
  Si  Si8  1  0.287775  0.944238  0.559350  1
  Si  Si9  1  0.944238  0.287775  0.940650  1
  Si  Si10  1  0.712225  0.055762  0.440650  1
  Si  Si11  1  0.055762  0.712225  0.059350  1
  Si  Si12  1  0.642796  0.642796  0.250000  1
  Si  Si13  1  0.357204  0.357204  0.750000  1
  Rh  Rh14  1  0.696596  0.568357  0.022264  1
  Rh  Rh15  1  0.568357  0.696596  0.477736  1
  Rh  Rh16  1  0.303404  0.431643  0.977736  1
  Rh  Rh17  1  0.431643  0.303404  0.522264  1
  Rh  Rh18  1  0.073053  0.632956  0.817316  1
  Rh  Rh19  1  0.632956  0.073053  0.682684  1
  Rh  Rh20  1  0.926947  0.367044  0.182684  1
  Rh  Rh21  1  0.367044  0.926947  0.317316  1
