# generated using pymatgen
data_KGaP2O7
_symmetry_space_group_name_H-M   'P 1'
_cell_length_a   7.44513783
_cell_length_b   9.98509435
_cell_length_c   8.29662137
_cell_angle_alpha   90.00000000
_cell_angle_beta   106.90537738
_cell_angle_gamma   90.00000000
_symmetry_Int_Tables_number   1
_chemical_formula_structural   KGaP2O7
_chemical_formula_sum   'K4 Ga4 P8 O28'
_cell_volume   590.12108557
_cell_formula_units_Z   4
loop_
 _symmetry_equiv_pos_site_id
 _symmetry_equiv_pos_as_xyz
  1  'x, y, z'
loop_
 _atom_site_type_symbol
 _atom_site_label
 _atom_site_symmetry_multiplicity
 _atom_site_fract_x
 _atom_site_fract_y
 _atom_site_fract_z
 _atom_site_occupancy
  K  K0  1  0.177023  0.320989  0.056425  1
  K  K1  1  0.822977  0.820989  0.443575  1
  K  K2  1  0.822977  0.679011  0.943575  1
  K  K3  1  0.177023  0.179011  0.556425  1
  Ga  Ga4  1  0.238021  0.600782  0.759364  1
  Ga  Ga5  1  0.761979  0.100782  0.740636  1
  Ga  Ga6  1  0.761979  0.399218  0.240636  1
  Ga  Ga7  1  0.238021  0.899218  0.259364  1
  P  P8  1  0.129407  0.596917  0.330520  1
  P  P9  1  0.870593  0.096917  0.169480  1
  P  P10  1  0.870593  0.403083  0.669480  1
  P  P11  1  0.129407  0.903083  0.830520  1
  P  P12  1  0.438364  0.865935  0.690497  1
  P  P13  1  0.561636  0.365935  0.809503  1
  P  P14  1  0.561636  0.134065  0.309503  1
  P  P15  1  0.438364  0.634065  0.190497  1
  O  O16  1  0.333726  0.555781  0.311089  1
  O  O17  1  0.666274  0.055781  0.188911  1
  O  O18  1  0.666274  0.444219  0.688911  1
  O  O19  1  0.333726  0.944219  0.811089  1
  O  O20  1  0.079837  0.763107  0.752495  1
  O  O21  1  0.920163  0.263107  0.747505  1
  O  O22  1  0.920163  0.236893  0.247505  1
  O  O23  1  0.079837  0.736893  0.252495  1
  O  O24  1  0.991560  0.004616  0.722073  1
  O  O25  1  0.008440  0.504616  0.777927  1
  O  O26  1  0.008440  0.995384  0.277927  1
  O  O27  1  0.991560  0.495384  0.222073  1
  O  O28  1  0.143554  0.907831  0.014741  1
  O  O29  1  0.856446  0.407831  0.485259  1
  O  O30  1  0.856446  0.092169  0.985259  1
  O  O31  1  0.143554  0.592169  0.514741  1
  O  O32  1  0.320176  0.604122  0.011353  1
  O  O33  1  0.679824  0.104122  0.488647  1
  O  O34  1  0.679824  0.395878  0.988647  1
  O  O35  1  0.320176  0.895878  0.511353  1
  O  O36  1  0.637383  0.576089  0.236765  1
  O  O37  1  0.362617  0.076089  0.263235  1
  O  O38  1  0.362617  0.423911  0.763235  1
  O  O39  1  0.637383  0.923911  0.736765  1
  O  O40  1  0.451978  0.782677  0.243274  1
  O  O41  1  0.548022  0.282677  0.256726  1
  O  O42  1  0.548022  0.217323  0.756726  1
  O  O43  1  0.451978  0.717323  0.743274  1
