# generated using pymatgen
data_KV(CuSe2)2
_symmetry_space_group_name_H-M   'P 1'
_cell_length_a   9.80277735
_cell_length_b   9.80277735
_cell_length_c   7.70886458
_cell_angle_alpha   90.00000000
_cell_angle_beta   90.00000000
_cell_angle_gamma   146.74359577
_symmetry_Int_Tables_number   1
_chemical_formula_structural   KV(CuSe2)2
_chemical_formula_sum   'K2 V2 Cu4 Se8'
_cell_volume   406.23338237
_cell_formula_units_Z   2
loop_
 _symmetry_equiv_pos_site_id
 _symmetry_equiv_pos_as_xyz
  1  'x, y, z'
loop_
 _atom_site_type_symbol
 _atom_site_label
 _atom_site_symmetry_multiplicity
 _atom_site_fract_x
 _atom_site_fract_y
 _atom_site_fract_z
 _atom_site_occupancy
  K  K0  1  0.170044  0.799975  0.750000  1
  K  K1  1  0.799975  0.170044  0.250000  1
  V  V2  1  0.642006  0.857782  0.750000  1
  V  V3  1  0.857782  0.642006  0.250000  1
  Cu  Cu4  1  0.734261  0.734261  0.500000  1
  Cu  Cu5  1  0.734261  0.734261  1.000000  1
  Cu  Cu6  1  0.359109  0.142049  0.250000  1
  Cu  Cu7  1  0.142049  0.359109  0.750000  1
  Se  Se8  1  0.622166  0.402203  0.001030  1
  Se  Se9  1  0.402203  0.622167  0.501030  1
  Se  Se10  1  0.989928  0.999168  0.750000  1
  Se  Se11  1  0.402203  0.622167  0.998970  1
  Se  Se12  1  0.191988  0.774049  0.250000  1
  Se  Se13  1  0.774049  0.191988  0.750000  1
  Se  Se14  1  0.999168  0.989928  0.250000  1
  Se  Se15  1  0.622166  0.402203  0.498970  1
