# generated using pymatgen
data_Li12Al3Si4
_symmetry_space_group_name_H-M   'P 1'
_cell_length_a   9.11101034
_cell_length_b   9.11101034
_cell_length_c   9.11101034
_cell_angle_alpha   109.47122063
_cell_angle_beta   109.47122063
_cell_angle_gamma   109.47122063
_symmetry_Int_Tables_number   1
_chemical_formula_structural   Li12Al3Si4
_chemical_formula_sum   'Li24 Al6 Si8'
_cell_volume   582.20740852
_cell_formula_units_Z   2
loop_
 _symmetry_equiv_pos_site_id
 _symmetry_equiv_pos_as_xyz
  1  'x, y, z'
loop_
 _atom_site_type_symbol
 _atom_site_label
 _atom_site_symmetry_multiplicity
 _atom_site_fract_x
 _atom_site_fract_y
 _atom_site_fract_z
 _atom_site_occupancy
  Li  Li0  1  0.114842  0.078507  0.268787  1
  Li  Li1  1  0.921493  0.690280  0.036335  1
  Li  Li2  1  0.153945  0.885158  0.463665  1
  Li  Li3  1  0.463665  0.153945  0.885158  1
  Li  Li4  1  0.731213  0.346055  0.809720  1
  Li  Li5  1  0.809720  0.731213  0.346055  1
  Li  Li6  1  0.690280  0.036335  0.921493  1
  Li  Li7  1  0.846055  0.231213  0.309720  1
  Li  Li8  1  0.536335  0.190280  0.421493  1
  Li  Li9  1  0.653945  0.963665  0.385158  1
  Li  Li10  1  0.231213  0.309720  0.846055  1
  Li  Li11  1  0.421493  0.536335  0.190280  1
  Li  Li12  1  0.963665  0.385158  0.653945  1
  Li  Li13  1  0.268787  0.114842  0.078507  1
  Li  Li14  1  0.078507  0.268787  0.114842  1
  Li  Li15  1  0.309720  0.846055  0.231213  1
  Li  Li16  1  0.190280  0.421493  0.536335  1
  Li  Li17  1  0.385158  0.653945  0.963665  1
  Li  Li18  1  0.578507  0.614842  0.768787  1
  Li  Li19  1  0.768787  0.578507  0.614842  1
  Li  Li20  1  0.614842  0.768787  0.578507  1
  Li  Li21  1  0.346055  0.809720  0.731213  1
  Li  Li22  1  0.036335  0.921493  0.690280  1
  Li  Li23  1  0.885158  0.463665  0.153945  1
  Al  Al24  1  0.250000  0.625000  0.375000  1
  Al  Al25  1  0.375000  0.250000  0.625000  1
  Al  Al26  1  0.125000  0.750000  0.875000  1
  Al  Al27  1  0.875000  0.125000  0.750000  1
  Al  Al28  1  0.625000  0.375000  0.250000  1
  Al  Al29  1  0.750000  0.875000  0.125000  1
  Si  Si30  1  0.408406  0.408406  0.408406  1
  Si  Si31  1  0.591594  0.500000  1.000000  1
  Si  Si32  1  1.000000  0.591594  0.500000  1
  Si  Si33  1  0.500000  1.000000  0.591594  1
  Si  Si34  1  1.000000  0.091594  0.500000  1
  Si  Si35  1  0.500000  0.000000  0.091594  1
  Si  Si36  1  0.091594  0.500000  0.000000  1
  Si  Si37  1  0.908406  0.908406  0.908406  1
