# generated using pymatgen
data_Zr2Mo(PO6)2
_symmetry_space_group_name_H-M   'P 1'
_cell_length_a   9.34662325
_cell_length_b   9.49773955
_cell_length_c   12.59075789
_cell_angle_alpha   90.00000000
_cell_angle_beta   90.00000000
_cell_angle_gamma   90.00000000
_symmetry_Int_Tables_number   1
_chemical_formula_structural   Zr2Mo(PO6)2
_chemical_formula_sum   'Zr8 Mo4 P8 O48'
_cell_volume   1117.70415691
_cell_formula_units_Z   4
loop_
 _symmetry_equiv_pos_site_id
 _symmetry_equiv_pos_as_xyz
  1  'x, y, z'
loop_
 _atom_site_type_symbol
 _atom_site_label
 _atom_site_symmetry_multiplicity
 _atom_site_fract_x
 _atom_site_fract_y
 _atom_site_fract_z
 _atom_site_occupancy
  Zr  Zr0  1  0.225481  0.453845  0.629296  1
  Zr  Zr1  1  0.274519  0.546155  0.129296  1
  Zr  Zr2  1  0.774519  0.953845  0.629296  1
  Zr  Zr3  1  0.274519  0.953845  0.870704  1
  Zr  Zr4  1  0.725481  0.046155  0.129296  1
  Zr  Zr5  1  0.725481  0.453845  0.870704  1
  Zr  Zr6  1  0.774519  0.546155  0.370704  1
  Zr  Zr7  1  0.225481  0.046155  0.370704  1
  Mo  Mo8  1  0.037884  0.250000  0.000000  1
  Mo  Mo9  1  0.962116  0.750000  0.000000  1
  Mo  Mo10  1  0.537884  0.250000  0.500000  1
  Mo  Mo11  1  0.462116  0.750000  0.500000  1
  P  P12  1  0.881602  0.603990  0.643045  1
  P  P13  1  0.881602  0.896010  0.356955  1
  P  P14  1  0.618398  0.103990  0.856955  1
  P  P15  1  0.618398  0.396010  0.143045  1
  P  P16  1  0.118398  0.396010  0.356955  1
  P  P17  1  0.118398  0.103990  0.643045  1
  P  P18  1  0.381602  0.896010  0.143045  1
  P  P19  1  0.381602  0.603990  0.856955  1
  O  O20  1  0.641937  0.239089  0.172034  1
  O  O21  1  0.641937  0.260911  0.827966  1
  O  O22  1  0.858063  0.739089  0.327966  1
  O  O23  1  0.858063  0.760911  0.672034  1
  O  O24  1  0.358063  0.760911  0.827966  1
  O  O25  1  0.358063  0.739089  0.172034  1
  O  O26  1  0.141937  0.260911  0.672034  1
  O  O27  1  0.141937  0.239089  0.327966  1
  O  O28  1  0.672161  0.076957  0.970409  1
  O  O29  1  0.672161  0.423043  0.029591  1
  O  O30  1  0.827839  0.576957  0.529591  1
  O  O31  1  0.827839  0.923043  0.470409  1
  O  O32  1  0.327839  0.923043  0.029591  1
  O  O33  1  0.327839  0.576957  0.970409  1
  O  O34  1  0.172161  0.423043  0.470409  1
  O  O35  1  0.172161  0.076957  0.529591  1
  O  O36  1  0.073916  0.841671  0.907614  1
  O  O37  1  0.926084  0.158329  0.092386  1
  O  O38  1  0.573916  0.658329  0.407614  1
  O  O39  1  0.573916  0.841671  0.592386  1
  O  O40  1  0.042879  0.929931  0.348940  1
  O  O41  1  0.042879  0.570069  0.651060  1
  O  O42  1  0.457121  0.429931  0.151060  1
  O  O43  1  0.457121  0.070069  0.848940  1
  O  O44  1  0.957121  0.070069  0.651060  1
  O  O45  1  0.957121  0.429931  0.348940  1
  O  O46  1  0.542879  0.570069  0.848940  1
  O  O47  1  0.542879  0.929931  0.151060  1
  O  O48  1  0.350189  0.870670  0.428918  1
  O  O49  1  0.350189  0.629330  0.571082  1
  O  O50  1  0.149811  0.370670  0.071082  1
  O  O51  1  0.149811  0.129330  0.928918  1
  O  O52  1  0.649811  0.129330  0.571082  1
  O  O53  1  0.649811  0.370670  0.428918  1
  O  O54  1  0.850189  0.629330  0.928918  1
  O  O55  1  0.850189  0.870670  0.071082  1
  O  O56  1  0.299219  0.991112  0.221488  1
  O  O57  1  0.299219  0.508888  0.778512  1
  O  O58  1  0.200781  0.491112  0.278512  1
  O  O59  1  0.200781  0.008888  0.721488  1
  O  O60  1  0.700781  0.008888  0.778512  1
  O  O61  1  0.700781  0.491112  0.221488  1
  O  O62  1  0.799219  0.508888  0.721488  1
  O  O63  1  0.799219  0.991112  0.278512  1
  O  O64  1  0.426084  0.158329  0.407614  1
  O  O65  1  0.426084  0.341671  0.592386  1
  O  O66  1  0.073916  0.658329  0.092386  1
  O  O67  1  0.926084  0.341671  0.907614  1
