# generated using pymatgen
data_KAlO2
_symmetry_space_group_name_H-M   'P 1'
_cell_length_a   5.58268085
_cell_length_b   5.58268085
_cell_length_c   7.77767012
_cell_angle_alpha   90.00000000
_cell_angle_beta   90.00000000
_cell_angle_gamma   90.00000000
_symmetry_Int_Tables_number   1
_chemical_formula_structural   KAlO2
_chemical_formula_sum   'K4 Al4 O8'
_cell_volume   242.40139838
_cell_formula_units_Z   4
loop_
 _symmetry_equiv_pos_site_id
 _symmetry_equiv_pos_as_xyz
  1  'x, y, z'
loop_
 _atom_site_type_symbol
 _atom_site_label
 _atom_site_symmetry_multiplicity
 _atom_site_fract_x
 _atom_site_fract_y
 _atom_site_fract_z
 _atom_site_occupancy
  K  K0  1  0.224685  0.224685  0.000000  1
  K  K1  1  0.275315  0.724685  0.250000  1
  K  K2  1  0.724685  0.275315  0.750000  1
  K  K3  1  0.775315  0.775315  0.500000  1
  Al  Al4  1  0.212480  0.212480  0.500000  1
  Al  Al5  1  0.712480  0.287520  0.250000  1
  Al  Al6  1  0.287520  0.712480  0.750000  1
  Al  Al7  1  0.787520  0.787520  0.000000  1
  O  O8  1  0.413940  0.256103  0.326721  1
  O  O9  1  0.586060  0.743897  0.826721  1
  O  O10  1  0.256103  0.413940  0.673279  1
  O  O11  1  0.756103  0.086060  0.076721  1
  O  O12  1  0.243897  0.913940  0.576721  1
  O  O13  1  0.743897  0.586060  0.173279  1
  O  O14  1  0.913940  0.243897  0.423279  1
  O  O15  1  0.086060  0.756103  0.923279  1
