# generated using pymatgen
data_SrSi2
_symmetry_space_group_name_H-M   'P 1'
_cell_length_a   7.65567394
_cell_length_b   7.65567394
_cell_length_c   7.65567394
_cell_angle_alpha   146.30453485
_cell_angle_beta   146.30453485
_cell_angle_gamma   48.39464744
_symmetry_Int_Tables_number   1
_chemical_formula_structural   SrSi2
_chemical_formula_sum   'Sr2 Si4'
_cell_volume   137.51681121
_cell_formula_units_Z   2
loop_
 _symmetry_equiv_pos_site_id
 _symmetry_equiv_pos_as_xyz
  1  'x, y, z'
loop_
 _atom_site_type_symbol
 _atom_site_label
 _atom_site_symmetry_multiplicity
 _atom_site_fract_x
 _atom_site_fract_y
 _atom_site_fract_z
 _atom_site_occupancy
  Sr  Sr0  1  0.750000  0.250000  0.500000  1
  Sr  Sr1  1  0.000000  0.000000  0.000000  1
  Si  Si2  1  0.333183  0.833183  0.500000  1
  Si  Si3  1  0.583183  0.583183  0.000000  1
  Si  Si4  1  0.166817  0.666817  0.500000  1
  Si  Si5  1  0.416817  0.416817  0.000000  1
