# generated using pymatgen
data_LiAl(GeO3)2
_symmetry_space_group_name_H-M   'P 1'
_cell_length_a   5.45884810
_cell_length_b   8.49045112
_cell_length_c   9.59630015
_cell_angle_alpha   90.00000000
_cell_angle_beta   101.14145029
_cell_angle_gamma   90.00000000
_symmetry_Int_Tables_number   1
_chemical_formula_structural   LiAl(GeO3)2
_chemical_formula_sum   'Li4 Al4 Ge8 O24'
_cell_volume   436.38759028
_cell_formula_units_Z   4
loop_
 _symmetry_equiv_pos_site_id
 _symmetry_equiv_pos_as_xyz
  1  'x, y, z'
loop_
 _atom_site_type_symbol
 _atom_site_label
 _atom_site_symmetry_multiplicity
 _atom_site_fract_x
 _atom_site_fract_y
 _atom_site_fract_z
 _atom_site_occupancy
  Li  Li0  1  0.295162  0.217098  0.992040  1
  Li  Li1  1  0.295162  0.282902  0.492040  1
  Li  Li2  1  0.704838  0.782902  0.007960  1
  Li  Li3  1  0.704838  0.717098  0.507960  1
  Al  Al4  1  0.750343  0.413422  0.004551  1
  Al  Al5  1  0.750343  0.086578  0.504551  1
  Al  Al6  1  0.249657  0.586578  0.995449  1
  Al  Al7  1  0.249657  0.913422  0.495449  1
  Ge  Ge8  1  0.431120  0.915559  0.209428  1
  Ge  Ge9  1  0.431120  0.584441  0.709428  1
  Ge  Ge10  1  0.568880  0.084441  0.790572  1
  Ge  Ge11  1  0.568880  0.415559  0.290572  1
  Ge  Ge12  1  0.945968  0.112926  0.220664  1
  Ge  Ge13  1  0.945968  0.387074  0.720664  1
  Ge  Ge14  1  0.054032  0.887074  0.779336  1
  Ge  Ge15  1  0.054032  0.612926  0.279336  1
  O  O16  1  0.543230  0.927309  0.397196  1
  O  O17  1  0.543230  0.572691  0.897196  1
  O  O18  1  0.456770  0.072691  0.602804  1
  O  O19  1  0.456770  0.427309  0.102804  1
  O  O20  1  0.698500  0.989269  0.140717  1
  O  O21  1  0.698500  0.510731  0.640717  1
  O  O22  1  0.301500  0.010731  0.859283  1
  O  O23  1  0.301500  0.489269  0.359283  1
  O  O24  1  0.410908  0.742889  0.110757  1
  O  O25  1  0.410908  0.757111  0.610757  1
  O  O26  1  0.589092  0.257111  0.889243  1
  O  O27  1  0.589092  0.242889  0.389243  1
  O  O28  1  0.209325  0.067593  0.143129  1
  O  O29  1  0.209325  0.432407  0.643129  1
  O  O30  1  0.790675  0.932407  0.856871  1
  O  O31  1  0.790675  0.567593  0.356871  1
  O  O32  1  0.035570  0.098159  0.409861  1
  O  O33  1  0.035570  0.401841  0.909861  1
  O  O34  1  0.964430  0.901841  0.590139  1
  O  O35  1  0.964430  0.598159  0.090139  1
  O  O36  1  0.882285  0.310402  0.174372  1
  O  O37  1  0.882285  0.189598  0.674372  1
  O  O38  1  0.117715  0.689598  0.825628  1
  O  O39  1  0.117715  0.810402  0.325628  1
