# generated using pymatgen
data_Ta3Ga2
_symmetry_space_group_name_H-M   'P 1'
_cell_length_a   6.90953668
_cell_length_b   6.90953668
_cell_length_c   3.51744505
_cell_angle_alpha   90.00000000
_cell_angle_beta   90.00000000
_cell_angle_gamma   90.00000000
_symmetry_Int_Tables_number   1
_chemical_formula_structural   Ta3Ga2
_chemical_formula_sum   'Ta6 Ga4'
_cell_volume   167.92879626
_cell_formula_units_Z   2
loop_
 _symmetry_equiv_pos_site_id
 _symmetry_equiv_pos_as_xyz
  1  'x, y, z'
loop_
 _atom_site_type_symbol
 _atom_site_label
 _atom_site_symmetry_multiplicity
 _atom_site_fract_x
 _atom_site_fract_y
 _atom_site_fract_z
 _atom_site_occupancy
  Ta  Ta0  1  0.824673  0.675327  0.500000  1
  Ta  Ta1  1  0.324673  0.824673  0.500000  1
  Ta  Ta2  1  0.175327  0.324673  0.500000  1
  Ta  Ta3  1  0.675327  0.175327  0.500000  1
  Ta  Ta4  1  0.500000  0.500000  0.000000  1
  Ta  Ta5  1  0.000000  0.000000  0.000000  1
  Ga  Ga6  1  0.126148  0.626148  0.000000  1
  Ga  Ga7  1  0.626148  0.873852  0.000000  1
  Ga  Ga8  1  0.373852  0.126148  0.000000  1
  Ga  Ga9  1  0.873852  0.373852  0.000000  1
