# generated using pymatgen
data_Ca3N2
_symmetry_space_group_name_H-M   'P 1'
_cell_length_a   6.60442098
_cell_length_b   6.60442098
_cell_length_c   6.60442098
_cell_angle_alpha   55.95518609
_cell_angle_beta   55.95518609
_cell_angle_gamma   55.95518609
_symmetry_Int_Tables_number   1
_chemical_formula_structural   Ca3N2
_chemical_formula_sum   'Ca6 N4'
_cell_volume   184.60737969
_cell_formula_units_Z   2
loop_
 _symmetry_equiv_pos_site_id
 _symmetry_equiv_pos_as_xyz
  1  'x, y, z'
loop_
 _atom_site_type_symbol
 _atom_site_label
 _atom_site_symmetry_multiplicity
 _atom_site_fract_x
 _atom_site_fract_y
 _atom_site_fract_z
 _atom_site_occupancy
  Ca  Ca0  1  0.550091  0.949909  0.250000  1
  Ca  Ca1  1  0.250000  0.550091  0.949909  1
  Ca  Ca2  1  0.949909  0.250000  0.550091  1
  Ca  Ca3  1  0.750000  0.449909  0.050091  1
  Ca  Ca4  1  0.449909  0.050091  0.750000  1
  Ca  Ca5  1  0.050091  0.750000  0.449909  1
  N  N6  1  0.146526  0.146526  0.146526  1
  N  N7  1  0.353475  0.353475  0.353475  1
  N  N8  1  0.853474  0.853475  0.853475  1
  N  N9  1  0.646526  0.646526  0.646526  1
