# generated using pymatgen
data_Cs2Ti(AgS2)2
_symmetry_space_group_name_H-M   'P 1'
_cell_length_a   6.10972056
_cell_length_b   6.10972056
_cell_length_c   14.00481590
_cell_angle_alpha   90.00000000
_cell_angle_beta   90.00000000
_cell_angle_gamma   90.00000000
_symmetry_Int_Tables_number   1
_chemical_formula_structural   Cs2Ti(AgS2)2
_chemical_formula_sum   'Cs4 Ti2 Ag4 S8'
_cell_volume   522.78136571
_cell_formula_units_Z   2
loop_
 _symmetry_equiv_pos_site_id
 _symmetry_equiv_pos_as_xyz
  1  'x, y, z'
loop_
 _atom_site_type_symbol
 _atom_site_label
 _atom_site_symmetry_multiplicity
 _atom_site_fract_x
 _atom_site_fract_y
 _atom_site_fract_z
 _atom_site_occupancy
  Cs  Cs0  1  0.764638  0.764638  0.000000  1
  Cs  Cs1  1  0.235362  0.764638  0.500000  1
  Cs  Cs2  1  0.764638  0.235362  0.500000  1
  Cs  Cs3  1  0.235362  0.235362  0.000000  1
  Ti  Ti4  1  0.500000  0.500000  0.750000  1
  Ti  Ti5  1  0.500000  0.500000  0.250000  1
  Ag  Ag6  1  0.000000  0.500000  0.750000  1
  Ag  Ag7  1  0.500000  0.000000  0.750000  1
  Ag  Ag8  1  0.000000  0.500000  0.250000  1
  Ag  Ag9  1  0.500000  0.000000  0.250000  1
  S  S10  1  0.713496  0.713496  0.651146  1
  S  S11  1  0.286504  0.286504  0.651146  1
  S  S12  1  0.713496  0.713496  0.348854  1
  S  S13  1  0.713496  0.286504  0.151146  1
  S  S14  1  0.286504  0.713496  0.848854  1
  S  S15  1  0.286504  0.286504  0.348854  1
  S  S16  1  0.286504  0.713496  0.151146  1
  S  S17  1  0.713496  0.286504  0.848854  1
