# generated using pymatgen
data_Ho3Pd2
_symmetry_space_group_name_H-M   'P 1'
_cell_length_a   7.76949823
_cell_length_b   7.76949823
_cell_length_c   3.94206251
_cell_angle_alpha   90.00000000
_cell_angle_beta   90.00000000
_cell_angle_gamma   90.00000000
_symmetry_Int_Tables_number   1
_chemical_formula_structural   Ho3Pd2
_chemical_formula_sum   'Ho6 Pd4'
_cell_volume   237.96300845
_cell_formula_units_Z   2
loop_
 _symmetry_equiv_pos_site_id
 _symmetry_equiv_pos_as_xyz
  1  'x, y, z'
loop_
 _atom_site_type_symbol
 _atom_site_label
 _atom_site_symmetry_multiplicity
 _atom_site_fract_x
 _atom_site_fract_y
 _atom_site_fract_z
 _atom_site_occupancy
  Ho  Ho0  1  0.835641  0.664359  0.500000  1
  Ho  Ho1  1  0.335641  0.835641  0.500000  1
  Ho  Ho2  1  0.164359  0.335641  0.500000  1
  Ho  Ho3  1  0.664359  0.164359  0.500000  1
  Ho  Ho4  1  0.500000  0.500000  0.000000  1
  Ho  Ho5  1  0.000000  0.000000  0.000000  1
  Pd  Pd6  1  0.133328  0.633328  0.000000  1
  Pd  Pd7  1  0.633328  0.866672  0.000000  1
  Pd  Pd8  1  0.366672  0.133328  0.000000  1
  Pd  Pd9  1  0.866672  0.366672  0.000000  1
