# generated using pymatgen
data_C3N
_symmetry_space_group_name_H-M   'P 1'
_cell_length_a   2.43211949
_cell_length_b   2.43211949
_cell_length_c   13.45298648
_cell_angle_alpha   90.00000000
_cell_angle_beta   90.00000000
_cell_angle_gamma   120.00405831
_symmetry_Int_Tables_number   1
_chemical_formula_structural   C3N
_chemical_formula_sum   'C6 N2'
_cell_volume   68.91303739
_cell_formula_units_Z   2
loop_
 _symmetry_equiv_pos_site_id
 _symmetry_equiv_pos_as_xyz
  1  'x, y, z'
loop_
 _atom_site_type_symbol
 _atom_site_label
 _atom_site_symmetry_multiplicity
 _atom_site_fract_x
 _atom_site_fract_y
 _atom_site_fract_z
 _atom_site_occupancy
  C  C0  1  0.962154  0.037846  0.250000  1
  C  C1  1  0.037846  0.962154  0.750000  1
  C  C2  1  0.333209  0.666791  0.999857  1
  C  C3  1  0.666791  0.333209  0.000143  1
  C  C4  1  0.666791  0.333209  0.499857  1
  C  C5  1  0.333209  0.666791  0.500143  1
  N  N6  1  0.295548  0.704452  0.250000  1
  N  N7  1  0.704452  0.295548  0.750000  1
