# generated using pymatgen
data_NaCuF3
_symmetry_space_group_name_H-M   'P 1'
_cell_length_a   5.45997679
_cell_length_b   5.63379797
_cell_length_c   8.01577453
_cell_angle_alpha   89.29342954
_cell_angle_beta   87.60928118
_cell_angle_gamma   86.29998893
_symmetry_Int_Tables_number   1
_chemical_formula_structural   NaCuF3
_chemical_formula_sum   'Na4 Cu4 F12'
_cell_volume   245.82887805
_cell_formula_units_Z   4
loop_
 _symmetry_equiv_pos_site_id
 _symmetry_equiv_pos_as_xyz
  1  'x, y, z'
loop_
 _atom_site_type_symbol
 _atom_site_label
 _atom_site_symmetry_multiplicity
 _atom_site_fract_x
 _atom_site_fract_y
 _atom_site_fract_z
 _atom_site_occupancy
  Na  Na0  1  0.491713  0.445426  0.239843  1
  Na  Na1  1  0.508287  0.554574  0.760157  1
  Na  Na2  1  0.026036  0.940334  0.258096  1
  Na  Na3  1  0.973964  0.059666  0.741904  1
  Cu  Cu4  1  0.500000  0.000000  0.000000  1
  Cu  Cu5  1  0.000000  0.500000  0.000000  1
  Cu  Cu6  1  0.500000  0.000000  0.500000  1
  Cu  Cu7  1  0.000000  0.500000  0.500000  1
  F  F8  1  0.106209  0.457862  0.771920  1
  F  F9  1  0.893791  0.542138  0.228080  1
  F  F10  1  0.390684  0.958092  0.727138  1
  F  F11  1  0.609316  0.041908  0.272862  1
  F  F12  1  0.196549  0.198654  0.452802  1
  F  F13  1  0.803451  0.801346  0.547198  1
  F  F14  1  0.723262  0.322532  0.562537  1
  F  F15  1  0.276738  0.677468  0.437463  1
  F  F16  1  0.320544  0.726434  0.053673  1
  F  F17  1  0.679456  0.273566  0.946327  1
  F  F18  1  0.794265  0.792066  0.936902  1
  F  F19  1  0.205735  0.207934  0.063098  1
