# generated using pymatgen
data_Sc3In
_symmetry_space_group_name_H-M   'P 1'
_cell_length_a   6.42135703
_cell_length_b   6.42135703
_cell_length_c   5.22648389
_cell_angle_alpha   90.00000000
_cell_angle_beta   90.00000000
_cell_angle_gamma   120.00000000
_symmetry_Int_Tables_number   1
_chemical_formula_structural   Sc3In
_chemical_formula_sum   'Sc6 In2'
_cell_volume   186.63534006
_cell_formula_units_Z   2
loop_
 _symmetry_equiv_pos_site_id
 _symmetry_equiv_pos_as_xyz
  1  'x, y, z'
loop_
 _atom_site_type_symbol
 _atom_site_label
 _atom_site_symmetry_multiplicity
 _atom_site_fract_x
 _atom_site_fract_y
 _atom_site_fract_z
 _atom_site_occupancy
  Sc  Sc0  1  0.831755  0.168245  0.250000  1
  Sc  Sc1  1  0.663511  0.831755  0.750000  1
  Sc  Sc2  1  0.168245  0.336489  0.750000  1
  Sc  Sc3  1  0.831755  0.663511  0.250000  1
  Sc  Sc4  1  0.336489  0.168245  0.250000  1
  Sc  Sc5  1  0.168245  0.831755  0.750000  1
  In  In6  1  0.333333  0.666667  0.250000  1
  In  In7  1  0.666667  0.333333  0.750000  1
