# generated using pymatgen
data_Sr5Sn3
_symmetry_space_group_name_H-M   'P 1'
_cell_length_a   10.25798483
_cell_length_b   10.25798483
_cell_length_c   10.25798483
_cell_angle_alpha   130.25726618
_cell_angle_beta   130.25726618
_cell_angle_gamma   72.99581627
_symmetry_Int_Tables_number   1
_chemical_formula_structural   Sr5Sn3
_chemical_formula_sum   'Sr10 Sn6'
_cell_volume   613.95839907
_cell_formula_units_Z   2
loop_
 _symmetry_equiv_pos_site_id
 _symmetry_equiv_pos_as_xyz
  1  'x, y, z'
loop_
 _atom_site_type_symbol
 _atom_site_label
 _atom_site_symmetry_multiplicity
 _atom_site_fract_x
 _atom_site_fract_y
 _atom_site_fract_z
 _atom_site_occupancy
  Sr  Sr0  1  0.500000  0.500000  0.000000  1
  Sr  Sr1  1  0.000000  0.000000  0.000000  1
  Sr  Sr2  1  0.534712  0.034712  0.851751  1
  Sr  Sr3  1  0.182961  0.682961  0.148249  1
  Sr  Sr4  1  0.034712  0.182961  0.500000  1
  Sr  Sr5  1  0.682961  0.534712  0.500000  1
  Sr  Sr6  1  0.465288  0.965288  0.148249  1
  Sr  Sr7  1  0.817039  0.317039  0.851751  1
  Sr  Sr8  1  0.965288  0.817039  0.500000  1
  Sr  Sr9  1  0.317039  0.465288  0.500000  1
  Sn  Sn10  1  0.250000  0.250000  0.000000  1
  Sn  Sn11  1  0.750000  0.750000  0.000000  1
  Sn  Sn12  1  0.878774  0.378774  0.257548  1
  Sn  Sn13  1  0.121226  0.621226  0.742452  1
  Sn  Sn14  1  0.378774  0.121226  0.500000  1
  Sn  Sn15  1  0.621226  0.878774  0.500000  1
