# generated using pymatgen
data_TaSb2
_symmetry_space_group_name_H-M   'P 1'
_cell_length_a   5.49406973
_cell_length_b   5.49406973
_cell_length_c   8.39023526
_cell_angle_alpha   61.53621051
_cell_angle_beta   118.46378949
_cell_angle_gamma   140.72861273
_symmetry_Int_Tables_number   1
_chemical_formula_structural   TaSb2
_chemical_formula_sum   'Ta2 Sb4'
_cell_volume   138.27048219
_cell_formula_units_Z   2
loop_
 _symmetry_equiv_pos_site_id
 _symmetry_equiv_pos_as_xyz
  1  'x, y, z'
loop_
 _atom_site_type_symbol
 _atom_site_label
 _atom_site_symmetry_multiplicity
 _atom_site_fract_x
 _atom_site_fract_y
 _atom_site_fract_z
 _atom_site_occupancy
  Ta  Ta0  1  0.150727  0.849273  0.688603  1
  Ta  Ta1  1  0.849273  0.150727  0.311397  1
  Sb  Sb2  1  0.851589  0.148411  0.965221  1
  Sb  Sb3  1  0.148411  0.851589  0.034779  1
  Sb  Sb4  1  0.594761  0.405239  0.387532  1
  Sb  Sb5  1  0.405239  0.594761  0.612468  1
