# generated using pymatgen
data_Ba(BIr)2
_symmetry_space_group_name_H-M   'P 1'
_cell_length_a   6.41378880
_cell_length_b   6.41378880
_cell_length_c   6.41378880
_cell_angle_alpha   144.01351665
_cell_angle_beta   144.01351665
_cell_angle_gamma   51.80708074
_symmetry_Int_Tables_number   1
_chemical_formula_structural   Ba(BIr)2
_chemical_formula_sum   'Ba1 B2 Ir2'
_cell_volume   90.58772046
_cell_formula_units_Z   1
loop_
 _symmetry_equiv_pos_site_id
 _symmetry_equiv_pos_as_xyz
  1  'x, y, z'
loop_
 _atom_site_type_symbol
 _atom_site_label
 _atom_site_symmetry_multiplicity
 _atom_site_fract_x
 _atom_site_fract_y
 _atom_site_fract_z
 _atom_site_occupancy
  Ba  Ba0  1  0.000000  0.000000  0.000000  1
  B  B1  1  0.682305  0.682305  0.000000  1
  B  B2  1  0.317695  0.317695  0.000000  1
  Ir  Ir3  1  0.250000  0.750000  0.500000  1
  Ir  Ir4  1  0.750000  0.250000  0.500000  1
