# generated using pymatgen
data_LaGa
_symmetry_space_group_name_H-M   'P 1'
_cell_length_a   6.24558660
_cell_length_b   6.24558660
_cell_length_c   4.24850098
_cell_angle_alpha   90.00000000
_cell_angle_beta   90.00000000
_cell_angle_gamma   137.08744268
_symmetry_Int_Tables_number   1
_chemical_formula_structural   LaGa
_chemical_formula_sum   'La2 Ga2'
_cell_volume   112.83755391
_cell_formula_units_Z   2
loop_
 _symmetry_equiv_pos_site_id
 _symmetry_equiv_pos_as_xyz
  1  'x, y, z'
loop_
 _atom_site_type_symbol
 _atom_site_label
 _atom_site_symmetry_multiplicity
 _atom_site_fract_x
 _atom_site_fract_y
 _atom_site_fract_z
 _atom_site_occupancy
  La  La0  1  0.860435  0.139565  0.750000  1
  La  La1  1  0.139565  0.860435  0.250000  1
  Ga  Ga2  1  0.567438  0.432562  0.750000  1
  Ga  Ga3  1  0.432562  0.567438  0.250000  1
