# generated using pymatgen
data_LiAlSiO4
_symmetry_space_group_name_H-M   'P 1'
_cell_length_a   10.58771758
_cell_length_b   10.58771758
_cell_length_c   11.38351355
_cell_angle_alpha   90.00000000
_cell_angle_beta   90.00000000
_cell_angle_gamma   120.00000000
_symmetry_Int_Tables_number   1
_chemical_formula_structural   LiAlSiO4
_chemical_formula_sum   'Li12 Al12 Si12 O48'
_cell_volume   1105.12564418
_cell_formula_units_Z   12
loop_
 _symmetry_equiv_pos_site_id
 _symmetry_equiv_pos_as_xyz
  1  'x, y, z'
loop_
 _atom_site_type_symbol
 _atom_site_label
 _atom_site_symmetry_multiplicity
 _atom_site_fract_x
 _atom_site_fract_y
 _atom_site_fract_z
 _atom_site_occupancy
  Li  Li0  1  0.000000  0.500000  0.338811  1
  Li  Li1  1  0.500000  0.500000  0.005478  1
  Li  Li2  1  0.500000  0.000000  0.672145  1
  Li  Li3  1  0.000000  0.500000  0.994522  1
  Li  Li4  1  0.500000  0.500000  0.661189  1
  Li  Li5  1  0.500000  0.000000  0.327855  1
  Li  Li6  1  0.000000  0.500000  0.666667  1
  Li  Li7  1  0.500000  0.500000  0.333333  1
  Li  Li8  1  0.500000  0.000000  0.000000  1
  Li  Li9  1  0.000000  0.000000  0.166667  1
  Li  Li10  1  0.000000  0.000000  0.833333  1
  Li  Li11  1  0.000000  0.000000  0.500000  1
  Al  Al12  1  0.250886  0.000000  0.500000  1
  Al  Al13  1  0.250886  0.250886  0.833333  1
  Al  Al14  1  0.000000  0.749114  0.166667  1
  Al  Al15  1  0.000000  0.250886  0.166667  1
  Al  Al16  1  0.749114  0.749114  0.833333  1
  Al  Al17  1  0.748734  0.497468  0.500000  1
  Al  Al18  1  0.251266  0.502532  0.500000  1
  Al  Al19  1  0.748734  0.251266  0.833333  1
  Al  Al20  1  0.502532  0.251266  0.166667  1
  Al  Al21  1  0.497468  0.748734  0.166667  1
  Al  Al22  1  0.251266  0.748734  0.833333  1
  Al  Al23  1  0.749114  0.000000  0.500000  1
  Si  Si24  1  0.751826  0.503651  0.000000  1
  Si  Si25  1  0.503651  0.751826  0.666667  1
  Si  Si26  1  0.496349  0.248174  0.666667  1
  Si  Si27  1  0.751826  0.248174  0.333333  1
  Si  Si28  1  0.248174  0.496349  0.000000  1
  Si  Si29  1  0.752496  0.000000  0.000000  1
  Si  Si30  1  0.752496  0.752496  0.333333  1
  Si  Si31  1  0.000000  0.247504  0.666667  1
  Si  Si32  1  0.000000  0.752496  0.666667  1
  Si  Si33  1  0.247504  0.247504  0.333333  1
  Si  Si34  1  0.247504  0.000000  0.000000  1
  Si  Si35  1  0.248174  0.751826  0.333333  1
  O  O36  1  0.302970  0.903594  0.406238  1
  O  O37  1  0.399376  0.096406  0.593762  1
  O  O38  1  0.697030  0.600624  0.927096  1
  O  O39  1  0.302970  0.399376  0.927096  1
  O  O40  1  0.600624  0.903594  0.593762  1
  O  O41  1  0.399376  0.302970  0.739571  1
  O  O42  1  0.903594  0.600624  0.072904  1
  O  O43  1  0.903594  0.302970  0.260429  1
  O  O44  1  0.697030  0.096406  0.406238  1
  O  O45  1  0.096406  0.697030  0.260429  1
  O  O46  1  0.600624  0.697030  0.739571  1
  O  O47  1  0.096406  0.399376  0.072904  1
  O  O48  1  0.600314  0.706267  0.262814  1
  O  O49  1  0.894047  0.600314  0.596148  1
  O  O50  1  0.706267  0.105953  0.929481  1
  O  O51  1  0.293733  0.894047  0.929481  1
  O  O52  1  0.105953  0.399686  0.596148  1
  O  O53  1  0.894047  0.293733  0.737186  1
  O  O54  1  0.399686  0.105953  0.070519  1
  O  O55  1  0.399686  0.293733  0.262814  1
  O  O56  1  0.706267  0.600314  0.403852  1
  O  O57  1  0.293733  0.399686  0.403852  1
  O  O58  1  0.105953  0.706267  0.737186  1
  O  O59  1  0.600314  0.894047  0.070519  1
  O  O60  1  0.608415  0.200061  0.250799  1
  O  O61  1  0.408354  0.608415  0.584133  1
  O  O62  1  0.200061  0.591646  0.917466  1
  O  O63  1  0.799939  0.408354  0.917466  1
  O  O64  1  0.591646  0.391585  0.584133  1
  O  O65  1  0.408354  0.799939  0.749201  1
  O  O66  1  0.391585  0.591646  0.082534  1
  O  O67  1  0.391585  0.799939  0.250799  1
  O  O68  1  0.200061  0.608415  0.415867  1
  O  O69  1  0.799939  0.391585  0.415867  1
  O  O70  1  0.591646  0.200061  0.749201  1
  O  O71  1  0.608415  0.408354  0.082534  1
  O  O72  1  0.913147  0.111017  0.575772  1
  O  O73  1  0.197870  0.086853  0.909105  1
  O  O74  1  0.802130  0.913147  0.909105  1
  O  O75  1  0.086853  0.888983  0.575772  1
  O  O76  1  0.913147  0.802130  0.757562  1
  O  O77  1  0.888983  0.086853  0.090895  1
  O  O78  1  0.888983  0.802130  0.242438  1
  O  O79  1  0.197870  0.111017  0.424228  1
  O  O80  1  0.802130  0.888983  0.424228  1
  O  O81  1  0.086853  0.197870  0.757562  1
  O  O82  1  0.111017  0.913147  0.090895  1
  O  O83  1  0.111017  0.197870  0.242438  1
