# generated using pymatgen
data_K3YbSi2O7
_symmetry_space_group_name_H-M   'P 1'
_cell_length_a   10.05160652
_cell_length_b   10.05160652
_cell_length_c   14.59081296
_cell_angle_alpha   90.00000000
_cell_angle_beta   90.00000000
_cell_angle_gamma   120.00000000
_symmetry_Int_Tables_number   1
_chemical_formula_structural   K3YbSi2O7
_chemical_formula_sum   'K18 Yb6 Si12 O42'
_cell_volume   1276.67713554
_cell_formula_units_Z   6
loop_
 _symmetry_equiv_pos_site_id
 _symmetry_equiv_pos_as_xyz
  1  'x, y, z'
loop_
 _atom_site_type_symbol
 _atom_site_label
 _atom_site_symmetry_multiplicity
 _atom_site_fract_x
 _atom_site_fract_y
 _atom_site_fract_z
 _atom_site_occupancy
  K  K0  1  0.000000  0.000000  0.500000  1
  K  K1  1  0.334966  0.000000  0.085722  1
  K  K2  1  0.334966  0.334966  0.585722  1
  K  K3  1  0.000000  0.665034  0.585722  1
  K  K4  1  0.000000  0.334966  0.085722  1
  K  K5  1  0.665034  0.665034  0.085722  1
  K  K6  1  0.334966  0.000000  0.414278  1
  K  K7  1  0.000000  0.000000  0.000000  1
  K  K8  1  0.333333  0.666667  0.750000  1
  K  K9  1  0.666667  0.333333  0.250000  1
  K  K10  1  0.666667  0.333333  0.750000  1
  K  K11  1  0.333333  0.666667  0.250000  1
  K  K12  1  0.665034  0.665034  0.414278  1
  K  K13  1  0.665034  0.000000  0.914278  1
  K  K14  1  0.000000  0.665034  0.914278  1
  K  K15  1  0.000000  0.334966  0.414278  1
  K  K16  1  0.665034  0.000000  0.585722  1
  K  K17  1  0.334966  0.334966  0.914278  1
  Yb  Yb18  1  0.000000  0.000000  0.750000  1
  Yb  Yb19  1  0.333333  0.666667  0.000000  1
  Yb  Yb20  1  0.666667  0.333333  0.500000  1
  Yb  Yb21  1  0.666667  0.333333  0.000000  1
  Yb  Yb22  1  0.333333  0.666667  0.500000  1
  Yb  Yb23  1  0.000000  0.000000  0.250000  1
  Si  Si24  1  0.659673  0.659673  0.856799  1
  Si  Si25  1  0.340327  0.000000  0.856799  1
  Si  Si26  1  0.000000  0.340327  0.856799  1
  Si  Si27  1  0.000000  0.659673  0.356799  1
  Si  Si28  1  0.340327  0.000000  0.643201  1
  Si  Si29  1  0.340327  0.340327  0.356799  1
  Si  Si30  1  0.659673  0.000000  0.356799  1
  Si  Si31  1  0.340327  0.340327  0.143201  1
  Si  Si32  1  0.000000  0.659673  0.143201  1
  Si  Si33  1  0.000000  0.340327  0.643201  1
  Si  Si34  1  0.659673  0.659673  0.643201  1
  Si  Si35  1  0.659673  0.000000  0.143201  1
  O  O36  1  0.403753  0.000000  0.750000  1
  O  O37  1  0.403753  0.403753  0.250000  1
  O  O38  1  0.000000  0.596247  0.250000  1
  O  O39  1  0.000000  0.403753  0.750000  1
  O  O40  1  0.596247  0.596247  0.750000  1
  O  O41  1  0.596247  0.000000  0.250000  1
  O  O42  1  0.821680  0.821680  0.855997  1
  O  O43  1  0.178320  0.000000  0.855997  1
  O  O44  1  0.000000  0.178320  0.855997  1
  O  O45  1  0.000000  0.821680  0.355997  1
  O  O46  1  0.178320  0.000000  0.644003  1
  O  O47  1  0.178320  0.178320  0.355997  1
  O  O48  1  0.821680  0.000000  0.355997  1
  O  O49  1  0.178320  0.178320  0.144003  1
  O  O50  1  0.000000  0.821680  0.144003  1
  O  O51  1  0.000000  0.178320  0.644003  1
  O  O52  1  0.821680  0.821680  0.644003  1
  O  O53  1  0.821680  0.000000  0.144003  1
  O  O54  1  0.323457  0.847211  0.907368  1
  O  O55  1  0.152789  0.476246  0.907368  1
  O  O56  1  0.523754  0.676543  0.907368  1
  O  O57  1  0.476246  0.323457  0.407368  1
  O  O58  1  0.676543  0.523754  0.592632  1
  O  O59  1  0.676543  0.152789  0.407368  1
  O  O60  1  0.847211  0.523754  0.407368  1
  O  O61  1  0.152789  0.676543  0.092632  1
  O  O62  1  0.523754  0.847211  0.092632  1
  O  O63  1  0.476246  0.152789  0.592632  1
  O  O64  1  0.847211  0.323457  0.592632  1
  O  O65  1  0.323457  0.476246  0.092632  1
  O  O66  1  0.676543  0.152789  0.092632  1
  O  O67  1  0.847211  0.523754  0.092632  1
  O  O68  1  0.476246  0.323457  0.092632  1
  O  O69  1  0.523754  0.676543  0.592632  1
  O  O70  1  0.323457  0.476246  0.407368  1
  O  O71  1  0.323457  0.847211  0.592632  1
  O  O72  1  0.676543  0.523754  0.907368  1
  O  O73  1  0.152789  0.676543  0.407368  1
  O  O74  1  0.523754  0.847211  0.407368  1
  O  O75  1  0.476246  0.152789  0.907368  1
  O  O76  1  0.847211  0.323457  0.907368  1
  O  O77  1  0.152789  0.476246  0.592632  1
