# generated using pymatgen
data_Np(GePd)2
_symmetry_space_group_name_H-M   'P 1'
_cell_length_a   6.06182801
_cell_length_b   6.06182801
_cell_length_c   6.06182801
_cell_angle_alpha   139.43110137
_cell_angle_beta   139.43110137
_cell_angle_gamma   58.71811738
_symmetry_Int_Tables_number   1
_chemical_formula_structural   Np(GePd)2
_chemical_formula_sum   'Np1 Ge2 Pd2'
_cell_volume   93.33200253
_cell_formula_units_Z   1
loop_
 _symmetry_equiv_pos_site_id
 _symmetry_equiv_pos_as_xyz
  1  'x, y, z'
loop_
 _atom_site_type_symbol
 _atom_site_label
 _atom_site_symmetry_multiplicity
 _atom_site_fract_x
 _atom_site_fract_y
 _atom_site_fract_z
 _atom_site_occupancy
  Np  Np0  1  0.000000  0.000000  0.000000  1
  Ge  Ge1  1  0.615937  0.615937  0.000000  1
  Ge  Ge2  1  0.384063  0.384063  0.000000  1
  Pd  Pd3  1  0.750000  0.250000  0.500000  1
  Pd  Pd4  1  0.250000  0.750000  0.500000  1
