# generated using pymatgen
data_YbAsO4
_symmetry_space_group_name_H-M   'P 1'
_cell_length_a   6.03282024
_cell_length_b   6.03282024
_cell_length_c   6.03282024
_cell_angle_alpha   106.46926320
_cell_angle_beta   106.46926320
_cell_angle_gamma   115.65797977
_symmetry_Int_Tables_number   1
_chemical_formula_structural   YbAsO4
_chemical_formula_sum   'Yb2 As2 O8'
_cell_volume   167.52669730
_cell_formula_units_Z   2
loop_
 _symmetry_equiv_pos_site_id
 _symmetry_equiv_pos_as_xyz
  1  'x, y, z'
loop_
 _atom_site_type_symbol
 _atom_site_label
 _atom_site_symmetry_multiplicity
 _atom_site_fract_x
 _atom_site_fract_y
 _atom_site_fract_z
 _atom_site_occupancy
  Yb  Yb0  1  1.000000  0.000000  0.000000  1
  Yb  Yb1  1  0.250000  0.750000  0.500000  1
  As  As2  1  0.750000  0.250000  0.500000  1
  As  As3  1  0.500000  0.500000  0.000000  1
  O  O4  1  0.853206  0.668771  0.184435  1
  O  O5  1  0.918771  0.234337  0.315565  1
  O  O6  1  0.918771  0.603206  0.684435  1
  O  O7  1  0.484337  0.668771  0.815565  1
  O  O8  1  0.331229  0.515663  0.184435  1
  O  O9  1  0.396794  0.081229  0.315565  1
  O  O10  1  0.765663  0.081229  0.684435  1
  O  O11  1  0.331229  0.146794  0.815565  1
