# generated using pymatgen
data_Ca(As2Rh3)2
_symmetry_space_group_name_H-M   'P 1'
_cell_length_a   7.29731810
_cell_length_b   7.29731810
_cell_length_c   3.81592037
_cell_angle_alpha   90.00000000
_cell_angle_beta   90.00000000
_cell_angle_gamma   120.00000000
_symmetry_Int_Tables_number   1
_chemical_formula_structural   Ca(As2Rh3)2
_chemical_formula_sum   'Ca1 As4 Rh6'
_cell_volume   175.97723580
_cell_formula_units_Z   1
loop_
 _symmetry_equiv_pos_site_id
 _symmetry_equiv_pos_as_xyz
  1  'x, y, z'
loop_
 _atom_site_type_symbol
 _atom_site_label
 _atom_site_symmetry_multiplicity
 _atom_site_fract_x
 _atom_site_fract_y
 _atom_site_fract_z
 _atom_site_occupancy
  Ca  Ca0  1  0.000000  0.000000  0.000000  1
  As  As1  1  0.811134  0.188866  0.500000  1
  As  As2  1  0.377732  0.188866  0.500000  1
  As  As3  1  0.333333  0.666667  0.000000  1
  As  As4  1  0.811134  0.622268  0.500000  1
  Rh  Rh5  1  0.199671  0.800329  0.500000  1
  Rh  Rh6  1  0.199671  0.399342  0.500000  1
  Rh  Rh7  1  0.534820  0.069641  0.000000  1
  Rh  Rh8  1  0.930359  0.465180  0.000000  1
  Rh  Rh9  1  0.534820  0.465180  0.000000  1
  Rh  Rh10  1  0.600658  0.800329  0.500000  1
