# generated using pymatgen
data_Ce5Zr3O16
_symmetry_space_group_name_H-M   'P 1'
_cell_length_a   7.60421838
_cell_length_b   7.60421838
_cell_length_c   5.40638712
_cell_angle_alpha   90.00000000
_cell_angle_beta   90.00000000
_cell_angle_gamma   90.54711027
_symmetry_Int_Tables_number   1
_chemical_formula_structural   Ce5Zr3O16
_chemical_formula_sum   'Ce5 Zr3 O16'
_cell_volume   312.60541803
_cell_formula_units_Z   1
loop_
 _symmetry_equiv_pos_site_id
 _symmetry_equiv_pos_as_xyz
  1  'x, y, z'
loop_
 _atom_site_type_symbol
 _atom_site_label
 _atom_site_symmetry_multiplicity
 _atom_site_fract_x
 _atom_site_fract_y
 _atom_site_fract_z
 _atom_site_occupancy
  Ce  Ce0  1  0.500000  1.000000  0.991311  1
  Ce  Ce1  1  0.242909  0.242909  0.500000  1
  Ce  Ce2  1  0.000000  0.500000  0.008689  1
  Ce  Ce3  1  0.757091  0.757091  0.500000  1
  Ce  Ce4  1  0.500000  0.500000  1.000000  1
  Zr  Zr5  1  0.000000  0.000000  0.000000  1
  Zr  Zr6  1  0.744097  0.255903  0.500000  1
  Zr  Zr7  1  0.255903  0.744097  0.500000  1
  O  O8  1  0.974463  0.252185  0.290925  1
  O  O9  1  0.764576  0.978156  0.202926  1
  O  O10  1  0.747815  0.025537  0.709075  1
  O  O11  1  0.021844  0.235424  0.797074  1
  O  O12  1  0.523068  0.241202  0.270959  1
  O  O13  1  0.235424  0.021844  0.202926  1
  O  O14  1  0.252185  0.974463  0.709075  1
  O  O15  1  0.483704  0.254504  0.762168  1
  O  O16  1  0.025537  0.747815  0.290925  1
  O  O17  1  0.745496  0.516296  0.237832  1
  O  O18  1  0.758798  0.476932  0.729041  1
  O  O19  1  0.978156  0.764576  0.797074  1
  O  O20  1  0.476932  0.758798  0.270959  1
  O  O21  1  0.254504  0.483704  0.237832  1
  O  O22  1  0.241202  0.523068  0.729041  1
  O  O23  1  0.516296  0.745496  0.762168  1
