# generated using pymatgen
data_KSbO2
_symmetry_space_group_name_H-M   'P 1'
_cell_length_a   5.89129345
_cell_length_b   5.89129345
_cell_length_c   5.67969376
_cell_angle_alpha   67.14782530
_cell_angle_beta   112.85217470
_cell_angle_gamma   85.13207279
_symmetry_Int_Tables_number   1
_chemical_formula_structural   KSbO2
_chemical_formula_sum   'K2 Sb2 O4'
_cell_volume   160.82028503
_cell_formula_units_Z   2
loop_
 _symmetry_equiv_pos_site_id
 _symmetry_equiv_pos_as_xyz
  1  'x, y, z'
loop_
 _atom_site_type_symbol
 _atom_site_label
 _atom_site_symmetry_multiplicity
 _atom_site_fract_x
 _atom_site_fract_y
 _atom_site_fract_z
 _atom_site_occupancy
  K  K0  1  0.636637  0.636637  0.250000  1
  K  K1  1  0.363363  0.363363  0.750000  1
  Sb  Sb2  1  0.906959  0.906959  0.750000  1
  Sb  Sb3  1  0.093041  0.093041  0.250000  1
  O  O4  1  0.131367  0.766072  0.220289  1
  O  O5  1  0.766072  0.131367  0.279711  1
  O  O6  1  0.233928  0.868633  0.720289  1
  O  O7  1  0.868633  0.233928  0.779711  1
