# generated using pymatgen
data_Er2Al3Si2
_symmetry_space_group_name_H-M   'P 1'
_cell_length_a   5.45216508
_cell_length_b   5.45216508
_cell_length_c   6.60111982
_cell_angle_alpha   79.82301616
_cell_angle_beta   100.17698384
_cell_angle_gamma   136.85299876
_symmetry_Int_Tables_number   1
_chemical_formula_structural   Er2Al3Si2
_chemical_formula_sum   'Er2 Al3 Si2'
_cell_volume   131.74883839
_cell_formula_units_Z   1
loop_
 _symmetry_equiv_pos_site_id
 _symmetry_equiv_pos_as_xyz
  1  'x, y, z'
loop_
 _atom_site_type_symbol
 _atom_site_label
 _atom_site_symmetry_multiplicity
 _atom_site_fract_x
 _atom_site_fract_y
 _atom_site_fract_z
 _atom_site_occupancy
  Er  Er0  1  0.619423  0.380577  0.322749  1
  Er  Er1  1  0.380577  0.619423  0.677251  1
  Al  Al2  1  0.305232  0.694768  0.133302  1
  Al  Al3  1  0.000000  0.000000  0.000000  1
  Al  Al4  1  0.694768  0.305232  0.866698  1
  Si  Si5  1  0.093514  0.906486  0.639573  1
  Si  Si6  1  0.906486  0.093514  0.360427  1
