# generated using pymatgen
data_LaMg2Ni
_symmetry_space_group_name_H-M   'P 1'
_cell_length_a   5.51019788
_cell_length_b   5.51019788
_cell_length_c   8.39438450
_cell_angle_alpha   90.00000000
_cell_angle_beta   90.00000000
_cell_angle_gamma   135.32918873
_symmetry_Int_Tables_number   1
_chemical_formula_structural   LaMg2Ni
_chemical_formula_sum   'La2 Mg4 Ni2'
_cell_volume   179.18376286
_cell_formula_units_Z   2
loop_
 _symmetry_equiv_pos_site_id
 _symmetry_equiv_pos_as_xyz
  1  'x, y, z'
loop_
 _atom_site_type_symbol
 _atom_site_label
 _atom_site_symmetry_multiplicity
 _atom_site_fract_x
 _atom_site_fract_y
 _atom_site_fract_z
 _atom_site_occupancy
  La  La0  1  0.439825  0.560175  0.250000  1
  La  La1  1  0.560175  0.439825  0.750000  1
  Mg  Mg2  1  0.845468  0.154532  0.554990  1
  Mg  Mg3  1  0.154532  0.845468  0.445010  1
  Mg  Mg4  1  0.845468  0.154532  0.945010  1
  Mg  Mg5  1  0.154532  0.845468  0.054990  1
  Ni  Ni6  1  0.274228  0.725772  0.750000  1
  Ni  Ni7  1  0.725772  0.274228  0.250000  1
