# generated using pymatgen
data_Ca3Mn2O7
_symmetry_space_group_name_H-M   'P 1'
_cell_length_a   10.04668440
_cell_length_b   10.04668440
_cell_length_c   10.04668440
_cell_angle_alpha   158.27827876
_cell_angle_beta   158.27827876
_cell_angle_gamma   30.90895159
_symmetry_Int_Tables_number   1
_chemical_formula_structural   Ca3Mn2O7
_chemical_formula_sum   'Ca3 Mn2 O7'
_cell_volume   138.80643314
_cell_formula_units_Z   1
loop_
 _symmetry_equiv_pos_site_id
 _symmetry_equiv_pos_as_xyz
  1  'x, y, z'
loop_
 _atom_site_type_symbol
 _atom_site_label
 _atom_site_symmetry_multiplicity
 _atom_site_fract_x
 _atom_site_fract_y
 _atom_site_fract_z
 _atom_site_occupancy
  Ca  Ca0  1  0.500000  0.500000  0.000000  1
  Ca  Ca1  1  0.683738  0.683738  0.000000  1
  Ca  Ca2  1  0.316262  0.316262  0.000000  1
  Mn  Mn3  1  0.899887  0.899887  0.000000  1
  Mn  Mn4  1  0.100113  0.100113  0.000000  1
  O  O5  1  0.000000  0.000000  0.000000  1
  O  O6  1  0.801911  0.801911  0.000000  1
  O  O7  1  0.198089  0.198089  0.000000  1
  O  O8  1  0.902178  0.402178  0.500000  1
  O  O9  1  0.402178  0.902178  0.500000  1
  O  O10  1  0.097822  0.597822  0.500000  1
  O  O11  1  0.597822  0.097822  0.500000  1
