# generated using pymatgen
data_CaGaGeH
_symmetry_space_group_name_H-M   'P 1'
_cell_length_a   4.15290983
_cell_length_b   4.15290983
_cell_length_c   4.79882093
_cell_angle_alpha   90.00000000
_cell_angle_beta   90.00000000
_cell_angle_gamma   120.00000000
_symmetry_Int_Tables_number   1
_chemical_formula_structural   CaGaGeH
_chemical_formula_sum   'Ca1 Ga1 Ge1 H1'
_cell_volume   71.67540874
_cell_formula_units_Z   1
loop_
 _symmetry_equiv_pos_site_id
 _symmetry_equiv_pos_as_xyz
  1  'x, y, z'
loop_
 _atom_site_type_symbol
 _atom_site_label
 _atom_site_symmetry_multiplicity
 _atom_site_fract_x
 _atom_site_fract_y
 _atom_site_fract_z
 _atom_site_occupancy
  Ca  Ca0  1  0.666667  0.333333  0.000012  1
  Ga  Ga1  1  0.333333  0.666667  0.565106  1
  Ge  Ge2  1  0.000000  0.000000  0.424380  1
  H  H3  1  0.333333  0.666667  0.929301  1
