# generated using pymatgen
data_Nb3AgO8
_symmetry_space_group_name_H-M   'P 1'
_cell_length_a   7.37982578
_cell_length_b   7.37982578
_cell_length_c   7.37982578
_cell_angle_alpha   122.10175926
_cell_angle_beta   118.38024325
_cell_angle_gamma   89.61351124
_symmetry_Int_Tables_number   1
_chemical_formula_structural   Nb3AgO8
_chemical_formula_sum   'Nb6 Ag2 O16'
_cell_volume   282.78072821
_cell_formula_units_Z   2
loop_
 _symmetry_equiv_pos_site_id
 _symmetry_equiv_pos_as_xyz
  1  'x, y, z'
loop_
 _atom_site_type_symbol
 _atom_site_label
 _atom_site_symmetry_multiplicity
 _atom_site_fract_x
 _atom_site_fract_y
 _atom_site_fract_z
 _atom_site_occupancy
  Nb  Nb0  1  0.475489  0.233152  0.242337  1
  Nb  Nb1  1  0.524511  0.766848  0.757663  1
  Nb  Nb2  1  0.009185  0.266848  0.742337  1
  Nb  Nb3  1  0.990815  0.733152  0.257663  1
  Nb  Nb4  1  0.500000  0.250000  0.750000  1
  Nb  Nb5  1  0.500000  0.750000  0.250000  1
  Ag  Ag6  1  0.000000  0.250000  0.250000  1
  Ag  Ag7  1  0.000000  0.750000  0.750000  1
  O  O8  1  0.549706  0.557646  0.391568  1
  O  O9  1  0.450294  0.841861  0.007939  1
  O  O10  1  0.833922  0.942354  0.492061  1
  O  O11  1  0.166078  0.658139  0.108432  1
  O  O12  1  0.450294  0.442354  0.608432  1
  O  O13  1  0.549706  0.158139  0.992061  1
  O  O14  1  0.166078  0.057646  0.507939  1
  O  O15  1  0.833922  0.341861  0.891568  1
  O  O16  1  0.821001  0.834026  0.986975  1
  O  O17  1  0.178999  0.165974  0.013025  1
  O  O18  1  0.152949  0.665974  0.486975  1
  O  O19  1  0.847051  0.334026  0.513025  1
  O  O20  1  0.683218  0.575220  0.107999  1
  O  O21  1  0.316782  0.424780  0.892001  1
  O  O22  1  0.532779  0.924780  0.607999  1
  O  O23  1  0.467221  0.075220  0.392001  1
