# generated using pymatgen
data_VSiP2O9
_symmetry_space_group_name_H-M   'P 1'
_cell_length_a   8.95297474
_cell_length_b   8.95297474
_cell_length_c   8.33879760
_cell_angle_alpha   90.00000000
_cell_angle_beta   90.00000000
_cell_angle_gamma   90.00000000
_symmetry_Int_Tables_number   1
_chemical_formula_structural   VSiP2O9
_chemical_formula_sum   'V4 Si4 P8 O36'
_cell_volume   668.40263156
_cell_formula_units_Z   4
loop_
 _symmetry_equiv_pos_site_id
 _symmetry_equiv_pos_as_xyz
  1  'x, y, z'
loop_
 _atom_site_type_symbol
 _atom_site_label
 _atom_site_symmetry_multiplicity
 _atom_site_fract_x
 _atom_site_fract_y
 _atom_site_fract_z
 _atom_site_occupancy
  V  V0  1  0.500000  0.000000  0.840752  1
  V  V1  1  0.000000  0.500000  0.659248  1
  V  V2  1  0.000000  0.500000  0.159248  1
  V  V3  1  0.500000  0.000000  0.340752  1
  Si  Si4  1  0.500000  0.500000  0.500000  1
  Si  Si5  1  0.000000  0.000000  0.500000  1
  Si  Si6  1  0.000000  0.000000  0.000000  1
  Si  Si7  1  0.500000  0.500000  0.000000  1
  P  P8  1  0.178230  0.178230  0.750000  1
  P  P9  1  0.678230  0.321770  0.750000  1
  P  P10  1  0.321770  0.678230  0.750000  1
  P  P11  1  0.821770  0.821770  0.750000  1
  P  P12  1  0.321770  0.321770  0.250000  1
  P  P13  1  0.821770  0.178230  0.250000  1
  P  P14  1  0.178230  0.821770  0.250000  1
  P  P15  1  0.678230  0.678230  0.250000  1
  O  O16  1  0.634478  0.432939  0.890672  1
  O  O17  1  0.365522  0.567061  0.890672  1
  O  O18  1  0.067061  0.134478  0.890672  1
  O  O19  1  0.932939  0.865522  0.890672  1
  O  O20  1  0.432939  0.634478  0.609328  1
  O  O21  1  0.134478  0.067061  0.609328  1
  O  O22  1  0.865522  0.932939  0.609328  1
  O  O23  1  0.567061  0.365522  0.609328  1
  O  O24  1  0.865522  0.067061  0.109328  1
  O  O25  1  0.134478  0.932939  0.109328  1
  O  O26  1  0.432939  0.365522  0.109328  1
  O  O27  1  0.567061  0.634478  0.109328  1
  O  O28  1  0.067061  0.865522  0.390672  1
  O  O29  1  0.365522  0.432939  0.390672  1
  O  O30  1  0.634478  0.567061  0.390672  1
  O  O31  1  0.932939  0.134478  0.390672  1
  O  O32  1  0.500000  0.000000  0.537316  1
  O  O33  1  0.000000  0.500000  0.962684  1
  O  O34  1  0.000000  0.500000  0.462684  1
  O  O35  1  0.500000  0.000000  0.037316  1
  O  O36  1  0.662375  0.150253  0.297480  1
  O  O37  1  0.650253  0.837625  0.297480  1
  O  O38  1  0.349747  0.162375  0.297480  1
  O  O39  1  0.337625  0.849747  0.297480  1
  O  O40  1  0.837625  0.650253  0.202520  1
  O  O41  1  0.162375  0.349747  0.202520  1
  O  O42  1  0.150253  0.662375  0.202520  1
  O  O43  1  0.849747  0.337625  0.202520  1
  O  O44  1  0.837625  0.349747  0.702520  1
  O  O45  1  0.849747  0.662375  0.702520  1
  O  O46  1  0.150253  0.337625  0.702520  1
  O  O47  1  0.162375  0.650253  0.702520  1
  O  O48  1  0.662375  0.849747  0.797480  1
  O  O49  1  0.337625  0.150253  0.797480  1
  O  O50  1  0.349747  0.837625  0.797480  1
  O  O51  1  0.650253  0.162375  0.797480  1
