# generated using pymatgen
data_LaMnSi
_symmetry_space_group_name_H-M   'P 1'
_cell_length_a   4.01847746
_cell_length_b   4.01847746
_cell_length_c   7.70349863
_cell_angle_alpha   90.00000000
_cell_angle_beta   90.00000000
_cell_angle_gamma   90.00000000
_symmetry_Int_Tables_number   1
_chemical_formula_structural   LaMnSi
_chemical_formula_sum   'La2 Mn2 Si2'
_cell_volume   124.39733688
_cell_formula_units_Z   2
loop_
 _symmetry_equiv_pos_site_id
 _symmetry_equiv_pos_as_xyz
  1  'x, y, z'
loop_
 _atom_site_type_symbol
 _atom_site_label
 _atom_site_symmetry_multiplicity
 _atom_site_fract_x
 _atom_site_fract_y
 _atom_site_fract_z
 _atom_site_occupancy
  La  La0  1  0.000000  0.500000  0.321038  1
  La  La1  1  0.500000  0.000000  0.678962  1
  Mn  Mn2  1  0.000000  0.000000  0.000000  1
  Mn  Mn3  1  0.500000  0.500000  0.000000  1
  Si  Si4  1  0.000000  0.500000  0.824895  1
  Si  Si5  1  0.500000  0.000000  0.175105  1
