# generated using pymatgen
data_K2SiO3
_symmetry_space_group_name_H-M   'P 1'
_cell_length_a   6.33032024
_cell_length_b   13.26891838
_cell_length_c   15.95185221
_cell_angle_alpha   90.00000000
_cell_angle_beta   107.91486811
_cell_angle_gamma   90.00000000
_symmetry_Int_Tables_number   1
_chemical_formula_structural   K2SiO3
_chemical_formula_sum   'K24 Si12 O36'
_cell_volume   1274.93423548
_cell_formula_units_Z   12
loop_
 _symmetry_equiv_pos_site_id
 _symmetry_equiv_pos_as_xyz
  1  'x, y, z'
loop_
 _atom_site_type_symbol
 _atom_site_label
 _atom_site_symmetry_multiplicity
 _atom_site_fract_x
 _atom_site_fract_y
 _atom_site_fract_z
 _atom_site_occupancy
  K  K0  1  0.947990  0.665840  0.487649  1
  K  K1  1  0.497320  0.599431  0.581748  1
  K  K2  1  0.497320  0.900569  0.081748  1
  K  K3  1  0.502680  0.400569  0.418252  1
  K  K4  1  0.052010  0.334160  0.512351  1
  K  K5  1  0.947990  0.834160  0.987649  1
  K  K6  1  0.502680  0.099431  0.918252  1
  K  K7  1  0.052010  0.165840  0.012351  1
  K  K8  1  0.224552  0.417451  0.974256  1
  K  K9  1  0.775448  0.917451  0.525744  1
  K  K10  1  0.775448  0.582549  0.025744  1
  K  K11  1  0.224552  0.082549  0.474256  1
  K  K12  1  0.377530  0.182803  0.702407  1
  K  K13  1  0.622470  0.682803  0.797593  1
  K  K14  1  0.622470  0.817197  0.297593  1
  K  K15  1  0.377530  0.317197  0.202407  1
  K  K16  1  0.140342  0.487871  0.714568  1
  K  K17  1  0.859658  0.987871  0.785432  1
  K  K18  1  0.859658  0.512129  0.285432  1
  K  K19  1  0.140342  0.012129  0.214568  1
  K  K20  1  0.595162  0.369270  0.864368  1
  K  K21  1  0.404838  0.869270  0.635632  1
  K  K22  1  0.404838  0.630730  0.135632  1
  K  K23  1  0.595162  0.130730  0.364368  1
  Si  Si24  1  0.958680  0.236917  0.792695  1
  Si  Si25  1  0.041320  0.736917  0.707305  1
  Si  Si26  1  0.041320  0.763083  0.207305  1
  Si  Si27  1  0.958680  0.263083  0.292695  1
  Si  Si28  1  0.658994  0.364521  0.640256  1
  Si  Si29  1  0.341006  0.864521  0.859744  1
  Si  Si30  1  0.341006  0.635479  0.359744  1
  Si  Si31  1  0.658994  0.135479  0.140256  1
  Si  Si32  1  0.771883  0.142565  0.608716  1
  Si  Si33  1  0.228117  0.642565  0.891284  1
  Si  Si34  1  0.228117  0.857435  0.391284  1
  Si  Si35  1  0.771883  0.357435  0.108716  1
  O  O36  1  0.210964  0.258197  0.853320  1
  O  O37  1  0.789036  0.758197  0.646680  1
  O  O38  1  0.789036  0.741803  0.146680  1
  O  O39  1  0.210964  0.241803  0.353320  1
  O  O40  1  0.620271  0.249766  0.590979  1
  O  O41  1  0.379729  0.749766  0.909021  1
  O  O42  1  0.379729  0.750234  0.409021  1
  O  O43  1  0.620271  0.250234  0.090979  1
  O  O44  1  0.897637  0.128169  0.535410  1
  O  O45  1  0.102363  0.628169  0.964590  1
  O  O46  1  0.102363  0.871831  0.464590  1
  O  O47  1  0.897637  0.371831  0.035410  1
  O  O48  1  0.423218  0.397698  0.651326  1
  O  O49  1  0.576782  0.897698  0.848674  1
  O  O50  1  0.576782  0.602302  0.348674  1
  O  O51  1  0.423218  0.102302  0.151326  1
  O  O52  1  0.843179  0.344936  0.741941  1
  O  O53  1  0.768177  0.060360  0.085095  1
  O  O54  1  0.156821  0.655064  0.258059  1
  O  O55  1  0.843179  0.155064  0.241941  1
  O  O56  1  0.967027  0.161695  0.707626  1
  O  O57  1  0.032973  0.661695  0.792374  1
  O  O58  1  0.032973  0.838305  0.292374  1
  O  O59  1  0.967027  0.338305  0.207626  1
  O  O60  1  0.606465  0.052186  0.617490  1
  O  O61  1  0.393535  0.552186  0.882510  1
  O  O62  1  0.393535  0.947814  0.382510  1
  O  O63  1  0.606465  0.447814  0.117490  1
  O  O64  1  0.791165  0.187560  0.840823  1
  O  O65  1  0.208835  0.687560  0.659177  1
  O  O66  1  0.208835  0.812440  0.159177  1
  O  O67  1  0.791165  0.312440  0.340823  1
  O  O68  1  0.768177  0.439640  0.585095  1
  O  O69  1  0.231823  0.939640  0.914905  1
  O  O70  1  0.231823  0.560360  0.414905  1
  O  O71  1  0.156821  0.844936  0.758059  1
