# generated using pymatgen
data_Er3Rh
_symmetry_space_group_name_H-M   'P 1'
_cell_length_a   6.26177233
_cell_length_b   7.11763516
_cell_length_c   9.35307116
_cell_angle_alpha   90.00000000
_cell_angle_beta   90.00000000
_cell_angle_gamma   90.00000000
_symmetry_Int_Tables_number   1
_chemical_formula_structural   Er3Rh
_chemical_formula_sum   'Er12 Rh4'
_cell_volume   416.85713048
_cell_formula_units_Z   4
loop_
 _symmetry_equiv_pos_site_id
 _symmetry_equiv_pos_as_xyz
  1  'x, y, z'
loop_
 _atom_site_type_symbol
 _atom_site_label
 _atom_site_symmetry_multiplicity
 _atom_site_fract_x
 _atom_site_fract_y
 _atom_site_fract_z
 _atom_site_occupancy
  Er  Er0  1  0.672536  0.177918  0.062953  1
  Er  Er1  1  0.172536  0.322082  0.937047  1
  Er  Er2  1  0.827464  0.677918  0.437047  1
  Er  Er3  1  0.327464  0.822082  0.562953  1
  Er  Er4  1  0.327464  0.822082  0.937047  1
  Er  Er5  1  0.827464  0.677918  0.062953  1
  Er  Er6  1  0.172536  0.322082  0.562953  1
  Er  Er7  1  0.672536  0.177918  0.437047  1
  Er  Er8  1  0.865047  0.964929  0.750000  1
  Er  Er9  1  0.365047  0.535071  0.250000  1
  Er  Er10  1  0.634953  0.464929  0.750000  1
  Er  Er11  1  0.134953  0.035071  0.250000  1
  Rh  Rh12  1  0.052323  0.615936  0.750000  1
  Rh  Rh13  1  0.552323  0.884064  0.250000  1
  Rh  Rh14  1  0.447677  0.115936  0.750000  1
  Rh  Rh15  1  0.947677  0.384064  0.250000  1
