# generated using pymatgen
data_Na6MnO4
_symmetry_space_group_name_H-M   'P 1'
_cell_length_a   7.77295714
_cell_length_b   7.77295714
_cell_length_c   5.96988108
_cell_angle_alpha   90.00000000
_cell_angle_beta   90.00000000
_cell_angle_gamma   120.00000000
_symmetry_Int_Tables_number   1
_chemical_formula_structural   Na6MnO4
_chemical_formula_sum   'Na12 Mn2 O8'
_cell_volume   312.36966910
_cell_formula_units_Z   2
loop_
 _symmetry_equiv_pos_site_id
 _symmetry_equiv_pos_as_xyz
  1  'x, y, z'
loop_
 _atom_site_type_symbol
 _atom_site_label
 _atom_site_symmetry_multiplicity
 _atom_site_fract_x
 _atom_site_fract_y
 _atom_site_fract_z
 _atom_site_occupancy
  Na  Na0  1  0.539257  0.078513  0.142527  1
  Na  Na1  1  0.460743  0.539257  0.642527  1
  Na  Na2  1  0.921487  0.460743  0.142527  1
  Na  Na3  1  0.539257  0.460743  0.142527  1
  Na  Na4  1  0.139575  0.860425  0.974692  1
  Na  Na5  1  0.279151  0.139575  0.474692  1
  Na  Na6  1  0.078513  0.539257  0.642527  1
  Na  Na7  1  0.860425  0.720849  0.474692  1
  Na  Na8  1  0.860425  0.139575  0.474692  1
  Na  Na9  1  0.720849  0.860425  0.974692  1
  Na  Na10  1  0.139575  0.279151  0.974692  1
  Na  Na11  1  0.460743  0.921487  0.642527  1
  Mn  Mn12  1  0.666667  0.333333  0.746187  1
  Mn  Mn13  1  0.333333  0.666667  0.246187  1
  O  O14  1  0.187054  0.812946  0.364305  1
  O  O15  1  0.374108  0.187054  0.864305  1
  O  O16  1  0.812946  0.625892  0.864305  1
  O  O17  1  0.187054  0.374108  0.364305  1
  O  O18  1  0.625892  0.812946  0.364305  1
  O  O19  1  0.812946  0.187054  0.864305  1
  O  O20  1  0.666667  0.333333  0.403519  1
  O  O21  1  0.333333  0.666667  0.903519  1
