# generated using pymatgen
data_Yb4Si2S3O7
_symmetry_space_group_name_H-M   'P 1'
_cell_length_a   11.04273600
_cell_length_b   11.04273600
_cell_length_c   11.04273600
_cell_angle_alpha   116.28680045
_cell_angle_beta   116.28680045
_cell_angle_gamma   96.56156188
_symmetry_Int_Tables_number   1
_chemical_formula_structural   Yb4Si2S3O7
_chemical_formula_sum   'Yb16 Si8 S12 O28'
_cell_volume   998.51889400
_cell_formula_units_Z   4
loop_
 _symmetry_equiv_pos_site_id
 _symmetry_equiv_pos_as_xyz
  1  'x, y, z'
loop_
 _atom_site_type_symbol
 _atom_site_label
 _atom_site_symmetry_multiplicity
 _atom_site_fract_x
 _atom_site_fract_y
 _atom_site_fract_z
 _atom_site_occupancy
  Yb  Yb0  1  0.563864  0.810246  0.753618  1
  Yb  Yb1  1  0.056628  0.810246  0.246382  1
  Yb  Yb2  1  0.189754  0.943372  0.753618  1
  Yb  Yb3  1  0.560246  0.813864  0.253618  1
  Yb  Yb4  1  0.560246  0.306628  0.746382  1
  Yb  Yb5  1  0.693372  0.439754  0.253618  1
  Yb  Yb6  1  0.186136  0.439754  0.746382  1
  Yb  Yb7  1  0.189754  0.436136  0.246382  1
  Yb  Yb8  1  0.583202  0.416798  0.500000  1
  Yb  Yb9  1  0.166798  0.166798  0.333597  1
  Yb  Yb10  1  0.833202  0.833202  0.666403  1
  Yb  Yb11  1  0.916798  0.083202  0.500000  1
  Yb  Yb12  1  0.166798  0.833202  0.000000  1
  Yb  Yb13  1  0.583202  0.083202  0.166403  1
  Yb  Yb14  1  0.916798  0.416798  0.833597  1
  Yb  Yb15  1  0.833202  0.166798  0.000000  1
  Si  Si16  1  0.665218  0.036422  0.628795  1
  Si  Si17  1  0.407627  0.036422  0.371205  1
  Si  Si18  1  0.963578  0.592373  0.628795  1
  Si  Si19  1  0.786422  0.915218  0.128795  1
  Si  Si20  1  0.786422  0.657627  0.871205  1
  Si  Si21  1  0.342373  0.213578  0.128795  1
  Si  Si22  1  0.084782  0.213578  0.871205  1
  Si  Si23  1  0.963578  0.334782  0.371205  1
  S  S24  1  0.750000  0.250000  0.500000  1
  S  S25  1  0.000000  0.000000  0.000000  1
  S  S26  1  0.500000  0.500000  0.000000  1
  S  S27  1  0.250000  0.750000  0.500000  1
  S  S28  1  0.461515  0.625000  0.336515  1
  S  S29  1  0.375000  0.538485  0.663485  1
  S  S30  1  0.875000  0.711515  0.336515  1
  S  S31  1  0.288485  0.125000  0.663485  1
  S  S32  1  0.288485  0.625000  0.163485  1
  S  S33  1  0.375000  0.711515  0.836515  1
  S  S34  1  0.875000  0.538485  0.163485  1
  S  S35  1  0.461515  0.125000  0.836515  1
  O  O36  1  0.487137  0.987137  0.500000  1
  O  O37  1  0.737137  0.737137  0.000000  1
  O  O38  1  0.262863  0.262863  0.000000  1
  O  O39  1  0.012863  0.512863  0.500000  1
  O  O40  1  0.018074  0.282735  0.981402  1
  O  O41  1  0.301333  0.036672  0.018598  1
  O  O42  1  0.963328  0.698667  0.981402  1
  O  O43  1  0.786672  0.268074  0.235338  1
  O  O44  1  0.032735  0.551333  0.764662  1
  O  O45  1  0.448667  0.967265  0.235338  1
  O  O46  1  0.731926  0.213328  0.764662  1
  O  O47  1  0.717265  0.981926  0.018598  1
  O  O48  1  0.731926  0.967265  0.518598  1
  O  O49  1  0.448667  0.213328  0.481402  1
  O  O50  1  0.786672  0.551333  0.518598  1
  O  O51  1  0.963328  0.981926  0.264662  1
  O  O52  1  0.717265  0.698667  0.735338  1
  O  O53  1  0.301333  0.282735  0.264662  1
  O  O54  1  0.018074  0.036672  0.735338  1
  O  O55  1  0.032735  0.268074  0.481402  1
  O  O56  1  0.686676  0.957990  0.728686  1
  O  O57  1  0.229304  0.957990  0.271314  1
  O  O58  1  0.042010  0.770696  0.728686  1
  O  O59  1  0.707990  0.936676  0.228686  1
  O  O60  1  0.707990  0.479304  0.771314  1
  O  O61  1  0.520696  0.292010  0.228686  1
  O  O62  1  0.063324  0.292010  0.771314  1
  O  O63  1  0.042010  0.313324  0.271314  1
