# generated using pymatgen
data_TiCoO3
_symmetry_space_group_name_H-M   'P 1'
_cell_length_a   5.53576070
_cell_length_b   5.53576070
_cell_length_c   5.53576070
_cell_angle_alpha   54.91133922
_cell_angle_beta   54.91133922
_cell_angle_gamma   54.91133922
_symmetry_Int_Tables_number   1
_chemical_formula_structural   TiCoO3
_chemical_formula_sum   'Ti2 Co2 O6'
_cell_volume   105.74711002
_cell_formula_units_Z   2
loop_
 _symmetry_equiv_pos_site_id
 _symmetry_equiv_pos_as_xyz
  1  'x, y, z'
loop_
 _atom_site_type_symbol
 _atom_site_label
 _atom_site_symmetry_multiplicity
 _atom_site_fract_x
 _atom_site_fract_y
 _atom_site_fract_z
 _atom_site_occupancy
  Ti  Ti0  1  0.855878  0.855878  0.855878  1
  Ti  Ti1  1  0.144122  0.144122  0.144122  1
  Co  Co2  1  0.645497  0.645497  0.645497  1
  Co  Co3  1  0.354503  0.354503  0.354503  1
  O  O4  1  0.949303  0.226940  0.561968  1
  O  O5  1  0.438032  0.050696  0.773060  1
  O  O6  1  0.773060  0.438032  0.050697  1
  O  O7  1  0.561968  0.949303  0.226940  1
  O  O8  1  0.050697  0.773060  0.438032  1
  O  O9  1  0.226940  0.561968  0.949303  1
