# generated using pymatgen
data_LiBeBO3
_symmetry_space_group_name_H-M   'P 1'
_cell_length_a   4.63760207
_cell_length_b   4.70672147
_cell_length_c   6.00684581
_cell_angle_alpha   68.02753296
_cell_angle_beta   72.60413925
_cell_angle_gamma   61.15160737
_symmetry_Int_Tables_number   1
_chemical_formula_structural   LiBeBO3
_chemical_formula_sum   'Li2 Be2 B2 O6'
_cell_volume   105.36494045
_cell_formula_units_Z   2
loop_
 _symmetry_equiv_pos_site_id
 _symmetry_equiv_pos_as_xyz
  1  'x, y, z'
loop_
 _atom_site_type_symbol
 _atom_site_label
 _atom_site_symmetry_multiplicity
 _atom_site_fract_x
 _atom_site_fract_y
 _atom_site_fract_z
 _atom_site_occupancy
  Li  Li0  1  0.743578  0.132770  0.661960  1
  Li  Li1  1  0.256422  0.867230  0.338040  1
  Be  Be2  1  0.355919  0.726001  0.845878  1
  Be  Be3  1  0.644081  0.273999  0.154122  1
  B  B4  1  0.070534  0.400587  0.772218  1
  B  B5  1  0.929466  0.599413  0.227782  1
  O  O6  1  0.327776  0.097712  0.761344  1
  O  O7  1  0.672224  0.902288  0.238656  1
  O  O8  1  0.126557  0.687149  0.708795  1
  O  O9  1  0.873443  0.312851  0.291205  1
  O  O10  1  0.743055  0.421849  0.845512  1
  O  O11  1  0.256945  0.578151  0.154488  1
