# generated using pymatgen
data_GaTe4(MoSe)4
_symmetry_space_group_name_H-M   'P 1'
_cell_length_a   7.62143981
_cell_length_b   7.62143981
_cell_length_c   7.62143981
_cell_angle_alpha   60.00000000
_cell_angle_beta   60.00000000
_cell_angle_gamma   60.00000000
_symmetry_Int_Tables_number   1
_chemical_formula_structural   GaTe4(MoSe)4
_chemical_formula_sum   'Ga1 Te4 Mo4 Se4'
_cell_volume   313.03728934
_cell_formula_units_Z   1
loop_
 _symmetry_equiv_pos_site_id
 _symmetry_equiv_pos_as_xyz
  1  'x, y, z'
loop_
 _atom_site_type_symbol
 _atom_site_label
 _atom_site_symmetry_multiplicity
 _atom_site_fract_x
 _atom_site_fract_y
 _atom_site_fract_z
 _atom_site_occupancy
  Ga  Ga0  1  0.000000  0.000000  0.000000  1
  Te  Te1  1  0.861595  0.415214  0.861595  1
  Te  Te2  1  0.861595  0.861595  0.415214  1
  Te  Te3  1  0.415214  0.861595  0.861595  1
  Te  Te4  1  0.861595  0.861595  0.861595  1
  Mo  Mo5  1  0.213121  0.595626  0.595626  1
  Mo  Mo6  1  0.595626  0.213121  0.595626  1
  Mo  Mo7  1  0.595626  0.595626  0.595626  1
  Mo  Mo8  1  0.595626  0.595626  0.213121  1
  Se  Se9  1  0.892644  0.369119  0.369119  1
  Se  Se10  1  0.369119  0.892644  0.369119  1
  Se  Se11  1  0.369119  0.369119  0.369119  1
  Se  Se12  1  0.369119  0.369119  0.892644  1
