# generated using pymatgen
data_LiPrO2
_symmetry_space_group_name_H-M   'P 1'
_cell_length_a   5.85040529
_cell_length_b   6.17485101
_cell_length_c   5.86425486
_cell_angle_alpha   90.00000000
_cell_angle_beta   102.41379456
_cell_angle_gamma   90.00000000
_symmetry_Int_Tables_number   1
_chemical_formula_structural   LiPrO2
_chemical_formula_sum   'Li4 Pr4 O8'
_cell_volume   206.89554128
_cell_formula_units_Z   4
loop_
 _symmetry_equiv_pos_site_id
 _symmetry_equiv_pos_as_xyz
  1  'x, y, z'
loop_
 _atom_site_type_symbol
 _atom_site_label
 _atom_site_symmetry_multiplicity
 _atom_site_fract_x
 _atom_site_fract_y
 _atom_site_fract_z
 _atom_site_occupancy
  Li  Li0  1  0.334180  0.359817  0.313054  1
  Li  Li1  1  0.665820  0.640183  0.686946  1
  Li  Li2  1  0.334180  0.140183  0.813054  1
  Li  Li3  1  0.665820  0.859817  0.186946  1
  Pr  Pr4  1  0.201752  0.571000  0.802388  1
  Pr  Pr5  1  0.798248  0.071000  0.697612  1
  Pr  Pr6  1  0.798248  0.429000  0.197612  1
  Pr  Pr7  1  0.201752  0.929000  0.302388  1
  O  O8  1  0.911329  0.738612  0.483689  1
  O  O9  1  0.911329  0.761388  0.983689  1
  O  O10  1  0.088671  0.238612  0.016311  1
  O  O11  1  0.088671  0.261388  0.516311  1
  O  O12  1  0.427201  0.866958  0.701583  1
  O  O13  1  0.572799  0.366958  0.798417  1
  O  O14  1  0.572799  0.133042  0.298417  1
  O  O15  1  0.427201  0.633042  0.201583  1
