# generated using pymatgen
data_Na2Si3O7
_symmetry_space_group_name_H-M   'P 1'
_cell_length_a   5.12904564
_cell_length_b   5.12904564
_cell_length_c   11.70504037
_cell_angle_alpha   79.27226326
_cell_angle_beta   100.72773674
_cell_angle_gamma   122.86317873
_symmetry_Int_Tables_number   1
_chemical_formula_structural   Na2Si3O7
_chemical_formula_sum   'Na4 Si6 O14'
_cell_volume   252.77181751
_cell_formula_units_Z   2
loop_
 _symmetry_equiv_pos_site_id
 _symmetry_equiv_pos_as_xyz
  1  'x, y, z'
loop_
 _atom_site_type_symbol
 _atom_site_label
 _atom_site_symmetry_multiplicity
 _atom_site_fract_x
 _atom_site_fract_y
 _atom_site_fract_z
 _atom_site_occupancy
  Na  Na0  1  0.147328  0.439845  0.318067  1
  Na  Na1  1  0.439845  0.147328  0.181933  1
  Na  Na2  1  0.852672  0.560155  0.681933  1
  Na  Na3  1  0.560155  0.852672  0.818067  1
  Si  Si4  1  0.000000  0.500000  0.000000  1
  Si  Si5  1  0.500000  0.000000  0.500000  1
  Si  Si6  1  0.827051  0.740737  0.384818  1
  Si  Si7  1  0.740737  0.827051  0.115182  1
  Si  Si8  1  0.172949  0.259263  0.615182  1
  Si  Si9  1  0.259263  0.172949  0.884818  1
  O  O10  1  0.647704  0.647704  0.250000  1
  O  O11  1  0.352296  0.352296  0.750000  1
  O  O12  1  0.990253  0.744376  0.089130  1
  O  O13  1  0.744376  0.990253  0.410870  1
  O  O14  1  0.009747  0.255624  0.910870  1
  O  O15  1  0.255624  0.009747  0.589130  1
  O  O16  1  0.680773  0.410479  0.463400  1
  O  O17  1  0.410479  0.680773  0.036600  1
  O  O18  1  0.319227  0.589521  0.536600  1
  O  O19  1  0.589521  0.319227  0.963400  1
  O  O20  1  0.078583  0.796748  0.872727  1
  O  O21  1  0.796748  0.078583  0.627273  1
  O  O22  1  0.921417  0.203252  0.127273  1
  O  O23  1  0.203252  0.921417  0.372727  1
