# generated using pymatgen
data_CdCu2
_symmetry_space_group_name_H-M   'P 1'
_cell_length_a   5.06721175
_cell_length_b   5.06721175
_cell_length_c   8.01649527
_cell_angle_alpha   90.00000000
_cell_angle_beta   90.00000000
_cell_angle_gamma   120.00000000
_symmetry_Int_Tables_number   1
_chemical_formula_structural   CdCu2
_chemical_formula_sum   'Cd4 Cu8'
_cell_volume   178.25974420
_cell_formula_units_Z   4
loop_
 _symmetry_equiv_pos_site_id
 _symmetry_equiv_pos_as_xyz
  1  'x, y, z'
loop_
 _atom_site_type_symbol
 _atom_site_label
 _atom_site_symmetry_multiplicity
 _atom_site_fract_x
 _atom_site_fract_y
 _atom_site_fract_z
 _atom_site_occupancy
  Cd  Cd0  1  0.333333  0.666667  0.438392  1
  Cd  Cd1  1  0.666667  0.333333  0.561608  1
  Cd  Cd2  1  0.666667  0.333333  0.938392  1
  Cd  Cd3  1  0.333333  0.666667  0.061608  1
  Cu  Cu4  1  0.168993  0.337985  0.750000  1
  Cu  Cu5  1  0.168993  0.831007  0.750000  1
  Cu  Cu6  1  0.337985  0.168993  0.250000  1
  Cu  Cu7  1  0.831007  0.662015  0.250000  1
  Cu  Cu8  1  0.662015  0.831007  0.750000  1
  Cu  Cu9  1  0.000000  0.000000  0.000000  1
  Cu  Cu10  1  0.831007  0.168993  0.250000  1
  Cu  Cu11  1  0.000000  0.000000  0.500000  1
