# generated using pymatgen
data_RbCd(NO2)3
_symmetry_space_group_name_H-M   'P 1'
_cell_length_a   5.50033665
_cell_length_b   5.50033665
_cell_length_c   5.50033665
_cell_angle_alpha   90.55586737
_cell_angle_beta   90.55586737
_cell_angle_gamma   90.55586737
_symmetry_Int_Tables_number   1
_chemical_formula_structural   RbCd(NO2)3
_chemical_formula_sum   'Rb1 Cd1 N3 O6'
_cell_volume   166.38190621
_cell_formula_units_Z   1
loop_
 _symmetry_equiv_pos_site_id
 _symmetry_equiv_pos_as_xyz
  1  'x, y, z'
loop_
 _atom_site_type_symbol
 _atom_site_label
 _atom_site_symmetry_multiplicity
 _atom_site_fract_x
 _atom_site_fract_y
 _atom_site_fract_z
 _atom_site_occupancy
  Rb  Rb0  1  0.544830  0.544830  0.544830  1
  Cd  Cd1  1  0.013115  0.013115  0.013115  1
  N  N2  1  0.029167  0.467433  0.068259  1
  N  N3  1  0.068259  0.029167  0.467433  1
  N  N4  1  0.467433  0.068259  0.029167  1
  O  O5  1  0.068066  0.228487  0.580104  1
  O  O6  1  0.228487  0.580104  0.068066  1
  O  O7  1  0.596523  0.060348  0.839100  1
  O  O8  1  0.060348  0.839100  0.596523  1
  O  O9  1  0.839100  0.596523  0.060348  1
  O  O10  1  0.580104  0.068066  0.228487  1
