# generated using pymatgen
data_Er5Ga3
_symmetry_space_group_name_H-M   'P 1'
_cell_length_a   8.53098034
_cell_length_b   8.53098034
_cell_length_c   6.45560987
_cell_angle_alpha   90.00000000
_cell_angle_beta   90.00000000
_cell_angle_gamma   120.00000000
_symmetry_Int_Tables_number   1
_chemical_formula_structural   Er5Ga3
_chemical_formula_sum   'Er10 Ga6'
_cell_volume   406.87948269
_cell_formula_units_Z   2
loop_
 _symmetry_equiv_pos_site_id
 _symmetry_equiv_pos_as_xyz
  1  'x, y, z'
loop_
 _atom_site_type_symbol
 _atom_site_label
 _atom_site_symmetry_multiplicity
 _atom_site_fract_x
 _atom_site_fract_y
 _atom_site_fract_z
 _atom_site_occupancy
  Er  Er0  1  0.000000  0.756422  0.750000  1
  Er  Er1  1  0.000000  0.243578  0.250000  1
  Er  Er2  1  0.756422  0.756422  0.250000  1
  Er  Er3  1  0.756422  0.000000  0.750000  1
  Er  Er4  1  0.243578  0.243578  0.750000  1
  Er  Er5  1  0.243578  0.000000  0.250000  1
  Er  Er6  1  0.333333  0.666667  0.500000  1
  Er  Er7  1  0.666667  0.333333  0.000000  1
  Er  Er8  1  0.666667  0.333333  0.500000  1
  Er  Er9  1  0.333333  0.666667  0.000000  1
  Ga  Ga10  1  0.401101  0.000000  0.750000  1
  Ga  Ga11  1  0.401101  0.401101  0.250000  1
  Ga  Ga12  1  0.000000  0.598899  0.250000  1
  Ga  Ga13  1  0.000000  0.401101  0.750000  1
  Ga  Ga14  1  0.598899  0.598899  0.750000  1
  Ga  Ga15  1  0.598899  0.000000  0.250000  1
