# generated using pymatgen
data_Rb2Mo9S11
_symmetry_space_group_name_H-M   'P 1'
_cell_length_a   13.24924764
_cell_length_b   13.24924764
_cell_length_c   13.24924764
_cell_angle_alpha   41.99949951
_cell_angle_beta   41.99949951
_cell_angle_gamma   41.99949951
_symmetry_Int_Tables_number   1
_chemical_formula_structural   Rb2Mo9S11
_chemical_formula_sum   'Rb4 Mo18 S22'
_cell_volume   941.95243114
_cell_formula_units_Z   2
loop_
 _symmetry_equiv_pos_site_id
 _symmetry_equiv_pos_as_xyz
  1  'x, y, z'
loop_
 _atom_site_type_symbol
 _atom_site_label
 _atom_site_symmetry_multiplicity
 _atom_site_fract_x
 _atom_site_fract_y
 _atom_site_fract_z
 _atom_site_occupancy
  Rb  Rb0  1  0.051322  0.051322  0.051322  1
  Rb  Rb1  1  0.948678  0.948678  0.948678  1
  Rb  Rb2  1  0.448678  0.448678  0.448678  1
  Rb  Rb3  1  0.551322  0.551322  0.551322  1
  Mo  Mo4  1  0.470816  0.322101  0.146083  1
  Mo  Mo5  1  0.322101  0.146083  0.470816  1
  Mo  Mo6  1  0.146083  0.470816  0.322101  1
  Mo  Mo7  1  0.029184  0.353917  0.177899  1
  Mo  Mo8  1  0.353917  0.177899  0.029184  1
  Mo  Mo9  1  0.177899  0.029184  0.353917  1
  Mo  Mo10  1  0.529184  0.677899  0.853917  1
  Mo  Mo11  1  0.677899  0.853917  0.529184  1
  Mo  Mo12  1  0.853917  0.529184  0.677899  1
  Mo  Mo13  1  0.970816  0.646083  0.822101  1
  Mo  Mo14  1  0.646083  0.822101  0.970816  1
  Mo  Mo15  1  0.822101  0.970816  0.646083  1
  Mo  Mo16  1  0.083735  0.250000  0.416265  1
  Mo  Mo17  1  0.250000  0.416265  0.083735  1
  Mo  Mo18  1  0.416265  0.083735  0.250000  1
  Mo  Mo19  1  0.916265  0.750000  0.583735  1
  Mo  Mo20  1  0.750000  0.583735  0.916265  1
  Mo  Mo21  1  0.583735  0.916265  0.750000  1
  S  S22  1  0.550298  0.250000  0.949702  1
  S  S23  1  0.710609  0.382954  0.982021  1
  S  S24  1  0.949702  0.550298  0.250000  1
  S  S25  1  0.982021  0.710609  0.382954  1
  S  S26  1  0.136291  0.136291  0.136291  1
  S  S27  1  0.363709  0.363709  0.363709  1
  S  S28  1  0.863709  0.863709  0.863709  1
  S  S29  1  0.636291  0.636291  0.636291  1
  S  S30  1  0.882954  0.210609  0.482021  1
  S  S31  1  0.210609  0.482021  0.882954  1
  S  S32  1  0.482021  0.882954  0.210609  1
  S  S33  1  0.617046  0.017979  0.289391  1
  S  S34  1  0.017979  0.289391  0.617046  1
  S  S35  1  0.289391  0.617046  0.017979  1
  S  S36  1  0.117046  0.789391  0.517979  1
  S  S37  1  0.789391  0.517979  0.117046  1
  S  S38  1  0.517979  0.117046  0.789391  1
  S  S39  1  0.382954  0.982021  0.710609  1
  S  S40  1  0.750000  0.050298  0.449702  1
  S  S41  1  0.449702  0.750000  0.050298  1
  S  S42  1  0.050298  0.449702  0.750000  1
  S  S43  1  0.250000  0.949702  0.550298  1
