# generated using pymatgen
data_Tb4C5
_symmetry_space_group_name_H-M   'P 1'
_cell_length_a   3.69536168
_cell_length_b   6.62881512
_cell_length_c   12.05187977
_cell_angle_alpha   90.00000000
_cell_angle_beta   90.00000000
_cell_angle_gamma   90.00000000
_symmetry_Int_Tables_number   1
_chemical_formula_structural   Tb4C5
_chemical_formula_sum   'Tb8 C10'
_cell_volume   295.22127261
_cell_formula_units_Z   2
loop_
 _symmetry_equiv_pos_site_id
 _symmetry_equiv_pos_as_xyz
  1  'x, y, z'
loop_
 _atom_site_type_symbol
 _atom_site_label
 _atom_site_symmetry_multiplicity
 _atom_site_fract_x
 _atom_site_fract_y
 _atom_site_fract_z
 _atom_site_occupancy
  Tb  Tb0  1  0.000000  0.255728  0.542052  1
  Tb  Tb1  1  0.000000  0.744272  0.457948  1
  Tb  Tb2  1  0.000000  0.755728  0.957948  1
  Tb  Tb3  1  0.000000  0.244272  0.042052  1
  Tb  Tb4  1  0.500000  0.106026  0.803317  1
  Tb  Tb5  1  0.500000  0.893974  0.196683  1
  Tb  Tb6  1  0.500000  0.606026  0.696683  1
  Tb  Tb7  1  0.500000  0.393974  0.303317  1
  C  C8  1  0.500000  0.500000  0.500000  1
  C  C9  1  0.500000  0.000000  0.000000  1
  C  C10  1  0.000000  0.359248  0.735230  1
  C  C11  1  0.000000  0.640752  0.264770  1
  C  C12  1  0.000000  0.859248  0.764770  1
  C  C13  1  0.000000  0.140752  0.235230  1
  C  C14  1  0.000000  0.401803  0.843184  1
  C  C15  1  0.000000  0.598197  0.156816  1
  C  C16  1  0.000000  0.098197  0.343184  1
  C  C17  1  0.000000  0.901803  0.656816  1
