# generated using pymatgen
data_Th(MoO4)2
_symmetry_space_group_name_H-M   'P 1'
_cell_length_a   10.13613855
_cell_length_b   10.41036367
_cell_length_c   14.89787973
_cell_angle_alpha   90.00000000
_cell_angle_beta   90.00000000
_cell_angle_gamma   90.00000000
_symmetry_Int_Tables_number   1
_chemical_formula_structural   Th(MoO4)2
_chemical_formula_sum   'Th8 Mo16 O64'
_cell_volume   1572.03750610
_cell_formula_units_Z   8
loop_
 _symmetry_equiv_pos_site_id
 _symmetry_equiv_pos_as_xyz
  1  'x, y, z'
loop_
 _atom_site_type_symbol
 _atom_site_label
 _atom_site_symmetry_multiplicity
 _atom_site_fract_x
 _atom_site_fract_y
 _atom_site_fract_z
 _atom_site_occupancy
  Th  Th0  1  0.719059  0.031657  0.391373  1
  Th  Th1  1  0.219059  0.968343  0.108627  1
  Th  Th2  1  0.780941  0.531657  0.608627  1
  Th  Th3  1  0.280941  0.468343  0.891373  1
  Th  Th4  1  0.280941  0.968343  0.608627  1
  Th  Th5  1  0.780941  0.031657  0.891373  1
  Th  Th6  1  0.219059  0.468343  0.391373  1
  Th  Th7  1  0.719059  0.531657  0.108627  1
  Mo  Mo8  1  0.001711  0.779648  0.444531  1
  Mo  Mo9  1  0.501711  0.220352  0.055469  1
  Mo  Mo10  1  0.498289  0.279648  0.555469  1
  Mo  Mo11  1  0.998289  0.720352  0.944531  1
  Mo  Mo12  1  0.998289  0.220352  0.555469  1
  Mo  Mo13  1  0.498289  0.779648  0.944531  1
  Mo  Mo14  1  0.501711  0.720352  0.444531  1
  Mo  Mo15  1  0.001711  0.279648  0.055469  1
  Mo  Mo16  1  0.834074  0.392601  0.343630  1
  Mo  Mo17  1  0.334074  0.607399  0.156370  1
  Mo  Mo18  1  0.665926  0.892601  0.656370  1
  Mo  Mo19  1  0.165926  0.107399  0.843630  1
  Mo  Mo20  1  0.165926  0.607399  0.656370  1
  Mo  Mo21  1  0.665926  0.392601  0.843630  1
  Mo  Mo22  1  0.334074  0.107399  0.343630  1
  Mo  Mo23  1  0.834074  0.892601  0.156370  1
  O  O24  1  0.787969  0.227672  0.325771  1
  O  O25  1  0.287969  0.772328  0.174229  1
  O  O26  1  0.712031  0.727672  0.674229  1
  O  O27  1  0.212031  0.272328  0.825771  1
  O  O28  1  0.212031  0.772328  0.674229  1
  O  O29  1  0.712031  0.227672  0.825771  1
  O  O30  1  0.287969  0.272328  0.325771  1
  O  O31  1  0.787969  0.727672  0.174229  1
  O  O32  1  0.598721  0.328074  0.122672  1
  O  O33  1  0.098721  0.671926  0.377328  1
  O  O34  1  0.901279  0.828074  0.877328  1
  O  O35  1  0.401279  0.171926  0.622672  1
  O  O36  1  0.401279  0.671926  0.877328  1
  O  O37  1  0.901279  0.328074  0.622672  1
  O  O38  1  0.098721  0.171926  0.122672  1
  O  O39  1  0.598721  0.828074  0.377328  1
  O  O40  1  0.507806  0.085433  0.328019  1
  O  O41  1  0.007806  0.914567  0.171981  1
  O  O42  1  0.992194  0.585433  0.671981  1
  O  O43  1  0.492194  0.414567  0.828019  1
  O  O44  1  0.492194  0.914567  0.671981  1
  O  O45  1  0.895751  0.183032  0.987073  1
  O  O46  1  0.992194  0.085433  0.828019  1
  O  O47  1  0.507806  0.585433  0.171981  1
  O  O48  1  0.744919  0.492345  0.266432  1
  O  O49  1  0.244919  0.507655  0.233568  1
  O  O50  1  0.755081  0.992345  0.733568  1
  O  O51  1  0.255081  0.007655  0.766432  1
  O  O52  1  0.255081  0.507655  0.733568  1
  O  O53  1  0.755081  0.492345  0.766432  1
  O  O54  1  0.244919  0.007655  0.266432  1
  O  O55  1  0.744919  0.992345  0.233568  1
  O  O56  1  0.899779  0.885887  0.377957  1
  O  O57  1  0.399779  0.114113  0.122043  1
  O  O58  1  0.600221  0.385887  0.622043  1
  O  O59  1  0.100221  0.614113  0.877957  1
  O  O60  1  0.100221  0.114113  0.622043  1
  O  O61  1  0.600221  0.885887  0.877957  1
  O  O62  1  0.399779  0.614113  0.377957  1
  O  O63  1  0.899779  0.385887  0.122043  1
  O  O64  1  0.894113  0.626246  0.015626  1
  O  O65  1  0.394113  0.373754  0.484374  1
  O  O66  1  0.605887  0.126246  0.984374  1
  O  O67  1  0.105887  0.873754  0.515626  1
  O  O68  1  0.105887  0.373754  0.984374  1
  O  O69  1  0.605887  0.626246  0.515626  1
  O  O70  1  0.394113  0.873754  0.015626  1
  O  O71  1  0.894113  0.126246  0.484374  1
  O  O72  1  0.795555  0.935582  0.042593  1
  O  O73  1  0.295555  0.064418  0.457407  1
  O  O74  1  0.704445  0.435582  0.957407  1
  O  O75  1  0.204445  0.564418  0.542593  1
  O  O76  1  0.204445  0.064418  0.957407  1
  O  O77  1  0.704445  0.935582  0.542593  1
  O  O78  1  0.295555  0.564418  0.042593  1
  O  O79  1  0.795555  0.435582  0.457407  1
  O  O80  1  0.895751  0.683032  0.512927  1
  O  O81  1  0.395751  0.316968  0.987073  1
  O  O82  1  0.604249  0.183032  0.487073  1
  O  O83  1  0.104249  0.816968  0.012927  1
  O  O84  1  0.104249  0.316968  0.487073  1
  O  O85  1  0.604249  0.683032  0.012927  1
  O  O86  1  0.395751  0.816968  0.512927  1
  O  O87  1  0.007806  0.414567  0.328019  1
