# generated using pymatgen
data_UGe2
_symmetry_space_group_name_H-M   'P 1'
_cell_length_a   7.40537782
_cell_length_b   7.40537782
_cell_length_c   4.21235121
_cell_angle_alpha   90.00000000
_cell_angle_beta   90.00000000
_cell_angle_gamma   148.12691823
_symmetry_Int_Tables_number   1
_chemical_formula_structural   UGe2
_chemical_formula_sum   'U2 Ge4'
_cell_volume   121.97908220
_cell_formula_units_Z   2
loop_
 _symmetry_equiv_pos_site_id
 _symmetry_equiv_pos_as_xyz
  1  'x, y, z'
loop_
 _atom_site_type_symbol
 _atom_site_label
 _atom_site_symmetry_multiplicity
 _atom_site_fract_x
 _atom_site_fract_y
 _atom_site_fract_z
 _atom_site_occupancy
  U  U0  1  0.853029  0.146971  0.500000  1
  U  U1  1  0.146971  0.853029  0.500000  1
  Ge  Ge2  1  0.500000  0.500000  0.500000  1
  Ge  Ge3  1  0.000000  0.000000  0.000000  1
  Ge  Ge4  1  0.316072  0.683928  1.000000  1
  Ge  Ge5  1  0.683928  0.316072  1.000000  1
