# generated using pymatgen
data_Nb2Co3Si
_symmetry_space_group_name_H-M   'P 1'
_cell_length_a   4.86804110
_cell_length_b   4.86804110
_cell_length_c   7.55198198
_cell_angle_alpha   90.00000000
_cell_angle_beta   90.00000000
_cell_angle_gamma   120.00000000
_symmetry_Int_Tables_number   1
_chemical_formula_structural   Nb2Co3Si
_chemical_formula_sum   'Nb4 Co6 Si2'
_cell_volume   154.98870489
_cell_formula_units_Z   2
loop_
 _symmetry_equiv_pos_site_id
 _symmetry_equiv_pos_as_xyz
  1  'x, y, z'
loop_
 _atom_site_type_symbol
 _atom_site_label
 _atom_site_symmetry_multiplicity
 _atom_site_fract_x
 _atom_site_fract_y
 _atom_site_fract_z
 _atom_site_occupancy
  Nb  Nb0  1  0.666667  0.333333  0.939895  1
  Nb  Nb1  1  0.333333  0.666667  0.439895  1
  Nb  Nb2  1  0.666667  0.333333  0.560105  1
  Nb  Nb3  1  0.333333  0.666667  0.060105  1
  Co  Co4  1  0.169876  0.830124  0.750000  1
  Co  Co5  1  0.660248  0.830124  0.750000  1
  Co  Co6  1  0.830124  0.169876  0.250000  1
  Co  Co7  1  0.169876  0.339752  0.750000  1
  Co  Co8  1  0.830124  0.660248  0.250000  1
  Co  Co9  1  0.339752  0.169876  0.250000  1
  Si  Si10  1  0.000000  0.000000  0.500000  1
  Si  Si11  1  0.000000  0.000000  0.000000  1
