# generated using pymatgen
data_Y2(SO4)3
_symmetry_space_group_name_H-M   'P 1'
_cell_length_a   9.31809510
_cell_length_b   9.40740203
_cell_length_c   13.00896694
_cell_angle_alpha   90.00000000
_cell_angle_beta   90.00000000
_cell_angle_gamma   90.00000000
_symmetry_Int_Tables_number   1
_chemical_formula_structural   Y2(SO4)3
_chemical_formula_sum   'Y8 S12 O48'
_cell_volume   1140.35390147
_cell_formula_units_Z   4
loop_
 _symmetry_equiv_pos_site_id
 _symmetry_equiv_pos_as_xyz
  1  'x, y, z'
loop_
 _atom_site_type_symbol
 _atom_site_label
 _atom_site_symmetry_multiplicity
 _atom_site_fract_x
 _atom_site_fract_y
 _atom_site_fract_z
 _atom_site_occupancy
  Y  Y0  1  0.750521  0.463944  0.116701  1
  Y  Y1  1  0.750521  0.036056  0.883299  1
  Y  Y2  1  0.749479  0.963944  0.383299  1
  Y  Y3  1  0.749479  0.536056  0.616701  1
  Y  Y4  1  0.249479  0.536056  0.883299  1
  Y  Y5  1  0.249479  0.963944  0.116701  1
  Y  Y6  1  0.250521  0.036056  0.616701  1
  Y  Y7  1  0.250521  0.463944  0.383299  1
  S  S8  1  0.966030  0.750000  0.000000  1
  S  S9  1  0.533970  0.250000  0.500000  1
  S  S10  1  0.033970  0.250000  0.000000  1
  S  S11  1  0.466030  0.750000  0.500000  1
  S  S12  1  0.892123  0.610251  0.354424  1
  S  S13  1  0.892123  0.889749  0.645576  1
  S  S14  1  0.607877  0.110251  0.145576  1
  S  S15  1  0.607877  0.389749  0.854424  1
  S  S16  1  0.107877  0.389749  0.645576  1
  S  S17  1  0.107877  0.110251  0.354424  1
  S  S18  1  0.392123  0.889749  0.854424  1
  S  S19  1  0.392123  0.610251  0.145576  1
  O  O20  1  0.834994  0.572146  0.456951  1
  O  O21  1  0.834994  0.927854  0.543049  1
  O  O22  1  0.665006  0.072146  0.043049  1
  O  O23  1  0.665006  0.427854  0.956951  1
  O  O24  1  0.165006  0.427854  0.543049  1
  O  O25  1  0.165006  0.072146  0.456951  1
  O  O26  1  0.334994  0.927854  0.956951  1
  O  O27  1  0.334994  0.572146  0.043049  1
  O  O28  1  0.642161  0.260706  0.169181  1
  O  O29  1  0.642161  0.239294  0.830819  1
  O  O30  1  0.857839  0.760706  0.330819  1
  O  O31  1  0.857839  0.739294  0.669181  1
  O  O32  1  0.357839  0.739294  0.830819  1
  O  O33  1  0.357839  0.760706  0.169181  1
  O  O34  1  0.142161  0.239294  0.669181  1
  O  O35  1  0.142161  0.260706  0.330819  1
  O  O36  1  0.057098  0.669387  0.927004  1
  O  O37  1  0.942902  0.330613  0.072996  1
  O  O38  1  0.557098  0.830613  0.427004  1
  O  O39  1  0.557098  0.669387  0.572996  1
  O  O40  1  0.049956  0.591654  0.352961  1
  O  O41  1  0.049956  0.908346  0.647039  1
  O  O42  1  0.450044  0.091654  0.147039  1
  O  O43  1  0.450044  0.408346  0.852961  1
  O  O44  1  0.950044  0.408346  0.647039  1
  O  O45  1  0.950044  0.091654  0.352961  1
  O  O46  1  0.549956  0.908346  0.852961  1
  O  O47  1  0.549956  0.591654  0.147039  1
  O  O48  1  0.373859  0.651540  0.440933  1
  O  O49  1  0.373859  0.848460  0.559067  1
  O  O50  1  0.126141  0.151540  0.059067  1
  O  O51  1  0.126141  0.348460  0.940933  1
  O  O52  1  0.626141  0.348460  0.559067  1
  O  O53  1  0.626141  0.151540  0.440933  1
  O  O54  1  0.873859  0.848460  0.940933  1
  O  O55  1  0.873859  0.651540  0.059067  1
  O  O56  1  0.326159  0.515987  0.223750  1
  O  O57  1  0.326159  0.984013  0.776250  1
  O  O58  1  0.173841  0.015987  0.276250  1
  O  O59  1  0.173841  0.484013  0.723750  1
  O  O60  1  0.673841  0.484013  0.776250  1
  O  O61  1  0.673841  0.015987  0.223750  1
  O  O62  1  0.826159  0.984013  0.723750  1
  O  O63  1  0.826159  0.515987  0.276250  1
  O  O64  1  0.442902  0.330613  0.427004  1
  O  O65  1  0.442902  0.169387  0.572996  1
  O  O66  1  0.057098  0.830613  0.072996  1
  O  O67  1  0.942902  0.169387  0.927004  1
