# generated using pymatgen
data_Y2Si5Ni3
_symmetry_space_group_name_H-M   'P 1'
_cell_length_a   7.87461863
_cell_length_b   7.87461863
_cell_length_c   7.87461863
_cell_angle_alpha   137.88326715
_cell_angle_beta   104.99454236
_cell_angle_gamma   89.97094809
_symmetry_Int_Tables_number   1
_chemical_formula_structural   Y2Si5Ni3
_chemical_formula_sum   'Y4 Si10 Ni6'
_cell_volume   302.20223406
_cell_formula_units_Z   2
loop_
 _symmetry_equiv_pos_site_id
 _symmetry_equiv_pos_as_xyz
  1  'x, y, z'
loop_
 _atom_site_type_symbol
 _atom_site_label
 _atom_site_symmetry_multiplicity
 _atom_site_fract_x
 _atom_site_fract_y
 _atom_site_fract_z
 _atom_site_occupancy
  Y  Y0  1  0.367925  0.631083  0.736842  1
  Y  Y1  1  0.632075  0.368917  0.263158  1
  Y  Y2  1  0.105759  0.868917  0.236842  1
  Y  Y3  1  0.894241  0.131083  0.763158  1
  Si  Si4  1  0.000000  0.750000  0.750000  1
  Si  Si5  1  1.000000  0.250000  0.250000  1
  Si  Si6  1  0.733515  0.483515  0.750000  1
  Si  Si7  1  0.266485  0.016485  0.750000  1
  Si  Si8  1  0.266485  0.516485  0.250000  1
  Si  Si9  1  0.733515  0.983515  0.250000  1
  Si  Si10  1  0.240068  0.392489  0.847580  1
  Si  Si11  1  0.759932  0.607511  0.152420  1
  Si  Si12  1  0.544909  0.892489  0.652420  1
  Si  Si13  1  0.455091  0.107511  0.347580  1
  Ni  Ni14  1  0.022152  0.634160  0.387992  1
  Ni  Ni15  1  0.246168  0.134160  0.112008  1
  Ni  Ni16  1  0.500000  0.750000  0.250000  1
  Ni  Ni17  1  0.500000  0.250000  0.750000  1
  Ni  Ni18  1  0.977848  0.365840  0.612008  1
  Ni  Ni19  1  0.753832  0.865840  0.887992  1
