# generated using pymatgen
data_RbSc5Te8
_symmetry_space_group_name_H-M   'P 1'
_cell_length_a   10.98042957
_cell_length_b   10.98042957
_cell_length_c   10.35527473
_cell_angle_alpha   75.80728692
_cell_angle_beta   104.19271308
_cell_angle_gamma   158.06506756
_symmetry_Int_Tables_number   1
_chemical_formula_structural   RbSc5Te8
_chemical_formula_sum   'Rb1 Sc5 Te8'
_cell_volume   451.61469639
_cell_formula_units_Z   1
loop_
 _symmetry_equiv_pos_site_id
 _symmetry_equiv_pos_as_xyz
  1  'x, y, z'
loop_
 _atom_site_type_symbol
 _atom_site_label
 _atom_site_symmetry_multiplicity
 _atom_site_fract_x
 _atom_site_fract_y
 _atom_site_fract_z
 _atom_site_occupancy
  Rb  Rb0  1  0.000000  0.000000  0.000000  1
  Sc  Sc1  1  0.205549  0.794451  0.844058  1
  Sc  Sc2  1  0.500000  0.500000  0.500000  1
  Sc  Sc3  1  0.844196  0.155804  0.521701  1
  Sc  Sc4  1  0.155804  0.844196  0.478299  1
  Sc  Sc5  1  0.794451  0.205549  0.155942  1
  Te  Te6  1  0.924932  0.075068  0.334646  1
  Te  Te7  1  0.075068  0.924932  0.665354  1
  Te  Te8  1  0.584516  0.415484  0.316044  1
  Te  Te9  1  0.415484  0.584516  0.683956  1
  Te  Te10  1  0.664718  0.335282  0.996688  1
  Te  Te11  1  0.335282  0.664718  0.003312  1
  Te  Te12  1  0.738223  0.261777  0.658325  1
  Te  Te13  1  0.261777  0.738223  0.341675  1
