# generated using pymatgen
data_W3O8
_symmetry_space_group_name_H-M   'P 1'
_cell_length_a   6.25335351
_cell_length_b   6.25335351
_cell_length_c   3.85849352
_cell_angle_alpha   90.00000000
_cell_angle_beta   90.00000000
_cell_angle_gamma   117.36362144
_symmetry_Int_Tables_number   1
_chemical_formula_structural   W3O8
_chemical_formula_sum   'W3 O8'
_cell_volume   134.00136591
_cell_formula_units_Z   1
loop_
 _symmetry_equiv_pos_site_id
 _symmetry_equiv_pos_as_xyz
  1  'x, y, z'
loop_
 _atom_site_type_symbol
 _atom_site_label
 _atom_site_symmetry_multiplicity
 _atom_site_fract_x
 _atom_site_fract_y
 _atom_site_fract_z
 _atom_site_occupancy
  W  W0  1  0.315816  0.684184  0.500000  1
  W  W1  1  0.684184  0.315816  0.500000  1
  W  W2  1  0.000000  0.000000  0.500000  1
  O  O3  1  0.310911  0.689089  1.000000  1
  O  O4  1  0.689089  0.310911  1.000000  1
  O  O5  1  0.500000  0.500000  0.500000  1
  O  O6  1  0.000000  0.000000  0.000000  1
  O  O7  1  0.965997  0.663107  0.500000  1
  O  O8  1  0.336893  0.034003  0.500000  1
  O  O9  1  0.034003  0.336893  0.500000  1
  O  O10  1  0.663107  0.965997  0.500000  1
