# generated using pymatgen
data_Sr2VN3
_symmetry_space_group_name_H-M   'P 1'
_cell_length_a   6.24020540
_cell_length_b   6.24020540
_cell_length_c   12.36163671
_cell_angle_alpha   89.63735832
_cell_angle_beta   90.36264168
_cell_angle_gamma   54.92554365
_symmetry_Int_Tables_number   1
_chemical_formula_structural   Sr2VN3
_chemical_formula_sum   'Sr8 V4 N12'
_cell_volume   393.91420162
_cell_formula_units_Z   4
loop_
 _symmetry_equiv_pos_site_id
 _symmetry_equiv_pos_as_xyz
  1  'x, y, z'
loop_
 _atom_site_type_symbol
 _atom_site_label
 _atom_site_symmetry_multiplicity
 _atom_site_fract_x
 _atom_site_fract_y
 _atom_site_fract_z
 _atom_site_occupancy
  Sr  Sr0  1  0.555029  0.050063  0.145755  1
  Sr  Sr1  1  0.949937  0.444971  0.645755  1
  Sr  Sr2  1  0.444971  0.949937  0.854245  1
  Sr  Sr3  1  0.050063  0.555029  0.354245  1
  Sr  Sr4  1  0.645475  0.133398  0.577433  1
  Sr  Sr5  1  0.133398  0.645475  0.922567  1
  Sr  Sr6  1  0.354525  0.866602  0.422567  1
  Sr  Sr7  1  0.866602  0.354525  0.077433  1
  V  V8  1  0.741154  0.253416  0.336050  1
  V  V9  1  0.258846  0.746584  0.663950  1
  V  V10  1  0.253416  0.741154  0.163950  1
  V  V11  1  0.746584  0.258846  0.836050  1
  N  N12  1  0.673526  0.147445  0.953854  1
  N  N13  1  0.147445  0.673526  0.546146  1
  N  N14  1  0.326474  0.852555  0.046146  1
  N  N15  1  0.852555  0.326474  0.453854  1
  N  N16  1  0.979771  0.979771  0.750000  1
  N  N17  1  0.020229  0.020229  0.250000  1
  N  N18  1  0.447040  0.447040  0.750000  1
  N  N19  1  0.120780  0.557654  0.132662  1
  N  N20  1  0.442346  0.879220  0.632662  1
  N  N21  1  0.879220  0.442346  0.867338  1
  N  N22  1  0.557654  0.120780  0.367338  1
  N  N23  1  0.552960  0.552960  0.250000  1
