# generated using pymatgen
data_Lu3Al5O12
_symmetry_space_group_name_H-M   'P 1'
_cell_length_a   10.36223001
_cell_length_b   10.36223001
_cell_length_c   10.36223001
_cell_angle_alpha   109.47122063
_cell_angle_beta   109.47122063
_cell_angle_gamma   109.47122063
_symmetry_Int_Tables_number   1
_chemical_formula_structural   Lu3Al5O12
_chemical_formula_sum   'Lu12 Al20 O48'
_cell_volume   856.52056159
_cell_formula_units_Z   4
loop_
 _symmetry_equiv_pos_site_id
 _symmetry_equiv_pos_as_xyz
  1  'x, y, z'
loop_
 _atom_site_type_symbol
 _atom_site_label
 _atom_site_symmetry_multiplicity
 _atom_site_fract_x
 _atom_site_fract_y
 _atom_site_fract_z
 _atom_site_occupancy
  Lu  Lu0  1  0.250000  0.375000  0.125000  1
  Lu  Lu1  1  0.375000  0.750000  0.125000  1
  Lu  Lu2  1  0.125000  0.250000  0.375000  1
  Lu  Lu3  1  0.375000  0.125000  0.250000  1
  Lu  Lu4  1  0.125000  0.375000  0.750000  1
  Lu  Lu5  1  0.750000  0.125000  0.375000  1
  Lu  Lu6  1  0.750000  0.625000  0.875000  1
  Lu  Lu7  1  0.625000  0.250000  0.875000  1
  Lu  Lu8  1  0.875000  0.750000  0.625000  1
  Lu  Lu9  1  0.625000  0.875000  0.750000  1
  Lu  Lu10  1  0.875000  0.625000  0.250000  1
  Lu  Lu11  1  0.250000  0.875000  0.625000  1
  Al  Al12  1  0.000000  0.000000  0.000000  1
  Al  Al13  1  0.000000  0.500000  0.000000  1
  Al  Al14  1  0.000000  0.000000  0.500000  1
  Al  Al15  1  0.500000  0.000000  0.000000  1
  Al  Al16  1  1.000000  0.500000  0.500000  1
  Al  Al17  1  0.500000  0.000000  0.500000  1
  Al  Al18  1  0.500000  0.500000  0.000000  1
  Al  Al19  1  0.500000  0.500000  0.500000  1
  Al  Al20  1  0.250000  0.625000  0.375000  1
  Al  Al21  1  0.625000  0.750000  0.375000  1
  Al  Al22  1  0.875000  0.250000  0.125000  1
  Al  Al23  1  0.125000  0.875000  0.250000  1
  Al  Al24  1  0.250000  0.125000  0.875000  1
  Al  Al25  1  0.750000  0.875000  0.125000  1
  Al  Al26  1  0.375000  0.250000  0.625000  1
  Al  Al27  1  0.625000  0.375000  0.250000  1
  Al  Al28  1  0.125000  0.750000  0.875000  1
  Al  Al29  1  0.875000  0.125000  0.750000  1
  Al  Al30  1  0.750000  0.375000  0.625000  1
  Al  Al31  1  0.375000  0.625000  0.750000  1
  O  O32  1  0.797445  0.418428  0.821156  1
  O  O33  1  0.081572  0.879017  0.402729  1
  O  O34  1  0.678844  0.097271  0.976289  1
  O  O35  1  0.702555  0.523711  0.620983  1
  O  O36  1  0.702555  0.678844  0.081572  1
  O  O37  1  0.523711  0.620983  0.702555  1
  O  O38  1  0.097271  0.620983  0.418428  1
  O  O39  1  0.620983  0.702555  0.523711  1
  O  O40  1  0.402729  0.821156  0.523711  1
  O  O41  1  0.879017  0.976289  0.797445  1
  O  O42  1  0.976289  0.797445  0.879017  1
  O  O43  1  0.081572  0.702555  0.678844  1
  O  O44  1  0.620983  0.418428  0.097271  1
  O  O45  1  0.523711  0.402729  0.821156  1
  O  O46  1  0.678844  0.081572  0.702555  1
  O  O47  1  0.418428  0.097271  0.620983  1
  O  O48  1  0.821156  0.523711  0.402729  1
  O  O49  1  0.402729  0.081572  0.879017  1
  O  O50  1  0.097271  0.976289  0.678844  1
  O  O51  1  0.597271  0.178844  0.476289  1
  O  O52  1  0.976289  0.678844  0.097271  1
  O  O53  1  0.821156  0.797445  0.418428  1
  O  O54  1  0.879017  0.402729  0.081572  1
  O  O55  1  0.797445  0.879017  0.976289  1
  O  O56  1  0.202555  0.581572  0.178844  1
  O  O57  1  0.918428  0.120983  0.597271  1
  O  O58  1  0.321156  0.902729  0.023711  1
  O  O59  1  0.297445  0.476289  0.379017  1
  O  O60  1  0.297445  0.321156  0.918428  1
  O  O61  1  0.476289  0.379017  0.297445  1
  O  O62  1  0.902729  0.379017  0.581572  1
  O  O63  1  0.379017  0.297445  0.476289  1
  O  O64  1  0.202555  0.120983  0.023711  1
  O  O65  1  0.120983  0.597271  0.918428  1
  O  O66  1  0.178844  0.202555  0.581572  1
  O  O67  1  0.581572  0.178844  0.202555  1
  O  O68  1  0.023711  0.321156  0.902729  1
  O  O69  1  0.902729  0.023711  0.321156  1
  O  O70  1  0.597271  0.918428  0.120983  1
  O  O71  1  0.178844  0.476289  0.597271  1
  O  O72  1  0.581572  0.902729  0.379017  1
  O  O73  1  0.321156  0.918428  0.297445  1
  O  O74  1  0.476289  0.597271  0.178844  1
  O  O75  1  0.379017  0.581572  0.902729  1
  O  O76  1  0.918428  0.297445  0.321156  1
  O  O77  1  0.023711  0.202555  0.120983  1
  O  O78  1  0.120983  0.023711  0.202555  1
  O  O79  1  0.418428  0.821156  0.797445  1
