# generated using pymatgen
data_CrAsO4
_symmetry_space_group_name_H-M   'P 1'
_cell_length_a   4.86653298
_cell_length_b   6.42988379
_cell_length_c   9.13748281
_cell_angle_alpha   90.00000000
_cell_angle_beta   90.00000000
_cell_angle_gamma   90.00000000
_symmetry_Int_Tables_number   1
_chemical_formula_structural   CrAsO4
_chemical_formula_sum   'Cr4 As4 O16'
_cell_volume   285.92318151
_cell_formula_units_Z   4
loop_
 _symmetry_equiv_pos_site_id
 _symmetry_equiv_pos_as_xyz
  1  'x, y, z'
loop_
 _atom_site_type_symbol
 _atom_site_label
 _atom_site_symmetry_multiplicity
 _atom_site_fract_x
 _atom_site_fract_y
 _atom_site_fract_z
 _atom_site_occupancy
  Cr  Cr0  1  0.000000  0.000000  0.000000  1
  Cr  Cr1  1  0.500000  0.000000  0.500000  1
  Cr  Cr2  1  0.000000  0.500000  0.000000  1
  Cr  Cr3  1  0.500000  0.500000  0.500000  1
  As  As4  1  0.523537  0.750000  0.180082  1
  As  As5  1  0.023537  0.250000  0.319918  1
  As  As6  1  0.476463  0.250000  0.819918  1
  As  As7  1  0.976463  0.750000  0.680082  1
  O  O8  1  0.173821  0.475199  0.374292  1
  O  O9  1  0.673821  0.524801  0.125708  1
  O  O10  1  0.826179  0.975199  0.625708  1
  O  O11  1  0.326179  0.024801  0.874292  1
  O  O12  1  0.826179  0.524801  0.625708  1
  O  O13  1  0.326179  0.475199  0.874292  1
  O  O14  1  0.173821  0.024801  0.374292  1
  O  O15  1  0.673821  0.975199  0.125708  1
  O  O16  1  0.184184  0.750000  0.113706  1
  O  O17  1  0.684184  0.250000  0.386294  1
  O  O18  1  0.815816  0.250000  0.886294  1
  O  O19  1  0.315816  0.750000  0.613706  1
  O  O20  1  0.585793  0.750000  0.370913  1
  O  O21  1  0.085793  0.250000  0.129087  1
  O  O22  1  0.414207  0.250000  0.629087  1
  O  O23  1  0.914207  0.750000  0.870913  1
