# generated using pymatgen
data_Na2Be4B4O11
_symmetry_space_group_name_H-M   'P 1'
_cell_length_a   8.90609583
_cell_length_b   12.86670616
_cell_length_c   15.36536025
_cell_angle_alpha   90.03535524
_cell_angle_beta   90.01968099
_cell_angle_gamma   110.17089668
_symmetry_Int_Tables_number   1
_chemical_formula_structural   Na2Be4B4O11
_chemical_formula_sum   'Na16 Be32 B32 O88'
_cell_volume   1652.75882402
_cell_formula_units_Z   8
loop_
 _symmetry_equiv_pos_site_id
 _symmetry_equiv_pos_as_xyz
  1  'x, y, z'
loop_
 _atom_site_type_symbol
 _atom_site_label
 _atom_site_symmetry_multiplicity
 _atom_site_fract_x
 _atom_site_fract_y
 _atom_site_fract_z
 _atom_site_occupancy
  Na  Na0  1  0.758079  0.782304  0.103174  1
  Na  Na1  1  0.607509  0.270534  0.209551  1
  Na  Na2  1  0.319464  0.395023  0.711563  1
  Na  Na3  1  0.756366  0.311176  0.970738  1
  Na  Na4  1  0.775506  0.847594  0.567521  1
  Na  Na5  1  0.172096  0.900453  0.604760  1
  Na  Na6  1  0.637531  0.808430  0.346674  1
  Na  Na7  1  0.283534  0.858874  0.840473  1
  Na  Na8  1  0.805256  0.374882  0.510814  1
  Na  Na9  1  0.126493  0.304707  0.005663  1
  Na  Na10  1  0.255099  0.324821  0.245732  1
  Na  Na11  1  0.668664  0.343907  0.744008  1
  Na  Na12  1  0.168441  0.372948  0.467635  1
  Na  Na13  1  0.653332  0.846095  0.819023  1
  Na  Na14  1  0.156391  0.827655  0.069766  1
  Na  Na15  1  0.268973  0.820480  0.311496  1
  Be  Be16  1  0.496918  0.663534  0.695574  1
  Be  Be17  1  0.254097  0.159289  0.609892  1
  Be  Be18  1  0.975486  0.133854  0.867888  1
  Be  Be19  1  0.987482  0.141585  0.359390  1
  Be  Be20  1  0.491968  0.152169  0.869035  1
  Be  Be21  1  0.004495  0.660122  0.704094  1
  Be  Be22  1  0.962856  0.546273  0.368226  1
  Be  Be23  1  0.754634  0.155883  0.619943  1
  Be  Be24  1  0.751733  0.634007  0.444234  1
  Be  Be25  1  0.449704  0.531158  0.369805  1
  Be  Be26  1  0.976950  0.623410  0.196943  1
  Be  Be27  1  0.262168  0.644926  0.446253  1
  Be  Be28  1  0.738618  0.114837  0.112710  1
  Be  Be29  1  0.481044  0.619890  0.202605  1
  Be  Be30  1  0.461059  0.070304  0.700094  1
  Be  Be31  1  0.473185  0.124647  0.362632  1
  Be  Be32  1  0.238175  0.622201  0.954692  1
  Be  Be33  1  0.935441  0.022505  0.204144  1
  Be  Be34  1  0.437030  0.018323  0.194382  1
  Be  Be35  1  0.946663  0.538695  0.859103  1
  Be  Be36  1  0.230807  0.111676  0.115880  1
  Be  Be37  1  0.958149  0.055679  0.696977  1
  Be  Be38  1  0.749657  0.629868  0.952503  1
  Be  Be39  1  0.462634  0.556166  0.863130  1
  Be  Be40  1  0.178428  0.040164  0.452827  1
  Be  Be41  1  0.184357  0.033474  0.943784  1
  Be  Be42  1  0.670531  0.025946  0.945604  1
  Be  Be43  1  0.193943  0.557457  0.613632  1
  Be  Be44  1  0.178305  0.518160  0.118857  1
  Be  Be45  1  0.675826  0.513723  0.113253  1
  Be  Be46  1  0.699403  0.557374  0.616153  1
  Be  Be47  1  0.693139  0.047805  0.454494  1
  B  B48  1  0.953713  0.832860  0.914018  1
  B  B49  1  0.470805  0.818448  0.158432  1
  B  B50  1  0.486183  0.351994  0.568056  1
  B  B51  1  0.965155  0.853448  0.744865  1
  B  B52  1  0.482134  0.604810  0.531484  1
  B  B53  1  0.431479  0.322185  0.071130  1
  B  B54  1  0.988820  0.615448  0.533035  1
  B  B55  1  0.449178  0.862348  0.660100  1
  B  B56  1  0.974134  0.338989  0.824539  1
  B  B57  1  0.962139  0.825700  0.244901  1
  B  B58  1  0.950374  0.340892  0.323553  1
  B  B59  1  0.970618  0.839364  0.414789  1
  B  B60  1  0.465502  0.847573  0.490374  1
  B  B61  1  0.934857  0.321969  0.155110  1
  B  B62  1  0.472385  0.102452  0.531725  1
  B  B63  1  0.465809  0.085387  0.031769  1
  B  B64  1  0.223389  0.104523  0.782150  1
  B  B65  1  0.980358  0.116993  0.530544  1
  B  B66  1  0.454553  0.351700  0.900523  1
  B  B67  1  0.727857  0.606544  0.781839  1
  B  B68  1  0.712958  0.564098  0.281932  1
  B  B69  1  0.474577  0.328641  0.399901  1
  B  B70  1  0.717419  0.090819  0.781414  1
  B  B71  1  0.986398  0.355126  0.658463  1
  B  B72  1  0.224250  0.591666  0.781997  1
  B  B73  1  0.205493  0.064842  0.283297  1
  B  B74  1  0.456742  0.824371  0.989809  1
  B  B75  1  0.707903  0.072182  0.282619  1
  B  B76  1  0.953443  0.066258  0.031662  1
  B  B77  1  0.465878  0.580250  0.033773  1
  B  B78  1  0.962418  0.572495  0.031660  1
  B  B79  1  0.216774  0.574572  0.282922  1
  O  O80  1  0.412605  0.938798  0.709669  1
  O  O81  1  0.571483  0.627403  0.607071  1
  O  O82  1  0.072961  0.631983  0.610127  1
  O  O83  1  0.932896  0.925448  0.688195  1
  O  O84  1  0.557612  0.119561  0.609023  1
  O  O85  1  0.617936  0.915974  0.470707  1
  O  O86  1  0.938609  0.418241  0.381481  1
  O  O87  1  0.375071  0.771465  0.431484  1
  O  O88  1  0.389999  0.887777  0.182154  1
  O  O89  1  0.396331  0.399854  0.376756  1
  O  O90  1  0.831267  0.245336  0.101229  1
  O  O91  1  0.493547  0.251952  0.343965  1
  O  O92  1  0.891086  0.407390  0.846360  1
  O  O93  1  0.063293  0.915234  0.472113  1
  O  O94  1  0.507713  0.749736  0.215864  1
  O  O95  1  0.881298  0.332758  0.240010  1
  O  O96  1  0.823869  0.765417  0.437703  1
  O  O97  1  0.082694  0.429110  0.600263  1
  O  O98  1  0.030853  0.271268  0.345116  1
  O  O99  1  0.879134  0.892153  0.219591  1
  O  O100  1  0.541966  0.086051  0.110171  1
  O  O101  1  0.053680  0.790166  0.720961  1
  O  O102  1  0.076099  0.602646  0.782055  1
  O  O103  1  0.057682  0.119035  0.608866  1
  O  O104  1  0.048573  0.350772  0.742133  1
  O  O105  1  0.590669  0.428072  0.622403  1
  O  O106  1  0.585729  0.628969  0.782488  1
  O  O107  1  0.302180  0.557330  0.033383  1
  O  O108  1  0.060139  0.118007  0.453321  1
  O  O109  1  0.899196  0.841796  0.828988  1
  O  O110  1  0.547397  0.099492  0.453994  1
  O  O111  1  0.801411  0.558358  0.031010  1
  O  O112  1  0.540205  0.336241  0.484613  1
  O  O113  1  0.335742  0.289087  0.594574  1
  O  O114  1  0.433349  0.428743  0.846015  1
  O  O115  1  0.400292  0.853903  0.572309  1
  O  O116  1  0.556828  0.107009  0.956645  1
  O  O117  1  0.081821  0.388271  0.126476  1
  O  O118  1  0.070549  0.108015  0.783177  1
  O  O119  1  0.031417  0.063704  0.109044  1
  O  O120  1  0.835122  0.286746  0.636759  1
  O  O121  1  0.065589  0.088344  0.280764  1
  O  O122  1  0.043162  0.090885  0.955786  1
  O  O123  1  0.545065  0.903241  0.933096  1
  O  O124  1  0.990063  0.751369  0.188932  1
  O  O125  1  0.317771  0.243997  0.119850  1
  O  O126  1  0.585572  0.124815  0.782744  1
  O  O127  1  0.576264  0.384470  0.104933  1
  O  O128  1  0.519608  0.792025  0.693787  1
  O  O129  1  0.549398  0.586104  0.111315  1
  O  O130  1  0.076240  0.597883  0.281834  1
  O  O131  1  0.102216  0.902242  0.938538  1
  O  O132  1  0.531406  0.281741  0.874261  1
  O  O133  1  0.986151  0.260086  0.880507  1
  O  O134  1  0.047195  0.584839  0.108880  1
  O  O135  1  0.390622  0.341451  0.985584  1
  O  O136  1  0.307729  0.753597  0.967924  1
  O  O137  1  0.321241  0.590962  0.531709  1
  O  O138  1  0.780897  0.549025  0.204628  1
  O  O139  1  0.823420  0.113377  0.531080  1
  O  O140  1  0.564699  0.576824  0.283605  1
  O  O141  1  0.788152  0.076256  0.359903  1
  O  O142  1  0.041094  0.574434  0.954185  1
  O  O143  1  0.552268  0.599756  0.956992  1
  O  O144  1  0.027162  0.835863  0.329381  1
  O  O145  1  0.552298  0.072998  0.281358  1
  O  O146  1  0.791941  0.050231  0.030752  1
  O  O147  1  0.276285  0.053810  0.204898  1
  O  O148  1  0.794225  0.586252  0.858272  1
  O  O149  1  0.521397  0.816334  0.072109  1
  O  O150  1  0.302894  0.063630  0.030683  1
  O  O151  1  0.778009  0.061219  0.856739  1
  O  O152  1  0.291706  0.572480  0.361383  1
  O  O153  1  0.794814  0.571384  0.359308  1
  O  O154  1  0.277356  0.055752  0.361057  1
  O  O155  1  0.824160  0.590794  0.532089  1
  O  O156  1  0.295388  0.086879  0.858049  1
  O  O157  1  0.792055  0.086548  0.703559  1
  O  O158  1  0.555361  0.595320  0.454523  1
  O  O159  1  0.066034  0.616952  0.454616  1
  O  O160  1  0.782231  0.066378  0.204870  1
  O  O161  1  0.285359  0.554753  0.207383  1
  O  O162  1  0.306971  0.115502  0.704795  1
  O  O163  1  0.309773  0.086098  0.534139  1
  O  O164  1  0.299700  0.588324  0.859577  1
  O  O165  1  0.853724  0.757858  0.969288  1
  O  O166  1  0.301352  0.586462  0.703927  1
  O  O167  1  0.804285  0.600864  0.704345  1
