# generated using pymatgen
data_Al5Rh2
_symmetry_space_group_name_H-M   'P 1'
_cell_length_a   7.95116069
_cell_length_b   7.95116069
_cell_length_c   7.90424785
_cell_angle_alpha   90.00000000
_cell_angle_beta   90.00000000
_cell_angle_gamma   120.00000000
_symmetry_Int_Tables_number   1
_chemical_formula_structural   Al5Rh2
_chemical_formula_sum   'Al20 Rh8'
_cell_volume   432.76511173
_cell_formula_units_Z   4
loop_
 _symmetry_equiv_pos_site_id
 _symmetry_equiv_pos_as_xyz
  1  'x, y, z'
loop_
 _atom_site_type_symbol
 _atom_site_label
 _atom_site_symmetry_multiplicity
 _atom_site_fract_x
 _atom_site_fract_y
 _atom_site_fract_z
 _atom_site_occupancy
  Al  Al0  1  0.000000  0.000000  0.000000  1
  Al  Al1  1  0.000000  0.000000  0.500000  1
  Al  Al2  1  0.471191  0.942381  0.250000  1
  Al  Al3  1  0.528809  0.471191  0.750000  1
  Al  Al4  1  0.942381  0.471191  0.750000  1
  Al  Al5  1  0.057619  0.528809  0.250000  1
  Al  Al6  1  0.471191  0.528809  0.250000  1
  Al  Al7  1  0.528809  0.057619  0.750000  1
  Al  Al8  1  0.192812  0.385623  0.941997  1
  Al  Al9  1  0.807188  0.192812  0.441997  1
  Al  Al10  1  0.385623  0.192812  0.441997  1
  Al  Al11  1  0.614377  0.807188  0.941997  1
  Al  Al12  1  0.192812  0.807188  0.941997  1
  Al  Al13  1  0.807188  0.614377  0.058003  1
  Al  Al14  1  0.807188  0.192812  0.058003  1
  Al  Al15  1  0.807188  0.614377  0.441997  1
  Al  Al16  1  0.385623  0.192812  0.058003  1
  Al  Al17  1  0.614377  0.807188  0.558003  1
  Al  Al18  1  0.192812  0.385623  0.558003  1
  Al  Al19  1  0.192812  0.807188  0.558003  1
  Rh  Rh20  1  0.333333  0.666667  0.750000  1
  Rh  Rh21  1  0.666667  0.333333  0.250000  1
  Rh  Rh22  1  0.129750  0.259501  0.250000  1
  Rh  Rh23  1  0.870250  0.129750  0.750000  1
  Rh  Rh24  1  0.259501  0.129750  0.750000  1
  Rh  Rh25  1  0.740499  0.870250  0.250000  1
  Rh  Rh26  1  0.129750  0.870250  0.250000  1
  Rh  Rh27  1  0.870250  0.740499  0.750000  1
