# generated using pymatgen
data_LuMnSi
_symmetry_space_group_name_H-M   'P 1'
_cell_length_a   4.01226233
_cell_length_b   6.79223679
_cell_length_c   7.53004314
_cell_angle_alpha   90.00000000
_cell_angle_beta   90.00000000
_cell_angle_gamma   90.00000000
_symmetry_Int_Tables_number   1
_chemical_formula_structural   LuMnSi
_chemical_formula_sum   'Lu4 Mn4 Si4'
_cell_volume   205.21051130
_cell_formula_units_Z   4
loop_
 _symmetry_equiv_pos_site_id
 _symmetry_equiv_pos_as_xyz
  1  'x, y, z'
loop_
 _atom_site_type_symbol
 _atom_site_label
 _atom_site_symmetry_multiplicity
 _atom_site_fract_x
 _atom_site_fract_y
 _atom_site_fract_z
 _atom_site_occupancy
  Lu  Lu0  1  0.250000  0.514285  0.185375  1
  Lu  Lu1  1  0.750000  0.485715  0.814625  1
  Lu  Lu2  1  0.250000  0.014285  0.314625  1
  Lu  Lu3  1  0.750000  0.985715  0.685375  1
  Mn  Mn4  1  0.750000  0.859319  0.058373  1
  Mn  Mn5  1  0.250000  0.140681  0.941627  1
  Mn  Mn6  1  0.750000  0.359319  0.441627  1
  Mn  Mn7  1  0.250000  0.640681  0.558373  1
  Si  Si8  1  0.250000  0.784282  0.885511  1
  Si  Si9  1  0.750000  0.215718  0.114489  1
  Si  Si10  1  0.250000  0.284282  0.614489  1
  Si  Si11  1  0.750000  0.715718  0.385511  1
