# generated using pymatgen
data_K3BeF5
_symmetry_space_group_name_H-M   'P 1'
_cell_length_a   7.50280503
_cell_length_b   7.50280503
_cell_length_c   7.50280503
_cell_angle_alpha   122.10037743
_cell_angle_beta   122.10037743
_cell_angle_gamma   86.39897811
_symmetry_Int_Tables_number   1
_chemical_formula_structural   K3BeF5
_chemical_formula_sum   'K6 Be2 F10'
_cell_volume   288.54388972
_cell_formula_units_Z   2
loop_
 _symmetry_equiv_pos_site_id
 _symmetry_equiv_pos_as_xyz
  1  'x, y, z'
loop_
 _atom_site_type_symbol
 _atom_site_label
 _atom_site_symmetry_multiplicity
 _atom_site_fract_x
 _atom_site_fract_y
 _atom_site_fract_z
 _atom_site_occupancy
  K  K0  1  0.181678  0.681678  0.863357  1
  K  K1  1  0.318322  0.181678  0.500000  1
  K  K2  1  0.818322  0.318322  0.136643  1
  K  K3  1  0.681678  0.818322  0.500000  1
  K  K4  1  0.750000  0.750000  0.000000  1
  K  K5  1  0.250000  0.250000  0.000000  1
  Be  Be6  1  0.750000  0.250000  0.500000  1
  Be  Be7  1  0.250000  0.750000  0.500000  1
  F  F8  1  0.712125  0.458086  0.500000  1
  F  F9  1  0.041914  0.787875  0.500000  1
  F  F10  1  0.458086  0.958086  0.745961  1
  F  F11  1  0.212125  0.712125  0.254039  1
  F  F12  1  0.500000  0.500000  0.000000  1
  F  F13  1  0.000000  0.000000  0.000000  1
  F  F14  1  0.787875  0.287875  0.745961  1
  F  F15  1  0.541914  0.041914  0.254039  1
  F  F16  1  0.287875  0.541914  0.500000  1
  F  F17  1  0.958086  0.212125  0.500000  1
