# generated using pymatgen
data_GdGeRu
_symmetry_space_group_name_H-M   'P 1'
_cell_length_a   4.49420882
_cell_length_b   7.14929977
_cell_length_c   7.18654593
_cell_angle_alpha   90.00000000
_cell_angle_beta   90.00000000
_cell_angle_gamma   90.00000000
_symmetry_Int_Tables_number   1
_chemical_formula_structural   GdGeRu
_chemical_formula_sum   'Gd4 Ge4 Ru4'
_cell_volume   230.90692653
_cell_formula_units_Z   4
loop_
 _symmetry_equiv_pos_site_id
 _symmetry_equiv_pos_as_xyz
  1  'x, y, z'
loop_
 _atom_site_type_symbol
 _atom_site_label
 _atom_site_symmetry_multiplicity
 _atom_site_fract_x
 _atom_site_fract_y
 _atom_site_fract_z
 _atom_site_occupancy
  Gd  Gd0  1  0.250000  0.020423  0.690035  1
  Gd  Gd1  1  0.750000  0.979577  0.309965  1
  Gd  Gd2  1  0.250000  0.520423  0.809965  1
  Gd  Gd3  1  0.750000  0.479577  0.190035  1
  Ge  Ge4  1  0.250000  0.199425  0.106910  1
  Ge  Ge5  1  0.750000  0.800575  0.893090  1
  Ge  Ge6  1  0.250000  0.699425  0.393090  1
  Ge  Ge7  1  0.750000  0.300575  0.606910  1
  Ru  Ru8  1  0.750000  0.652568  0.564283  1
  Ru  Ru9  1  0.250000  0.347432  0.435717  1
  Ru  Ru10  1  0.750000  0.152568  0.935717  1
  Ru  Ru11  1  0.250000  0.847432  0.064283  1
