# generated using pymatgen
data_BaNa(B3O5)3
_symmetry_space_group_name_H-M   'P 1'
_cell_length_a   8.77613563
_cell_length_b   8.77613563
_cell_length_c   8.77613563
_cell_angle_alpha   80.17507737
_cell_angle_beta   80.17507737
_cell_angle_gamma   80.17507737
_symmetry_Int_Tables_number   1
_chemical_formula_structural   BaNa(B3O5)3
_chemical_formula_sum   'Ba2 Na2 B18 O30'
_cell_volume   649.25180416
_cell_formula_units_Z   2
loop_
 _symmetry_equiv_pos_site_id
 _symmetry_equiv_pos_as_xyz
  1  'x, y, z'
loop_
 _atom_site_type_symbol
 _atom_site_label
 _atom_site_symmetry_multiplicity
 _atom_site_fract_x
 _atom_site_fract_y
 _atom_site_fract_z
 _atom_site_occupancy
  Ba  Ba0  1  0.505009  0.505009  0.505009  1
  Ba  Ba1  1  0.005009  0.005009  0.005009  1
  Na  Na2  1  0.277885  0.277885  0.277885  1
  Na  Na3  1  0.777885  0.777885  0.777885  1
  B  B4  1  0.160477  0.716692  0.283120  1
  B  B5  1  0.716692  0.283120  0.160477  1
  B  B6  1  0.283120  0.160477  0.716692  1
  B  B7  1  0.783120  0.216692  0.660477  1
  B  B8  1  0.876056  0.727093  0.381547  1
  B  B9  1  0.727093  0.381547  0.876056  1
  B  B10  1  0.381547  0.876056  0.727093  1
  B  B11  1  0.881547  0.227093  0.376056  1
  B  B12  1  0.227093  0.376056  0.881547  1
  B  B13  1  0.376056  0.881547  0.227093  1
  B  B14  1  0.060133  0.706600  0.564386  1
  B  B15  1  0.706600  0.564386  0.060133  1
  B  B16  1  0.564386  0.060133  0.706600  1
  B  B17  1  0.064386  0.206600  0.560133  1
  B  B18  1  0.206600  0.560133  0.064386  1
  B  B19  1  0.560133  0.064386  0.206600  1
  B  B20  1  0.216692  0.660477  0.783120  1
  B  B21  1  0.660477  0.783120  0.216692  1
  O  O22  1  0.359410  0.730282  0.709855  1
  O  O23  1  0.209855  0.230282  0.859410  1
  O  O24  1  0.859410  0.209855  0.230282  1
  O  O25  1  0.230282  0.859410  0.209855  1
  O  O26  1  0.493325  0.761132  0.257115  1
  O  O27  1  0.709855  0.359410  0.730282  1
  O  O28  1  0.761132  0.257115  0.493325  1
  O  O29  1  0.261132  0.993325  0.757115  1
  O  O30  1  0.757115  0.261132  0.993325  1
  O  O31  1  0.993325  0.757115  0.261132  1
  O  O32  1  0.725982  0.712311  0.073896  1
  O  O33  1  0.073896  0.725982  0.712311  1
  O  O34  1  0.712311  0.073896  0.725982  1
  O  O35  1  0.212311  0.225982  0.573896  1
  O  O36  1  0.573896  0.212311  0.225982  1
  O  O37  1  0.225982  0.573896  0.212311  1
  O  O38  1  0.183462  0.681534  0.449002  1
  O  O39  1  0.681534  0.449002  0.183462  1
  O  O40  1  0.449002  0.183462  0.681534  1
  O  O41  1  0.949002  0.181534  0.683462  1
  O  O42  1  0.181534  0.683462  0.949002  1
  O  O43  1  0.683462  0.949002  0.181534  1
  O  O44  1  0.906002  0.714211  0.535281  1
  O  O45  1  0.714211  0.535281  0.906002  1
  O  O46  1  0.535281  0.906002  0.714211  1
  O  O47  1  0.035281  0.214211  0.406002  1
  O  O48  1  0.214211  0.406002  0.035281  1
  O  O49  1  0.406002  0.035281  0.214211  1
  O  O50  1  0.257115  0.493325  0.761132  1
  O  O51  1  0.730282  0.709855  0.359410  1
