# generated using pymatgen
data_SiP2O7
_symmetry_space_group_name_H-M   'P 1'
_cell_length_a   4.80548061
_cell_length_b   12.19356991
_cell_length_c   9.05371696
_cell_angle_alpha   90.00000000
_cell_angle_beta   120.92743939
_cell_angle_gamma   90.00000000
_symmetry_Int_Tables_number   1
_chemical_formula_structural   SiP2O7
_chemical_formula_sum   'Si4 P8 O28'
_cell_volume   455.08257765
_cell_formula_units_Z   4
loop_
 _symmetry_equiv_pos_site_id
 _symmetry_equiv_pos_as_xyz
  1  'x, y, z'
loop_
 _atom_site_type_symbol
 _atom_site_label
 _atom_site_symmetry_multiplicity
 _atom_site_fract_x
 _atom_site_fract_y
 _atom_site_fract_z
 _atom_site_occupancy
  Si  Si0  1  0.619538  0.352027  0.845909  1
  Si  Si1  1  0.380462  0.852027  0.654091  1
  Si  Si2  1  0.380462  0.647973  0.154091  1
  Si  Si3  1  0.619538  0.147973  0.345909  1
  P  P4  1  0.220400  0.199396  0.947845  1
  P  P5  1  0.779600  0.699396  0.552155  1
  P  P6  1  0.779600  0.800604  0.052155  1
  P  P7  1  0.220400  0.300604  0.447845  1
  P  P8  1  0.902472  0.018987  0.696700  1
  P  P9  1  0.097528  0.518987  0.803300  1
  P  P10  1  0.097528  0.981013  0.303300  1
  P  P11  1  0.902472  0.481013  0.196700  1
  O  O12  1  0.322793  0.264864  0.840621  1
  O  O13  1  0.677207  0.764864  0.659379  1
  O  O14  1  0.677207  0.735136  0.159379  1
  O  O15  1  0.322793  0.235136  0.340621  1
  O  O16  1  0.902985  0.240325  0.927860  1
  O  O17  1  0.097015  0.740325  0.572140  1
  O  O18  1  0.097015  0.759675  0.072140  1
  O  O19  1  0.902985  0.259675  0.427860  1
  O  O20  1  0.495935  0.187954  0.132899  1
  O  O21  1  0.504065  0.687954  0.367101  1
  O  O22  1  0.504065  0.812046  0.867101  1
  O  O23  1  0.495935  0.312046  0.632899  1
  O  O24  1  0.159472  0.423879  0.374084  1
  O  O25  1  0.840528  0.923879  0.125916  1
  O  O26  1  0.840528  0.576121  0.625916  1
  O  O27  1  0.159472  0.076121  0.874084  1
  O  O28  1  0.664049  0.536478  0.237135  1
  O  O29  1  0.335951  0.036478  0.262865  1
  O  O30  1  0.335951  0.463522  0.762865  1
  O  O31  1  0.664049  0.963522  0.737135  1
  O  O32  1  0.082471  0.561960  0.149821  1
  O  O33  1  0.917529  0.061960  0.350179  1
  O  O34  1  0.917529  0.438040  0.850179  1
  O  O35  1  0.082471  0.938040  0.649821  1
  O  O36  1  0.742131  0.390573  0.062108  1
  O  O37  1  0.257869  0.890573  0.437892  1
  O  O38  1  0.257869  0.609427  0.937892  1
  O  O39  1  0.742131  0.109427  0.562108  1
