# generated using pymatgen
data_K5B(SO4)4
_symmetry_space_group_name_H-M   'P 1'
_cell_length_a   10.10268090
_cell_length_b   10.10268090
_cell_length_c   16.52966340
_cell_angle_alpha   90.00000000
_cell_angle_beta   90.00000000
_cell_angle_gamma   90.00000000
_symmetry_Int_Tables_number   1
_chemical_formula_structural   K5B(SO4)4
_chemical_formula_sum   'K20 B4 S16 O64'
_cell_volume   1687.08623260
_cell_formula_units_Z   4
loop_
 _symmetry_equiv_pos_site_id
 _symmetry_equiv_pos_as_xyz
  1  'x, y, z'
loop_
 _atom_site_type_symbol
 _atom_site_label
 _atom_site_symmetry_multiplicity
 _atom_site_fract_x
 _atom_site_fract_y
 _atom_site_fract_z
 _atom_site_occupancy
  K  K0  1  0.046595  0.247426  0.004271  1
  K  K1  1  0.953405  0.752574  0.504271  1
  K  K2  1  0.247426  0.953405  0.754271  1
  K  K3  1  0.752574  0.046595  0.254271  1
  K  K4  1  0.674773  0.146721  0.832992  1
  K  K5  1  0.325227  0.853279  0.332992  1
  K  K6  1  0.146721  0.325227  0.582992  1
  K  K7  1  0.853279  0.674773  0.082992  1
  K  K8  1  0.346040  0.415573  0.799736  1
  K  K9  1  0.653960  0.584427  0.299736  1
  K  K10  1  0.415573  0.653960  0.549736  1
  K  K11  1  0.584427  0.346040  0.049736  1
  K  K12  1  0.904895  0.826982  0.854198  1
  K  K13  1  0.095105  0.173018  0.354198  1
  K  K14  1  0.826982  0.095105  0.604198  1
  K  K15  1  0.173018  0.904895  0.104198  1
  K  K16  1  0.504614  0.756438  0.898683  1
  K  K17  1  0.495386  0.243562  0.398683  1
  K  K18  1  0.756438  0.495386  0.648683  1
  K  K19  1  0.243562  0.504614  0.148683  1
  B  B20  1  0.993388  0.485278  0.830522  1
  B  B21  1  0.006612  0.514722  0.330522  1
  B  B22  1  0.485278  0.006612  0.580522  1
  B  B23  1  0.514722  0.993388  0.080522  1
  S  S24  1  0.014031  0.223627  0.790252  1
  S  S25  1  0.985969  0.776373  0.290252  1
  S  S26  1  0.223627  0.985969  0.540252  1
  S  S27  1  0.776373  0.014031  0.040252  1
  S  S28  1  0.730194  0.511015  0.865529  1
  S  S29  1  0.269806  0.488985  0.365529  1
  S  S30  1  0.511015  0.269806  0.615529  1
  S  S31  1  0.488985  0.730194  0.115529  1
  S  S32  1  0.157062  0.599685  0.946993  1
  S  S33  1  0.842938  0.400315  0.446993  1
  S  S34  1  0.599685  0.842938  0.696993  1
  S  S35  1  0.400315  0.157062  0.196993  1
  S  S36  1  0.380760  0.099846  0.945846  1
  S  S37  1  0.619240  0.900154  0.445846  1
  S  S38  1  0.099846  0.619240  0.695846  1
  S  S39  1  0.900154  0.380760  0.195846  1
  O  O40  1  0.010946  0.343954  0.853505  1
  O  O41  1  0.989054  0.656046  0.353505  1
  O  O42  1  0.343954  0.989054  0.603505  1
  O  O43  1  0.656046  0.010946  0.103505  1
  O  O44  1  0.915172  0.251269  0.727222  1
  O  O45  1  0.084828  0.748731  0.227222  1
  O  O46  1  0.251269  0.084828  0.477222  1
  O  O47  1  0.748731  0.915172  0.977222  1
  O  O48  1  0.978664  0.108815  0.840703  1
  O  O49  1  0.021336  0.891185  0.340703  1
  O  O50  1  0.108815  0.021336  0.590703  1
  O  O51  1  0.891185  0.978664  0.090703  1
  O  O52  1  0.149518  0.216890  0.758455  1
  O  O53  1  0.850482  0.783110  0.258455  1
  O  O54  1  0.216890  0.850482  0.508455  1
  O  O55  1  0.783110  0.149518  0.008455  1
  O  O56  1  0.855504  0.517146  0.805804  1
  O  O57  1  0.144496  0.482854  0.305804  1
  O  O58  1  0.517146  0.144496  0.555804  1
  O  O59  1  0.482854  0.855504  0.055804  1
  O  O60  1  0.618123  0.521679  0.809225  1
  O  O61  1  0.381877  0.478321  0.309225  1
  O  O62  1  0.521679  0.381877  0.559225  1
  O  O63  1  0.478321  0.618123  0.059225  1
  O  O64  1  0.734366  0.384819  0.909235  1
  O  O65  1  0.265634  0.615181  0.409235  1
  O  O66  1  0.384819  0.265634  0.659235  1
  O  O67  1  0.615181  0.734366  0.159235  1
  O  O68  1  0.740987  0.625713  0.920095  1
  O  O69  1  0.259013  0.374287  0.420095  1
  O  O70  1  0.625713  0.259013  0.670095  1
  O  O71  1  0.374287  0.740987  0.170095  1
  O  O72  1  0.020504  0.570040  0.901453  1
  O  O73  1  0.979496  0.429960  0.401453  1
  O  O74  1  0.570040  0.979496  0.651453  1
  O  O75  1  0.429960  0.020504  0.151453  1
  O  O76  1  0.246729  0.661811  0.888444  1
  O  O77  1  0.753271  0.338189  0.388444  1
  O  O78  1  0.661811  0.753271  0.638444  1
  O  O79  1  0.338189  0.246729  0.138444  1
  O  O80  1  0.112110  0.690510  0.011083  1
  O  O81  1  0.887890  0.309490  0.511083  1
  O  O82  1  0.690510  0.887890  0.761083  1
  O  O83  1  0.309490  0.112110  0.261083  1
  O  O84  1  0.207126  0.473032  0.977603  1
  O  O85  1  0.792874  0.526968  0.477603  1
  O  O86  1  0.473032  0.792874  0.727603  1
  O  O87  1  0.526968  0.207126  0.227603  1
  O  O88  1  0.252605  0.065349  0.981676  1
  O  O89  1  0.747395  0.934651  0.481676  1
  O  O90  1  0.065349  0.747395  0.731676  1
  O  O91  1  0.934651  0.252605  0.231676  1
  O  O92  1  0.492999  0.084829  0.012546  1
  O  O93  1  0.507001  0.915171  0.512546  1
  O  O94  1  0.084829  0.507001  0.762546  1
  O  O95  1  0.915171  0.492999  0.262546  1
  O  O96  1  0.395272  0.239357  0.923044  1
  O  O97  1  0.604728  0.760643  0.423044  1
  O  O98  1  0.239357  0.604728  0.673044  1
  O  O99  1  0.760643  0.395272  0.173044  1
  O  O100  1  0.418663  0.009815  0.879636  1
  O  O101  1  0.581337  0.990185  0.379636  1
  O  O102  1  0.009815  0.581337  0.629636  1
  O  O103  1  0.990185  0.418663  0.129636  1
