# generated using pymatgen
data_Sr(As2Rh3)2
_symmetry_space_group_name_H-M   'P 1'
_cell_length_a   7.31140942
_cell_length_b   7.31140942
_cell_length_c   3.87725887
_cell_angle_alpha   90.00000000
_cell_angle_beta   90.00000000
_cell_angle_gamma   120.00000000
_symmetry_Int_Tables_number   1
_chemical_formula_structural   Sr(As2Rh3)2
_chemical_formula_sum   'Sr1 As4 Rh6'
_cell_volume   179.49718312
_cell_formula_units_Z   1
loop_
 _symmetry_equiv_pos_site_id
 _symmetry_equiv_pos_as_xyz
  1  'x, y, z'
loop_
 _atom_site_type_symbol
 _atom_site_label
 _atom_site_symmetry_multiplicity
 _atom_site_fract_x
 _atom_site_fract_y
 _atom_site_fract_z
 _atom_site_occupancy
  Sr  Sr0  1  0.000000  0.000000  0.000000  1
  As  As1  1  0.808808  0.617617  0.500000  1
  As  As2  1  0.382383  0.191192  0.500000  1
  As  As3  1  0.333333  0.666667  0.000000  1
  As  As4  1  0.808808  0.191192  0.500000  1
  Rh  Rh5  1  0.201831  0.798169  0.500000  1
  Rh  Rh6  1  0.201831  0.403662  0.500000  1
  Rh  Rh7  1  0.534828  0.069656  0.000000  1
  Rh  Rh8  1  0.930344  0.465172  0.000000  1
  Rh  Rh9  1  0.534828  0.465172  0.000000  1
  Rh  Rh10  1  0.596338  0.798169  0.500000  1
