# generated using pymatgen
data_K2Na4Be2O5
_symmetry_space_group_name_H-M   'P 1'
_cell_length_a   5.99768518
_cell_length_b   5.99768518
_cell_length_c   10.12044113
_cell_angle_alpha   90.00000000
_cell_angle_beta   90.00000000
_cell_angle_gamma   90.00000000
_symmetry_Int_Tables_number   1
_chemical_formula_structural   K2Na4Be2O5
_chemical_formula_sum   'K4 Na8 Be4 O10'
_cell_volume   364.05481091
_cell_formula_units_Z   2
loop_
 _symmetry_equiv_pos_site_id
 _symmetry_equiv_pos_as_xyz
  1  'x, y, z'
loop_
 _atom_site_type_symbol
 _atom_site_label
 _atom_site_symmetry_multiplicity
 _atom_site_fract_x
 _atom_site_fract_y
 _atom_site_fract_z
 _atom_site_occupancy
  K  K0  1  0.319739  0.319739  0.000000  1
  K  K1  1  0.180261  0.819739  0.500000  1
  K  K2  1  0.819739  0.180261  0.500000  1
  K  K3  1  0.680261  0.680261  0.000000  1
  Na  Na4  1  0.500000  0.000000  0.750000  1
  Na  Na5  1  0.500000  0.000000  0.250000  1
  Na  Na6  1  0.000000  0.500000  0.750000  1
  Na  Na7  1  0.000000  0.500000  0.250000  1
  Na  Na8  1  0.000000  0.000000  0.225599  1
  Na  Na9  1  0.500000  0.500000  0.725599  1
  Na  Na10  1  0.500000  0.500000  0.274401  1
  Na  Na11  1  0.000000  0.000000  0.774401  1
  Be  Be12  1  0.686973  0.686973  0.500000  1
  Be  Be13  1  0.313027  0.313027  0.500000  1
  Be  Be14  1  0.813027  0.186973  0.000000  1
  Be  Be15  1  0.186973  0.813027  0.000000  1
  O  O16  1  0.226349  0.226349  0.363203  1
  O  O17  1  0.273651  0.726349  0.863203  1
  O  O18  1  0.773651  0.773651  0.636797  1
  O  O19  1  0.726349  0.273651  0.136797  1
  O  O20  1  0.273651  0.726349  0.136797  1
  O  O21  1  0.226349  0.226349  0.636797  1
  O  O22  1  0.773651  0.773651  0.363203  1
  O  O23  1  0.000000  0.000000  0.000000  1
  O  O24  1  0.726349  0.273651  0.863203  1
  O  O25  1  0.500000  0.500000  0.500000  1
