# generated using pymatgen
data_Sb2Pt3
_symmetry_space_group_name_H-M   'P 1'
_cell_length_a   6.99532994
_cell_length_b   6.99532994
_cell_length_c   6.99532994
_cell_angle_alpha   134.54183421
_cell_angle_beta   123.83404535
_cell_angle_gamma   75.03558131
_symmetry_Int_Tables_number   1
_chemical_formula_structural   Sb2Pt3
_chemical_formula_sum   'Sb4 Pt6'
_cell_volume   197.53591380
_cell_formula_units_Z   2
loop_
 _symmetry_equiv_pos_site_id
 _symmetry_equiv_pos_as_xyz
  1  'x, y, z'
loop_
 _atom_site_type_symbol
 _atom_site_label
 _atom_site_symmetry_multiplicity
 _atom_site_fract_x
 _atom_site_fract_y
 _atom_site_fract_z
 _atom_site_occupancy
  Sb  Sb0  1  0.604792  0.344738  0.260055  1
  Sb  Sb1  1  0.395208  0.655262  0.739945  1
  Sb  Sb2  1  0.915317  0.155262  0.760055  1
  Sb  Sb3  1  0.084683  0.844738  0.239945  1
  Pt  Pt4  1  0.520379  0.890865  0.629514  1
  Pt  Pt5  1  0.479621  0.109135  0.370486  1
  Pt  Pt6  1  0.261351  0.390865  0.870486  1
  Pt  Pt7  1  0.738649  0.609135  0.129514  1
  Pt  Pt8  1  0.000000  0.750000  0.750000  1
  Pt  Pt9  1  0.000000  0.250000  0.250000  1
