# generated using pymatgen
data_ZnSe2O5
_symmetry_space_group_name_H-M   'P 1'
_cell_length_a   6.18394998
_cell_length_b   6.91977231
_cell_length_c   10.61152635
_cell_angle_alpha   90.00000000
_cell_angle_beta   90.00000000
_cell_angle_gamma   90.00000000
_symmetry_Int_Tables_number   1
_chemical_formula_structural   ZnSe2O5
_chemical_formula_sum   'Zn4 Se8 O20'
_cell_volume   454.08340399
_cell_formula_units_Z   4
loop_
 _symmetry_equiv_pos_site_id
 _symmetry_equiv_pos_as_xyz
  1  'x, y, z'
loop_
 _atom_site_type_symbol
 _atom_site_label
 _atom_site_symmetry_multiplicity
 _atom_site_fract_x
 _atom_site_fract_y
 _atom_site_fract_z
 _atom_site_occupancy
  Zn  Zn0  1  0.750000  0.000000  0.938767  1
  Zn  Zn1  1  0.250000  0.500000  0.561233  1
  Zn  Zn2  1  0.250000  0.000000  0.061233  1
  Zn  Zn3  1  0.750000  0.500000  0.438767  1
  Se  Se4  1  0.034610  0.364451  0.845116  1
  Se  Se5  1  0.534610  0.135549  0.654884  1
  Se  Se6  1  0.965390  0.864451  0.654884  1
  Se  Se7  1  0.465390  0.635549  0.845116  1
  Se  Se8  1  0.965390  0.635549  0.154884  1
  Se  Se9  1  0.465390  0.864451  0.345116  1
  Se  Se10  1  0.034610  0.135549  0.345116  1
  Se  Se11  1  0.534610  0.364451  0.154884  1
  O  O12  1  0.750000  0.000000  0.567410  1
  O  O13  1  0.250000  0.500000  0.932590  1
  O  O14  1  0.250000  0.000000  0.432590  1
  O  O15  1  0.750000  0.500000  0.067410  1
  O  O16  1  0.165222  0.300861  0.710591  1
  O  O17  1  0.665222  0.199139  0.789409  1
  O  O18  1  0.834778  0.800861  0.789409  1
  O  O19  1  0.334778  0.699139  0.710591  1
  O  O20  1  0.834778  0.699139  0.289409  1
  O  O21  1  0.334778  0.800861  0.210591  1
  O  O22  1  0.165222  0.199139  0.210591  1
  O  O23  1  0.665222  0.300861  0.289409  1
  O  O24  1  0.046571  0.344973  0.433611  1
  O  O25  1  0.546571  0.155027  0.066389  1
  O  O26  1  0.953429  0.844973  0.066389  1
  O  O27  1  0.453429  0.655027  0.433611  1
  O  O28  1  0.953429  0.655027  0.566389  1
  O  O29  1  0.453429  0.844973  0.933611  1
  O  O30  1  0.046571  0.155027  0.933611  1
  O  O31  1  0.546571  0.344973  0.566389  1
