# generated using pymatgen
data_SrSi2
_symmetry_space_group_name_H-M   'P 1'
_cell_length_a   6.56394300
_cell_length_b   6.56394300
_cell_length_c   6.56394300
_cell_angle_alpha   90.00000000
_cell_angle_beta   90.00000000
_cell_angle_gamma   90.00000000
_symmetry_Int_Tables_number   1
_chemical_formula_structural   SrSi2
_chemical_formula_sum   'Sr4 Si8'
_cell_volume   282.80976649
_cell_formula_units_Z   4
loop_
 _symmetry_equiv_pos_site_id
 _symmetry_equiv_pos_as_xyz
  1  'x, y, z'
loop_
 _atom_site_type_symbol
 _atom_site_label
 _atom_site_symmetry_multiplicity
 _atom_site_fract_x
 _atom_site_fract_y
 _atom_site_fract_z
 _atom_site_occupancy
  Sr  Sr0  1  0.875000  0.125000  0.625000  1
  Sr  Sr1  1  0.125000  0.625000  0.875000  1
  Sr  Sr2  1  0.625000  0.875000  0.125000  1
  Sr  Sr3  1  0.375000  0.375000  0.375000  1
  Si  Si4  1  0.672066  0.672066  0.672066  1
  Si  Si5  1  0.922066  0.577934  0.422066  1
  Si  Si6  1  0.577934  0.422066  0.922066  1
  Si  Si7  1  0.422066  0.922066  0.577934  1
  Si  Si8  1  0.077934  0.077934  0.077934  1
  Si  Si9  1  0.327934  0.172066  0.827934  1
  Si  Si10  1  0.827934  0.327934  0.172066  1
  Si  Si11  1  0.172066  0.827934  0.327934  1
