# generated using pymatgen
data_TbZnNi
_symmetry_space_group_name_H-M   'P 1'
_cell_length_a   7.03482595
_cell_length_b   7.03482595
_cell_length_c   3.78310352
_cell_angle_alpha   90.00000000
_cell_angle_beta   90.00000000
_cell_angle_gamma   120.00000000
_symmetry_Int_Tables_number   1
_chemical_formula_structural   TbZnNi
_chemical_formula_sum   'Tb3 Zn3 Ni3'
_cell_volume   162.13828336
_cell_formula_units_Z   3
loop_
 _symmetry_equiv_pos_site_id
 _symmetry_equiv_pos_as_xyz
  1  'x, y, z'
loop_
 _atom_site_type_symbol
 _atom_site_label
 _atom_site_symmetry_multiplicity
 _atom_site_fract_x
 _atom_site_fract_y
 _atom_site_fract_z
 _atom_site_occupancy
  Tb  Tb0  1  0.000000  0.590503  0.000000  1
  Tb  Tb1  1  0.409497  0.409497  0.000000  1
  Tb  Tb2  1  0.590503  0.000000  0.000000  1
  Zn  Zn3  1  0.241946  0.000000  0.500000  1
  Zn  Zn4  1  0.758054  0.758054  0.500000  1
  Zn  Zn5  1  0.000000  0.241946  0.500000  1
  Ni  Ni6  1  0.000000  0.000000  0.000000  1
  Ni  Ni7  1  0.666667  0.333333  0.500000  1
  Ni  Ni8  1  0.333333  0.666667  0.500000  1
