# generated using pymatgen
data_LaPIr
_symmetry_space_group_name_H-M   'P 1'
_cell_length_a   7.77393044
_cell_length_b   7.77393044
_cell_length_c   7.77393044
_cell_angle_alpha   148.87848882
_cell_angle_beta   148.87848882
_cell_angle_gamma   44.59019513
_symmetry_Int_Tables_number   1
_chemical_formula_structural   LaPIr
_chemical_formula_sum   'La2 P2 Ir2'
_cell_volume   125.12651624
_cell_formula_units_Z   2
loop_
 _symmetry_equiv_pos_site_id
 _symmetry_equiv_pos_as_xyz
  1  'x, y, z'
loop_
 _atom_site_type_symbol
 _atom_site_label
 _atom_site_symmetry_multiplicity
 _atom_site_fract_x
 _atom_site_fract_y
 _atom_site_fract_z
 _atom_site_occupancy
  La  La0  1  0.754499  0.254499  0.500000  1
  La  La1  1  0.004499  0.004499  0.000000  1
  P  P2  1  0.333125  0.833125  0.500000  1
  P  P3  1  0.583125  0.583125  0.000000  1
  Ir  Ir4  1  0.165976  0.665976  0.500000  1
  Ir  Ir5  1  0.415976  0.415976  0.000000  1
