# generated using pymatgen
data_CsCa10(PO4)7
_symmetry_space_group_name_H-M   'P 1'
_cell_length_a   13.93744778
_cell_length_b   13.93744778
_cell_length_c   13.93744778
_cell_angle_alpha   45.07607848
_cell_angle_beta   45.07607848
_cell_angle_gamma   45.07607848
_symmetry_Int_Tables_number   1
_chemical_formula_structural   CsCa10(PO4)7
_chemical_formula_sum   'Cs2 Ca20 P14 O56'
_cell_volume   1235.57390127
_cell_formula_units_Z   2
loop_
 _symmetry_equiv_pos_site_id
 _symmetry_equiv_pos_as_xyz
  1  'x, y, z'
loop_
 _atom_site_type_symbol
 _atom_site_label
 _atom_site_symmetry_multiplicity
 _atom_site_fract_x
 _atom_site_fract_y
 _atom_site_fract_z
 _atom_site_occupancy
  Cs  Cs0  1  0.333710  0.333710  0.333710  1
  Cs  Cs1  1  0.833710  0.833710  0.833710  1
  Ca  Ca2  1  0.013207  0.013207  0.013207  1
  Ca  Ca3  1  0.513207  0.513207  0.513207  1
  Ca  Ca4  1  0.950855  0.939096  0.355379  1
  Ca  Ca5  1  0.939096  0.355379  0.950855  1
  Ca  Ca6  1  0.355379  0.950855  0.939096  1
  Ca  Ca7  1  0.439096  0.450855  0.855379  1
  Ca  Ca8  1  0.450855  0.855379  0.439096  1
  Ca  Ca9  1  0.855379  0.439096  0.450855  1
  Ca  Ca10  1  0.169908  0.598954  0.568106  1
  Ca  Ca11  1  0.598954  0.568106  0.169908  1
  Ca  Ca12  1  0.568106  0.169908  0.598954  1
  Ca  Ca13  1  0.098954  0.669908  0.068106  1
  Ca  Ca14  1  0.669908  0.068106  0.098954  1
  Ca  Ca15  1  0.068106  0.098954  0.669908  1
  Ca  Ca16  1  0.945388  0.546839  0.569378  1
  Ca  Ca17  1  0.546839  0.569378  0.945388  1
  Ca  Ca18  1  0.569378  0.945388  0.546839  1
  Ca  Ca19  1  0.046839  0.445388  0.069378  1
  Ca  Ca20  1  0.445388  0.069378  0.046839  1
  Ca  Ca21  1  0.069378  0.046839  0.445388  1
  P  P22  1  0.744190  0.744190  0.744190  1
  P  P23  1  0.244190  0.244190  0.244190  1
  P  P24  1  0.326887  0.826531  0.288687  1
  P  P25  1  0.826531  0.288687  0.326887  1
  P  P26  1  0.288687  0.326887  0.826531  1
  P  P27  1  0.326531  0.826887  0.788687  1
  P  P28  1  0.826887  0.788687  0.326531  1
  P  P29  1  0.788687  0.326531  0.826887  1
  P  P30  1  0.235577  0.701490  0.199323  1
  P  P31  1  0.701490  0.199323  0.235577  1
  P  P32  1  0.199323  0.235577  0.701490  1
  P  P33  1  0.201490  0.735577  0.699323  1
  P  P34  1  0.735577  0.699323  0.201490  1
  P  P35  1  0.699323  0.201490  0.735577  1
  O  O36  1  0.702485  0.702485  0.702485  1
  O  O37  1  0.202485  0.202485  0.202485  1
  O  O38  1  0.902411  0.743341  0.625482  1
  O  O39  1  0.743341  0.625482  0.902411  1
  O  O40  1  0.625482  0.902411  0.743341  1
  O  O41  1  0.243341  0.402411  0.125482  1
  O  O42  1  0.402411  0.125482  0.243341  1
  O  O43  1  0.125482  0.243341  0.402411  1
  O  O44  1  0.391876  0.652722  0.366283  1
  O  O45  1  0.652722  0.366283  0.391876  1
  O  O46  1  0.366283  0.391876  0.652722  1
  O  O47  1  0.152722  0.891876  0.866283  1
  O  O48  1  0.891876  0.866283  0.152722  1
  O  O49  1  0.866283  0.152722  0.891876  1
  O  O50  1  0.412599  0.874780  0.117256  1
  O  O51  1  0.874780  0.117256  0.412599  1
  O  O52  1  0.117256  0.412599  0.874780  1
  O  O53  1  0.374780  0.912599  0.617256  1
  O  O54  1  0.912599  0.617256  0.374780  1
  O  O55  1  0.617256  0.374780  0.912599  1
  O  O56  1  0.349200  0.890503  0.325430  1
  O  O57  1  0.890503  0.325430  0.349200  1
  O  O58  1  0.325430  0.349200  0.890503  1
  O  O59  1  0.390503  0.849200  0.825430  1
  O  O60  1  0.849200  0.825430  0.390503  1
  O  O61  1  0.825430  0.390503  0.849200  1
  O  O62  1  0.157081  0.886760  0.347965  1
  O  O63  1  0.886760  0.347965  0.157081  1
  O  O64  1  0.347965  0.157081  0.886760  1
  O  O65  1  0.386760  0.657081  0.847965  1
  O  O66  1  0.657081  0.847965  0.386760  1
  O  O67  1  0.847965  0.386760  0.657081  1
  O  O68  1  0.403698  0.667902  0.121337  1
  O  O69  1  0.667902  0.121337  0.403698  1
  O  O70  1  0.121337  0.403698  0.667902  1
  O  O71  1  0.167902  0.903698  0.621337  1
  O  O72  1  0.903698  0.621337  0.167902  1
  O  O73  1  0.621337  0.167902  0.903698  1
  O  O74  1  0.149684  0.875307  0.143181  1
  O  O75  1  0.875307  0.143181  0.149684  1
  O  O76  1  0.143181  0.149684  0.875307  1
  O  O77  1  0.375307  0.649684  0.643181  1
  O  O78  1  0.649684  0.643181  0.375307  1
  O  O79  1  0.643181  0.375307  0.649684  1
  O  O80  1  0.169914  0.631615  0.371680  1
  O  O81  1  0.631615  0.371680  0.169914  1
  O  O82  1  0.371680  0.169914  0.631615  1
  O  O83  1  0.131615  0.669914  0.871680  1
  O  O84  1  0.669914  0.871680  0.131615  1
  O  O85  1  0.871680  0.131615  0.669914  1
  O  O86  1  0.223903  0.645130  0.145832  1
  O  O87  1  0.645130  0.145832  0.223903  1
  O  O88  1  0.145832  0.223903  0.645130  1
  O  O89  1  0.145130  0.723903  0.645832  1
  O  O90  1  0.723903  0.645832  0.145130  1
  O  O91  1  0.645832  0.145130  0.723903  1
