# generated using pymatgen
data_CaGaAu
_symmetry_space_group_name_H-M   'P 1'
_cell_length_a   4.60283901
_cell_length_b   7.34507932
_cell_length_c   7.78470382
_cell_angle_alpha   90.00000000
_cell_angle_beta   90.00000000
_cell_angle_gamma   90.00000000
_symmetry_Int_Tables_number   1
_chemical_formula_structural   CaGaAu
_chemical_formula_sum   'Ca4 Ga4 Au4'
_cell_volume   263.18696090
_cell_formula_units_Z   4
loop_
 _symmetry_equiv_pos_site_id
 _symmetry_equiv_pos_as_xyz
  1  'x, y, z'
loop_
 _atom_site_type_symbol
 _atom_site_label
 _atom_site_symmetry_multiplicity
 _atom_site_fract_x
 _atom_site_fract_y
 _atom_site_fract_z
 _atom_site_occupancy
  Ca  Ca0  1  0.750000  0.494076  0.799507  1
  Ca  Ca1  1  0.250000  0.005924  0.299507  1
  Ca  Ca2  1  0.750000  0.994076  0.700493  1
  Ca  Ca3  1  0.250000  0.505924  0.200493  1
  Ga  Ga4  1  0.250000  0.180398  0.920544  1
  Ga  Ga5  1  0.750000  0.319602  0.420544  1
  Ga  Ga6  1  0.250000  0.680398  0.579456  1
  Ga  Ga7  1  0.750000  0.819602  0.079456  1
  Au  Au8  1  0.250000  0.793115  0.906588  1
  Au  Au9  1  0.750000  0.206885  0.093412  1
  Au  Au10  1  0.250000  0.293115  0.593412  1
  Au  Au11  1  0.750000  0.706885  0.406588  1
