# generated using pymatgen
data_TmP5O14
_symmetry_space_group_name_H-M   'P 1'
_cell_length_a   9.16163169
_cell_length_b   9.16163169
_cell_length_c   12.51415343
_cell_angle_alpha   88.92632689
_cell_angle_beta   91.07367311
_cell_angle_gamma   90.41672856
_symmetry_Int_Tables_number   1
_chemical_formula_structural   TmP5O14
_chemical_formula_sum   'Tm4 P20 O56'
_cell_volume   1049.98768742
_cell_formula_units_Z   4
loop_
 _symmetry_equiv_pos_site_id
 _symmetry_equiv_pos_as_xyz
  1  'x, y, z'
loop_
 _atom_site_type_symbol
 _atom_site_label
 _atom_site_symmetry_multiplicity
 _atom_site_fract_x
 _atom_site_fract_y
 _atom_site_fract_z
 _atom_site_occupancy
  Tm  Tm0  1  0.019771  0.019771  0.250000  1
  Tm  Tm1  1  0.980229  0.980229  0.750000  1
  Tm  Tm2  1  0.466326  0.466326  0.250000  1
  Tm  Tm3  1  0.533674  0.533674  0.750000  1
  P  P4  1  0.885239  0.175312  0.499177  1
  P  P5  1  0.175312  0.885239  0.000823  1
  P  P6  1  0.114761  0.824688  0.500823  1
  P  P7  1  0.824688  0.114761  0.999177  1
  P  P8  1  0.816615  0.449988  0.390103  1
  P  P9  1  0.449988  0.816615  0.109897  1
  P  P10  1  0.183385  0.550012  0.609897  1
  P  P11  1  0.550012  0.183385  0.890103  1
  P  P12  1  0.671405  0.625256  0.034467  1
  P  P13  1  0.625256  0.671405  0.465533  1
  P  P14  1  0.328595  0.374744  0.965533  1
  P  P15  1  0.374744  0.328595  0.534467  1
  P  P16  1  0.021721  0.318120  0.893080  1
  P  P17  1  0.318120  0.021721  0.606920  1
  P  P18  1  0.978279  0.681880  0.106920  1
  P  P19  1  0.681880  0.978279  0.393080  1
  P  P20  1  0.071844  0.422038  0.241629  1
  P  P21  1  0.422038  0.071844  0.258371  1
  P  P22  1  0.928156  0.577962  0.758371  1
  P  P23  1  0.577962  0.928156  0.741629  1
  O  O24  1  0.648944  0.533715  0.132897  1
  O  O25  1  0.533715  0.648944  0.367103  1
  O  O26  1  0.351056  0.466285  0.867103  1
  O  O27  1  0.466285  0.351056  0.632897  1
  O  O28  1  0.627649  0.577194  0.926167  1
  O  O29  1  0.577194  0.627649  0.573833  1
  O  O30  1  0.372351  0.422806  0.073833  1
  O  O31  1  0.422806  0.372351  0.426167  1
  O  O32  1  0.984843  0.140601  0.410290  1
  O  O33  1  0.140601  0.984843  0.089710  1
  O  O34  1  0.015157  0.859399  0.589710  1
  O  O35  1  0.859399  0.015157  0.910290  1
  O  O36  1  0.923652  0.145122  0.612649  1
  O  O37  1  0.145122  0.923652  0.887351  1
  O  O38  1  0.076348  0.854878  0.387351  1
  O  O39  1  0.854878  0.076348  0.112649  1
  O  O40  1  0.846648  0.348643  0.492203  1
  O  O41  1  0.348643  0.846648  0.007797  1
  O  O42  1  0.153352  0.651357  0.507797  1
  O  O43  1  0.788207  0.601928  0.443742  1
  O  O44  1  0.651357  0.153352  0.992203  1
  O  O45  1  0.394624  0.699614  0.181244  1
  O  O46  1  0.300386  0.605376  0.681244  1
  O  O47  1  0.605376  0.300386  0.818756  1
  O  O48  1  0.732749  0.958856  0.716159  1
  O  O49  1  0.958856  0.732749  0.783841  1
  O  O50  1  0.267251  0.041144  0.283841  1
  O  O51  1  0.041144  0.267251  0.216159  1
  O  O52  1  0.474282  0.221531  0.230915  1
  O  O53  1  0.221531  0.474282  0.269085  1
  O  O54  1  0.525718  0.778469  0.769085  1
  O  O55  1  0.778469  0.525718  0.730915  1
  O  O56  1  0.521475  0.030198  0.838185  1
  O  O57  1  0.030198  0.521475  0.661815  1
  O  O58  1  0.478525  0.969802  0.161815  1
  O  O59  1  0.969802  0.478525  0.338185  1
  O  O60  1  0.517062  0.004830  0.360351  1
  O  O61  1  0.004830  0.517062  0.139649  1
  O  O62  1  0.482938  0.995170  0.639649  1
  O  O63  1  0.995170  0.482938  0.860351  1
  O  O64  1  0.721407  0.106351  0.471885  1
  O  O65  1  0.106351  0.721407  0.028115  1
  O  O66  1  0.278593  0.893649  0.528115  1
  O  O67  1  0.893649  0.278593  0.971885  1
  O  O68  1  0.782155  0.962710  0.303344  1
  O  O69  1  0.962710  0.782155  0.196656  1
  O  O70  1  0.217845  0.037290  0.696656  1
  O  O71  1  0.037290  0.217845  0.803344  1
  O  O72  1  0.326272  0.157651  0.527434  1
  O  O73  1  0.157651  0.326272  0.972566  1
  O  O74  1  0.673728  0.842349  0.472566  1
  O  O75  1  0.842350  0.673728  0.027434  1
  O  O76  1  0.398072  0.211793  0.943742  1
  O  O77  1  0.211793  0.398072  0.556258  1
  O  O78  1  0.601928  0.788207  0.056258  1
  O  O79  1  0.699614  0.394624  0.318756  1
