# generated using pymatgen
data_AgPO3
_symmetry_space_group_name_H-M   'P 1'
_cell_length_a   7.50292461
_cell_length_b   6.05356100
_cell_length_c   14.20412215
_cell_angle_alpha   90.00000000
_cell_angle_beta   119.15750416
_cell_angle_gamma   90.00000000
_symmetry_Int_Tables_number   1
_chemical_formula_structural   AgPO3
_chemical_formula_sum   'Ag8 P8 O24'
_cell_volume   563.39274149
_cell_formula_units_Z   8
loop_
 _symmetry_equiv_pos_site_id
 _symmetry_equiv_pos_as_xyz
  1  'x, y, z'
loop_
 _atom_site_type_symbol
 _atom_site_label
 _atom_site_symmetry_multiplicity
 _atom_site_fract_x
 _atom_site_fract_y
 _atom_site_fract_z
 _atom_site_occupancy
  Ag  Ag0  1  0.265254  0.411267  0.533501  1
  Ag  Ag1  1  0.734746  0.911267  0.966499  1
  Ag  Ag2  1  0.734746  0.588733  0.466499  1
  Ag  Ag3  1  0.265254  0.088733  0.033501  1
  Ag  Ag4  1  0.500917  0.839605  0.624340  1
  Ag  Ag5  1  0.499083  0.339605  0.875660  1
  Ag  Ag6  1  0.499083  0.160395  0.375660  1
  Ag  Ag7  1  0.500917  0.660395  0.124340  1
  P  P8  1  0.932659  0.113810  0.611278  1
  P  P9  1  0.067341  0.613810  0.888722  1
  P  P10  1  0.067341  0.886190  0.388722  1
  P  P11  1  0.932659  0.386190  0.111278  1
  P  P12  1  0.741045  0.319952  0.724753  1
  P  P13  1  0.258955  0.819952  0.775247  1
  P  P14  1  0.258955  0.680048  0.275247  1
  P  P15  1  0.741045  0.180048  0.224753  1
  O  O16  1  0.745377  0.973209  0.545569  1
  O  O17  1  0.254623  0.473209  0.954431  1
  O  O18  1  0.254623  0.026791  0.454431  1
  O  O19  1  0.745377  0.526791  0.045569  1
  O  O20  1  0.978479  0.300404  0.556697  1
  O  O21  1  0.021521  0.800404  0.943303  1
  O  O22  1  0.021521  0.699596  0.443303  1
  O  O23  1  0.978479  0.199596  0.056697  1
  O  O24  1  0.135126  0.962678  0.666683  1
  O  O25  1  0.864874  0.462678  0.833317  1
  O  O26  1  0.864874  0.037322  0.333317  1
  O  O27  1  0.135126  0.537322  0.166683  1
  O  O28  1  0.630085  0.469516  0.627617  1
  O  O29  1  0.369915  0.969516  0.872383  1
  O  O30  1  0.369915  0.530484  0.372383  1
  O  O31  1  0.630085  0.030484  0.127617  1
  O  O32  1  0.618169  0.346965  0.247589  1
  O  O33  1  0.381831  0.846965  0.252411  1
  O  O34  1  0.381831  0.653035  0.752411  1
  O  O35  1  0.618169  0.153035  0.747589  1
  O  O36  1  0.928671  0.298730  0.218531  1
  O  O37  1  0.071329  0.798730  0.281469  1
  O  O38  1  0.071329  0.701270  0.781469  1
  O  O39  1  0.928671  0.201270  0.718531  1
