# generated using pymatgen
data_Sr2Sb3
_symmetry_space_group_name_H-M   'P 1'
_cell_length_a   6.73909312
_cell_length_b   13.11468907
_cell_length_c   15.34786901
_cell_angle_alpha   90.00000000
_cell_angle_beta   90.03977307
_cell_angle_gamma   90.00000000
_symmetry_Int_Tables_number   1
_chemical_formula_structural   Sr2Sb3
_chemical_formula_sum   'Sr16 Sb24'
_cell_volume   1356.46138506
_cell_formula_units_Z   8
loop_
 _symmetry_equiv_pos_site_id
 _symmetry_equiv_pos_as_xyz
  1  'x, y, z'
loop_
 _atom_site_type_symbol
 _atom_site_label
 _atom_site_symmetry_multiplicity
 _atom_site_fract_x
 _atom_site_fract_y
 _atom_site_fract_z
 _atom_site_occupancy
  Sr  Sr0  1  0.253754  0.876099  0.003554  1
  Sr  Sr1  1  0.746246  0.376099  0.496446  1
  Sr  Sr2  1  0.746246  0.123901  0.996446  1
  Sr  Sr3  1  0.253754  0.623901  0.503554  1
  Sr  Sr4  1  0.753088  0.873016  0.504041  1
  Sr  Sr5  1  0.246912  0.373016  0.995959  1
  Sr  Sr6  1  0.246912  0.126984  0.495959  1
  Sr  Sr7  1  0.753088  0.626984  0.004041  1
  Sr  Sr8  1  0.994151  0.721397  0.755684  1
  Sr  Sr9  1  0.005849  0.221397  0.744316  1
  Sr  Sr10  1  0.005849  0.278603  0.244316  1
  Sr  Sr11  1  0.994151  0.778603  0.255684  1
  Sr  Sr12  1  0.492609  0.528572  0.747516  1
  Sr  Sr13  1  0.507391  0.028572  0.752484  1
  Sr  Sr14  1  0.507391  0.471428  0.252484  1
  Sr  Sr15  1  0.492609  0.971428  0.247516  1
  Sb  Sb16  1  0.262802  0.631487  0.928303  1
  Sb  Sb17  1  0.737198  0.131487  0.571697  1
  Sb  Sb18  1  0.737198  0.368513  0.071697  1
  Sb  Sb19  1  0.262802  0.868513  0.428303  1
  Sb  Sb20  1  0.535384  0.778546  0.840695  1
  Sb  Sb21  1  0.464616  0.278546  0.659305  1
  Sb  Sb22  1  0.464616  0.221454  0.159305  1
  Sb  Sb23  1  0.535384  0.721454  0.340695  1
  Sb  Sb24  1  0.419605  0.795388  0.656829  1
  Sb  Sb25  1  0.580395  0.295388  0.843171  1
  Sb  Sb26  1  0.580395  0.204612  0.343171  1
  Sb  Sb27  1  0.419605  0.704612  0.156829  1
  Sb  Sb28  1  0.084792  0.954723  0.654116  1
  Sb  Sb29  1  0.915208  0.454723  0.845884  1
  Sb  Sb30  1  0.915208  0.045277  0.345884  1
  Sb  Sb31  1  0.084792  0.545277  0.154116  1
  Sb  Sb32  1  0.965963  0.968771  0.837991  1
  Sb  Sb33  1  0.034037  0.468771  0.662009  1
  Sb  Sb34  1  0.034037  0.031229  0.162009  1
  Sb  Sb35  1  0.965963  0.531229  0.337991  1
  Sb  Sb36  1  0.764348  0.616665  0.576558  1
  Sb  Sb37  1  0.235652  0.116665  0.923442  1
  Sb  Sb38  1  0.235652  0.383335  0.423442  1
  Sb  Sb39  1  0.764348  0.883335  0.076558  1
