# generated using pymatgen
data_CaSiNi2
_symmetry_space_group_name_H-M   'P 1'
_cell_length_a   3.98335030
_cell_length_b   3.98335030
_cell_length_c   9.88753342
_cell_angle_alpha   90.00000000
_cell_angle_beta   90.00000000
_cell_angle_gamma   120.00000000
_symmetry_Int_Tables_number   1
_chemical_formula_structural   CaSiNi2
_chemical_formula_sum   'Ca2 Si2 Ni4'
_cell_volume   135.86750388
_cell_formula_units_Z   2
loop_
 _symmetry_equiv_pos_site_id
 _symmetry_equiv_pos_as_xyz
  1  'x, y, z'
loop_
 _atom_site_type_symbol
 _atom_site_label
 _atom_site_symmetry_multiplicity
 _atom_site_fract_x
 _atom_site_fract_y
 _atom_site_fract_z
 _atom_site_occupancy
  Ca  Ca0  1  0.666667  0.333333  0.750000  1
  Ca  Ca1  1  0.333333  0.666667  0.250000  1
  Si  Si2  1  0.000000  0.000000  0.500000  1
  Si  Si3  1  0.000000  0.000000  0.000000  1
  Ni  Ni4  1  0.666667  0.333333  0.458322  1
  Ni  Ni5  1  0.333333  0.666667  0.541678  1
  Ni  Ni6  1  0.333333  0.666667  0.958322  1
  Ni  Ni7  1  0.666667  0.333333  0.041678  1
