# generated using pymatgen
data_Mg5Ga2
_symmetry_space_group_name_H-M   'P 1'
_cell_length_a   8.27826367
_cell_length_b   8.27826367
_cell_length_c   8.27826367
_cell_angle_alpha   137.32047929
_cell_angle_beta   129.75546126
_cell_angle_gamma   67.99612952
_symmetry_Int_Tables_number   1
_chemical_formula_structural   Mg5Ga2
_chemical_formula_sum   'Mg10 Ga4'
_cell_volume   290.65071791
_cell_formula_units_Z   2
loop_
 _symmetry_equiv_pos_site_id
 _symmetry_equiv_pos_as_xyz
  1  'x, y, z'
loop_
 _atom_site_type_symbol
 _atom_site_label
 _atom_site_symmetry_multiplicity
 _atom_site_fract_x
 _atom_site_fract_y
 _atom_site_fract_z
 _atom_site_occupancy
  Mg  Mg0  1  0.570673  0.416416  0.154256  1
  Mg  Mg1  1  0.429327  0.583584  0.845744  1
  Mg  Mg2  1  0.737840  0.083584  0.654256  1
  Mg  Mg3  1  0.262160  0.916416  0.345744  1
  Mg  Mg4  1  1.000000  0.750000  0.750000  1
  Mg  Mg5  1  0.000000  0.250000  0.250000  1
  Mg  Mg6  1  0.767506  0.517506  0.750000  1
  Mg  Mg7  1  0.232494  0.982494  0.750000  1
  Mg  Mg8  1  0.232494  0.482494  0.250000  1
  Mg  Mg9  1  0.767506  0.017506  0.250000  1
  Ga  Ga10  1  0.141486  0.377466  0.764021  1
  Ga  Ga11  1  0.858514  0.622534  0.235979  1
  Ga  Ga12  1  0.386555  0.122534  0.264021  1
  Ga  Ga13  1  0.613445  0.877466  0.735979  1
