# generated using pymatgen
data_TlSnF7
_symmetry_space_group_name_H-M   'P 1'
_cell_length_a   8.89643349
_cell_length_b   5.57003788
_cell_length_c   12.10261033
_cell_angle_alpha   90.00000000
_cell_angle_beta   117.32210687
_cell_angle_gamma   90.00000000
_symmetry_Int_Tables_number   1
_chemical_formula_structural   TlSnF7
_chemical_formula_sum   'Tl4 Sn4 F28'
_cell_volume   532.82100524
_cell_formula_units_Z   4
loop_
 _symmetry_equiv_pos_site_id
 _symmetry_equiv_pos_as_xyz
  1  'x, y, z'
loop_
 _atom_site_type_symbol
 _atom_site_label
 _atom_site_symmetry_multiplicity
 _atom_site_fract_x
 _atom_site_fract_y
 _atom_site_fract_z
 _atom_site_occupancy
  Tl  Tl0  1  0.814808  0.759734  0.735728  1
  Tl  Tl1  1  0.185192  0.259734  0.764272  1
  Tl  Tl2  1  0.185192  0.240266  0.264272  1
  Tl  Tl3  1  0.814808  0.740266  0.235728  1
  Sn  Sn4  1  0.728303  0.238925  0.457007  1
  Sn  Sn5  1  0.271697  0.738925  0.042993  1
  Sn  Sn6  1  0.271697  0.761075  0.542993  1
  Sn  Sn7  1  0.728303  0.261075  0.957007  1
  F  F8  1  0.732043  0.927341  0.542689  1
  F  F9  1  0.267957  0.427341  0.957311  1
  F  F10  1  0.267957  0.072659  0.457311  1
  F  F11  1  0.732043  0.572659  0.042689  1
  F  F12  1  0.704901  0.060943  0.084516  1
  F  F13  1  0.295099  0.560943  0.415484  1
  F  F14  1  0.295099  0.939057  0.915484  1
  F  F15  1  0.704901  0.439057  0.584516  1
  F  F16  1  0.523361  0.707728  0.135937  1
  F  F17  1  0.476639  0.207728  0.364063  1
  F  F18  1  0.476639  0.292272  0.864063  1
  F  F19  1  0.523361  0.792272  0.635937  1
  F  F20  1  0.019878  0.743064  0.951252  1
  F  F21  1  0.980122  0.243064  0.548748  1
  F  F22  1  0.980122  0.256936  0.048748  1
  F  F23  1  0.019878  0.756936  0.451252  1
  F  F24  1  0.736680  0.045993  0.318299  1
  F  F25  1  0.263320  0.545993  0.181701  1
  F  F26  1  0.263320  0.954007  0.681701  1
  F  F27  1  0.736680  0.454007  0.818299  1
  F  F28  1  0.281188  0.029382  0.143721  1
  F  F29  1  0.718812  0.529382  0.356279  1
  F  F30  1  0.718812  0.970618  0.856279  1
  F  F31  1  0.281188  0.470618  0.643721  1
  F  F32  1  0.962712  0.101175  0.770456  1
  F  F33  1  0.037288  0.601175  0.729544  1
  F  F34  1  0.037288  0.898825  0.229544  1
  F  F35  1  0.962712  0.398825  0.270456  1
