# generated using pymatgen
data_Ge(Te2As)2
_symmetry_space_group_name_H-M   'P 1'
_cell_length_a   13.99396844
_cell_length_b   13.99396844
_cell_length_c   13.99396844
_cell_angle_alpha   16.95947182
_cell_angle_beta   16.95947182
_cell_angle_gamma   16.95947182
_symmetry_Int_Tables_number   1
_chemical_formula_structural   Ge(Te2As)2
_chemical_formula_sum   'Ge1 Te4 As2'
_cell_volume   203.40928274
_cell_formula_units_Z   1
loop_
 _symmetry_equiv_pos_site_id
 _symmetry_equiv_pos_as_xyz
  1  'x, y, z'
loop_
 _atom_site_type_symbol
 _atom_site_label
 _atom_site_symmetry_multiplicity
 _atom_site_fract_x
 _atom_site_fract_y
 _atom_site_fract_z
 _atom_site_occupancy
  Ge  Ge0  1  0.000000  0.000000  0.000000  1
  Te  Te1  1  0.125676  0.125676  0.125676  1
  Te  Te2  1  0.290593  0.290593  0.290593  1
  Te  Te3  1  0.874324  0.874324  0.874324  1
  Te  Te4  1  0.709407  0.709407  0.709407  1
  As  As5  1  0.578810  0.578810  0.578810  1
  As  As6  1  0.421190  0.421190  0.421190  1
