# generated using pymatgen
data_Na2UO4
_symmetry_space_group_name_H-M   'P 1'
_cell_length_a   5.84254845
_cell_length_b   6.00840750
_cell_length_c   11.90406428
_cell_angle_alpha   90.00000000
_cell_angle_beta   90.00000000
_cell_angle_gamma   90.00000000
_symmetry_Int_Tables_number   1
_chemical_formula_structural   Na2UO4
_chemical_formula_sum   'Na8 U4 O16'
_cell_volume   417.88517608
_cell_formula_units_Z   4
loop_
 _symmetry_equiv_pos_site_id
 _symmetry_equiv_pos_as_xyz
  1  'x, y, z'
loop_
 _atom_site_type_symbol
 _atom_site_label
 _atom_site_symmetry_multiplicity
 _atom_site_fract_x
 _atom_site_fract_y
 _atom_site_fract_z
 _atom_site_occupancy
  Na  Na0  1  0.000798  0.053189  0.336078  1
  Na  Na1  1  0.500798  0.446811  0.663922  1
  Na  Na2  1  0.999202  0.553189  0.163922  1
  Na  Na3  1  0.499202  0.946811  0.836078  1
  Na  Na4  1  0.500798  0.053189  0.163922  1
  Na  Na5  1  0.000798  0.446811  0.836078  1
  Na  Na6  1  0.499202  0.553189  0.336078  1
  Na  Na7  1  0.999202  0.946811  0.663922  1
  U  U8  1  0.000000  0.000000  0.000000  1
  U  U9  1  0.500000  0.500000  0.000000  1
  U  U10  1  0.000000  0.500000  0.500000  1
  U  U11  1  0.500000  0.000000  0.500000  1
  O  O12  1  0.606656  0.964395  0.346500  1
  O  O13  1  0.106656  0.535605  0.653500  1
  O  O14  1  0.393344  0.464395  0.153500  1
  O  O15  1  0.893344  0.035605  0.846500  1
  O  O16  1  0.393344  0.035605  0.653500  1
  O  O17  1  0.893344  0.464395  0.346500  1
  O  O18  1  0.606656  0.535605  0.846500  1
  O  O19  1  0.106656  0.964395  0.153500  1
  O  O20  1  0.795708  0.208810  0.545018  1
  O  O21  1  0.295708  0.291190  0.454982  1
  O  O22  1  0.204292  0.708810  0.954982  1
  O  O23  1  0.704292  0.791190  0.045018  1
  O  O24  1  0.295708  0.208810  0.954982  1
  O  O25  1  0.795708  0.291190  0.045018  1
  O  O26  1  0.704292  0.708810  0.545018  1
  O  O27  1  0.204292  0.791190  0.454982  1
