# generated using pymatgen
data_Er3(AlNi3)2
_symmetry_space_group_name_H-M   'P 1'
_cell_length_a   7.67070680
_cell_length_b   7.67070680
_cell_length_c   7.67070680
_cell_angle_alpha   109.47122063
_cell_angle_beta   109.47122063
_cell_angle_gamma   109.47122063
_symmetry_Int_Tables_number   1
_chemical_formula_structural   Er3(AlNi3)2
_chemical_formula_sum   'Er6 Al4 Ni12'
_cell_volume   347.44355371
_cell_formula_units_Z   2
loop_
 _symmetry_equiv_pos_site_id
 _symmetry_equiv_pos_as_xyz
  1  'x, y, z'
loop_
 _atom_site_type_symbol
 _atom_site_label
 _atom_site_symmetry_multiplicity
 _atom_site_fract_x
 _atom_site_fract_y
 _atom_site_fract_z
 _atom_site_occupancy
  Er  Er0  1  0.000000  0.292506  0.292506  1
  Er  Er1  1  1.000000  0.707494  0.707494  1
  Er  Er2  1  0.292506  0.292506  0.000000  1
  Er  Er3  1  0.707494  0.707494  0.000000  1
  Er  Er4  1  0.707494  1.000000  0.707494  1
  Er  Er5  1  0.292506  1.000000  0.292506  1
  Al  Al6  1  0.500000  0.500000  0.500000  1
  Al  Al7  1  0.500000  0.000000  0.000000  1
  Al  Al8  1  0.000000  0.500000  0.000000  1
  Al  Al9  1  0.000000  0.000000  0.500000  1
  Ni  Ni10  1  0.335281  0.664719  0.000000  1
  Ni  Ni11  1  0.670562  0.335281  0.335281  1
  Ni  Ni12  1  0.335281  0.670562  0.335281  1
  Ni  Ni13  1  0.664719  0.000000  0.335281  1
  Ni  Ni14  1  0.335281  0.000000  0.664719  1
  Ni  Ni15  1  0.335281  0.335281  0.670562  1
  Ni  Ni16  1  0.329438  0.664719  0.664719  1
  Ni  Ni17  1  0.664719  0.664719  0.329438  1
  Ni  Ni18  1  0.664719  0.329438  0.664719  1
  Ni  Ni19  1  0.000000  0.664719  0.335281  1
  Ni  Ni20  1  0.664719  0.335281  0.000000  1
  Ni  Ni21  1  0.000000  0.335281  0.664719  1
