# generated using pymatgen
data_Sc2Re3Si4
_symmetry_space_group_name_H-M   'P 1'
_cell_length_a   6.63107201
_cell_length_b   6.63107201
_cell_length_c   12.47381534
_cell_angle_alpha   90.00000000
_cell_angle_beta   90.00000000
_cell_angle_gamma   90.00000000
_symmetry_Int_Tables_number   1
_chemical_formula_structural   Sc2Re3Si4
_chemical_formula_sum   'Sc8 Re12 Si16'
_cell_volume   548.48758130
_cell_formula_units_Z   4
loop_
 _symmetry_equiv_pos_site_id
 _symmetry_equiv_pos_as_xyz
  1  'x, y, z'
loop_
 _atom_site_type_symbol
 _atom_site_label
 _atom_site_symmetry_multiplicity
 _atom_site_fract_x
 _atom_site_fract_y
 _atom_site_fract_z
 _atom_site_occupancy
  Sc  Sc0  1  0.507513  0.158686  0.030950  1
  Sc  Sc1  1  0.492487  0.841314  0.530950  1
  Sc  Sc2  1  0.841314  0.492487  0.469050  1
  Sc  Sc3  1  0.658686  0.992487  0.780950  1
  Sc  Sc4  1  0.341314  0.007513  0.280950  1
  Sc  Sc5  1  0.992487  0.658686  0.219050  1
  Sc  Sc6  1  0.007513  0.341314  0.719050  1
  Sc  Sc7  1  0.158686  0.507513  0.969050  1
  Re  Re8  1  0.167964  0.167964  0.500000  1
  Re  Re9  1  0.667964  0.332036  0.250000  1
  Re  Re10  1  0.832036  0.832036  0.000000  1
  Re  Re11  1  0.517677  0.314534  0.632628  1
  Re  Re12  1  0.482323  0.685466  0.132628  1
  Re  Re13  1  0.314534  0.517677  0.367372  1
  Re  Re14  1  0.814534  0.982323  0.382628  1
  Re  Re15  1  0.185466  0.017677  0.882628  1
  Re  Re16  1  0.982323  0.814534  0.617372  1
  Re  Re17  1  0.017677  0.185466  0.117372  1
  Re  Re18  1  0.685466  0.482323  0.867372  1
  Re  Re19  1  0.332036  0.667964  0.750000  1
  Si  Si20  1  0.526247  0.221422  0.437694  1
  Si  Si21  1  0.120753  0.804546  0.430395  1
  Si  Si22  1  0.879247  0.195454  0.930395  1
  Si  Si23  1  0.695454  0.620753  0.680395  1
  Si  Si24  1  0.804546  0.120753  0.569605  1
  Si  Si25  1  0.195454  0.879247  0.069605  1
  Si  Si26  1  0.304546  0.379247  0.180395  1
  Si  Si27  1  0.620753  0.695454  0.319605  1
  Si  Si28  1  0.473753  0.778578  0.937694  1
  Si  Si29  1  0.221422  0.526247  0.562306  1
  Si  Si30  1  0.721422  0.973753  0.187694  1
  Si  Si31  1  0.278578  0.026247  0.687694  1
  Si  Si32  1  0.973753  0.721422  0.812306  1
  Si  Si33  1  0.026247  0.278578  0.312306  1
  Si  Si34  1  0.778578  0.473753  0.062306  1
  Si  Si35  1  0.379247  0.304546  0.819605  1
