# generated using pymatgen
data_Nb5(NiP)4
_symmetry_space_group_name_H-M   'P 1'
_cell_length_a   7.28516532
_cell_length_b   7.28516532
_cell_length_c   7.28516532
_cell_angle_alpha   93.37228824
_cell_angle_beta   93.37228824
_cell_angle_gamma   151.92750646
_symmetry_Int_Tables_number   1
_chemical_formula_structural   Nb5(NiP)4
_chemical_formula_sum   'Nb5 Ni4 P4'
_cell_volume   176.52040666
_cell_formula_units_Z   1
loop_
 _symmetry_equiv_pos_site_id
 _symmetry_equiv_pos_as_xyz
  1  'x, y, z'
loop_
 _atom_site_type_symbol
 _atom_site_label
 _atom_site_symmetry_multiplicity
 _atom_site_fract_x
 _atom_site_fract_y
 _atom_site_fract_z
 _atom_site_occupancy
  Nb  Nb0  1  0.130907  0.805272  0.936179  1
  Nb  Nb1  1  0.194728  0.130907  0.325635  1
  Nb  Nb2  1  0.805272  0.869093  0.674365  1
  Nb  Nb3  1  0.869093  0.194728  0.063821  1
  Nb  Nb4  1  0.500000  0.500000  0.000000  1
  Ni  Ni5  1  0.390204  0.914882  0.305086  1
  Ni  Ni6  1  0.609796  0.085118  0.694914  1
  Ni  Ni7  1  0.914882  0.609796  0.524677  1
  Ni  Ni8  1  0.085118  0.390204  0.475323  1
  P  P9  1  0.240267  0.555552  0.795819  1
  P  P10  1  0.444448  0.240267  0.684714  1
  P  P11  1  0.555552  0.759733  0.315286  1
  P  P12  1  0.759733  0.444448  0.204181  1
