# generated using pymatgen
data_Fe2P2O7
_symmetry_space_group_name_H-M   'P 1'
_cell_length_a   4.57663597
_cell_length_b   5.29908778
_cell_length_c   5.62399510
_cell_angle_alpha   103.49982982
_cell_angle_beta   98.60712843
_cell_angle_gamma   99.22003664
_symmetry_Int_Tables_number   1
_chemical_formula_structural   Fe2P2O7
_chemical_formula_sum   'Fe2 P2 O7'
_cell_volume   128.40083132
_cell_formula_units_Z   1
loop_
 _symmetry_equiv_pos_site_id
 _symmetry_equiv_pos_as_xyz
  1  'x, y, z'
loop_
 _atom_site_type_symbol
 _atom_site_label
 _atom_site_symmetry_multiplicity
 _atom_site_fract_x
 _atom_site_fract_y
 _atom_site_fract_z
 _atom_site_occupancy
  Fe  Fe0  1  0.518961  0.175894  0.798242  1
  Fe  Fe1  1  0.481039  0.824106  0.201758  1
  P  P2  1  0.091208  0.287210  0.288539  1
  P  P3  1  0.908792  0.712790  0.711461  1
  O  O4  1  0.788188  0.120096  0.130938  1
  O  O5  1  0.273551  0.439711  0.140899  1
  O  O6  1  0.277349  0.124428  0.420595  1
  O  O7  1  0.000000  0.500000  0.500000  1
  O  O8  1  0.211812  0.879904  0.869062  1
  O  O9  1  0.726449  0.560289  0.859101  1
  O  O10  1  0.722651  0.875572  0.579405  1
