# generated using pymatgen
data_Cu2HgGeS4
_symmetry_space_group_name_H-M   'P 1'
_cell_length_a   6.60267584
_cell_length_b   6.60267584
_cell_length_c   6.60267584
_cell_angle_alpha   130.21055376
_cell_angle_beta   130.21055376
_cell_angle_gamma   73.07038375
_symmetry_Int_Tables_number   1
_chemical_formula_structural   Cu2HgGeS4
_chemical_formula_sum   'Cu2 Hg1 Ge1 S4'
_cell_volume   163.93317481
_cell_formula_units_Z   1
loop_
 _symmetry_equiv_pos_site_id
 _symmetry_equiv_pos_as_xyz
  1  'x, y, z'
loop_
 _atom_site_type_symbol
 _atom_site_label
 _atom_site_symmetry_multiplicity
 _atom_site_fract_x
 _atom_site_fract_y
 _atom_site_fract_z
 _atom_site_occupancy
  Cu  Cu0  1  0.750000  0.250000  0.500000  1
  Cu  Cu1  1  0.250000  0.750000  0.500000  1
  Hg  Hg2  1  0.000000  0.000000  0.000000  1
  Ge  Ge3  1  0.500000  0.500000  0.000000  1
  S  S4  1  0.861344  0.410365  0.000000  1
  S  S5  1  0.589635  0.589635  0.450978  1
  S  S6  1  0.410365  0.861344  0.000000  1
  S  S7  1  0.138656  0.138656  0.549022  1
