# generated using pymatgen
data_Mn3O4
_symmetry_space_group_name_H-M   'P 1'
_cell_length_a   6.34309138
_cell_length_b   6.34309138
_cell_length_c   6.34309138
_cell_angle_alpha   124.82288247
_cell_angle_beta   124.82288247
_cell_angle_gamma   81.83160523
_symmetry_Int_Tables_number   1
_chemical_formula_structural   Mn3O4
_chemical_formula_sum   'Mn6 O8'
_cell_volume   165.45581432
_cell_formula_units_Z   2
loop_
 _symmetry_equiv_pos_site_id
 _symmetry_equiv_pos_as_xyz
  1  'x, y, z'
loop_
 _atom_site_type_symbol
 _atom_site_label
 _atom_site_symmetry_multiplicity
 _atom_site_fract_x
 _atom_site_fract_y
 _atom_site_fract_z
 _atom_site_occupancy
  Mn  Mn0  1  0.250000  0.750000  0.500000  1
  Mn  Mn1  1  0.500000  0.500000  0.000000  1
  Mn  Mn2  1  0.875000  0.125000  0.750000  1
  Mn  Mn3  1  0.875000  0.125000  0.250000  1
  Mn  Mn4  1  0.875000  0.625000  0.750000  1
  Mn  Mn5  1  0.375000  0.125000  0.250000  1
  O  O6  1  0.117443  0.338542  0.221099  1
  O  O7  1  0.661458  0.882557  0.778901  1
  O  O8  1  0.646344  0.367443  0.278901  1
  O  O9  1  0.088542  0.367443  0.721099  1
  O  O10  1  0.632557  0.353656  0.721099  1
  O  O11  1  0.632557  0.911458  0.278901  1
  O  O12  1  0.117443  0.896344  0.778901  1
  O  O13  1  0.103656  0.882557  0.221099  1
