# generated using pymatgen
data_KSb5S8
_symmetry_space_group_name_H-M   'P 1'
_cell_length_a   8.64863383
_cell_length_b   19.71886472
_cell_length_c   12.57252491
_cell_angle_alpha   90.00000000
_cell_angle_beta   133.28959815
_cell_angle_gamma   90.00000000
_symmetry_Int_Tables_number   1
_chemical_formula_structural   KSb5S8
_chemical_formula_sum   'K4 Sb20 S32'
_cell_volume   1560.70924510
_cell_formula_units_Z   4
loop_
 _symmetry_equiv_pos_site_id
 _symmetry_equiv_pos_as_xyz
  1  'x, y, z'
loop_
 _atom_site_type_symbol
 _atom_site_label
 _atom_site_symmetry_multiplicity
 _atom_site_fract_x
 _atom_site_fract_y
 _atom_site_fract_z
 _atom_site_occupancy
  K  K0  1  0.078209  0.949355  0.765571  1
  K  K1  1  0.078209  0.050645  0.265571  1
  K  K2  1  0.017210  0.553495  0.501319  1
  K  K3  1  0.017210  0.446505  0.001319  1
  Sb  Sb4  1  0.399179  0.847045  0.464146  1
  Sb  Sb5  1  0.399179  0.152955  0.964146  1
  Sb  Sb6  1  0.566818  0.955272  0.296925  1
  Sb  Sb7  1  0.566818  0.044728  0.796925  1
  Sb  Sb8  1  0.998940  0.870165  0.027660  1
  Sb  Sb9  1  0.998940  0.129835  0.527660  1
  Sb  Sb10  1  0.643226  0.630630  0.705649  1
  Sb  Sb11  1  0.643226  0.369370  0.205649  1
  Sb  Sb12  1  0.800350  0.737820  0.506504  1
  Sb  Sb13  1  0.800350  0.262180  0.006504  1
  Sb  Sb14  1  0.375191  0.784102  0.754198  1
  Sb  Sb15  1  0.375191  0.215898  0.254198  1
  Sb  Sb16  1  0.210856  0.713232  0.949550  1
  Sb  Sb17  1  0.210856  0.286768  0.449550  1
  Sb  Sb18  1  0.580639  0.539364  0.047554  1
  Sb  Sb19  1  0.580639  0.460636  0.547554  1
  Sb  Sb20  1  0.145485  0.649573  0.227872  1
  Sb  Sb21  1  0.145485  0.350427  0.727872  1
  Sb  Sb22  1  0.794145  0.769919  0.200361  1
  Sb  Sb23  1  0.794145  0.230081  0.700361  1
  S  S24  1  0.556069  0.962639  0.487166  1
  S  S25  1  0.556069  0.037361  0.987166  1
  S  S26  1  0.637854  0.917581  0.806096  1
  S  S27  1  0.637854  0.082419  0.306096  1
  S  S28  1  0.185658  0.980776  0.074698  1
  S  S29  1  0.185658  0.019224  0.574698  1
  S  S30  1  0.548542  0.508225  0.714389  1
  S  S31  1  0.548542  0.491775  0.214389  1
  S  S32  1  0.605352  0.595248  0.500830  1
  S  S33  1  0.605352  0.404752  0.000830  1
  S  S34  1  0.432932  0.802538  0.295833  1
  S  S35  1  0.432932  0.197462  0.795833  1
  S  S36  1  0.776228  0.773242  0.680844  1
  S  S37  1  0.776228  0.226758  0.180844  1
  S  S38  1  0.018466  0.837523  0.543031  1
  S  S39  1  0.018466  0.162477  0.043031  1
  S  S40  1  0.025497  0.603046  0.915465  1
  S  S41  1  0.025497  0.396954  0.415465  1
  S  S42  1  0.204811  0.676628  0.753276  1
  S  S43  1  0.204811  0.323372  0.253276  1
  S  S44  1  0.977145  0.539998  0.211382  1
  S  S45  1  0.977145  0.460002  0.711382  1
  S  S46  1  0.568250  0.659427  0.159428  1
  S  S47  1  0.568250  0.340573  0.659428  1
  S  S48  1  0.816924  0.278361  0.528755  1
  S  S49  1  0.816924  0.721639  0.028755  1
  S  S50  1  0.161330  0.293327  0.911030  1
  S  S51  1  0.161330  0.706673  0.411030  1
  S  S52  1  0.999505  0.111715  0.722440  1
  S  S53  1  0.999505  0.888285  0.222440  1
  S  S54  1  0.422889  0.168395  0.454130  1
  S  S55  1  0.422889  0.831605  0.954130  1
