# generated using pymatgen
data_Ti3Te4
_symmetry_space_group_name_H-M   'P 1'
_cell_length_a   7.45433571
_cell_length_b   7.45433571
_cell_length_c   7.08072961
_cell_angle_alpha   61.96240831
_cell_angle_beta   118.03759169
_cell_angle_gamma   150.35640592
_symmetry_Int_Tables_number   1
_chemical_formula_structural   Ti3Te4
_chemical_formula_sum   'Ti3 Te4'
_cell_volume   170.05148393
_cell_formula_units_Z   1
loop_
 _symmetry_equiv_pos_site_id
 _symmetry_equiv_pos_as_xyz
  1  'x, y, z'
loop_
 _atom_site_type_symbol
 _atom_site_label
 _atom_site_symmetry_multiplicity
 _atom_site_fract_x
 _atom_site_fract_y
 _atom_site_fract_z
 _atom_site_occupancy
  Ti  Ti0  1  0.000000  0.000000  0.000000  1
  Ti  Ti1  1  0.752815  0.247185  0.704817  1
  Ti  Ti2  1  0.247185  0.752815  0.295183  1
  Te  Te3  1  0.634809  0.365191  0.958981  1
  Te  Te4  1  0.365191  0.634809  0.041019  1
  Te  Te5  1  0.107003  0.892997  0.448494  1
  Te  Te6  1  0.892997  0.107003  0.551506  1
