# generated using pymatgen
data_Al21Pd8
_symmetry_space_group_name_H-M   'P 1'
_cell_length_a   10.70356171
_cell_length_b   10.70356171
_cell_length_c   10.70356171
_cell_angle_alpha   104.67800442
_cell_angle_beta   104.67800442
_cell_angle_gamma   119.55289183
_symmetry_Int_Tables_number   1
_chemical_formula_structural   Al21Pd8
_chemical_formula_sum   'Al42 Pd16'
_cell_volume   921.72750919
_cell_formula_units_Z   2
loop_
 _symmetry_equiv_pos_site_id
 _symmetry_equiv_pos_as_xyz
  1  'x, y, z'
loop_
 _atom_site_type_symbol
 _atom_site_label
 _atom_site_symmetry_multiplicity
 _atom_site_fract_x
 _atom_site_fract_y
 _atom_site_fract_z
 _atom_site_occupancy
  Al  Al0  1  0.000000  0.000000  0.000000  1
  Al  Al1  1  0.250000  0.750000  0.500000  1
  Al  Al2  1  0.345919  0.489010  0.035622  1
  Al  Al3  1  0.560297  0.095919  0.356909  1
  Al  Al4  1  0.739010  0.203388  0.643091  1
  Al  Al5  1  0.453388  0.310297  0.964378  1
  Al  Al6  1  0.904081  0.260990  0.464378  1
  Al  Al7  1  0.689703  0.654081  0.143091  1
  Al  Al8  1  0.510990  0.546612  0.856909  1
  Al  Al9  1  0.796612  0.439703  0.535622  1
  Al  Al10  1  0.700622  0.535240  0.338834  1
  Al  Al11  1  0.611788  0.450622  0.665382  1
  Al  Al12  1  0.785240  0.946406  0.334618  1
  Al  Al13  1  0.196406  0.361788  0.661166  1
  Al  Al14  1  0.549378  0.214760  0.161166  1
  Al  Al15  1  0.638212  0.299378  0.834618  1
  Al  Al16  1  0.464760  0.803594  0.165382  1
  Al  Al17  1  0.053594  0.388212  0.838834  1
  Al  Al18  1  0.807423  0.814416  0.572210  1
  Al  Al19  1  0.485213  0.557423  0.493006  1
  Al  Al20  1  0.064416  0.992207  0.506994  1
  Al  Al21  1  0.242207  0.235213  0.427790  1
  Al  Al22  1  0.442577  0.935584  0.927790  1
  Al  Al23  1  0.764787  0.192577  0.006994  1
  Al  Al24  1  0.185584  0.757793  0.993006  1
  Al  Al25  1  0.007793  0.514787  0.072210  1
  Al  Al26  1  0.802448  0.029287  0.791273  1
  Al  Al27  1  0.261175  0.552448  0.273161  1
  Al  Al28  1  0.279287  0.988014  0.726839  1
  Al  Al29  1  0.238014  0.011175  0.208727  1
  Al  Al30  1  0.447552  0.720713  0.708727  1
  Al  Al31  1  0.988825  0.197552  0.226839  1
  Al  Al32  1  0.970713  0.761986  0.773161  1
  Al  Al33  1  0.011986  0.738825  0.291273  1
  Al  Al34  1  0.133255  0.154479  0.834209  1
  Al  Al35  1  0.549046  0.883255  0.478776  1
  Al  Al36  1  0.404479  0.070270  0.521224  1
  Al  Al37  1  0.320270  0.299046  0.165791  1
  Al  Al38  1  0.116745  0.595521  0.665791  1
  Al  Al39  1  0.700954  0.866745  0.021224  1
  Al  Al40  1  0.845521  0.679730  0.978776  1
  Al  Al41  1  0.929730  0.450954  0.334209  1
  Pd  Pd42  1  0.001659  0.725176  0.537498  1
  Pd  Pd43  1  0.714161  0.751659  0.776483  1
  Pd  Pd44  1  0.975176  0.937677  0.223517  1
  Pd  Pd45  1  0.187677  0.464161  0.462502  1
  Pd  Pd46  1  0.248341  0.024824  0.962502  1
  Pd  Pd47  1  0.535839  0.998341  0.723517  1
  Pd  Pd48  1  0.274824  0.812323  0.276483  1
  Pd  Pd49  1  0.062323  0.285839  0.037498  1
  Pd  Pd50  1  0.693017  0.078953  0.186039  1
  Pd  Pd51  1  0.756979  0.443017  0.114064  1
  Pd  Pd52  1  0.328953  0.642915  0.885936  1
  Pd  Pd53  1  0.892915  0.506979  0.813961  1
  Pd  Pd54  1  0.556983  0.671047  0.313961  1
  Pd  Pd55  1  0.493021  0.306983  0.385936  1
  Pd  Pd56  1  0.921047  0.107085  0.614064  1
  Pd  Pd57  1  0.357085  0.243021  0.686039  1
