# generated using pymatgen
data_Y(PdO2)2
_symmetry_space_group_name_H-M   'P 1'
_cell_length_a   6.52105248
_cell_length_b   6.52105248
_cell_length_c   6.52105248
_cell_angle_alpha   126.94079260
_cell_angle_beta   126.94079260
_cell_angle_gamma   78.34729979
_symmetry_Int_Tables_number   1
_chemical_formula_structural   Y(PdO2)2
_chemical_formula_sum   'Y2 Pd4 O8'
_cell_volume   171.55402293
_cell_formula_units_Z   2
loop_
 _symmetry_equiv_pos_site_id
 _symmetry_equiv_pos_as_xyz
  1  'x, y, z'
loop_
 _atom_site_type_symbol
 _atom_site_label
 _atom_site_symmetry_multiplicity
 _atom_site_fract_x
 _atom_site_fract_y
 _atom_site_fract_z
 _atom_site_occupancy
  Y  Y0  1  0.250000  0.750000  0.500000  1
  Y  Y1  1  0.500000  0.500000  0.000000  1
  Pd  Pd2  1  0.875000  0.125000  0.250000  1
  Pd  Pd3  1  0.375000  0.125000  0.250000  1
  Pd  Pd4  1  0.875000  0.625000  0.750000  1
  Pd  Pd5  1  0.875000  0.125000  0.750000  1
  O  O6  1  0.491944  0.459810  0.346837  1
  O  O7  1  0.209810  0.362973  0.467867  1
  O  O8  1  0.895107  0.741944  0.532133  1
  O  O9  1  0.112973  0.145107  0.653163  1
  O  O10  1  0.258056  0.790190  0.153163  1
  O  O11  1  0.540190  0.887027  0.032133  1
  O  O12  1  0.637027  0.104893  0.846837  1
  O  O13  1  0.854893  0.508056  0.967867  1
