# generated using pymatgen
data_Li6Y(BO3)3
_symmetry_space_group_name_H-M   'P 1'
_cell_length_a   6.72409088
_cell_length_b   16.54186048
_cell_length_c   7.26765545
_cell_angle_alpha   90.00000000
_cell_angle_beta   105.41200267
_cell_angle_gamma   90.00000000
_symmetry_Int_Tables_number   1
_chemical_formula_structural   Li6Y(BO3)3
_chemical_formula_sum   'Li24 Y4 B12 O36'
_cell_volume   779.30452884
_cell_formula_units_Z   4
loop_
 _symmetry_equiv_pos_site_id
 _symmetry_equiv_pos_as_xyz
  1  'x, y, z'
loop_
 _atom_site_type_symbol
 _atom_site_label
 _atom_site_symmetry_multiplicity
 _atom_site_fract_x
 _atom_site_fract_y
 _atom_site_fract_z
 _atom_site_occupancy
  Li  Li0  1  0.584732  0.552789  0.137575  1
  Li  Li1  1  0.915268  0.052789  0.862425  1
  Li  Li2  1  0.415268  0.447211  0.862425  1
  Li  Li3  1  0.084732  0.947211  0.137575  1
  Li  Li4  1  0.545623  0.795276  0.561621  1
  Li  Li5  1  0.954377  0.295276  0.438379  1
  Li  Li6  1  0.454377  0.204724  0.438379  1
  Li  Li7  1  0.045623  0.704724  0.561621  1
  Li  Li8  1  0.555717  0.964725  0.693357  1
  Li  Li9  1  0.944283  0.464725  0.306643  1
  Li  Li10  1  0.444283  0.035275  0.306643  1
  Li  Li11  1  0.055717  0.535275  0.693357  1
  Li  Li12  1  0.634507  0.705762  0.284919  1
  Li  Li13  1  0.865493  0.205762  0.715081  1
  Li  Li14  1  0.365493  0.294238  0.715081  1
  Li  Li15  1  0.134507  0.794238  0.284919  1
  Li  Li16  1  0.829778  0.969891  0.453299  1
  Li  Li17  1  0.670222  0.469891  0.546701  1
  Li  Li18  1  0.170222  0.030109  0.546701  1
  Li  Li19  1  0.329778  0.530109  0.453299  1
  Li  Li20  1  0.323992  0.004054  0.928612  1
  Li  Li21  1  0.176008  0.504054  0.071388  1
  Li  Li22  1  0.676008  0.995946  0.071388  1
  Li  Li23  1  0.823992  0.495946  0.928612  1
  Y  Y24  1  0.347216  0.810199  0.920257  1
  Y  Y25  1  0.152784  0.310199  0.079743  1
  Y  Y26  1  0.652784  0.189801  0.079743  1
  Y  Y27  1  0.847216  0.689801  0.920257  1
  B  B28  1  0.338275  0.635608  0.916455  1
  B  B29  1  0.161725  0.135608  0.083545  1
  B  B30  1  0.661725  0.364392  0.083545  1
  B  B31  1  0.838275  0.864392  0.916455  1
  B  B32  1  0.999329  0.620774  0.285965  1
  B  B33  1  0.500671  0.120774  0.714035  1
  B  B34  1  0.000671  0.379226  0.714035  1
  B  B35  1  0.499329  0.879226  0.285965  1
  B  B36  1  0.189383  0.884816  0.560722  1
  B  B37  1  0.310617  0.384816  0.439278  1
  B  B38  1  0.810617  0.115184  0.439278  1
  B  B39  1  0.689383  0.615184  0.560722  1
  O  O40  1  0.027737  0.826120  0.992511  1
  O  O41  1  0.472263  0.326120  0.007489  1
  O  O42  1  0.972263  0.173880  0.007489  1
  O  O43  1  0.527737  0.673880  0.992511  1
  O  O44  1  0.166262  0.685394  0.854229  1
  O  O45  1  0.333738  0.185394  0.145771  1
  O  O46  1  0.833738  0.314606  0.145771  1
  O  O47  1  0.666262  0.814606  0.854229  1
  O  O48  1  0.323776  0.553350  0.912404  1
  O  O49  1  0.176224  0.053350  0.087596  1
  O  O50  1  0.676224  0.446650  0.087596  1
  O  O51  1  0.823776  0.946650  0.912404  1
  O  O52  1  0.958254  0.574046  0.120226  1
  O  O53  1  0.541746  0.074046  0.879774  1
  O  O54  1  0.041746  0.425954  0.879774  1
  O  O55  1  0.458254  0.925954  0.120226  1
  O  O56  1  0.442367  0.797820  0.259926  1
  O  O57  1  0.057633  0.297820  0.740074  1
  O  O58  1  0.557633  0.202180  0.740074  1
  O  O59  1  0.942367  0.702180  0.259926  1
  O  O60  1  0.086308  0.588427  0.462580  1
  O  O61  1  0.413692  0.088427  0.537420  1
  O  O62  1  0.913692  0.411573  0.537420  1
  O  O63  1  0.586308  0.911573  0.462580  1
  O  O64  1  0.771244  0.568672  0.723571  1
  O  O65  1  0.728756  0.068672  0.276429  1
  O  O66  1  0.228756  0.431328  0.276429  1
  O  O67  1  0.271244  0.931328  0.723571  1
  O  O68  1  0.228416  0.802093  0.578614  1
  O  O69  1  0.271584  0.302093  0.421386  1
  O  O70  1  0.771584  0.197907  0.421386  1
  O  O71  1  0.728416  0.697907  0.578614  1
  O  O72  1  0.077134  0.921420  0.394921  1
  O  O73  1  0.422866  0.421420  0.605079  1
  O  O74  1  0.922866  0.078580  0.605079  1
  O  O75  1  0.577134  0.578580  0.394921  1
