# generated using pymatgen
data_Sn4SF6
_symmetry_space_group_name_H-M   'P 1'
_cell_length_a   7.63812212
_cell_length_b   7.63812212
_cell_length_c   8.89549948
_cell_angle_alpha   90.00000000
_cell_angle_beta   90.00000000
_cell_angle_gamma   110.73439415
_symmetry_Int_Tables_number   1
_chemical_formula_structural   Sn4SF6
_chemical_formula_sum   'Sn8 S2 F12'
_cell_volume   485.35861272
_cell_formula_units_Z   2
loop_
 _symmetry_equiv_pos_site_id
 _symmetry_equiv_pos_as_xyz
  1  'x, y, z'
loop_
 _atom_site_type_symbol
 _atom_site_label
 _atom_site_symmetry_multiplicity
 _atom_site_fract_x
 _atom_site_fract_y
 _atom_site_fract_z
 _atom_site_occupancy
  Sn  Sn0  1  0.679988  0.320012  0.852960  1
  Sn  Sn1  1  0.320012  0.679988  0.352960  1
  Sn  Sn2  1  0.812615  0.642319  0.332090  1
  Sn  Sn3  1  0.357681  0.187385  0.332090  1
  Sn  Sn4  1  0.849489  0.150511  0.440999  1
  Sn  Sn5  1  0.187385  0.357681  0.832090  1
  Sn  Sn6  1  0.642319  0.812615  0.832090  1
  Sn  Sn7  1  0.150511  0.849489  0.940999  1
  S  S8  1  0.663400  0.336600  0.562009  1
  S  S9  1  0.336600  0.663400  0.062009  1
  F  F10  1  0.918328  0.732605  0.103210  1
  F  F11  1  0.267395  0.081672  0.103210  1
  F  F12  1  0.851031  0.148969  0.887434  1
  F  F13  1  0.081672  0.267395  0.603210  1
  F  F14  1  0.732605  0.918328  0.603210  1
  F  F15  1  0.148969  0.851031  0.387434  1
  F  F16  1  0.006019  0.491666  0.325304  1
  F  F17  1  0.616212  0.383788  0.216128  1
  F  F18  1  0.508334  0.993981  0.325304  1
  F  F19  1  0.993981  0.508334  0.825304  1
  F  F20  1  0.383788  0.616212  0.716128  1
  F  F21  1  0.491666  0.006019  0.825304  1
