# generated using pymatgen
data_Ba3Ag2
_symmetry_space_group_name_H-M   'P 1'
_cell_length_a   8.94118027
_cell_length_b   8.94118027
_cell_length_c   8.94118027
_cell_angle_alpha   72.70255423
_cell_angle_beta   72.70255423
_cell_angle_gamma   72.70255423
_symmetry_Int_Tables_number   1
_chemical_formula_structural   Ba3Ag2
_chemical_formula_sum   'Ba9 Ag6'
_cell_volume   634.26276592
_cell_formula_units_Z   3
loop_
 _symmetry_equiv_pos_site_id
 _symmetry_equiv_pos_as_xyz
  1  'x, y, z'
loop_
 _atom_site_type_symbol
 _atom_site_label
 _atom_site_symmetry_multiplicity
 _atom_site_fract_x
 _atom_site_fract_y
 _atom_site_fract_z
 _atom_site_occupancy
  Ba  Ba0  1  0.500000  0.500000  0.500000  1
  Ba  Ba1  1  0.706204  0.706204  0.706204  1
  Ba  Ba2  1  0.293796  0.293796  0.293796  1
  Ba  Ba3  1  0.885500  0.665336  0.167533  1
  Ba  Ba4  1  0.167533  0.885500  0.665336  1
  Ba  Ba5  1  0.665336  0.167533  0.885500  1
  Ba  Ba6  1  0.114500  0.334664  0.832467  1
  Ba  Ba7  1  0.832467  0.114500  0.334664  1
  Ba  Ba8  1  0.334664  0.832467  0.114500  1
  Ag  Ag9  1  0.909842  0.365608  0.537011  1
  Ag  Ag10  1  0.537011  0.909842  0.365608  1
  Ag  Ag11  1  0.365608  0.537011  0.909842  1
  Ag  Ag12  1  0.090158  0.634392  0.462989  1
  Ag  Ag13  1  0.462989  0.090158  0.634392  1
  Ag  Ag14  1  0.634392  0.462989  0.090158  1
