# generated using pymatgen
data_Zn11Ni2
_symmetry_space_group_name_H-M   'P 1'
_cell_length_a   7.76331014
_cell_length_b   7.76331014
_cell_length_c   7.76331014
_cell_angle_alpha   109.47122063
_cell_angle_beta   109.47122063
_cell_angle_gamma   109.47122063
_symmetry_Int_Tables_number   1
_chemical_formula_structural   Zn11Ni2
_chemical_formula_sum   'Zn22 Ni4'
_cell_volume   360.17944000
_cell_formula_units_Z   2
loop_
 _symmetry_equiv_pos_site_id
 _symmetry_equiv_pos_as_xyz
  1  'x, y, z'
loop_
 _atom_site_type_symbol
 _atom_site_label
 _atom_site_symmetry_multiplicity
 _atom_site_fract_x
 _atom_site_fract_y
 _atom_site_fract_z
 _atom_site_occupancy
  Zn  Zn0  1  0.210177  0.000000  0.000000  1
  Zn  Zn1  1  1.000000  0.210177  0.000000  1
  Zn  Zn2  1  0.000000  0.000000  0.210177  1
  Zn  Zn3  1  0.789823  0.789823  0.789823  1
  Zn  Zn4  1  0.000000  0.644079  0.644079  1
  Zn  Zn5  1  0.355921  1.000000  0.355921  1
  Zn  Zn6  1  0.355921  0.355921  0.000000  1
  Zn  Zn7  1  0.000000  0.355921  0.355921  1
  Zn  Zn8  1  0.644079  1.000000  0.644079  1
  Zn  Zn9  1  0.644079  0.644079  0.000000  1
  Zn  Zn10  1  0.351262  0.736666  1.000000  1
  Zn  Zn11  1  0.614596  0.263334  0.263334  1
  Zn  Zn12  1  0.351262  1.000000  0.736666  1
  Zn  Zn13  1  0.736666  0.351262  0.000000  1
  Zn  Zn14  1  0.000000  0.351262  0.736666  1
  Zn  Zn15  1  0.263334  0.614596  0.263334  1
  Zn  Zn16  1  0.263334  0.263334  0.614596  1
  Zn  Zn17  1  1.000000  0.736666  0.351262  1
  Zn  Zn18  1  0.736666  0.000000  0.351262  1
  Zn  Zn19  1  0.648738  0.648738  0.385404  1
  Zn  Zn20  1  0.385404  0.648738  0.648738  1
  Zn  Zn21  1  0.648738  0.385404  0.648738  1
  Ni  Ni22  1  0.658414  0.000000  0.000000  1
  Ni  Ni23  1  1.000000  0.658414  1.000000  1
  Ni  Ni24  1  1.000000  1.000000  0.658414  1
  Ni  Ni25  1  0.341586  0.341586  0.341586  1
