# generated using pymatgen
data_Ga2AsRh5
_symmetry_space_group_name_H-M   'P 1'
_cell_length_a   4.07173660
_cell_length_b   5.51327339
_cell_length_c   10.29314944
_cell_angle_alpha   90.00000000
_cell_angle_beta   90.00000000
_cell_angle_gamma   90.00000000
_symmetry_Int_Tables_number   1
_chemical_formula_structural   Ga2AsRh5
_chemical_formula_sum   'Ga4 As2 Rh10'
_cell_volume   231.06676413
_cell_formula_units_Z   2
loop_
 _symmetry_equiv_pos_site_id
 _symmetry_equiv_pos_as_xyz
  1  'x, y, z'
loop_
 _atom_site_type_symbol
 _atom_site_label
 _atom_site_symmetry_multiplicity
 _atom_site_fract_x
 _atom_site_fract_y
 _atom_site_fract_z
 _atom_site_occupancy
  Ga  Ga0  1  0.500000  0.385348  0.350606  1
  Ga  Ga1  1  0.500000  0.614652  0.649394  1
  Ga  Ga2  1  0.500000  0.114652  0.850606  1
  Ga  Ga3  1  0.500000  0.885348  0.149394  1
  As  As4  1  0.000000  0.000000  0.500000  1
  As  As5  1  0.000000  0.500000  0.000000  1
  Rh  Rh6  1  0.500000  0.332136  0.103020  1
  Rh  Rh7  1  0.500000  0.667864  0.896980  1
  Rh  Rh8  1  0.500000  0.832136  0.396980  1
  Rh  Rh9  1  0.500000  0.167864  0.603020  1
  Rh  Rh10  1  0.000000  0.862530  0.724609  1
  Rh  Rh11  1  0.000000  0.137470  0.275391  1
  Rh  Rh12  1  0.000000  0.362530  0.775391  1
  Rh  Rh13  1  0.000000  0.637470  0.224609  1
  Rh  Rh14  1  0.000000  0.500000  0.500000  1
  Rh  Rh15  1  0.000000  0.000000  0.000000  1
