# generated using pymatgen
data_K3SbSe3
_symmetry_space_group_name_H-M   'P 1'
_cell_length_a   9.98063954
_cell_length_b   9.98063954
_cell_length_c   9.98063954
_cell_angle_alpha   90.00000000
_cell_angle_beta   90.00000000
_cell_angle_gamma   90.00000000
_symmetry_Int_Tables_number   1
_chemical_formula_structural   K3SbSe3
_chemical_formula_sum   'K12 Sb4 Se12'
_cell_volume   994.20309957
_cell_formula_units_Z   4
loop_
 _symmetry_equiv_pos_site_id
 _symmetry_equiv_pos_as_xyz
  1  'x, y, z'
loop_
 _atom_site_type_symbol
 _atom_site_label
 _atom_site_symmetry_multiplicity
 _atom_site_fract_x
 _atom_site_fract_y
 _atom_site_fract_z
 _atom_site_occupancy
  K  K0  1  0.817376  0.182624  0.682624  1
  K  K1  1  0.187859  0.312141  0.687859  1
  K  K2  1  0.312141  0.687859  0.187859  1
  K  K3  1  0.687859  0.187859  0.312141  1
  K  K4  1  0.812141  0.812141  0.812141  1
  K  K5  1  0.421655  0.078345  0.921655  1
  K  K6  1  0.078345  0.921655  0.421655  1
  K  K7  1  0.921655  0.421655  0.078345  1
  K  K8  1  0.578345  0.578345  0.578345  1
  K  K9  1  0.682624  0.817376  0.182624  1
  K  K10  1  0.182624  0.682624  0.817376  1
  K  K11  1  0.317376  0.317376  0.317376  1
  Sb  Sb12  1  0.027709  0.027709  0.027709  1
  Sb  Sb13  1  0.472291  0.972291  0.527709  1
  Sb  Sb14  1  0.527709  0.472291  0.972291  1
  Sb  Sb15  1  0.972291  0.527709  0.472291  1
  Se  Se16  1  0.220840  0.602392  0.497375  1
  Se  Se17  1  0.779160  0.102392  0.002625  1
  Se  Se18  1  0.997375  0.279160  0.397608  1
  Se  Se19  1  0.720840  0.897608  0.502625  1
  Se  Se20  1  0.102392  0.002625  0.779160  1
  Se  Se21  1  0.502625  0.720840  0.897608  1
  Se  Se22  1  0.002625  0.779160  0.102392  1
  Se  Se23  1  0.397608  0.997375  0.279160  1
  Se  Se24  1  0.497375  0.220840  0.602392  1
  Se  Se25  1  0.897608  0.502625  0.720840  1
  Se  Se26  1  0.602392  0.497375  0.220840  1
  Se  Se27  1  0.279160  0.397608  0.997375  1
