# generated using pymatgen
data_Ce2HfSe5
_symmetry_space_group_name_H-M   'P 1'
_cell_length_a   7.70753931
_cell_length_b   8.44992517
_cell_length_c   11.97107579
_cell_angle_alpha   90.00000000
_cell_angle_beta   90.00000000
_cell_angle_gamma   90.00000000
_symmetry_Int_Tables_number   1
_chemical_formula_structural   Ce2HfSe5
_chemical_formula_sum   'Ce8 Hf4 Se20'
_cell_volume   779.65378525
_cell_formula_units_Z   4
loop_
 _symmetry_equiv_pos_site_id
 _symmetry_equiv_pos_as_xyz
  1  'x, y, z'
loop_
 _atom_site_type_symbol
 _atom_site_label
 _atom_site_symmetry_multiplicity
 _atom_site_fract_x
 _atom_site_fract_y
 _atom_site_fract_z
 _atom_site_occupancy
  Ce  Ce0  1  0.051908  0.498533  0.826291  1
  Ce  Ce1  1  0.551908  0.501467  0.673709  1
  Ce  Ce2  1  0.448092  0.001467  0.326291  1
  Ce  Ce3  1  0.948092  0.998533  0.173709  1
  Ce  Ce4  1  0.948092  0.501467  0.173709  1
  Ce  Ce5  1  0.448092  0.498533  0.326291  1
  Ce  Ce6  1  0.551908  0.998533  0.673709  1
  Ce  Ce7  1  0.051908  0.001467  0.826291  1
  Hf  Hf8  1  0.575331  0.750000  0.990895  1
  Hf  Hf9  1  0.075331  0.250000  0.509105  1
  Hf  Hf10  1  0.924669  0.750000  0.490895  1
  Hf  Hf11  1  0.424669  0.250000  0.009105  1
  Se  Se12  1  0.834795  0.750000  0.708963  1
  Se  Se13  1  0.334795  0.250000  0.791037  1
  Se  Se14  1  0.665205  0.750000  0.208963  1
  Se  Se15  1  0.165205  0.250000  0.291037  1
  Se  Se16  1  0.554811  0.750000  0.494277  1
  Se  Se17  1  0.054811  0.250000  0.005723  1
  Se  Se18  1  0.945189  0.750000  0.994277  1
  Se  Se19  1  0.445189  0.250000  0.505723  1
  Se  Se20  1  0.353330  0.750000  0.810190  1
  Se  Se21  1  0.853330  0.250000  0.689810  1
  Se  Se22  1  0.146670  0.750000  0.310190  1
  Se  Se23  1  0.646670  0.250000  0.189810  1
  Se  Se24  1  0.176370  0.537700  0.577025  1
  Se  Se25  1  0.676370  0.462300  0.922975  1
  Se  Se26  1  0.323630  0.962300  0.077025  1
  Se  Se27  1  0.823630  0.037700  0.422975  1
  Se  Se28  1  0.823630  0.462300  0.422975  1
  Se  Se29  1  0.323630  0.537700  0.077025  1
  Se  Se30  1  0.676370  0.037700  0.922975  1
  Se  Se31  1  0.176370  0.962300  0.577025  1
