# generated using pymatgen
data_Ca2UO5
_symmetry_space_group_name_H-M   'P 1'
_cell_length_a   7.97661333
_cell_length_b   5.50585750
_cell_length_c   11.49088575
_cell_angle_alpha   90.00000000
_cell_angle_beta   108.18827199
_cell_angle_gamma   90.00000000
_symmetry_Int_Tables_number   1
_chemical_formula_structural   Ca2UO5
_chemical_formula_sum   'Ca8 U4 O20'
_cell_volume   479.44308547
_cell_formula_units_Z   4
loop_
 _symmetry_equiv_pos_site_id
 _symmetry_equiv_pos_as_xyz
  1  'x, y, z'
loop_
 _atom_site_type_symbol
 _atom_site_label
 _atom_site_symmetry_multiplicity
 _atom_site_fract_x
 _atom_site_fract_y
 _atom_site_fract_z
 _atom_site_occupancy
  Ca  Ca0  1  0.152225  0.944599  0.318655  1
  Ca  Ca1  1  0.847775  0.444599  0.181345  1
  Ca  Ca2  1  0.847775  0.055401  0.681345  1
  Ca  Ca3  1  0.152225  0.555401  0.818655  1
  Ca  Ca4  1  0.349719  0.493632  0.138573  1
  Ca  Ca5  1  0.650281  0.993632  0.361427  1
  Ca  Ca6  1  0.650281  0.506368  0.861427  1
  Ca  Ca7  1  0.349719  0.006368  0.638573  1
  U  U8  1  0.000000  0.000000  0.000000  1
  U  U9  1  0.000000  0.500000  0.500000  1
  U  U10  1  0.500000  0.000000  0.000000  1
  U  U11  1  0.500000  0.500000  0.500000  1
  O  O12  1  0.250166  0.681630  0.496752  1
  O  O13  1  0.749834  0.181630  0.003248  1
  O  O14  1  0.749834  0.318370  0.503248  1
  O  O15  1  0.250166  0.818370  0.996752  1
  O  O16  1  0.016576  0.750705  0.633698  1
  O  O17  1  0.983424  0.250705  0.866302  1
  O  O18  1  0.983424  0.249295  0.366302  1
  O  O19  1  0.016576  0.749295  0.133698  1
  O  O20  1  0.615915  0.807809  0.572054  1
  O  O21  1  0.384085  0.307809  0.927946  1
  O  O22  1  0.384085  0.192191  0.427946  1
  O  O23  1  0.615915  0.692191  0.072054  1
  O  O24  1  0.449705  0.668259  0.327779  1
  O  O25  1  0.550295  0.168259  0.172221  1
  O  O26  1  0.550295  0.331741  0.672221  1
  O  O27  1  0.449705  0.831741  0.827779  1
  O  O28  1  0.878125  0.722128  0.358266  1
  O  O29  1  0.121875  0.222128  0.141734  1
  O  O30  1  0.121875  0.277872  0.641734  1
  O  O31  1  0.878125  0.777872  0.858266  1
