# generated using pymatgen
data_CaBe13
_symmetry_space_group_name_H-M   'P 1'
_cell_length_a   7.23826101
_cell_length_b   7.23826101
_cell_length_c   7.23826101
_cell_angle_alpha   60.00000000
_cell_angle_beta   60.00000000
_cell_angle_gamma   60.00000000
_symmetry_Int_Tables_number   1
_chemical_formula_structural   CaBe13
_chemical_formula_sum   'Ca2 Be26'
_cell_volume   268.15612441
_cell_formula_units_Z   2
loop_
 _symmetry_equiv_pos_site_id
 _symmetry_equiv_pos_as_xyz
  1  'x, y, z'
loop_
 _atom_site_type_symbol
 _atom_site_label
 _atom_site_symmetry_multiplicity
 _atom_site_fract_x
 _atom_site_fract_y
 _atom_site_fract_z
 _atom_site_occupancy
  Ca  Ca0  1  0.750000  0.750000  0.750000  1
  Ca  Ca1  1  0.250000  0.250000  0.250000  1
  Be  Be2  1  0.000000  0.000000  0.000000  1
  Be  Be3  1  0.500000  0.500000  0.500000  1
  Be  Be4  1  0.064679  0.288699  0.711301  1
  Be  Be5  1  0.564679  0.788699  0.435321  1
  Be  Be6  1  0.788699  0.564679  0.211301  1
  Be  Be7  1  0.211301  0.564679  0.435321  1
  Be  Be8  1  0.788699  0.435321  0.564679  1
  Be  Be9  1  0.211301  0.788699  0.564679  1
  Be  Be10  1  0.564679  0.435321  0.211301  1
  Be  Be11  1  0.711301  0.288699  0.935321  1
  Be  Be12  1  0.935321  0.288699  0.064679  1
  Be  Be13  1  0.711301  0.064679  0.288699  1
  Be  Be14  1  0.288699  0.711301  0.064679  1
  Be  Be15  1  0.064679  0.935321  0.288699  1
  Be  Be16  1  0.064679  0.711301  0.935321  1
  Be  Be17  1  0.935321  0.064679  0.711301  1
  Be  Be18  1  0.288699  0.935321  0.711301  1
  Be  Be19  1  0.435321  0.788699  0.211301  1
  Be  Be20  1  0.211301  0.435321  0.788699  1
  Be  Be21  1  0.435321  0.564679  0.788699  1
  Be  Be22  1  0.788699  0.211301  0.435321  1
  Be  Be23  1  0.435321  0.211301  0.564679  1
  Be  Be24  1  0.564679  0.211301  0.788699  1
  Be  Be25  1  0.288699  0.064679  0.935321  1
  Be  Be26  1  0.935321  0.711301  0.288699  1
  Be  Be27  1  0.711301  0.935321  0.064679  1
