# generated using pymatgen
data_La4B10O21
_symmetry_space_group_name_H-M   'P 1'
_cell_length_a   7.22427331
_cell_length_b   19.85499861
_cell_length_c   11.68403869
_cell_angle_alpha   90.00000000
_cell_angle_beta   124.41138576
_cell_angle_gamma   90.00000000
_symmetry_Int_Tables_number   1
_chemical_formula_structural   La4B10O21
_chemical_formula_sum   'La16 B40 O84'
_cell_volume   1382.64791152
_cell_formula_units_Z   4
loop_
 _symmetry_equiv_pos_site_id
 _symmetry_equiv_pos_as_xyz
  1  'x, y, z'
loop_
 _atom_site_type_symbol
 _atom_site_label
 _atom_site_symmetry_multiplicity
 _atom_site_fract_x
 _atom_site_fract_y
 _atom_site_fract_z
 _atom_site_occupancy
  La  La0  1  0.464900  0.699974  0.338675  1
  La  La1  1  0.464900  0.800026  0.838675  1
  La  La2  1  0.535100  0.300026  0.661325  1
  La  La3  1  0.535100  0.199974  0.161325  1
  La  La4  1  0.926826  0.795153  0.323384  1
  La  La5  1  0.926826  0.704847  0.823384  1
  La  La6  1  0.073174  0.204847  0.676616  1
  La  La7  1  0.073174  0.295153  0.176616  1
  La  La8  1  0.475444  0.918172  0.340359  1
  La  La9  1  0.475444  0.581828  0.840359  1
  La  La10  1  0.524556  0.081828  0.659641  1
  La  La11  1  0.524556  0.418172  0.159641  1
  La  La12  1  0.001871  0.579675  0.350071  1
  La  La13  1  0.001871  0.920325  0.850071  1
  La  La14  1  0.998129  0.420325  0.649929  1
  La  La15  1  0.998129  0.079675  0.149929  1
  B  B16  1  0.035313  0.906853  0.553527  1
  B  B17  1  0.035313  0.593147  0.053527  1
  B  B18  1  0.964687  0.093147  0.446473  1
  B  B19  1  0.964687  0.406853  0.946473  1
  B  B20  1  0.084374  0.978382  0.392820  1
  B  B21  1  0.084374  0.521618  0.892820  1
  B  B22  1  0.915626  0.021618  0.607180  1
  B  B23  1  0.915626  0.478382  0.107180  1
  B  B24  1  0.524496  0.905837  0.053991  1
  B  B25  1  0.524496  0.594163  0.553991  1
  B  B26  1  0.475504  0.094163  0.946009  1
  B  B27  1  0.475504  0.405837  0.446009  1
  B  B28  1  0.598218  0.524778  0.395628  1
  B  B29  1  0.598218  0.975222  0.895628  1
  B  B30  1  0.401782  0.475222  0.604372  1
  B  B31  1  0.401782  0.024778  0.104372  1
  B  B32  1  0.932061  0.921459  0.135150  1
  B  B33  1  0.932061  0.578541  0.635150  1
  B  B34  1  0.067939  0.078541  0.864850  1
  B  B35  1  0.067939  0.421459  0.364850  1
  B  B36  1  0.998759  0.811217  0.046866  1
  B  B37  1  0.998759  0.688783  0.546866  1
  B  B38  1  0.001241  0.188783  0.953134  1
  B  B39  1  0.001241  0.311217  0.453134  1
  B  B40  1  0.409227  0.705724  0.621592  1
  B  B41  1  0.409227  0.794276  0.121592  1
  B  B42  1  0.590773  0.294276  0.378408  1
  B  B43  1  0.590773  0.205724  0.878408  1
  B  B44  1  0.432327  0.572666  0.129073  1
  B  B45  1  0.432327  0.927334  0.629073  1
  B  B46  1  0.567673  0.427334  0.870927  1
  B  B47  1  0.567673  0.072666  0.370927  1
  B  B48  1  0.480365  0.821278  0.546975  1
  B  B49  1  0.480365  0.678722  0.046975  1
  B  B50  1  0.519635  0.178722  0.453025  1
  B  B51  1  0.519635  0.321278  0.953025  1
  B  B52  1  0.937771  0.701644  0.119932  1
  B  B53  1  0.937771  0.798356  0.619932  1
  B  B54  1  0.062229  0.298356  0.880068  1
  B  B55  1  0.062229  0.201644  0.380068  1
  O  O56  1  0.677853  0.021186  0.479995  1
  O  O57  1  0.677853  0.478814  0.979995  1
  O  O58  1  0.322147  0.978814  0.520005  1
  O  O59  1  0.322147  0.521186  0.020005  1
  O  O60  1  0.385637  0.657656  0.518616  1
  O  O61  1  0.385637  0.842344  0.018616  1
  O  O62  1  0.614363  0.342344  0.481384  1
  O  O63  1  0.614363  0.157656  0.981384  1
  O  O64  1  0.272268  0.617800  0.128708  1
  O  O65  1  0.272268  0.882200  0.628708  1
  O  O66  1  0.727732  0.382200  0.871292  1
  O  O67  1  0.727732  0.117800  0.371292  1
  O  O68  1  0.889172  0.844507  0.518541  1
  O  O69  1  0.889172  0.655493  0.018541  1
  O  O70  1  0.110828  0.155493  0.481459  1
  O  O71  1  0.110828  0.344507  0.981459  1
  O  O72  1  0.760516  0.886634  0.139340  1
  O  O73  1  0.760516  0.613366  0.639340  1
  O  O74  1  0.239484  0.113366  0.860660  1
  O  O75  1  0.239484  0.386634  0.360660  1
  O  O76  1  0.848144  0.677708  0.399075  1
  O  O77  1  0.848144  0.822292  0.899075  1
  O  O78  1  0.151856  0.322292  0.600925  1
  O  O79  1  0.151856  0.177708  0.100925  1
  O  O80  1  0.596568  0.541484  0.267053  1
  O  O81  1  0.596568  0.958516  0.767053  1
  O  O82  1  0.403432  0.458516  0.732947  1
  O  O83  1  0.403432  0.041484  0.232947  1
  O  O84  1  0.456370  0.570850  0.413626  1
  O  O85  1  0.456370  0.929150  0.913626  1
  O  O86  1  0.543630  0.429150  0.586374  1
  O  O87  1  0.543630  0.070850  0.086374  1
  O  O88  1  0.335854  0.812078  0.408279  1
  O  O89  1  0.335854  0.687922  0.908279  1
  O  O90  1  0.664146  0.187922  0.591721  1
  O  O91  1  0.664146  0.312078  0.091721  1
  O  O92  1  0.953736  0.929983  0.413834  1
  O  O93  1  0.953736  0.570017  0.913834  1
  O  O94  1  0.046264  0.070017  0.586166  1
  O  O95  1  0.046264  0.429983  0.086166  1
  O  O96  1  0.061830  0.686925  0.256517  1
  O  O97  1  0.061830  0.813075  0.756517  1
  O  O98  1  0.938170  0.313075  0.743483  1
  O  O99  1  0.938170  0.186925  0.243483  1
  O  O100  1  0.543530  0.817662  0.263191  1
  O  O101  1  0.543530  0.682338  0.763191  1
  O  O102  1  0.456470  0.182338  0.736809  1
  O  O103  1  0.456470  0.317662  0.236809  1
  O  O104  1  0.001864  0.952088  0.638269  1
  O  O105  1  0.001864  0.547912  0.138269  1
  O  O106  1  0.998136  0.047912  0.361731  1
  O  O107  1  0.998136  0.452088  0.861731  1
  O  O108  1  0.188732  0.733806  0.580514  1
  O  O109  1  0.188732  0.766194  0.080514  1
  O  O110  1  0.811268  0.266194  0.419486  1
  O  O111  1  0.811268  0.233806  0.919486  1
  O  O112  1  0.907853  0.039646  0.731540  1
  O  O113  1  0.907853  0.460354  0.231540  1
  O  O114  1  0.092147  0.960354  0.268460  1
  O  O115  1  0.092147  0.539646  0.768460  1
  O  O116  1  0.083020  0.872614  0.129207  1
  O  O117  1  0.083020  0.627386  0.629207  1
  O  O118  1  0.916980  0.127386  0.870793  1
  O  O119  1  0.916980  0.372614  0.370793  1
  O  O120  1  0.581001  0.615339  0.100475  1
  O  O121  1  0.581001  0.884661  0.600475  1
  O  O122  1  0.418999  0.384661  0.899525  1
  O  O123  1  0.418999  0.115339  0.399525  1
  O  O124  1  0.837318  0.969398  0.017756  1
  O  O125  1  0.837318  0.530602  0.517756  1
  O  O126  1  0.162682  0.030602  0.982244  1
  O  O127  1  0.162682  0.469398  0.482244  1
  O  O128  1  0.855407  0.767522  0.081334  1
  O  O129  1  0.855407  0.732478  0.581334  1
  O  O130  1  0.144593  0.232478  0.918666  1
  O  O131  1  0.144593  0.267522  0.418666  1
  O  O132  1  0.547332  0.731377  0.138909  1
  O  O133  1  0.547332  0.768623  0.638909  1
  O  O134  1  0.452668  0.268623  0.861091  1
  O  O135  1  0.452668  0.231377  0.361091  1
  O  O136  1  0.460048  0.952452  0.123197  1
  O  O137  1  0.460048  0.547548  0.623197  1
  O  O138  1  0.539952  0.047548  0.876803  1
  O  O139  1  0.539952  0.452452  0.376803  1
