# generated using pymatgen
data_LiTmSiO4
_symmetry_space_group_name_H-M   'P 1'
_cell_length_a   4.93885577
_cell_length_b   6.26707222
_cell_length_c   10.84832345
_cell_angle_alpha   90.00000000
_cell_angle_beta   90.00000000
_cell_angle_gamma   90.00000000
_symmetry_Int_Tables_number   1
_chemical_formula_structural   LiTmSiO4
_chemical_formula_sum   'Li4 Tm4 Si4 O16'
_cell_volume   335.77910602
_cell_formula_units_Z   4
loop_
 _symmetry_equiv_pos_site_id
 _symmetry_equiv_pos_as_xyz
  1  'x, y, z'
loop_
 _atom_site_type_symbol
 _atom_site_label
 _atom_site_symmetry_multiplicity
 _atom_site_fract_x
 _atom_site_fract_y
 _atom_site_fract_z
 _atom_site_occupancy
  Li  Li0  1  0.000000  0.000000  0.000000  1
  Li  Li1  1  0.500000  0.000000  0.500000  1
  Li  Li2  1  0.000000  0.500000  0.000000  1
  Li  Li3  1  0.500000  0.500000  0.500000  1
  Tm  Tm4  1  0.980366  0.750000  0.276807  1
  Tm  Tm5  1  0.519634  0.750000  0.776807  1
  Tm  Tm6  1  0.019634  0.250000  0.723193  1
  Tm  Tm7  1  0.480366  0.250000  0.223193  1
  Si  Si8  1  0.417418  0.750000  0.087995  1
  Si  Si9  1  0.082582  0.750000  0.587995  1
  Si  Si10  1  0.582582  0.250000  0.912005  1
  Si  Si11  1  0.917418  0.250000  0.412005  1
  O  O12  1  0.226109  0.545403  0.663006  1
  O  O13  1  0.773891  0.454597  0.336994  1
  O  O14  1  0.273891  0.545403  0.163006  1
  O  O15  1  0.226109  0.954597  0.663006  1
  O  O16  1  0.726109  0.045403  0.836994  1
  O  O17  1  0.254606  0.250000  0.902154  1
  O  O18  1  0.726109  0.454597  0.836994  1
  O  O19  1  0.773891  0.045403  0.336994  1
  O  O20  1  0.745394  0.750000  0.097846  1
  O  O21  1  0.245394  0.250000  0.402154  1
  O  O22  1  0.712570  0.250000  0.050671  1
  O  O23  1  0.754606  0.750000  0.597846  1
  O  O24  1  0.787430  0.250000  0.550671  1
  O  O25  1  0.212570  0.750000  0.449329  1
  O  O26  1  0.287430  0.750000  0.949329  1
  O  O27  1  0.273891  0.954597  0.163006  1
