# generated using pymatgen
data_YbAu2
_symmetry_space_group_name_H-M   'P 1'
_cell_length_a   5.26092178
_cell_length_b   5.26092178
_cell_length_c   5.26092178
_cell_angle_alpha   138.24348876
_cell_angle_beta   138.24348876
_cell_angle_gamma   60.53028825
_symmetry_Int_Tables_number   1
_chemical_formula_structural   YbAu2
_chemical_formula_sum   'Yb1 Au2'
_cell_volume   63.89172653
_cell_formula_units_Z   1
loop_
 _symmetry_equiv_pos_site_id
 _symmetry_equiv_pos_as_xyz
  1  'x, y, z'
loop_
 _atom_site_type_symbol
 _atom_site_label
 _atom_site_symmetry_multiplicity
 _atom_site_fract_x
 _atom_site_fract_y
 _atom_site_fract_z
 _atom_site_occupancy
  Yb  Yb0  1  0.000000  0.000000  0.000000  1
  Au  Au1  1  0.664709  0.664709  0.000000  1
  Au  Au2  1  0.335291  0.335291  0.000000  1
