# generated using pymatgen
data_Ba6Lu2(WO6)3
_symmetry_space_group_name_H-M   'P 1'
_cell_length_a   14.84230705
_cell_length_b   14.84230705
_cell_length_c   14.84230705
_cell_angle_alpha   23.02531743
_cell_angle_beta   23.02531743
_cell_angle_gamma   23.02531743
_symmetry_Int_Tables_number   1
_chemical_formula_structural   Ba6Lu2(WO6)3
_chemical_formula_sum   'Ba6 Lu2 W3 O18'
_cell_volume   439.03333763
_cell_formula_units_Z   1
loop_
 _symmetry_equiv_pos_site_id
 _symmetry_equiv_pos_as_xyz
  1  'x, y, z'
loop_
 _atom_site_type_symbol
 _atom_site_label
 _atom_site_symmetry_multiplicity
 _atom_site_fract_x
 _atom_site_fract_y
 _atom_site_fract_z
 _atom_site_occupancy
  Ba  Ba0  1  0.363272  0.363272  0.363272  1
  Ba  Ba1  1  0.636728  0.636728  0.636728  1
  Ba  Ba2  1  0.186718  0.186718  0.186718  1
  Ba  Ba3  1  0.813282  0.813282  0.813282  1
  Ba  Ba4  1  0.087782  0.087782  0.087782  1
  Ba  Ba5  1  0.912218  0.912218  0.912218  1
  Lu  Lu6  1  0.275601  0.275601  0.275601  1
  Lu  Lu7  1  0.724399  0.724399  0.724399  1
  W  W8  1  0.447415  0.447415  0.447415  1
  W  W9  1  0.552585  0.552585  0.552585  1
  W  W10  1  0.000000  1.000000  0.000000  1
  O  O11  1  0.868775  0.340119  0.868775  1
  O  O12  1  0.340119  0.868775  0.868775  1
  O  O13  1  0.868775  0.868775  0.340119  1
  O  O14  1  0.131225  0.131225  0.659881  1
  O  O15  1  0.131225  0.659881  0.131225  1
  O  O16  1  0.659881  0.131225  0.131225  1
  O  O17  1  0.426655  0.894854  0.426655  1
  O  O18  1  0.894854  0.426655  0.426655  1
  O  O19  1  0.426655  0.426655  0.894854  1
  O  O20  1  0.573345  0.573345  0.105146  1
  O  O21  1  0.573345  0.105146  0.573345  1
  O  O22  1  0.212979  0.689842  0.689842  1
  O  O23  1  0.689842  0.212979  0.689842  1
  O  O24  1  0.689842  0.689842  0.212979  1
  O  O25  1  0.310158  0.310158  0.787021  1
  O  O26  1  0.787021  0.310158  0.310158  1
  O  O27  1  0.310158  0.787021  0.310158  1
  O  O28  1  0.105146  0.573345  0.573345  1
