# generated using pymatgen
data_KEu(PO3)4
_symmetry_space_group_name_H-M   'P 1'
_cell_length_a   10.66606629
_cell_length_b   9.17223203
_cell_length_c   12.99025888
_cell_angle_alpha   90.00000000
_cell_angle_beta   125.51948625
_cell_angle_gamma   90.00000000
_symmetry_Int_Tables_number   1
_chemical_formula_structural   KEu(PO3)4
_chemical_formula_sum   'K4 Eu4 P16 O48'
_cell_volume   1034.37438360
_cell_formula_units_Z   4
loop_
 _symmetry_equiv_pos_site_id
 _symmetry_equiv_pos_as_xyz
  1  'x, y, z'
loop_
 _atom_site_type_symbol
 _atom_site_label
 _atom_site_symmetry_multiplicity
 _atom_site_fract_x
 _atom_site_fract_y
 _atom_site_fract_z
 _atom_site_occupancy
  K  K0  1  0.256401  0.069308  0.541549  1
  K  K1  1  0.256401  0.430692  0.041549  1
  K  K2  1  0.743599  0.930692  0.458451  1
  K  K3  1  0.743599  0.569308  0.958451  1
  Eu  Eu4  1  0.685229  0.273559  0.686268  1
  Eu  Eu5  1  0.685229  0.226441  0.186268  1
  Eu  Eu6  1  0.314771  0.726441  0.313732  1
  Eu  Eu7  1  0.314771  0.773559  0.813732  1
  P  P8  1  0.384699  0.404777  0.740010  1
  P  P9  1  0.384699  0.095223  0.240010  1
  P  P10  1  0.615301  0.595223  0.259990  1
  P  P11  1  0.615301  0.904777  0.759990  1
  P  P12  1  0.316855  0.328877  0.356373  1
  P  P13  1  0.316855  0.171123  0.856373  1
  P  P14  1  0.683145  0.671123  0.643627  1
  P  P15  1  0.683145  0.828877  0.143627  1
  P  P16  1  0.978241  0.526120  0.731071  1
  P  P17  1  0.978241  0.973880  0.231071  1
  P  P18  1  0.021759  0.473880  0.268929  1
  P  P19  1  0.021759  0.026120  0.768929  1
  P  P20  1  0.801829  0.398255  0.481097  1
  P  P21  1  0.801829  0.101745  0.981097  1
  P  P22  1  0.198171  0.601745  0.518903  1
  P  P23  1  0.198171  0.898255  0.018903  1
  O  O24  1  0.959612  0.458412  0.606811  1
  O  O25  1  0.959612  0.041588  0.106811  1
  O  O26  1  0.040388  0.541588  0.393189  1
  O  O27  1  0.040388  0.958412  0.893189  1
  O  O28  1  0.938217  0.414882  0.792853  1
  O  O29  1  0.938217  0.085118  0.292853  1
  O  O30  1  0.061783  0.585118  0.207147  1
  O  O31  1  0.061783  0.914882  0.707147  1
  O  O32  1  0.274071  0.291963  0.748813  1
  O  O33  1  0.274071  0.208037  0.248813  1
  O  O34  1  0.725929  0.708037  0.251187  1
  O  O35  1  0.725929  0.791963  0.751187  1
  O  O36  1  0.576481  0.034255  0.675465  1
  O  O37  1  0.576481  0.465745  0.175465  1
  O  O38  1  0.423519  0.965745  0.324535  1
  O  O39  1  0.423519  0.534255  0.824535  1
  O  O40  1  0.420568  0.262757  0.485230  1
  O  O41  1  0.420568  0.237243  0.985230  1
  O  O42  1  0.579432  0.737243  0.514770  1
  O  O43  1  0.579432  0.762757  0.014770  1
  O  O44  1  0.136076  0.592232  0.811416  1
  O  O45  1  0.136076  0.907768  0.311416  1
  O  O46  1  0.863924  0.407768  0.188584  1
  O  O47  1  0.863924  0.092232  0.688584  1
  O  O48  1  0.515000  0.321692  0.754568  1
  O  O49  1  0.515000  0.178308  0.254568  1
  O  O50  1  0.485000  0.678308  0.245432  1
  O  O51  1  0.485000  0.821692  0.745432  1
  O  O52  1  0.837043  0.204546  0.910955  1
  O  O53  1  0.837043  0.295454  0.410955  1
  O  O54  1  0.162957  0.795454  0.089045  1
  O  O55  1  0.162957  0.704546  0.589045  1
  O  O56  1  0.698667  0.344366  0.516506  1
  O  O57  1  0.698667  0.155634  0.016506  1
  O  O58  1  0.301333  0.655634  0.483494  1
  O  O59  1  0.301333  0.844366  0.983494  1
  O  O60  1  0.641890  0.533229  0.679959  1
  O  O61  1  0.641890  0.966771  0.179959  1
  O  O62  1  0.358110  0.466771  0.320041  1
  O  O63  1  0.358110  0.033229  0.820041  1
  O  O64  1  0.851552  0.656558  0.670600  1
  O  O65  1  0.851552  0.843442  0.170600  1
  O  O66  1  0.148448  0.343442  0.329400  1
  O  O67  1  0.148448  0.156558  0.829400  1
  O  O68  1  0.262761  0.448275  0.593687  1
  O  O69  1  0.262761  0.051725  0.093687  1
  O  O70  1  0.737239  0.551725  0.406313  1
  O  O71  1  0.737239  0.948275  0.906313  1
