# generated using pymatgen
data_SrLi(B3O5)3
_symmetry_space_group_name_H-M   'P 1'
_cell_length_a   8.61179469
_cell_length_b   8.61179469
_cell_length_c   8.61179469
_cell_angle_alpha   77.83245232
_cell_angle_beta   77.83245232
_cell_angle_gamma   77.83245232
_symmetry_Int_Tables_number   1
_chemical_formula_structural   SrLi(B3O5)3
_chemical_formula_sum   'Sr2 Li2 B18 O30'
_cell_volume   600.98529689
_cell_formula_units_Z   2
loop_
 _symmetry_equiv_pos_site_id
 _symmetry_equiv_pos_as_xyz
  1  'x, y, z'
loop_
 _atom_site_type_symbol
 _atom_site_label
 _atom_site_symmetry_multiplicity
 _atom_site_fract_x
 _atom_site_fract_y
 _atom_site_fract_z
 _atom_site_occupancy
  Sr  Sr0  1  0.507808  0.507808  0.507808  1
  Sr  Sr1  1  0.007808  0.007808  0.007808  1
  Li  Li2  1  0.766867  0.766867  0.766867  1
  Li  Li3  1  0.266867  0.266867  0.266867  1
  B  B4  1  0.231134  0.374870  0.896107  1
  B  B5  1  0.724691  0.288714  0.166340  1
  B  B6  1  0.224691  0.666340  0.788714  1
  B  B7  1  0.666340  0.788714  0.224691  1
  B  B8  1  0.874870  0.731134  0.396107  1
  B  B9  1  0.731134  0.396107  0.874870  1
  B  B10  1  0.396107  0.874870  0.731134  1
  B  B11  1  0.166340  0.724691  0.288714  1
  B  B12  1  0.896107  0.231134  0.374870  1
  B  B13  1  0.374870  0.896107  0.231134  1
  B  B14  1  0.060238  0.719421  0.577232  1
  B  B15  1  0.719421  0.577232  0.060238  1
  B  B16  1  0.577232  0.060238  0.719421  1
  B  B17  1  0.077232  0.219421  0.560238  1
  B  B18  1  0.219421  0.560238  0.077232  1
  B  B19  1  0.560238  0.077232  0.219421  1
  B  B20  1  0.288714  0.166340  0.724691  1
  B  B21  1  0.788714  0.224691  0.666340  1
  O  O22  1  0.204670  0.230879  0.874686  1
  O  O23  1  0.230879  0.874686  0.204670  1
  O  O24  1  0.494945  0.768919  0.264848  1
  O  O25  1  0.264848  0.494945  0.768919  1
  O  O26  1  0.874686  0.204670  0.230879  1
  O  O27  1  0.268919  0.994945  0.764848  1
  O  O28  1  0.764848  0.268919  0.994945  1
  O  O29  1  0.994945  0.764848  0.268919  1
  O  O30  1  0.740263  0.725239  0.074513  1
  O  O31  1  0.074513  0.740263  0.725239  1
  O  O32  1  0.725239  0.074513  0.740263  1
  O  O33  1  0.225239  0.240263  0.574513  1
  O  O34  1  0.574513  0.225239  0.240263  1
  O  O35  1  0.240263  0.574513  0.225239  1
  O  O36  1  0.374686  0.730879  0.704670  1
  O  O37  1  0.730879  0.704670  0.374686  1
  O  O38  1  0.188737  0.692523  0.457516  1
  O  O39  1  0.692523  0.457516  0.188737  1
  O  O40  1  0.457516  0.188737  0.692523  1
  O  O41  1  0.957516  0.192523  0.688737  1
  O  O42  1  0.192523  0.688737  0.957516  1
  O  O43  1  0.688737  0.957516  0.192523  1
  O  O44  1  0.901603  0.725026  0.553111  1
  O  O45  1  0.725026  0.553111  0.901603  1
  O  O46  1  0.553111  0.901603  0.725026  1
  O  O47  1  0.053111  0.225026  0.401603  1
  O  O48  1  0.225026  0.401603  0.053111  1
  O  O49  1  0.401603  0.053111  0.225026  1
  O  O50  1  0.768919  0.264848  0.494945  1
  O  O51  1  0.704670  0.374686  0.730879  1
