# generated using pymatgen
data_AlPt
_symmetry_space_group_name_H-M   'P 1'
_cell_length_a   4.91744923
_cell_length_b   4.91744923
_cell_length_c   4.91744923
_cell_angle_alpha   90.00000000
_cell_angle_beta   90.00000000
_cell_angle_gamma   90.00000000
_symmetry_Int_Tables_number   1
_chemical_formula_structural   AlPt
_chemical_formula_sum   'Al4 Pt4'
_cell_volume   118.91034914
_cell_formula_units_Z   4
loop_
 _symmetry_equiv_pos_site_id
 _symmetry_equiv_pos_as_xyz
  1  'x, y, z'
loop_
 _atom_site_type_symbol
 _atom_site_label
 _atom_site_symmetry_multiplicity
 _atom_site_fract_x
 _atom_site_fract_y
 _atom_site_fract_z
 _atom_site_occupancy
  Al  Al0  1  0.844017  0.844017  0.844017  1
  Al  Al1  1  0.655983  0.155983  0.344017  1
  Al  Al2  1  0.344017  0.655983  0.155983  1
  Al  Al3  1  0.155983  0.344017  0.655983  1
  Pt  Pt4  1  0.154867  0.154867  0.154867  1
  Pt  Pt5  1  0.345133  0.845133  0.654867  1
  Pt  Pt6  1  0.654867  0.345133  0.845133  1
  Pt  Pt7  1  0.845133  0.654867  0.345133  1
