# generated using pymatgen
data_Na2H3CO6
_symmetry_space_group_name_H-M   'P 1'
_cell_length_a   6.87164391
_cell_length_b   9.15878714
_cell_length_c   15.92961025
_cell_angle_alpha   90.00000000
_cell_angle_beta   90.00000000
_cell_angle_gamma   90.00000000
_symmetry_Int_Tables_number   1
_chemical_formula_structural   Na2H3CO6
_chemical_formula_sum   'Na16 H24 C8 O48'
_cell_volume   1002.54473803
_cell_formula_units_Z   8
loop_
 _symmetry_equiv_pos_site_id
 _symmetry_equiv_pos_as_xyz
  1  'x, y, z'
loop_
 _atom_site_type_symbol
 _atom_site_label
 _atom_site_symmetry_multiplicity
 _atom_site_fract_x
 _atom_site_fract_y
 _atom_site_fract_z
 _atom_site_occupancy
  Na  Na0  1  0.747006  0.734574  0.011094  1
  Na  Na1  1  0.752994  0.234574  0.988906  1
  Na  Na2  1  0.252994  0.765426  0.511094  1
  Na  Na3  1  0.247006  0.265426  0.488906  1
  Na  Na4  1  0.252994  0.265426  0.988906  1
  Na  Na5  1  0.247006  0.765426  0.011094  1
  Na  Na6  1  0.747006  0.234574  0.488906  1
  Na  Na7  1  0.752994  0.734574  0.511094  1
  Na  Na8  1  0.757947  0.999078  0.249747  1
  Na  Na9  1  0.742053  0.499078  0.750253  1
  Na  Na10  1  0.242053  0.500922  0.749747  1
  Na  Na11  1  0.257947  0.000922  0.250253  1
  Na  Na12  1  0.242053  0.000922  0.750253  1
  Na  Na13  1  0.257947  0.500922  0.249747  1
  Na  Na14  1  0.757947  0.499078  0.250253  1
  Na  Na15  1  0.742053  0.999078  0.749747  1
  H  H16  1  0.052672  0.725446  0.188566  1
  H  H17  1  0.447328  0.225446  0.811434  1
  H  H18  1  0.947328  0.774554  0.688566  1
  H  H19  1  0.552672  0.274554  0.311434  1
  H  H20  1  0.947328  0.274554  0.811434  1
  H  H21  1  0.552672  0.774554  0.188566  1
  H  H22  1  0.052672  0.225446  0.311434  1
  H  H23  1  0.447328  0.725446  0.688566  1
  H  H24  1  0.955532  0.483365  0.104117  1
  H  H25  1  0.544468  0.983365  0.895883  1
  H  H26  1  0.044468  0.016635  0.604117  1
  H  H27  1  0.455532  0.516635  0.395883  1
  H  H28  1  0.044468  0.516635  0.895883  1
  H  H29  1  0.455532  0.016635  0.104117  1
  H  H30  1  0.955532  0.983365  0.395883  1
  H  H31  1  0.544468  0.483365  0.604117  1
  H  H32  1  0.957222  0.029459  0.082094  1
  H  H33  1  0.542778  0.529459  0.917906  1
  H  H34  1  0.042778  0.470541  0.582094  1
  H  H35  1  0.457222  0.970541  0.417906  1
  H  H36  1  0.042778  0.970541  0.917906  1
  H  H37  1  0.457222  0.470541  0.082094  1
  H  H38  1  0.957222  0.529459  0.417906  1
  H  H39  1  0.542778  0.029459  0.582094  1
  C  C40  1  0.004044  0.748048  0.338109  1
  C  C41  1  0.495956  0.248048  0.661891  1
  C  C42  1  0.995956  0.751952  0.838109  1
  C  C43  1  0.504044  0.251952  0.161891  1
  C  C44  1  0.995956  0.251952  0.661891  1
  C  C45  1  0.504044  0.751952  0.338109  1
  C  C46  1  0.004044  0.248048  0.161891  1
  C  C47  1  0.495956  0.748048  0.838109  1
  O  O48  1  0.012613  0.821184  0.268141  1
  O  O49  1  0.487387  0.321184  0.731859  1
  O  O50  1  0.987387  0.678816  0.768141  1
  O  O51  1  0.512613  0.178816  0.231859  1
  O  O52  1  0.987387  0.178816  0.731859  1
  O  O53  1  0.512613  0.678816  0.268141  1
  O  O54  1  0.012613  0.321184  0.231859  1
  O  O55  1  0.487387  0.821184  0.768141  1
  O  O56  1  0.993376  0.817051  0.409392  1
  O  O57  1  0.506624  0.317051  0.590608  1
  O  O58  1  0.006624  0.682949  0.909392  1
  O  O59  1  0.493376  0.182949  0.090608  1
  O  O60  1  0.006624  0.182949  0.590608  1
  O  O61  1  0.493376  0.682949  0.409392  1
  O  O62  1  0.993376  0.317051  0.090608  1
  O  O63  1  0.506624  0.817051  0.909392  1
  O  O64  1  0.006036  0.606207  0.335703  1
  O  O65  1  0.493964  0.106207  0.664297  1
  O  O66  1  0.993964  0.893793  0.835703  1
  O  O67  1  0.506036  0.393793  0.164297  1
  O  O68  1  0.993964  0.393793  0.664297  1
  O  O69  1  0.506036  0.893793  0.335703  1
  O  O70  1  0.006036  0.106207  0.164297  1
  O  O71  1  0.493964  0.606207  0.835703  1
  O  O72  1  0.095760  0.662013  0.138088  1
  O  O73  1  0.404240  0.162013  0.861912  1
  O  O74  1  0.904240  0.837987  0.638088  1
  O  O75  1  0.595760  0.337987  0.361912  1
  O  O76  1  0.904240  0.337987  0.861912  1
  O  O77  1  0.595760  0.837987  0.138088  1
  O  O78  1  0.095760  0.162013  0.361912  1
  O  O79  1  0.404240  0.662013  0.638088  1
  O  O80  1  0.910735  0.589608  0.115425  1
  O  O81  1  0.589265  0.089608  0.884575  1
  O  O82  1  0.089265  0.910392  0.615425  1
  O  O83  1  0.410735  0.410392  0.384575  1
  O  O84  1  0.089265  0.410392  0.884575  1
  O  O85  1  0.410735  0.910392  0.115425  1
  O  O86  1  0.910735  0.089608  0.384575  1
  O  O87  1  0.589265  0.589608  0.615425  1
  O  O88  1  0.914490  0.980895  0.026276  1
  O  O89  1  0.585510  0.480895  0.973724  1
  O  O90  1  0.085510  0.519105  0.526276  1
  O  O91  1  0.414490  0.019105  0.473724  1
  O  O92  1  0.085510  0.019105  0.973724  1
  O  O93  1  0.414490  0.519105  0.026276  1
  O  O94  1  0.914490  0.480895  0.473724  1
  O  O95  1  0.585510  0.980895  0.526276  1
