# generated using pymatgen
data_RbNa3Li12(SiO4)4
_symmetry_space_group_name_H-M   'P 1'
_cell_length_a   8.39277569
_cell_length_b   8.39277569
_cell_length_c   8.39277569
_cell_angle_alpha   98.24306158
_cell_angle_beta   98.24306158
_cell_angle_gamma   135.50032692
_symmetry_Int_Tables_number   1
_chemical_formula_structural   RbNa3Li12(SiO4)4
_chemical_formula_sum   'Rb1 Na3 Li12 Si4 O16'
_cell_volume   383.50591229
_cell_formula_units_Z   1
loop_
 _symmetry_equiv_pos_site_id
 _symmetry_equiv_pos_as_xyz
  1  'x, y, z'
loop_
 _atom_site_type_symbol
 _atom_site_label
 _atom_site_symmetry_multiplicity
 _atom_site_fract_x
 _atom_site_fract_y
 _atom_site_fract_z
 _atom_site_occupancy
  Rb  Rb0  1  0.000000  0.000000  0.000000  1
  Na  Na1  1  0.750000  0.250000  0.500000  1
  Na  Na2  1  0.250000  0.750000  0.500000  1
  Na  Na3  1  0.500000  0.500000  0.000000  1
  Li  Li4  1  0.713730  0.927528  0.641258  1
  Li  Li5  1  0.927528  0.286270  0.213797  1
  Li  Li6  1  0.286270  0.072472  0.358742  1
  Li  Li7  1  0.072472  0.713730  0.786203  1
  Li  Li8  1  0.364299  0.490668  0.341490  1
  Li  Li9  1  0.022808  0.364299  0.873631  1
  Li  Li10  1  0.635701  0.509332  0.658510  1
  Li  Li11  1  0.149178  0.022808  0.658510  1
  Li  Li12  1  0.850822  0.977192  0.341490  1
  Li  Li13  1  0.509332  0.850822  0.873631  1
  Li  Li14  1  0.977192  0.635701  0.126369  1
  Li  Li15  1  0.490668  0.149178  0.126369  1
  Si  Si16  1  0.425154  0.780206  0.205359  1
  Si  Si17  1  0.780206  0.574846  0.355052  1
  Si  Si18  1  0.219794  0.425154  0.644948  1
  Si  Si19  1  0.574846  0.219794  0.794641  1
  O  O20  1  0.366962  0.086679  0.886910  1
  O  O21  1  0.086679  0.199768  0.719717  1
  O  O22  1  0.199768  0.480052  0.113090  1
  O  O23  1  0.480052  0.366962  0.280283  1
  O  O24  1  0.913321  0.800232  0.280283  1
  O  O25  1  0.633038  0.913321  0.113090  1
  O  O26  1  0.519948  0.633038  0.719717  1
  O  O27  1  0.800232  0.519948  0.886910  1
  O  O28  1  0.839368  0.435155  0.274524  1
  O  O29  1  0.564845  0.839368  0.404213  1
  O  O30  1  0.435155  0.160632  0.595787  1
  O  O31  1  0.160632  0.564845  0.725476  1
  O  O32  1  0.325194  0.892121  0.217315  1
  O  O33  1  0.107879  0.325194  0.433073  1
  O  O34  1  0.892121  0.674806  0.566927  1
  O  O35  1  0.674806  0.107879  0.782685  1
