# generated using pymatgen
data_Sr4GeP4
_symmetry_space_group_name_H-M   'P 1'
_cell_length_a   12.57653468
_cell_length_b   12.57653468
_cell_length_c   12.57653468
_cell_angle_alpha   90.00000000
_cell_angle_beta   90.00000000
_cell_angle_gamma   90.00000000
_symmetry_Int_Tables_number   1
_chemical_formula_structural   Sr4GeP4
_chemical_formula_sum   'Sr32 Ge8 P32'
_cell_volume   1989.22073795
_cell_formula_units_Z   8
loop_
 _symmetry_equiv_pos_site_id
 _symmetry_equiv_pos_as_xyz
  1  'x, y, z'
loop_
 _atom_site_type_symbol
 _atom_site_label
 _atom_site_symmetry_multiplicity
 _atom_site_fract_x
 _atom_site_fract_y
 _atom_site_fract_z
 _atom_site_occupancy
  Sr  Sr0  1  0.904163  0.867394  0.644822  1
  Sr  Sr1  1  0.904163  0.132606  0.355178  1
  Sr  Sr2  1  0.867394  0.644822  0.904163  1
  Sr  Sr3  1  0.132606  0.644822  0.095837  1
  Sr  Sr4  1  0.644822  0.904163  0.867394  1
  Sr  Sr5  1  0.355178  0.095837  0.867394  1
  Sr  Sr6  1  0.595837  0.855178  0.367394  1
  Sr  Sr7  1  0.595837  0.144822  0.632606  1
  Sr  Sr8  1  0.404163  0.855178  0.632606  1
  Sr  Sr9  1  0.144822  0.632606  0.595837  1
  Sr  Sr10  1  0.632606  0.404163  0.855178  1
  Sr  Sr11  1  0.632606  0.595837  0.144822  1
  Sr  Sr12  1  0.855178  0.367394  0.595837  1
  Sr  Sr13  1  0.367394  0.595837  0.855178  1
  Sr  Sr14  1  0.855178  0.632606  0.404163  1
  Sr  Sr15  1  0.144822  0.367394  0.404163  1
  Sr  Sr16  1  0.367394  0.404163  0.144822  1
  Sr  Sr17  1  0.355178  0.904163  0.132606  1
  Sr  Sr18  1  0.644822  0.095837  0.132606  1
  Sr  Sr19  1  0.867394  0.355178  0.095837  1
  Sr  Sr20  1  0.132606  0.355178  0.904163  1
  Sr  Sr21  1  0.095837  0.132606  0.644822  1
  Sr  Sr22  1  0.095837  0.867394  0.355178  1
  Sr  Sr23  1  0.404163  0.144822  0.367394  1
  Sr  Sr24  1  0.145116  0.145116  0.145116  1
  Sr  Sr25  1  0.354884  0.645116  0.354884  1
  Sr  Sr26  1  0.645116  0.354884  0.354884  1
  Sr  Sr27  1  0.354884  0.354884  0.645116  1
  Sr  Sr28  1  0.145116  0.854884  0.854884  1
  Sr  Sr29  1  0.854884  0.854884  0.145116  1
  Sr  Sr30  1  0.854884  0.145116  0.854884  1
  Sr  Sr31  1  0.645116  0.645116  0.645116  1
  Ge  Ge32  1  0.750000  0.000000  0.500000  1
  Ge  Ge33  1  0.500000  0.750000  0.000000  1
  Ge  Ge34  1  0.500000  0.250000  0.000000  1
  Ge  Ge35  1  0.000000  0.500000  0.250000  1
  Ge  Ge36  1  0.000000  0.500000  0.750000  1
  Ge  Ge37  1  0.250000  0.000000  0.500000  1
  Ge  Ge38  1  0.500000  0.500000  0.500000  1
  Ge  Ge39  1  0.000000  0.000000  0.000000  1
  P  P40  1  0.647441  0.893094  0.617684  1
  P  P41  1  0.647441  0.106906  0.382316  1
  P  P42  1  0.893094  0.617684  0.647441  1
  P  P43  1  0.106906  0.617684  0.352559  1
  P  P44  1  0.617684  0.647441  0.893094  1
  P  P45  1  0.382316  0.352559  0.893094  1
  P  P46  1  0.852559  0.882316  0.393094  1
  P  P47  1  0.852559  0.117684  0.606906  1
  P  P48  1  0.147441  0.882316  0.606906  1
  P  P49  1  0.117684  0.606906  0.852559  1
  P  P50  1  0.606906  0.147441  0.882316  1
  P  P51  1  0.606906  0.852559  0.117684  1
  P  P52  1  0.882316  0.393094  0.852559  1
  P  P53  1  0.393094  0.852559  0.882316  1
  P  P54  1  0.882316  0.606906  0.147441  1
  P  P55  1  0.117684  0.393094  0.147441  1
  P  P56  1  0.393094  0.147441  0.117684  1
  P  P57  1  0.382316  0.647441  0.106906  1
  P  P58  1  0.617684  0.352559  0.106906  1
  P  P59  1  0.893094  0.382316  0.352559  1
  P  P60  1  0.106906  0.382316  0.647441  1
  P  P61  1  0.352559  0.106906  0.617684  1
  P  P62  1  0.352559  0.893094  0.382316  1
  P  P63  1  0.147441  0.117684  0.393094  1
  P  P64  1  0.891277  0.891277  0.891277  1
  P  P65  1  0.608723  0.391277  0.608723  1
  P  P66  1  0.391277  0.608723  0.608723  1
  P  P67  1  0.608723  0.608723  0.391277  1
  P  P68  1  0.891277  0.108723  0.108723  1
  P  P69  1  0.108723  0.108723  0.891277  1
  P  P70  1  0.108723  0.891277  0.108723  1
  P  P71  1  0.391277  0.391277  0.391277  1
