# generated using pymatgen
data_Na2CoP2O7
_symmetry_space_group_name_H-M   'P 1'
_cell_length_a   5.32499087
_cell_length_b   8.81199593
_cell_length_c   13.96464972
_cell_angle_alpha   90.00000000
_cell_angle_beta   90.00000000
_cell_angle_gamma   90.00000000
_symmetry_Int_Tables_number   1
_chemical_formula_structural   Na2CoP2O7
_chemical_formula_sum   'Na8 Co4 P8 O28'
_cell_volume   655.27440084
_cell_formula_units_Z   4
loop_
 _symmetry_equiv_pos_site_id
 _symmetry_equiv_pos_as_xyz
  1  'x, y, z'
loop_
 _atom_site_type_symbol
 _atom_site_label
 _atom_site_symmetry_multiplicity
 _atom_site_fract_x
 _atom_site_fract_y
 _atom_site_fract_z
 _atom_site_occupancy
  Na  Na0  1  0.750000  0.866431  0.602554  1
  Na  Na1  1  0.750000  0.633569  0.102554  1
  Na  Na2  1  0.250000  0.133569  0.397446  1
  Na  Na3  1  0.250000  0.366431  0.897446  1
  Na  Na4  1  0.250000  0.865067  0.202974  1
  Na  Na5  1  0.250000  0.634933  0.702974  1
  Na  Na6  1  0.750000  0.134933  0.797026  1
  Na  Na7  1  0.750000  0.365067  0.297026  1
  Co  Co8  1  0.750000  0.768886  0.329805  1
  Co  Co9  1  0.750000  0.731114  0.829805  1
  Co  Co10  1  0.250000  0.231114  0.670195  1
  Co  Co11  1  0.250000  0.268886  0.170195  1
  P  P12  1  0.750000  0.054648  0.191187  1
  P  P13  1  0.750000  0.445352  0.691187  1
  P  P14  1  0.250000  0.945352  0.808813  1
  P  P15  1  0.250000  0.554648  0.308813  1
  P  P16  1  0.750000  0.274739  0.039857  1
  P  P17  1  0.750000  0.225261  0.539857  1
  P  P18  1  0.250000  0.725261  0.960143  1
  P  P19  1  0.250000  0.774739  0.460143  1
  O  O20  1  0.991064  0.121930  0.234609  1
  O  O21  1  0.508936  0.378070  0.734609  1
  O  O22  1  0.491064  0.878070  0.765391  1
  O  O23  1  0.008936  0.621930  0.265391  1
  O  O24  1  0.008936  0.878070  0.765391  1
  O  O25  1  0.491064  0.621930  0.265391  1
  O  O26  1  0.508936  0.121930  0.234609  1
  O  O27  1  0.991064  0.378070  0.734609  1
  O  O28  1  0.750000  0.880781  0.196263  1
  O  O29  1  0.750000  0.619219  0.696263  1
  O  O30  1  0.250000  0.119219  0.803737  1
  O  O31  1  0.250000  0.380781  0.303737  1
  O  O32  1  0.750000  0.096346  0.078222  1
  O  O33  1  0.750000  0.403654  0.578222  1
  O  O34  1  0.250000  0.903654  0.921778  1
  O  O35  1  0.250000  0.596346  0.421778  1
  O  O36  1  0.514278  0.351230  0.082449  1
  O  O37  1  0.985722  0.148770  0.582449  1
  O  O38  1  0.014278  0.648770  0.917551  1
  O  O39  1  0.485722  0.851230  0.417551  1
  O  O40  1  0.485722  0.648770  0.917551  1
  O  O41  1  0.014278  0.851230  0.417551  1
  O  O42  1  0.985722  0.351230  0.082449  1
  O  O43  1  0.514278  0.148770  0.582449  1
  O  O44  1  0.750000  0.264915  0.932549  1
  O  O45  1  0.750000  0.235085  0.432549  1
  O  O46  1  0.250000  0.735085  0.067451  1
  O  O47  1  0.250000  0.764915  0.567451  1
