# generated using pymatgen
data_Ba2Co(BO2)6
_symmetry_space_group_name_H-M   'P 1'
_cell_length_a   7.03118152
_cell_length_b   7.03118152
_cell_length_c   7.03118152
_cell_angle_alpha   61.14771794
_cell_angle_beta   61.14771794
_cell_angle_gamma   61.14771794
_symmetry_Int_Tables_number   1
_chemical_formula_structural   Ba2Co(BO2)6
_chemical_formula_sum   'Ba2 Co1 B6 O12'
_cell_volume   252.14115204
_cell_formula_units_Z   1
loop_
 _symmetry_equiv_pos_site_id
 _symmetry_equiv_pos_as_xyz
  1  'x, y, z'
loop_
 _atom_site_type_symbol
 _atom_site_label
 _atom_site_symmetry_multiplicity
 _atom_site_fract_x
 _atom_site_fract_y
 _atom_site_fract_z
 _atom_site_occupancy
  Ba  Ba0  1  0.791469  0.791469  0.791469  1
  Ba  Ba1  1  0.208531  0.208531  0.208531  1
  Co  Co2  1  0.000000  0.000000  0.000000  1
  B  B3  1  0.355340  0.634607  0.243070  1
  B  B4  1  0.644660  0.365393  0.756930  1
  B  B5  1  0.365393  0.756930  0.644660  1
  B  B6  1  0.634607  0.243070  0.355340  1
  B  B7  1  0.756930  0.644660  0.365393  1
  B  B8  1  0.243070  0.355340  0.634607  1
  O  O9  1  0.572686  0.464169  0.195661  1
  O  O10  1  0.685422  0.159449  0.915898  1
  O  O11  1  0.427314  0.535831  0.804339  1
  O  O12  1  0.159449  0.915898  0.685422  1
  O  O13  1  0.195661  0.572686  0.464169  1
  O  O14  1  0.804339  0.427314  0.535831  1
  O  O15  1  0.915898  0.685422  0.159449  1
  O  O16  1  0.840551  0.084102  0.314578  1
  O  O17  1  0.314578  0.840551  0.084102  1
  O  O18  1  0.464169  0.195661  0.572686  1
  O  O19  1  0.084102  0.314578  0.840551  1
  O  O20  1  0.535831  0.804339  0.427314  1
