# generated using pymatgen
data_GaSb
_symmetry_space_group_name_H-M   'P 1'
_cell_length_a   4.38393463
_cell_length_b   4.38393463
_cell_length_c   7.20701799
_cell_angle_alpha   90.00000000
_cell_angle_beta   90.00000000
_cell_angle_gamma   120.00000000
_symmetry_Int_Tables_number   1
_chemical_formula_structural   GaSb
_chemical_formula_sum   'Ga2 Sb2'
_cell_volume   119.95390109
_cell_formula_units_Z   2
loop_
 _symmetry_equiv_pos_site_id
 _symmetry_equiv_pos_as_xyz
  1  'x, y, z'
loop_
 _atom_site_type_symbol
 _atom_site_label
 _atom_site_symmetry_multiplicity
 _atom_site_fract_x
 _atom_site_fract_y
 _atom_site_fract_z
 _atom_site_occupancy
  Ga  Ga0  1  0.666667  0.333333  0.500127  1
  Ga  Ga1  1  0.333333  0.666667  0.000127  1
  Sb  Sb2  1  0.666667  0.333333  0.874773  1
  Sb  Sb3  1  0.333333  0.666667  0.374773  1
