# generated using pymatgen
data_MgCN2
_symmetry_space_group_name_H-M   'P 1'
_cell_length_a   4.43017460
_cell_length_b   4.43017460
_cell_length_c   4.43017460
_cell_angle_alpha   119.08709399
_cell_angle_beta   119.08709399
_cell_angle_gamma   91.58860883
_symmetry_Int_Tables_number   1
_chemical_formula_structural   MgCN2
_chemical_formula_sum   'Mg2 C2 N4'
_cell_volume   62.30438192
_cell_formula_units_Z   2
loop_
 _symmetry_equiv_pos_site_id
 _symmetry_equiv_pos_as_xyz
  1  'x, y, z'
loop_
 _atom_site_type_symbol
 _atom_site_label
 _atom_site_symmetry_multiplicity
 _atom_site_fract_x
 _atom_site_fract_y
 _atom_site_fract_z
 _atom_site_occupancy
  Mg  Mg0  1  0.750000  0.250000  0.500000  1
  Mg  Mg1  1  0.000000  0.000000  0.000000  1
  C  C2  1  0.500000  0.500000  0.000000  1
  C  C3  1  0.250000  0.750000  0.500000  1
  N  N4  1  0.227860  0.125000  0.602860  1
  N  N5  1  0.375000  0.772140  0.897140  1
  N  N6  1  0.522140  0.625000  0.397140  1
  N  N7  1  0.875000  0.477860  0.102860  1
