# generated using pymatgen
data_LiLa2MoO6
_symmetry_space_group_name_H-M   'P 1'
_cell_length_a   5.63177787
_cell_length_b   5.79514067
_cell_length_c   9.72236596
_cell_angle_alpha   90.00000000
_cell_angle_beta   124.22970587
_cell_angle_gamma   90.00000000
_symmetry_Int_Tables_number   1
_chemical_formula_structural   LiLa2MoO6
_chemical_formula_sum   'Li2 La4 Mo2 O12'
_cell_volume   262.34704458
_cell_formula_units_Z   2
loop_
 _symmetry_equiv_pos_site_id
 _symmetry_equiv_pos_as_xyz
  1  'x, y, z'
loop_
 _atom_site_type_symbol
 _atom_site_label
 _atom_site_symmetry_multiplicity
 _atom_site_fract_x
 _atom_site_fract_y
 _atom_site_fract_z
 _atom_site_occupancy
  Li  Li0  1  0.000000  0.000000  0.000000  1
  Li  Li1  1  0.000000  0.500000  0.500000  1
  La  La2  1  0.766753  0.941544  0.256062  1
  La  La3  1  0.233247  0.441544  0.243938  1
  La  La4  1  0.766753  0.558456  0.756062  1
  La  La5  1  0.233247  0.058456  0.743938  1
  Mo  Mo6  1  0.500000  0.500000  0.000000  1
  Mo  Mo7  1  0.500000  0.000000  0.500000  1
  O  O8  1  0.268331  0.779053  0.947250  1
  O  O9  1  0.268331  0.720947  0.447250  1
  O  O10  1  0.731669  0.220947  0.052750  1
  O  O11  1  0.731669  0.279053  0.552750  1
  O  O12  1  0.156273  0.188499  0.450896  1
  O  O13  1  0.354398  0.467074  0.756147  1
  O  O14  1  0.843727  0.811501  0.549104  1
  O  O15  1  0.156273  0.311501  0.950896  1
  O  O16  1  0.843727  0.688499  0.049104  1
  O  O17  1  0.645602  0.532926  0.243853  1
  O  O18  1  0.354398  0.032926  0.256147  1
  O  O19  1  0.645602  0.967074  0.743853  1
