# generated using pymatgen
data_Dy2SiSeO4
_symmetry_space_group_name_H-M   'P 1'
_cell_length_a   6.06530181
_cell_length_b   6.98394431
_cell_length_c   10.85430213
_cell_angle_alpha   90.00000000
_cell_angle_beta   90.00000000
_cell_angle_gamma   90.00000000
_symmetry_Int_Tables_number   1
_chemical_formula_structural   Dy2SiSeO4
_chemical_formula_sum   'Dy8 Si4 Se4 O16'
_cell_volume   459.78530826
_cell_formula_units_Z   4
loop_
 _symmetry_equiv_pos_site_id
 _symmetry_equiv_pos_as_xyz
  1  'x, y, z'
loop_
 _atom_site_type_symbol
 _atom_site_label
 _atom_site_symmetry_multiplicity
 _atom_site_fract_x
 _atom_site_fract_y
 _atom_site_fract_z
 _atom_site_occupancy
  Dy  Dy0  1  0.609584  0.250000  0.500000  1
  Dy  Dy1  1  0.609584  0.250000  0.000000  1
  Dy  Dy2  1  0.390416  0.750000  0.500000  1
  Dy  Dy3  1  0.390416  0.750000  0.000000  1
  Dy  Dy4  1  0.866197  0.528719  0.750000  1
  Dy  Dy5  1  0.866197  0.971281  0.250000  1
  Dy  Dy6  1  0.133803  0.028719  0.750000  1
  Dy  Dy7  1  0.133803  0.471281  0.250000  1
  Si  Si8  1  0.114750  0.250000  0.500000  1
  Si  Si9  1  0.885250  0.750000  0.500000  1
  Si  Si10  1  0.885250  0.750000  0.000000  1
  Si  Si11  1  0.114750  0.250000  0.000000  1
  Se  Se12  1  0.571016  0.869511  0.750000  1
  Se  Se13  1  0.571016  0.630489  0.250000  1
  Se  Se14  1  0.428984  0.369511  0.750000  1
  Se  Se15  1  0.428984  0.130489  0.250000  1
  O  O16  1  0.277775  0.431427  0.031552  1
  O  O17  1  0.277775  0.068573  0.968448  1
  O  O18  1  0.722225  0.931427  0.468448  1
  O  O19  1  0.722225  0.568573  0.531552  1
  O  O20  1  0.722225  0.568573  0.968448  1
  O  O21  1  0.722225  0.931427  0.031552  1
  O  O22  1  0.277775  0.068573  0.531552  1
  O  O23  1  0.277775  0.431427  0.468448  1
  O  O24  1  0.051713  0.739772  0.120637  1
  O  O25  1  0.051713  0.739772  0.379363  1
  O  O26  1  0.948287  0.239772  0.379363  1
  O  O27  1  0.948287  0.260228  0.620637  1
  O  O28  1  0.948287  0.260228  0.879363  1
  O  O29  1  0.948287  0.239772  0.120637  1
  O  O30  1  0.051713  0.760228  0.620637  1
  O  O31  1  0.051713  0.760228  0.879363  1
