# generated using pymatgen
data_Sr2CeO4
_symmetry_space_group_name_H-M   'P 1'
_cell_length_a   3.63487774
_cell_length_b   6.15604039
_cell_length_c   10.46395421
_cell_angle_alpha   90.00000000
_cell_angle_beta   90.00000000
_cell_angle_gamma   90.00000000
_symmetry_Int_Tables_number   1
_chemical_formula_structural   Sr2CeO4
_chemical_formula_sum   'Sr4 Ce2 O8'
_cell_volume   234.14619192
_cell_formula_units_Z   2
loop_
 _symmetry_equiv_pos_site_id
 _symmetry_equiv_pos_as_xyz
  1  'x, y, z'
loop_
 _atom_site_type_symbol
 _atom_site_label
 _atom_site_symmetry_multiplicity
 _atom_site_fract_x
 _atom_site_fract_y
 _atom_site_fract_z
 _atom_site_occupancy
  Sr  Sr0  1  0.500000  0.436895  0.178811  1
  Sr  Sr1  1  0.500000  0.563105  0.821189  1
  Sr  Sr2  1  0.500000  0.936895  0.321189  1
  Sr  Sr3  1  0.500000  0.063105  0.678811  1
  Ce  Ce4  1  0.000000  0.500000  0.500000  1
  Ce  Ce5  1  0.000000  0.000000  0.000000  1
  O  O6  1  0.500000  0.273406  0.457763  1
  O  O7  1  0.500000  0.726594  0.542237  1
  O  O8  1  0.500000  0.773406  0.042237  1
  O  O9  1  0.500000  0.226594  0.957763  1
  O  O10  1  0.000000  0.642698  0.306603  1
  O  O11  1  0.000000  0.357302  0.693397  1
  O  O12  1  0.000000  0.857302  0.806603  1
  O  O13  1  0.000000  0.142698  0.193397  1
