# generated using pymatgen
data_Sm3In
_symmetry_space_group_name_H-M   'P 1'
_cell_length_a   7.07587005
_cell_length_b   7.07587005
_cell_length_c   5.53790481
_cell_angle_alpha   90.00000000
_cell_angle_beta   90.00000000
_cell_angle_gamma   120.00000000
_symmetry_Int_Tables_number   1
_chemical_formula_structural   Sm3In
_chemical_formula_sum   'Sm6 In2'
_cell_volume   240.12413614
_cell_formula_units_Z   2
loop_
 _symmetry_equiv_pos_site_id
 _symmetry_equiv_pos_as_xyz
  1  'x, y, z'
loop_
 _atom_site_type_symbol
 _atom_site_label
 _atom_site_symmetry_multiplicity
 _atom_site_fract_x
 _atom_site_fract_y
 _atom_site_fract_z
 _atom_site_occupancy
  Sm  Sm0  1  0.174448  0.348895  0.250000  1
  Sm  Sm1  1  0.651105  0.825552  0.250000  1
  Sm  Sm2  1  0.174448  0.825552  0.250000  1
  Sm  Sm3  1  0.825552  0.651105  0.750000  1
  Sm  Sm4  1  0.348895  0.174448  0.750000  1
  Sm  Sm5  1  0.825552  0.174448  0.750000  1
  In  In6  1  0.333333  0.666667  0.750000  1
  In  In7  1  0.666667  0.333333  0.250000  1
