# generated using pymatgen
data_SmPtF7
_symmetry_space_group_name_H-M   'P 1'
_cell_length_a   9.07580027
_cell_length_b   5.63097437
_cell_length_c   12.18920424
_cell_angle_alpha   90.00000000
_cell_angle_beta   117.88976782
_cell_angle_gamma   90.00000000
_symmetry_Int_Tables_number   1
_chemical_formula_structural   SmPtF7
_chemical_formula_sum   'Sm4 Pt4 F28'
_cell_volume   550.58198668
_cell_formula_units_Z   4
loop_
 _symmetry_equiv_pos_site_id
 _symmetry_equiv_pos_as_xyz
  1  'x, y, z'
loop_
 _atom_site_type_symbol
 _atom_site_label
 _atom_site_symmetry_multiplicity
 _atom_site_fract_x
 _atom_site_fract_y
 _atom_site_fract_z
 _atom_site_occupancy
  Sm  Sm0  1  0.812325  0.760543  0.235682  1
  Sm  Sm1  1  0.187675  0.260543  0.264318  1
  Sm  Sm2  1  0.187675  0.239457  0.764318  1
  Sm  Sm3  1  0.812325  0.739457  0.735682  1
  Pt  Pt4  1  0.273011  0.757415  0.042695  1
  Pt  Pt5  1  0.726989  0.257415  0.457305  1
  Pt  Pt6  1  0.726989  0.242585  0.957305  1
  Pt  Pt7  1  0.273011  0.742585  0.542695  1
  F  F8  1  0.705320  0.434373  0.083995  1
  F  F9  1  0.294680  0.934373  0.416005  1
  F  F10  1  0.294680  0.565627  0.916005  1
  F  F11  1  0.705320  0.065627  0.583995  1
  F  F12  1  0.280651  0.446362  0.459018  1
  F  F13  1  0.719349  0.946362  0.040982  1
  F  F14  1  0.719349  0.553638  0.540982  1
  F  F15  1  0.280651  0.053638  0.959018  1
  F  F16  1  0.517789  0.769362  0.140018  1
  F  F17  1  0.482211  0.269362  0.359982  1
  F  F18  1  0.482211  0.230638  0.859982  1
  F  F19  1  0.517789  0.730638  0.640018  1
  F  F20  1  0.028176  0.755978  0.950264  1
  F  F21  1  0.971824  0.255978  0.549736  1
  F  F22  1  0.971824  0.244022  0.049736  1
  F  F23  1  0.028176  0.744022  0.450264  1
  F  F24  1  0.727104  0.967320  0.367393  1
  F  F25  1  0.272896  0.467320  0.132607  1
  F  F26  1  0.272896  0.032680  0.632607  1
  F  F27  1  0.727104  0.532680  0.867393  1
  F  F28  1  0.743696  0.055497  0.826963  1
  F  F29  1  0.256304  0.555497  0.673037  1
  F  F30  1  0.256304  0.944503  0.173037  1
  F  F31  1  0.743696  0.444503  0.326963  1
  F  F32  1  0.968116  0.410295  0.768280  1
  F  F33  1  0.031884  0.910295  0.731720  1
  F  F34  1  0.031884  0.589705  0.231720  1
  F  F35  1  0.968116  0.089705  0.268280  1
