# generated using pymatgen
data_SmNbO4
_symmetry_space_group_name_H-M   'P 1'
_cell_length_a   6.74908742
_cell_length_b   6.74908742
_cell_length_c   5.21643780
_cell_angle_alpha   68.81588393
_cell_angle_beta   111.18411607
_cell_angle_gamma   65.45616390
_symmetry_Int_Tables_number   1
_chemical_formula_structural   SmNbO4
_chemical_formula_sum   'Sm2 Nb2 O8'
_cell_volume   160.76770509
_cell_formula_units_Z   2
loop_
 _symmetry_equiv_pos_site_id
 _symmetry_equiv_pos_as_xyz
  1  'x, y, z'
loop_
 _atom_site_type_symbol
 _atom_site_label
 _atom_site_symmetry_multiplicity
 _atom_site_fract_x
 _atom_site_fract_y
 _atom_site_fract_z
 _atom_site_occupancy
  Sm  Sm0  1  0.127969  0.127969  0.750000  1
  Sm  Sm1  1  0.872031  0.872031  0.250000  1
  Nb  Nb2  1  0.608674  0.608674  0.750000  1
  Nb  Nb3  1  0.391326  0.391326  0.250000  1
  O  O4  1  0.780522  0.286018  0.192855  1
  O  O5  1  0.286018  0.780522  0.307145  1
  O  O6  1  0.219478  0.713982  0.807145  1
  O  O7  1  0.713982  0.219478  0.692855  1
  O  O8  1  0.552402  0.864696  0.841250  1
  O  O9  1  0.864696  0.552402  0.658750  1
  O  O10  1  0.447598  0.135304  0.158750  1
  O  O11  1  0.135304  0.447598  0.341250  1
