# generated using pymatgen
data_Sr3Hg2
_symmetry_space_group_name_H-M   'P 1'
_cell_length_a   9.07201452
_cell_length_b   9.07201452
_cell_length_c   4.55852470
_cell_angle_alpha   90.00000000
_cell_angle_beta   90.00000000
_cell_angle_gamma   90.00000000
_symmetry_Int_Tables_number   1
_chemical_formula_structural   Sr3Hg2
_chemical_formula_sum   'Sr6 Hg4'
_cell_volume   375.17318105
_cell_formula_units_Z   2
loop_
 _symmetry_equiv_pos_site_id
 _symmetry_equiv_pos_as_xyz
  1  'x, y, z'
loop_
 _atom_site_type_symbol
 _atom_site_label
 _atom_site_symmetry_multiplicity
 _atom_site_fract_x
 _atom_site_fract_y
 _atom_site_fract_z
 _atom_site_occupancy
  Sr  Sr0  1  0.500000  0.500000  0.000000  1
  Sr  Sr1  1  0.000000  0.000000  0.000000  1
  Sr  Sr2  1  0.345692  0.845692  0.500000  1
  Sr  Sr3  1  0.845692  0.654308  0.500000  1
  Sr  Sr4  1  0.654308  0.154308  0.500000  1
  Sr  Sr5  1  0.154308  0.345692  0.500000  1
  Hg  Hg6  1  0.142765  0.642765  0.000000  1
  Hg  Hg7  1  0.642765  0.857235  0.000000  1
  Hg  Hg8  1  0.357235  0.142765  0.000000  1
  Hg  Hg9  1  0.857235  0.357235  0.000000  1
