# generated using pymatgen
data_NaGdTiO4
_symmetry_space_group_name_H-M   'P 1'
_cell_length_a   3.74191645
_cell_length_b   3.74191645
_cell_length_c   12.91215806
_cell_angle_alpha   90.00000000
_cell_angle_beta   90.00000000
_cell_angle_gamma   90.00000000
_symmetry_Int_Tables_number   1
_chemical_formula_structural   NaGdTiO4
_chemical_formula_sum   'Na2 Gd2 Ti2 O8'
_cell_volume   180.79524588
_cell_formula_units_Z   2
loop_
 _symmetry_equiv_pos_site_id
 _symmetry_equiv_pos_as_xyz
  1  'x, y, z'
loop_
 _atom_site_type_symbol
 _atom_site_label
 _atom_site_symmetry_multiplicity
 _atom_site_fract_x
 _atom_site_fract_y
 _atom_site_fract_z
 _atom_site_occupancy
  Na  Na0  1  0.500000  0.000000  0.583197  1
  Na  Na1  1  0.000000  0.500000  0.416803  1
  Gd  Gd2  1  0.000000  0.500000  0.105752  1
  Gd  Gd3  1  0.500000  0.000000  0.894248  1
  Ti  Ti4  1  0.500000  0.000000  0.266485  1
  Ti  Ti5  1  0.000000  0.500000  0.733515  1
  O  O6  1  0.000000  0.500000  0.933579  1
  O  O7  1  0.500000  0.000000  0.066421  1
  O  O8  1  0.000000  0.500000  0.596421  1
  O  O9  1  0.500000  0.000000  0.403579  1
  O  O10  1  0.000000  0.000000  0.228280  1
  O  O11  1  0.500000  0.500000  0.228280  1
  O  O12  1  0.000000  0.000000  0.771720  1
  O  O13  1  0.500000  0.500000  0.771720  1
