# generated using pymatgen
data_YVO3
_symmetry_space_group_name_H-M   'P 1'
_cell_length_a   5.34342419
_cell_length_b   5.74969530
_cell_length_c   7.65569179
_cell_angle_alpha   90.00000000
_cell_angle_beta   90.00000000
_cell_angle_gamma   90.00000000
_symmetry_Int_Tables_number   1
_chemical_formula_structural   YVO3
_chemical_formula_sum   'Y4 V4 O12'
_cell_volume   235.20628536
_cell_formula_units_Z   4
loop_
 _symmetry_equiv_pos_site_id
 _symmetry_equiv_pos_as_xyz
  1  'x, y, z'
loop_
 _atom_site_type_symbol
 _atom_site_label
 _atom_site_symmetry_multiplicity
 _atom_site_fract_x
 _atom_site_fract_y
 _atom_site_fract_z
 _atom_site_occupancy
  Y  Y0  1  0.480127  0.569787  0.750000  1
  Y  Y1  1  0.980127  0.930213  0.250000  1
  Y  Y2  1  0.519873  0.430213  0.250000  1
  Y  Y3  1  0.019873  0.069787  0.750000  1
  V  V4  1  0.000000  0.500000  0.500000  1
  V  V5  1  0.500000  0.000000  0.500000  1
  V  V6  1  0.000000  0.500000  0.000000  1
  V  V7  1  0.500000  0.000000  0.000000  1
  O  O8  1  0.805129  0.188835  0.441139  1
  O  O9  1  0.305129  0.311165  0.558861  1
  O  O10  1  0.194871  0.811165  0.558861  1
  O  O11  1  0.694871  0.688835  0.441139  1
  O  O12  1  0.194871  0.811165  0.941139  1
  O  O13  1  0.694871  0.688835  0.058861  1
  O  O14  1  0.805129  0.188835  0.058861  1
  O  O15  1  0.305129  0.311165  0.941139  1
  O  O16  1  0.882605  0.453385  0.750000  1
  O  O17  1  0.382605  0.046615  0.250000  1
  O  O18  1  0.117395  0.546615  0.250000  1
  O  O19  1  0.617395  0.953385  0.750000  1
