# generated using pymatgen
data_Ho2Si5Ni3
_symmetry_space_group_name_H-M   'P 1'
_cell_length_a   7.84993748
_cell_length_b   7.84993748
_cell_length_c   7.84993748
_cell_angle_alpha   137.93990285
_cell_angle_beta   104.87579792
_cell_angle_gamma   90.04771951
_symmetry_Int_Tables_number   1
_chemical_formula_structural   Ho2Si5Ni3
_chemical_formula_sum   'Ho4 Si10 Ni6'
_cell_volume   299.18829052
_cell_formula_units_Z   2
loop_
 _symmetry_equiv_pos_site_id
 _symmetry_equiv_pos_as_xyz
  1  'x, y, z'
loop_
 _atom_site_type_symbol
 _atom_site_label
 _atom_site_symmetry_multiplicity
 _atom_site_fract_x
 _atom_site_fract_y
 _atom_site_fract_z
 _atom_site_occupancy
  Ho  Ho0  1  0.895067  0.131393  0.763673  1
  Ho  Ho1  1  0.104933  0.868607  0.236327  1
  Ho  Ho2  1  0.632280  0.368607  0.263673  1
  Ho  Ho3  1  0.367720  0.631393  0.736327  1
  Si  Si4  1  1.000000  0.750000  0.750000  1
  Si  Si5  1  1.000000  0.250000  0.250000  1
  Si  Si6  1  0.732978  0.482978  0.750000  1
  Si  Si7  1  0.267022  0.017022  0.750000  1
  Si  Si8  1  0.267022  0.517022  0.250000  1
  Si  Si9  1  0.732978  0.982978  0.250000  1
  Si  Si10  1  0.239741  0.392836  0.846905  1
  Si  Si11  1  0.545930  0.892836  0.653095  1
  Si  Si12  1  0.454070  0.107164  0.346905  1
  Si  Si13  1  0.760259  0.607164  0.153095  1
  Ni  Ni14  1  0.752974  0.865418  0.887556  1
  Ni  Ni15  1  0.500000  0.250000  0.750000  1
  Ni  Ni16  1  0.977862  0.365418  0.612444  1
  Ni  Ni17  1  0.022138  0.634582  0.387556  1
  Ni  Ni18  1  0.247026  0.134582  0.112444  1
  Ni  Ni19  1  0.500000  0.750000  0.250000  1
