# generated using pymatgen
data_KNd2CuS4
_symmetry_space_group_name_H-M   'P 1'
_cell_length_a   7.25824566
_cell_length_b   7.25824566
_cell_length_c   14.03878108
_cell_angle_alpha   90.00000000
_cell_angle_beta   90.00000000
_cell_angle_gamma   147.40903576
_symmetry_Int_Tables_number   1
_chemical_formula_structural   KNd2CuS4
_chemical_formula_sum   'K2 Nd4 Cu2 S8'
_cell_volume   398.37277707
_cell_formula_units_Z   2
loop_
 _symmetry_equiv_pos_site_id
 _symmetry_equiv_pos_as_xyz
  1  'x, y, z'
loop_
 _atom_site_type_symbol
 _atom_site_label
 _atom_site_symmetry_multiplicity
 _atom_site_fract_x
 _atom_site_fract_y
 _atom_site_fract_z
 _atom_site_occupancy
  K  K0  1  0.107632  0.892368  0.250000  1
  K  K1  1  0.892368  0.107632  0.750000  1
  Nd  Nd2  1  0.634610  0.365390  0.937475  1
  Nd  Nd3  1  0.365390  0.634610  0.437475  1
  Nd  Nd4  1  0.634610  0.365390  0.562525  1
  Nd  Nd5  1  0.365390  0.634610  0.062525  1
  Cu  Cu6  1  0.162398  0.837602  0.750000  1
  Cu  Cu7  1  0.837602  0.162398  0.250000  1
  S  S8  1  0.000000  0.000000  0.500000  1
  S  S9  1  0.000000  0.000000  0.000000  1
  S  S10  1  0.737237  0.262763  0.115105  1
  S  S11  1  0.262763  0.737237  0.884895  1
  S  S12  1  0.570082  0.429918  0.750000  1
  S  S13  1  0.737237  0.262763  0.384895  1
  S  S14  1  0.429918  0.570082  0.250000  1
  S  S15  1  0.262763  0.737237  0.615105  1
