# generated using pymatgen
data_Ca3(GeP2)2
_symmetry_space_group_name_H-M   'P 1'
_cell_length_a   7.08852172
_cell_length_b   17.57216778
_cell_length_c   7.14861705
_cell_angle_alpha   90.00000000
_cell_angle_beta   111.74353665
_cell_angle_gamma   90.00000000
_symmetry_Int_Tables_number   1
_chemical_formula_structural   Ca3(GeP2)2
_chemical_formula_sum   'Ca12 Ge8 P16'
_cell_volume   827.08332417
_cell_formula_units_Z   4
loop_
 _symmetry_equiv_pos_site_id
 _symmetry_equiv_pos_as_xyz
  1  'x, y, z'
loop_
 _atom_site_type_symbol
 _atom_site_label
 _atom_site_symmetry_multiplicity
 _atom_site_fract_x
 _atom_site_fract_y
 _atom_site_fract_z
 _atom_site_occupancy
  Ca  Ca0  1  0.011985  0.316950  0.214923  1
  Ca  Ca1  1  0.488015  0.816950  0.785077  1
  Ca  Ca2  1  0.011754  0.060117  0.257418  1
  Ca  Ca3  1  0.511985  0.183050  0.214923  1
  Ca  Ca4  1  0.995908  0.439762  0.737581  1
  Ca  Ca5  1  0.504092  0.939762  0.262419  1
  Ca  Ca6  1  0.004092  0.560238  0.262419  1
  Ca  Ca7  1  0.495908  0.060238  0.737581  1
  Ca  Ca8  1  0.511754  0.439883  0.257418  1
  Ca  Ca9  1  0.988246  0.939883  0.742582  1
  Ca  Ca10  1  0.488246  0.560117  0.742582  1
  Ca  Ca11  1  0.988015  0.683050  0.785077  1
  Ge  Ge12  1  0.030208  0.874499  0.209051  1
  Ge  Ge13  1  0.969792  0.125501  0.790949  1
  Ge  Ge14  1  0.530208  0.625501  0.209051  1
  Ge  Ge15  1  0.084699  0.242449  0.680443  1
  Ge  Ge16  1  0.415301  0.742449  0.319557  1
  Ge  Ge17  1  0.915301  0.757551  0.319557  1
  Ge  Ge18  1  0.584699  0.257551  0.680443  1
  Ge  Ge19  1  0.469792  0.374499  0.790949  1
  P  P20  1  0.253739  0.434123  0.498342  1
  P  P21  1  0.723158  0.685051  0.034443  1
  P  P22  1  0.223158  0.814949  0.034443  1
  P  P23  1  0.276842  0.314949  0.965557  1
  P  P24  1  0.772510  0.303164  0.487484  1
  P  P25  1  0.727490  0.803164  0.512516  1
  P  P26  1  0.227490  0.696836  0.512516  1
  P  P27  1  0.272510  0.196836  0.487484  1
  P  P28  1  0.251583  0.058687  0.996455  1
  P  P29  1  0.776842  0.185051  0.965557  1
  P  P30  1  0.248417  0.558687  0.003545  1
  P  P31  1  0.748417  0.941313  0.003545  1
  P  P32  1  0.246261  0.934123  0.501658  1
  P  P33  1  0.746261  0.565877  0.501658  1
  P  P34  1  0.753739  0.065877  0.498342  1
  P  P35  1  0.751583  0.441313  0.996455  1
