# generated using pymatgen
data_Sm3AuO6
_symmetry_space_group_name_H-M   'P 1'
_cell_length_a   3.74591178
_cell_length_b   5.67705758
_cell_length_c   7.17281827
_cell_angle_alpha   90.59167375
_cell_angle_beta   102.67001622
_cell_angle_gamma   91.12226482
_symmetry_Int_Tables_number   1
_chemical_formula_structural   Sm3AuO6
_chemical_formula_sum   'Sm3 Au1 O6'
_cell_volume   148.77582407
_cell_formula_units_Z   1
loop_
 _symmetry_equiv_pos_site_id
 _symmetry_equiv_pos_as_xyz
  1  'x, y, z'
loop_
 _atom_site_type_symbol
 _atom_site_label
 _atom_site_symmetry_multiplicity
 _atom_site_fract_x
 _atom_site_fract_y
 _atom_site_fract_z
 _atom_site_occupancy
  Sm  Sm0  1  0.609163  0.529153  0.765084  1
  Sm  Sm1  1  0.390837  0.470847  0.234916  1
  Sm  Sm2  1  0.000000  0.000000  0.500000  1
  Au  Au3  1  0.000000  0.000000  0.000000  1
  O  O4  1  0.844638  0.694607  0.114581  1
  O  O5  1  0.155362  0.305393  0.885419  1
  O  O6  1  0.517709  0.256023  0.522305  1
  O  O7  1  0.482291  0.743977  0.477695  1
  O  O8  1  0.125146  0.793429  0.791670  1
  O  O9  1  0.874854  0.206571  0.208330  1
