# generated using pymatgen
data_Rb2GeF6
_symmetry_space_group_name_H-M   'P 1'
_cell_length_a   6.07953046
_cell_length_b   6.07953046
_cell_length_c   9.90047797
_cell_angle_alpha   90.00000000
_cell_angle_beta   90.00000000
_cell_angle_gamma   120.00000000
_symmetry_Int_Tables_number   1
_chemical_formula_structural   Rb2GeF6
_chemical_formula_sum   'Rb4 Ge2 F12'
_cell_volume   316.90337966
_cell_formula_units_Z   2
loop_
 _symmetry_equiv_pos_site_id
 _symmetry_equiv_pos_as_xyz
  1  'x, y, z'
loop_
 _atom_site_type_symbol
 _atom_site_label
 _atom_site_symmetry_multiplicity
 _atom_site_fract_x
 _atom_site_fract_y
 _atom_site_fract_z
 _atom_site_occupancy
  Rb  Rb0  1  0.000000  0.000000  0.095606  1
  Rb  Rb1  1  0.000000  0.000000  0.595606  1
  Rb  Rb2  1  0.666667  0.333333  0.372284  1
  Rb  Rb3  1  0.333333  0.666667  0.872284  1
  Ge  Ge4  1  0.666667  0.333333  0.757015  1
  Ge  Ge5  1  0.333333  0.666667  0.257015  1
  F  F6  1  0.524974  0.475026  0.648139  1
  F  F7  1  0.049948  0.524974  0.148139  1
  F  F8  1  0.475026  0.950052  0.148139  1
  F  F9  1  0.524974  0.049948  0.648139  1
  F  F10  1  0.950052  0.475026  0.648139  1
  F  F11  1  0.475026  0.524974  0.148139  1
  F  F12  1  0.188409  0.811591  0.360226  1
  F  F13  1  0.376817  0.188409  0.860226  1
  F  F14  1  0.811591  0.623183  0.860226  1
  F  F15  1  0.188409  0.376817  0.360226  1
  F  F16  1  0.623183  0.811591  0.360226  1
  F  F17  1  0.811591  0.188409  0.860226  1
