# generated using pymatgen
data_LaMgCu2
_symmetry_space_group_name_H-M   'P 1'
_cell_length_a   4.62714639
_cell_length_b   4.62714639
_cell_length_c   8.97663349
_cell_angle_alpha   90.00000000
_cell_angle_beta   90.00000000
_cell_angle_gamma   120.00000000
_symmetry_Int_Tables_number   1
_chemical_formula_structural   LaMgCu2
_chemical_formula_sum   'La2 Mg2 Cu4'
_cell_volume   166.44494276
_cell_formula_units_Z   2
loop_
 _symmetry_equiv_pos_site_id
 _symmetry_equiv_pos_as_xyz
  1  'x, y, z'
loop_
 _atom_site_type_symbol
 _atom_site_label
 _atom_site_symmetry_multiplicity
 _atom_site_fract_x
 _atom_site_fract_y
 _atom_site_fract_z
 _atom_site_occupancy
  La  La0  1  0.666667  0.333333  0.750000  1
  La  La1  1  0.333333  0.666667  0.250000  1
  Mg  Mg2  1  0.000000  0.000000  0.500000  1
  Mg  Mg3  1  0.000000  0.000000  0.000000  1
  Cu  Cu4  1  0.333333  0.666667  0.575324  1
  Cu  Cu5  1  0.666667  0.333333  0.075324  1
  Cu  Cu6  1  0.666667  0.333333  0.424676  1
  Cu  Cu7  1  0.333333  0.666667  0.924676  1
