# generated using pymatgen
data_As3W2
_symmetry_space_group_name_H-M   'P 1'
_cell_length_a   6.94875109
_cell_length_b   6.94875109
_cell_length_c   9.70095667
_cell_angle_alpha   56.35276778
_cell_angle_beta   123.64723222
_cell_angle_gamma   152.45790982
_symmetry_Int_Tables_number   1
_chemical_formula_structural   As3W2
_chemical_formula_sum   'As6 W4'
_cell_volume   177.89149145
_cell_formula_units_Z   2
loop_
 _symmetry_equiv_pos_site_id
 _symmetry_equiv_pos_as_xyz
  1  'x, y, z'
loop_
 _atom_site_type_symbol
 _atom_site_label
 _atom_site_symmetry_multiplicity
 _atom_site_fract_x
 _atom_site_fract_y
 _atom_site_fract_z
 _atom_site_occupancy
  As  As0  1  0.106079  0.893921  0.630700  1
  As  As1  1  0.893921  0.106079  0.369300  1
  As  As2  1  0.416030  0.583970  0.686747  1
  As  As3  1  0.583970  0.416030  0.313253  1
  As  As4  1  0.875073  0.124927  0.953201  1
  As  As5  1  0.124927  0.875073  0.046799  1
  W  W6  1  0.347269  0.652731  0.128857  1
  W  W7  1  0.652731  0.347269  0.871143  1
  W  W8  1  0.247236  0.752764  0.372373  1
  W  W9  1  0.752764  0.247236  0.627627  1
