# generated using pymatgen
data_CsYbP2O7
_symmetry_space_group_name_H-M   'P 1'
_cell_length_a   7.97043087
_cell_length_b   11.15399125
_cell_length_c   9.05657362
_cell_angle_alpha   90.00000000
_cell_angle_beta   104.22428010
_cell_angle_gamma   90.00000000
_symmetry_Int_Tables_number   1
_chemical_formula_structural   CsYbP2O7
_chemical_formula_sum   'Cs4 Yb4 P8 O28'
_cell_volume   780.46376006
_cell_formula_units_Z   4
loop_
 _symmetry_equiv_pos_site_id
 _symmetry_equiv_pos_as_xyz
  1  'x, y, z'
loop_
 _atom_site_type_symbol
 _atom_site_label
 _atom_site_symmetry_multiplicity
 _atom_site_fract_x
 _atom_site_fract_y
 _atom_site_fract_z
 _atom_site_occupancy
  Cs  Cs0  1  0.803828  0.684503  0.446165  1
  Cs  Cs1  1  0.196172  0.184503  0.053835  1
  Cs  Cs2  1  0.196172  0.315497  0.553835  1
  Cs  Cs3  1  0.803828  0.815497  0.946165  1
  Yb  Yb4  1  0.766690  0.093133  0.249062  1
  Yb  Yb5  1  0.233310  0.593133  0.250938  1
  Yb  Yb6  1  0.233310  0.906867  0.750938  1
  Yb  Yb7  1  0.766690  0.406867  0.749062  1
  P  P8  1  0.572328  0.136994  0.827145  1
  P  P9  1  0.427672  0.636994  0.672855  1
  P  P10  1  0.427672  0.863006  0.172855  1
  P  P11  1  0.572328  0.363006  0.327145  1
  P  P12  1  0.859094  0.400574  0.177846  1
  P  P13  1  0.140906  0.900574  0.322154  1
  P  P14  1  0.140906  0.599426  0.822154  1
  P  P15  1  0.859094  0.099426  0.677846  1
  O  O16  1  0.669822  0.071919  0.709502  1
  O  O17  1  0.330178  0.571919  0.790498  1
  O  O18  1  0.330178  0.928081  0.290498  1
  O  O19  1  0.669822  0.428081  0.209502  1
  O  O20  1  0.016338  0.993227  0.230064  1
  O  O21  1  0.983662  0.493227  0.269936  1
  O  O22  1  0.983662  0.006773  0.769936  1
  O  O23  1  0.016338  0.506773  0.730064  1
  O  O24  1  0.565325  0.228245  0.294932  1
  O  O25  1  0.434675  0.728245  0.205068  1
  O  O26  1  0.434675  0.771755  0.705068  1
  O  O27  1  0.565325  0.271755  0.794932  1
  O  O28  1  0.837523  0.081918  0.507525  1
  O  O29  1  0.162477  0.581918  0.992475  1
  O  O30  1  0.162477  0.918082  0.492475  1
  O  O31  1  0.837523  0.418082  0.007525  1
  O  O32  1  0.911389  0.227904  0.729403  1
  O  O33  1  0.088611  0.727904  0.770597  1
  O  O34  1  0.088611  0.772096  0.270597  1
  O  O35  1  0.911389  0.272096  0.229403  1
  O  O36  1  0.675544  0.393063  0.488497  1
  O  O37  1  0.324456  0.893063  0.011503  1
  O  O38  1  0.324456  0.606937  0.511503  1
  O  O39  1  0.675544  0.106937  0.988497  1
  O  O40  1  0.608475  0.582062  0.710642  1
  O  O41  1  0.391525  0.082062  0.789358  1
  O  O42  1  0.391525  0.417938  0.289358  1
  O  O43  1  0.608475  0.917938  0.210642  1
