# generated using pymatgen
data_KMg6P7O24
_symmetry_space_group_name_H-M   'P 1'
_cell_length_a   5.32663185
_cell_length_b   26.69390044
_cell_length_c   6.45144799
_cell_angle_alpha   90.00000000
_cell_angle_beta   107.35983909
_cell_angle_gamma   90.00000000
_symmetry_Int_Tables_number   1
_chemical_formula_structural   KMg6P7O24
_chemical_formula_sum   'K2 Mg12 P14 O48'
_cell_volume   875.53793143
_cell_formula_units_Z   2
loop_
 _symmetry_equiv_pos_site_id
 _symmetry_equiv_pos_as_xyz
  1  'x, y, z'
loop_
 _atom_site_type_symbol
 _atom_site_label
 _atom_site_symmetry_multiplicity
 _atom_site_fract_x
 _atom_site_fract_y
 _atom_site_fract_z
 _atom_site_occupancy
  K  K0  1  0.260578  0.250000  0.375309  1
  K  K1  1  0.739422  0.750000  0.624691  1
  Mg  Mg2  1  0.195250  0.096208  0.092972  1
  Mg  Mg3  1  0.804750  0.596208  0.907028  1
  Mg  Mg4  1  0.804750  0.903792  0.907028  1
  Mg  Mg5  1  0.195250  0.403792  0.092972  1
  Mg  Mg6  1  0.794621  0.049058  0.311701  1
  Mg  Mg7  1  0.205379  0.549058  0.688299  1
  Mg  Mg8  1  0.205379  0.950942  0.688299  1
  Mg  Mg9  1  0.794621  0.450942  0.311701  1
  Mg  Mg10  1  0.863414  0.182763  0.733220  1
  Mg  Mg11  1  0.136586  0.682763  0.266780  1
  Mg  Mg12  1  0.136586  0.817237  0.266780  1
  Mg  Mg13  1  0.863414  0.317237  0.733220  1
  P  P14  1  0.302057  0.109467  0.627542  1
  P  P15  1  0.697943  0.609466  0.372458  1
  P  P16  1  0.697943  0.890533  0.372458  1
  P  P17  1  0.302057  0.390533  0.627542  1
  P  P18  1  0.701601  0.024871  0.796564  1
  P  P19  1  0.298399  0.524871  0.203436  1
  P  P20  1  0.298399  0.975129  0.203436  1
  P  P21  1  0.701601  0.475129  0.796564  1
  P  P22  1  0.735058  0.167355  0.201511  1
  P  P23  1  0.264942  0.667355  0.798489  1
  P  P24  1  0.264942  0.832645  0.798489  1
  P  P25  1  0.735058  0.332645  0.201511  1
  P  P26  1  0.443026  0.250000  0.909939  1
  P  P27  1  0.556974  0.750000  0.090061  1
  O  O28  1  0.925721  0.165952  0.063742  1
  O  O29  1  0.074279  0.665952  0.936258  1
  O  O30  1  0.074279  0.834048  0.936258  1
  O  O31  1  0.925721  0.334048  0.063742  1
  O  O32  1  0.509650  0.147957  0.630492  1
  O  O33  1  0.490350  0.647957  0.369508  1
  O  O34  1  0.490350  0.852043  0.369508  1
  O  O35  1  0.509650  0.352043  0.630492  1
  O  O36  1  0.128824  0.095200  0.397603  1
  O  O37  1  0.871176  0.595200  0.602397  1
  O  O38  1  0.871176  0.904800  0.602397  1
  O  O39  1  0.128824  0.404800  0.397603  1
  O  O40  1  0.592738  0.972827  0.825067  1
  O  O41  1  0.407262  0.472827  0.174933  1
  O  O42  1  0.407262  0.027173  0.174933  1
  O  O43  1  0.592738  0.527173  0.825067  1
  O  O44  1  0.589508  0.118187  0.207728  1
  O  O45  1  0.410492  0.618187  0.792272  1
  O  O46  1  0.410492  0.881813  0.792272  1
  O  O47  1  0.589508  0.381813  0.207728  1
  O  O48  1  0.848925  0.193236  0.417632  1
  O  O49  1  0.151075  0.693236  0.582368  1
  O  O50  1  0.151075  0.806764  0.582368  1
  O  O51  1  0.848925  0.306764  0.417632  1
  O  O52  1  0.641638  0.250000  0.782482  1
  O  O53  1  0.358362  0.750000  0.217518  1
  O  O54  1  0.433668  0.056987  0.725780  1
  O  O55  1  0.566332  0.556987  0.274220  1
  O  O56  1  0.566332  0.943013  0.274220  1
  O  O57  1  0.433668  0.443013  0.725780  1
  O  O58  1  0.485812  0.203237  0.067591  1
  O  O59  1  0.514188  0.703237  0.932409  1
  O  O60  1  0.514188  0.796763  0.932409  1
  O  O61  1  0.485812  0.296763  0.067591  1
  O  O62  1  0.838094  0.025946  0.620011  1
  O  O63  1  0.161906  0.525946  0.379989  1
  O  O64  1  0.161906  0.974054  0.379989  1
  O  O65  1  0.838094  0.474054  0.620011  1
  O  O66  1  0.870013  0.047861  0.012315  1
  O  O67  1  0.129987  0.547861  0.987685  1
  O  O68  1  0.129987  0.952139  0.987685  1
  O  O69  1  0.870013  0.452139  0.012315  1
  O  O70  1  0.152651  0.250000  0.786076  1
  O  O71  1  0.847349  0.750000  0.213924  1
  O  O72  1  0.134178  0.123545  0.777182  1
  O  O73  1  0.865822  0.623545  0.222818  1
  O  O74  1  0.865822  0.876455  0.222818  1
  O  O75  1  0.134178  0.376455  0.777182  1
