# generated using pymatgen
data_Na2CoP2O7
_symmetry_space_group_name_H-M   'P 1'
_cell_length_a   5.26115015
_cell_length_b   13.69978615
_cell_length_c   10.22237346
_cell_angle_alpha   90.00000000
_cell_angle_beta   119.45559011
_cell_angle_gamma   90.00000000
_symmetry_Int_Tables_number   1
_chemical_formula_structural   Na2CoP2O7
_chemical_formula_sum   'Na8 Co4 P8 O28'
_cell_volume   641.55409639
_cell_formula_units_Z   4
loop_
 _symmetry_equiv_pos_site_id
 _symmetry_equiv_pos_as_xyz
  1  'x, y, z'
loop_
 _atom_site_type_symbol
 _atom_site_label
 _atom_site_symmetry_multiplicity
 _atom_site_fract_x
 _atom_site_fract_y
 _atom_site_fract_z
 _atom_site_occupancy
  Na  Na0  1  0.591029  0.295869  0.856486  1
  Na  Na1  1  0.591029  0.204131  0.356486  1
  Na  Na2  1  0.408971  0.704131  0.143514  1
  Na  Na3  1  0.408971  0.795869  0.643514  1
  Na  Na4  1  0.071454  0.607369  0.364412  1
  Na  Na5  1  0.071454  0.892631  0.864412  1
  Na  Na6  1  0.928546  0.392631  0.635588  1
  Na  Na7  1  0.928546  0.107369  0.135588  1
  Co  Co8  1  0.962825  0.332086  0.262028  1
  Co  Co9  1  0.962825  0.167914  0.762028  1
  Co  Co10  1  0.037175  0.667914  0.737972  1
  Co  Co11  1  0.037175  0.832086  0.237972  1
  P  P12  1  0.468104  0.040892  0.766568  1
  P  P13  1  0.468104  0.459108  0.266568  1
  P  P14  1  0.531896  0.959108  0.233432  1
  P  P15  1  0.531896  0.540892  0.733432  1
  P  P16  1  0.283586  0.189626  0.547673  1
  P  P17  1  0.283586  0.310374  0.047673  1
  P  P18  1  0.716414  0.810374  0.452327  1
  P  P19  1  0.716414  0.689626  0.952327  1
  O  O20  1  0.589811  0.228099  0.588169  1
  O  O21  1  0.589811  0.271901  0.088169  1
  O  O22  1  0.410189  0.771901  0.411831  1
  O  O23  1  0.410189  0.728099  0.911831  1
  O  O24  1  0.158906  0.235614  0.640555  1
  O  O25  1  0.158906  0.264386  0.140555  1
  O  O26  1  0.841094  0.764386  0.359445  1
  O  O27  1  0.841094  0.735614  0.859445  1
  O  O28  1  0.221607  0.052433  0.806815  1
  O  O29  1  0.221607  0.447567  0.306815  1
  O  O30  1  0.778393  0.947567  0.193185  1
  O  O31  1  0.778393  0.552433  0.693185  1
  O  O32  1  0.718328  0.115329  0.855700  1
  O  O33  1  0.718328  0.384671  0.355700  1
  O  O34  1  0.281672  0.884671  0.144300  1
  O  O35  1  0.281672  0.615329  0.644300  1
  O  O36  1  0.568439  0.937351  0.774774  1
  O  O37  1  0.568439  0.562649  0.274774  1
  O  O38  1  0.431561  0.062649  0.225226  1
  O  O39  1  0.431561  0.437351  0.725226  1
  O  O40  1  0.075753  0.198114  0.377462  1
  O  O41  1  0.075753  0.301886  0.877462  1
  O  O42  1  0.924247  0.801886  0.622538  1
  O  O43  1  0.924247  0.698114  0.122538  1
  O  O44  1  0.322435  0.073888  0.587580  1
  O  O45  1  0.322435  0.426112  0.087580  1
  O  O46  1  0.677565  0.926112  0.412420  1
  O  O47  1  0.677565  0.573888  0.912420  1
