# generated using pymatgen
data_SrNi2(PO4)2
_symmetry_space_group_name_H-M   'P 1'
_cell_length_a   5.51209342
_cell_length_b   6.88776023
_cell_length_c   9.26204259
_cell_angle_alpha   111.28777912
_cell_angle_beta   100.98888644
_cell_angle_gamma   98.11348985
_symmetry_Int_Tables_number   1
_chemical_formula_structural   SrNi2(PO4)2
_chemical_formula_sum   'Sr2 Ni4 P4 O16'
_cell_volume   313.02193115
_cell_formula_units_Z   2
loop_
 _symmetry_equiv_pos_site_id
 _symmetry_equiv_pos_as_xyz
  1  'x, y, z'
loop_
 _atom_site_type_symbol
 _atom_site_label
 _atom_site_symmetry_multiplicity
 _atom_site_fract_x
 _atom_site_fract_y
 _atom_site_fract_z
 _atom_site_occupancy
  Sr  Sr0  1  0.241083  0.752651  0.446858  1
  Sr  Sr1  1  0.758917  0.247349  0.553142  1
  Ni  Ni2  1  0.511762  0.764203  0.839538  1
  Ni  Ni3  1  0.141847  0.795052  0.061193  1
  Ni  Ni4  1  0.858153  0.204948  0.938807  1
  Ni  Ni5  1  0.488238  0.235797  0.160462  1
  P  P6  1  0.891670  0.686584  0.742147  1
  P  P7  1  0.108330  0.313416  0.257853  1
  P  P8  1  0.346581  0.220741  0.805726  1
  P  P9  1  0.653419  0.779259  0.194274  1
  O  O10  1  0.663160  0.828110  0.625531  1
  O  O11  1  0.336840  0.171890  0.374469  1
  O  O12  1  0.246772  0.374193  0.635584  1
  O  O13  1  0.753228  0.625807  0.364416  1
  O  O14  1  0.146498  0.780877  0.701813  1
  O  O15  1  0.853502  0.219123  0.298187  1
  O  O16  1  0.842917  0.463615  0.737114  1
  O  O17  1  0.157083  0.536385  0.262886  1
  O  O18  1  0.545041  0.077210  0.803135  1
  O  O19  1  0.454959  0.922790  0.196865  1
  O  O20  1  0.118699  0.312835  0.091372  1
  O  O21  1  0.881301  0.687165  0.908628  1
  O  O22  1  0.491986  0.674434  0.070407  1
  O  O23  1  0.121685  0.084599  0.869037  1
  O  O24  1  0.878315  0.915401  0.130963  1
  O  O25  1  0.508014  0.325566  0.929593  1
