# generated using pymatgen
data_Sr2NiMoO6
_symmetry_space_group_name_H-M   'P 1'
_cell_length_a   5.65325825
_cell_length_b   5.65325825
_cell_length_c   5.65325825
_cell_angle_alpha   120.50871197
_cell_angle_beta   120.50871197
_cell_angle_gamma   89.12112047
_symmetry_Int_Tables_number   1
_chemical_formula_structural   Sr2NiMoO6
_chemical_formula_sum   'Sr2 Ni1 Mo1 O6'
_cell_volume   126.75754146
_cell_formula_units_Z   1
loop_
 _symmetry_equiv_pos_site_id
 _symmetry_equiv_pos_as_xyz
  1  'x, y, z'
loop_
 _atom_site_type_symbol
 _atom_site_label
 _atom_site_symmetry_multiplicity
 _atom_site_fract_x
 _atom_site_fract_y
 _atom_site_fract_z
 _atom_site_occupancy
  Sr  Sr0  1  0.250000  0.750000  0.500000  1
  Sr  Sr1  1  0.750000  0.250000  0.500000  1
  Ni  Ni2  1  0.500000  0.500000  0.000000  1
  Mo  Mo3  1  0.000000  0.000000  0.000000  1
  O  O4  1  0.717628  0.799192  0.516820  1
  O  O5  1  0.799192  0.282372  0.081565  1
  O  O6  1  0.200808  0.717628  0.918435  1
  O  O7  1  0.282372  0.200808  0.483180  1
  O  O8  1  0.241735  0.241735  0.000000  1
  O  O9  1  0.758265  0.758265  0.000000  1
