# generated using pymatgen
data_Yb11Sb10
_symmetry_space_group_name_H-M   'P 1'
_cell_length_a   12.10231199
_cell_length_b   12.10231199
_cell_length_c   12.10231199
_cell_angle_alpha   120.64809159
_cell_angle_beta   120.64809159
_cell_angle_gamma   88.88109061
_symmetry_Int_Tables_number   1
_chemical_formula_structural   Yb11Sb10
_chemical_formula_sum   'Yb22 Sb20'
_cell_volume   1240.86617343
_cell_formula_units_Z   2
loop_
 _symmetry_equiv_pos_site_id
 _symmetry_equiv_pos_as_xyz
  1  'x, y, z'
loop_
 _atom_site_type_symbol
 _atom_site_label
 _atom_site_symmetry_multiplicity
 _atom_site_fract_x
 _atom_site_fract_y
 _atom_site_fract_z
 _atom_site_occupancy
  Yb  Yb0  1  0.603293  0.265554  0.662261  1
  Yb  Yb1  1  0.937170  0.188965  0.748205  1
  Yb  Yb2  1  0.188965  0.440760  0.251795  1
  Yb  Yb3  1  0.833744  0.833744  0.667487  1
  Yb  Yb4  1  0.603293  0.941031  0.337739  1
  Yb  Yb5  1  0.559240  0.811035  0.748205  1
  Yb  Yb6  1  0.833744  0.166256  0.000000  1
  Yb  Yb7  1  0.396707  0.734446  0.337739  1
  Yb  Yb8  1  0.058969  0.396707  0.662261  1
  Yb  Yb9  1  0.440760  0.188965  0.251795  1
  Yb  Yb10  1  0.811035  0.559240  0.748205  1
  Yb  Yb11  1  0.941031  0.603293  0.337739  1
  Yb  Yb12  1  0.166256  0.833744  0.000000  1
  Yb  Yb13  1  0.062830  0.811035  0.251795  1
  Yb  Yb14  1  0.396707  0.058969  0.662261  1
  Yb  Yb15  1  0.734446  0.396707  0.337739  1
  Yb  Yb16  1  0.811035  0.062830  0.251795  1
  Yb  Yb17  1  0.336903  0.336903  0.000000  1
  Yb  Yb18  1  0.663097  0.663097  0.000000  1
  Yb  Yb19  1  0.188965  0.937170  0.748205  1
  Yb  Yb20  1  0.265554  0.603293  0.662261  1
  Yb  Yb21  1  0.166256  0.166256  0.332513  1
  Sb  Sb22  1  0.116886  0.116886  0.586297  1
  Sb  Sb23  1  0.650093  0.000000  0.650093  1
  Sb  Sb24  1  0.373671  0.626329  0.000000  1
  Sb  Sb25  1  0.469411  0.469411  0.586297  1
  Sb  Sb26  1  0.373671  0.373671  0.747343  1
  Sb  Sb27  1  0.000000  0.349907  0.349907  1
  Sb  Sb28  1  0.883114  0.883114  0.413703  1
  Sb  Sb29  1  0.530589  0.116886  0.000000  1
  Sb  Sb30  1  0.127873  0.127873  0.000000  1
  Sb  Sb31  1  0.626329  0.626329  0.252657  1
  Sb  Sb32  1  0.872127  0.872127  0.000000  1
  Sb  Sb33  1  0.469411  0.883114  0.000000  1
  Sb  Sb34  1  0.530589  0.530589  0.413703  1
  Sb  Sb35  1  0.349907  0.000000  0.349907  1
  Sb  Sb36  1  0.000000  0.650093  0.650093  1
  Sb  Sb37  1  0.883114  0.469411  0.000000  1
  Sb  Sb38  1  0.626329  0.373671  0.000000  1
  Sb  Sb39  1  0.750000  0.250000  0.500000  1
  Sb  Sb40  1  0.116886  0.530589  1.000000  1
  Sb  Sb41  1  0.250000  0.750000  0.500000  1
