# generated using pymatgen
data_Ca(MnAl2)4
_symmetry_space_group_name_H-M   'P 1'
_cell_length_a   6.72131567
_cell_length_b   6.72131567
_cell_length_c   6.72131567
_cell_angle_alpha   98.54951579
_cell_angle_beta   98.54951579
_cell_angle_gamma   134.64176163
_symmetry_Int_Tables_number   1
_chemical_formula_structural   Ca(MnAl2)4
_chemical_formula_sum   'Ca1 Mn4 Al8'
_cell_volume   199.34110100
_cell_formula_units_Z   1
loop_
 _symmetry_equiv_pos_site_id
 _symmetry_equiv_pos_as_xyz
  1  'x, y, z'
loop_
 _atom_site_type_symbol
 _atom_site_label
 _atom_site_symmetry_multiplicity
 _atom_site_fract_x
 _atom_site_fract_y
 _atom_site_fract_z
 _atom_site_occupancy
  Ca  Ca0  1  0.000000  0.000000  0.000000  1
  Mn  Mn1  1  0.500000  0.500000  0.500000  1
  Mn  Mn2  1  0.000000  0.000000  0.500000  1
  Mn  Mn3  1  0.500000  0.000000  0.000000  1
  Mn  Mn4  1  0.000000  0.500000  0.000000  1
  Al  Al5  1  0.000000  0.333363  0.333363  1
  Al  Al6  1  0.728417  0.500000  0.228417  1
  Al  Al7  1  0.000000  0.666637  0.666637  1
  Al  Al8  1  0.666637  0.000000  0.666637  1
  Al  Al9  1  0.500000  0.728417  0.228417  1
  Al  Al10  1  0.271583  0.500000  0.771583  1
  Al  Al11  1  0.500000  0.271583  0.771583  1
  Al  Al12  1  0.333363  0.000000  0.333363  1
