# generated using pymatgen
data_LuCu(BO2)5
_symmetry_space_group_name_H-M   'P 1'
_cell_length_a   8.25119261
_cell_length_b   8.25119261
_cell_length_c   8.25119261
_cell_angle_alpha   135.27099738
_cell_angle_beta   117.56914221
_cell_angle_gamma   80.02246599
_symmetry_Int_Tables_number   1
_chemical_formula_structural   LuCu(BO2)5
_chemical_formula_sum   'Lu2 Cu2 B10 O20'
_cell_volume   339.38286649
_cell_formula_units_Z   2
loop_
 _symmetry_equiv_pos_site_id
 _symmetry_equiv_pos_as_xyz
  1  'x, y, z'
loop_
 _atom_site_type_symbol
 _atom_site_label
 _atom_site_symmetry_multiplicity
 _atom_site_fract_x
 _atom_site_fract_y
 _atom_site_fract_z
 _atom_site_occupancy
  Lu  Lu0  1  0.250000  0.750000  0.500000  1
  Lu  Lu1  1  0.750000  0.250000  0.500000  1
  Cu  Cu2  1  1.000000  0.500000  0.500000  1
  Cu  Cu3  1  0.500000  0.000000  0.500000  1
  B  B4  1  0.707293  0.016585  0.923699  1
  B  B5  1  0.250000  0.250000  0.000000  1
  B  B6  1  0.750000  0.750000  0.000000  1
  B  B7  1  0.907115  0.216406  0.923699  1
  B  B8  1  0.292707  0.983415  0.076301  1
  B  B9  1  0.092885  0.783594  0.076301  1
  B  B10  1  0.207293  0.283594  0.690709  1
  B  B11  1  0.592885  0.516585  0.309291  1
  B  B12  1  0.792707  0.716406  0.309291  1
  B  B13  1  0.407115  0.483415  0.690709  1
  O  O14  1  0.769353  0.175777  0.717391  1
  O  O15  1  0.958386  0.675777  0.406425  1
  O  O16  1  0.269353  0.551962  0.593575  1
  O  O17  1  0.458386  0.051962  0.282609  1
  O  O18  1  0.541614  0.948038  0.717391  1
  O  O19  1  0.230647  0.824223  0.282609  1
  O  O20  1  0.041614  0.324223  0.593575  1
  O  O21  1  0.730647  0.448038  0.406425  1
  O  O22  1  0.719104  0.963998  0.055965  1
  O  O23  1  0.908033  0.663139  0.944035  1
  O  O24  1  0.219104  0.163139  0.755106  1
  O  O25  1  0.408033  0.463998  0.244894  1
  O  O26  1  0.627675  0.647528  0.275204  1
  O  O27  1  0.372325  0.352472  0.724796  1
  O  O28  1  0.127675  0.852472  0.980147  1
  O  O29  1  0.872325  0.147528  0.019853  1
  O  O30  1  0.780896  0.836861  0.244894  1
  O  O31  1  0.591967  0.536002  0.755106  1
  O  O32  1  0.280896  0.036002  0.944035  1
  O  O33  1  0.091967  0.336861  0.055965  1
