# generated using pymatgen
data_Tm2S3
_symmetry_space_group_name_H-M   'P 1'
_cell_length_a   10.86485123
_cell_length_b   10.86485123
_cell_length_c   10.86485123
_cell_angle_alpha   109.47122063
_cell_angle_beta   109.47122063
_cell_angle_gamma   109.47122063
_symmetry_Int_Tables_number   1
_chemical_formula_structural   Tm2S3
_chemical_formula_sum   'Tm16 S24'
_cell_volume   987.30073642
_cell_formula_units_Z   8
loop_
 _symmetry_equiv_pos_site_id
 _symmetry_equiv_pos_as_xyz
  1  'x, y, z'
loop_
 _atom_site_type_symbol
 _atom_site_label
 _atom_site_symmetry_multiplicity
 _atom_site_fract_x
 _atom_site_fract_y
 _atom_site_fract_z
 _atom_site_occupancy
  Tm  Tm0  1  0.951695  0.250000  0.201695  1
  Tm  Tm1  1  0.750000  0.298305  0.548305  1
  Tm  Tm2  1  0.201695  0.951695  0.250000  1
  Tm  Tm3  1  0.298305  0.548305  0.750000  1
  Tm  Tm4  1  0.250000  0.201695  0.951695  1
  Tm  Tm5  1  0.548305  0.750000  0.298305  1
  Tm  Tm6  1  0.048305  0.750000  0.798305  1
  Tm  Tm7  1  0.250000  0.701695  0.451695  1
  Tm  Tm8  1  0.798305  0.048305  0.750000  1
  Tm  Tm9  1  0.701695  0.451695  0.250000  1
  Tm  Tm10  1  0.750000  0.798305  0.048305  1
  Tm  Tm11  1  0.451695  0.250000  0.701695  1
  Tm  Tm12  1  0.000000  0.500000  0.000000  1
  Tm  Tm13  1  0.500000  0.000000  0.000000  1
  Tm  Tm14  1  0.000000  0.000000  0.500000  1
  Tm  Tm15  1  0.500000  0.500000  0.500000  1
  S  S16  1  0.053982  0.277236  0.009931  1
  S  S17  1  0.767305  0.044051  0.490069  1
  S  S18  1  0.732695  0.222764  0.276745  1
  S  S19  1  0.455949  0.223255  0.446018  1
  S  S20  1  0.223255  0.446018  0.455949  1
  S  S21  1  0.009931  0.053982  0.277236  1
  S  S22  1  0.044051  0.490069  0.767305  1
  S  S23  1  0.276745  0.732695  0.222764  1
  S  S24  1  0.277236  0.009931  0.053982  1
  S  S25  1  0.490069  0.767305  0.044051  1
  S  S26  1  0.222764  0.276745  0.732695  1
  S  S27  1  0.446018  0.455949  0.223255  1
  S  S28  1  0.946018  0.722764  0.990069  1
  S  S29  1  0.232695  0.955949  0.509931  1
  S  S30  1  0.267305  0.777236  0.723255  1
  S  S31  1  0.544051  0.776745  0.553982  1
  S  S32  1  0.553982  0.544051  0.776745  1
  S  S33  1  0.777236  0.723255  0.267305  1
  S  S34  1  0.509931  0.232695  0.955949  1
  S  S35  1  0.722764  0.990069  0.946018  1
  S  S36  1  0.723255  0.267305  0.777236  1
  S  S37  1  0.955949  0.509931  0.232695  1
  S  S38  1  0.990069  0.946018  0.722764  1
  S  S39  1  0.776745  0.553982  0.544051  1
