# generated using pymatgen
data_Al12Co4Cu
_symmetry_space_group_name_H-M   'P 1'
_cell_length_a   8.61262236
_cell_length_b   8.61262236
_cell_length_c   12.37677094
_cell_angle_alpha   73.95811291
_cell_angle_beta   106.04188709
_cell_angle_gamma   124.41031188
_symmetry_Int_Tables_number   1
_chemical_formula_structural   Al12Co4Cu
_chemical_formula_sum   'Al36 Co12 Cu3'
_cell_volume   719.51875679
_cell_formula_units_Z   3
loop_
 _symmetry_equiv_pos_site_id
 _symmetry_equiv_pos_as_xyz
  1  'x, y, z'
loop_
 _atom_site_type_symbol
 _atom_site_label
 _atom_site_symmetry_multiplicity
 _atom_site_fract_x
 _atom_site_fract_y
 _atom_site_fract_z
 _atom_site_occupancy
  Al  Al0  1  0.964623  0.606688  0.836800  1
  Al  Al1  1  0.393312  0.035377  0.836800  1
  Al  Al2  1  0.972820  0.602103  0.614333  1
  Al  Al3  1  0.397897  0.027180  0.614333  1
  Al  Al4  1  0.150108  0.408095  0.610829  1
  Al  Al5  1  0.591905  0.849892  0.610829  1
  Al  Al6  1  0.260196  0.277740  0.826740  1
  Al  Al7  1  0.722260  0.739804  0.826740  1
  Al  Al8  1  0.163013  0.423736  0.979010  1
  Al  Al9  1  0.576264  0.836987  0.979010  1
  Al  Al10  1  0.252602  0.252602  0.500000  1
  Al  Al11  1  0.747398  0.747398  0.500000  1
  Al  Al12  1  0.035377  0.393312  0.163200  1
  Al  Al13  1  0.606688  0.964623  0.163200  1
  Al  Al14  1  0.027180  0.397897  0.385667  1
  Al  Al15  1  0.520479  0.479521  0.668346  1
  Al  Al16  1  0.238627  0.761373  0.461694  1
  Al  Al17  1  0.056561  0.943439  0.675373  1
  Al  Al18  1  0.235615  0.764385  0.033220  1
  Al  Al19  1  0.479521  0.520479  0.331654  1
  Al  Al20  1  0.761373  0.238627  0.538306  1
  Al  Al21  1  0.943439  0.056561  0.324627  1
  Al  Al22  1  0.764385  0.235615  0.966780  1
  Al  Al23  1  0.075313  0.924687  0.087612  1
  Al  Al24  1  0.299590  0.700410  0.269313  1
  Al  Al25  1  0.924687  0.075313  0.912388  1
  Al  Al26  1  0.700410  0.299590  0.730687  1
  Al  Al27  1  0.668099  0.331901  0.219493  1
  Al  Al28  1  0.331901  0.668099  0.780507  1
  Al  Al29  1  0.423736  0.163013  0.020990  1
  Al  Al30  1  0.836987  0.576264  0.020990  1
  Al  Al31  1  0.277740  0.260196  0.173260  1
  Al  Al32  1  0.739804  0.722260  0.173260  1
  Al  Al33  1  0.408095  0.150108  0.389171  1
  Al  Al34  1  0.849892  0.591905  0.389171  1
  Al  Al35  1  0.602103  0.972820  0.385667  1
  Co  Co36  1  0.038812  0.402951  0.780650  1
  Co  Co37  1  0.597049  0.961188  0.780650  1
  Co  Co38  1  0.961188  0.597049  0.219350  1
  Co  Co39  1  0.402951  0.038812  0.219350  1
  Co  Co40  1  0.913219  0.086781  0.109987  1
  Co  Co41  1  0.907670  0.092330  0.503887  1
  Co  Co42  1  0.600828  0.399172  0.517294  1
  Co  Co43  1  0.396607  0.603393  0.130635  1
  Co  Co44  1  0.086781  0.913219  0.890013  1
  Co  Co45  1  0.092330  0.907670  0.496113  1
  Co  Co46  1  0.399172  0.600828  0.482706  1
  Co  Co47  1  0.603393  0.396607  0.869365  1
  Cu  Cu48  1  0.910173  0.089827  0.712737  1
  Cu  Cu49  1  0.089827  0.910173  0.287263  1
  Cu  Cu50  1  0.500000  0.500000  0.000000  1
