# generated using pymatgen
data_Rb2Cu2SnS4
_symmetry_space_group_name_H-M   'P 1'
_cell_length_a   9.49033227
_cell_length_b   9.49033227
_cell_length_c   9.49033227
_cell_angle_alpha   146.43358481
_cell_angle_beta   103.46652286
_cell_angle_gamma   86.20868459
_symmetry_Int_Tables_number   1
_chemical_formula_structural   Rb2Cu2SnS4
_chemical_formula_sum   'Rb4 Cu4 Sn2 S8'
_cell_volume   446.41019125
_cell_formula_units_Z   2
loop_
 _symmetry_equiv_pos_site_id
 _symmetry_equiv_pos_as_xyz
  1  'x, y, z'
loop_
 _atom_site_type_symbol
 _atom_site_label
 _atom_site_symmetry_multiplicity
 _atom_site_fract_x
 _atom_site_fract_y
 _atom_site_fract_z
 _atom_site_occupancy
  Rb  Rb0  1  0.375667  0.228353  0.604021  1
  Rb  Rb1  1  0.124333  0.728353  0.852686  1
  Rb  Rb2  1  0.875667  0.271647  0.147314  1
  Rb  Rb3  1  0.624333  0.771647  0.395979  1
  Cu  Cu4  1  0.475460  0.750000  0.725460  1
  Cu  Cu5  1  0.024540  0.750000  0.274540  1
  Cu  Cu6  1  0.524540  0.250000  0.274540  1
  Cu  Cu7  1  0.975460  0.250000  0.725460  1
  Sn  Sn8  1  0.750000  0.750000  0.000000  1
  Sn  Sn9  1  0.250000  0.250000  0.000000  1
  S  S10  1  0.983363  0.080803  0.361810  1
  S  S11  1  0.516637  0.878447  0.097440  1
  S  S12  1  0.781007  0.419197  0.902560  1
  S  S13  1  0.718993  0.621553  0.638190  1
  S  S14  1  0.016637  0.919197  0.638190  1
  S  S15  1  0.483363  0.121553  0.902560  1
  S  S16  1  0.281007  0.378447  0.361810  1
  S  S17  1  0.218993  0.580803  0.097440  1
