# generated using pymatgen
data_Cd2Cu(PO4)2
_symmetry_space_group_name_H-M   'P 1'
_cell_length_a   4.87300469
_cell_length_b   5.71340508
_cell_length_c   6.86984904
_cell_angle_alpha   105.75911896
_cell_angle_beta   87.08333745
_cell_angle_gamma   110.17397438
_symmetry_Int_Tables_number   1
_chemical_formula_structural   Cd2Cu(PO4)2
_chemical_formula_sum   'Cd2 Cu1 P2 O8'
_cell_volume   172.59018742
_cell_formula_units_Z   1
loop_
 _symmetry_equiv_pos_site_id
 _symmetry_equiv_pos_as_xyz
  1  'x, y, z'
loop_
 _atom_site_type_symbol
 _atom_site_label
 _atom_site_symmetry_multiplicity
 _atom_site_fract_x
 _atom_site_fract_y
 _atom_site_fract_z
 _atom_site_occupancy
  Cd  Cd0  1  0.703089  0.281750  0.693772  1
  Cd  Cd1  1  0.296911  0.718250  0.306228  1
  Cu  Cu2  1  0.000000  0.000000  0.000000  1
  P  P3  1  0.371287  0.683606  0.785774  1
  P  P4  1  0.628713  0.316394  0.214226  1
  O  O5  1  0.385926  0.864788  0.649641  1
  O  O6  1  0.614074  0.135212  0.350359  1
  O  O7  1  0.231322  0.779935  0.988843  1
  O  O8  1  0.768678  0.220065  0.011157  1
  O  O9  1  0.315202  0.309000  0.160256  1
  O  O10  1  0.198253  0.399280  0.676769  1
  O  O11  1  0.801747  0.600720  0.323231  1
  O  O12  1  0.684798  0.691000  0.839744  1
