# generated using pymatgen
data_TiO
_symmetry_space_group_name_H-M   'P 1'
_cell_length_a   5.11554533
_cell_length_b   5.11554533
_cell_length_c   5.84589564
_cell_angle_alpha   74.23684905
_cell_angle_beta   105.76315095
_cell_angle_gamma   131.84837711
_symmetry_Int_Tables_number   1
_chemical_formula_structural   TiO
_chemical_formula_sum   'Ti5 O5'
_cell_volume   108.79546615
_cell_formula_units_Z   5
loop_
 _symmetry_equiv_pos_site_id
 _symmetry_equiv_pos_as_xyz
  1  'x, y, z'
loop_
 _atom_site_type_symbol
 _atom_site_label
 _atom_site_symmetry_multiplicity
 _atom_site_fract_x
 _atom_site_fract_y
 _atom_site_fract_z
 _atom_site_occupancy
  Ti  Ti0  1  0.350469  0.649531  0.674480  1
  Ti  Ti1  1  0.649531  0.350469  0.325520  1
  Ti  Ti2  1  0.337416  0.662584  0.172366  1
  Ti  Ti3  1  0.662584  0.337416  0.827634  1
  Ti  Ti4  1  1.000000  0.000000  0.500000  1
  O  O5  1  0.500000  0.500000  0.000000  1
  O  O6  1  0.171801  0.828199  0.831374  1
  O  O7  1  0.828199  0.171801  0.168626  1
  O  O8  1  0.171019  0.828981  0.343425  1
  O  O9  1  0.828981  0.171019  0.656575  1
