# generated using pymatgen
data_Tb2Pt
_symmetry_space_group_name_H-M   'P 1'
_cell_length_a   4.80274756
_cell_length_b   7.20805710
_cell_length_c   8.85233804
_cell_angle_alpha   90.00000000
_cell_angle_beta   90.00000000
_cell_angle_gamma   90.00000000
_symmetry_Int_Tables_number   1
_chemical_formula_structural   Tb2Pt
_chemical_formula_sum   'Tb8 Pt4'
_cell_volume   306.45447543
_cell_formula_units_Z   4
loop_
 _symmetry_equiv_pos_site_id
 _symmetry_equiv_pos_as_xyz
  1  'x, y, z'
loop_
 _atom_site_type_symbol
 _atom_site_label
 _atom_site_symmetry_multiplicity
 _atom_site_fract_x
 _atom_site_fract_y
 _atom_site_fract_z
 _atom_site_occupancy
  Tb  Tb0  1  0.750000  0.142747  0.082483  1
  Tb  Tb1  1  0.250000  0.857253  0.917517  1
  Tb  Tb2  1  0.750000  0.642747  0.417517  1
  Tb  Tb3  1  0.250000  0.357253  0.582483  1
  Tb  Tb4  1  0.750000  0.008582  0.666127  1
  Tb  Tb5  1  0.250000  0.991418  0.333873  1
  Tb  Tb6  1  0.750000  0.508582  0.833873  1
  Tb  Tb7  1  0.250000  0.491418  0.166127  1
  Pt  Pt8  1  0.750000  0.740954  0.091466  1
  Pt  Pt9  1  0.250000  0.259046  0.908534  1
  Pt  Pt10  1  0.750000  0.240954  0.408534  1
  Pt  Pt11  1  0.250000  0.759046  0.591466  1
