# generated using pymatgen
data_Ge2Mo
_symmetry_space_group_name_H-M   'P 1'
_cell_length_a   3.48578144
_cell_length_b   6.40446672
_cell_length_c   8.64668043
_cell_angle_alpha   90.00000000
_cell_angle_beta   90.00000000
_cell_angle_gamma   90.00000000
_symmetry_Int_Tables_number   1
_chemical_formula_structural   Ge2Mo
_chemical_formula_sum   'Ge8 Mo4'
_cell_volume   193.03343313
_cell_formula_units_Z   4
loop_
 _symmetry_equiv_pos_site_id
 _symmetry_equiv_pos_as_xyz
  1  'x, y, z'
loop_
 _atom_site_type_symbol
 _atom_site_label
 _atom_site_symmetry_multiplicity
 _atom_site_fract_x
 _atom_site_fract_y
 _atom_site_fract_z
 _atom_site_occupancy
  Ge  Ge0  1  0.250000  0.439082  0.132806  1
  Ge  Ge1  1  0.750000  0.560918  0.867194  1
  Ge  Ge2  1  0.250000  0.939082  0.367194  1
  Ge  Ge3  1  0.750000  0.060918  0.632806  1
  Ge  Ge4  1  0.750000  0.136000  0.040852  1
  Ge  Ge5  1  0.250000  0.864000  0.959148  1
  Ge  Ge6  1  0.750000  0.636000  0.459148  1
  Ge  Ge7  1  0.250000  0.364000  0.540852  1
  Mo  Mo8  1  0.250000  0.749477  0.671167  1
  Mo  Mo9  1  0.750000  0.250523  0.328833  1
  Mo  Mo10  1  0.250000  0.249477  0.828833  1
  Mo  Mo11  1  0.750000  0.750523  0.171167  1
