# generated using pymatgen
data_Ba2Ga2S5
_symmetry_space_group_name_H-M   'P 1'
_cell_length_a   10.85845503
_cell_length_b   10.85845503
_cell_length_c   8.64498188
_cell_angle_alpha   79.01102219
_cell_angle_beta   100.98897781
_cell_angle_gamma   92.25257402
_symmetry_Int_Tables_number   1
_chemical_formula_structural   Ba2Ga2S5
_chemical_formula_sum   'Ba8 Ga8 S20'
_cell_volume   982.25379725
_cell_formula_units_Z   4
loop_
 _symmetry_equiv_pos_site_id
 _symmetry_equiv_pos_as_xyz
  1  'x, y, z'
loop_
 _atom_site_type_symbol
 _atom_site_label
 _atom_site_symmetry_multiplicity
 _atom_site_fract_x
 _atom_site_fract_y
 _atom_site_fract_z
 _atom_site_occupancy
  Ba  Ba0  1  0.722437  0.018969  0.610558  1
  Ba  Ba1  1  0.018969  0.722437  0.889442  1
  Ba  Ba2  1  0.277563  0.981031  0.389442  1
  Ba  Ba3  1  0.981031  0.277563  0.110558  1
  Ba  Ba4  1  0.731662  0.432488  0.605240  1
  Ba  Ba5  1  0.432488  0.731662  0.894760  1
  Ba  Ba6  1  0.268338  0.567512  0.394760  1
  Ba  Ba7  1  0.567512  0.268338  0.105240  1
  Ga  Ga8  1  0.377180  0.232033  0.615553  1
  Ga  Ga9  1  0.232033  0.377180  0.884447  1
  Ga  Ga10  1  0.622820  0.767967  0.384447  1
  Ga  Ga11  1  0.767967  0.622820  0.115553  1
  Ga  Ga12  1  0.023510  0.227703  0.587298  1
  Ga  Ga13  1  0.227703  0.023510  0.912702  1
  Ga  Ga14  1  0.976490  0.772297  0.412702  1
  Ga  Ga15  1  0.772297  0.976490  0.087298  1
  S  S16  1  0.967425  0.967425  0.250000  1
  S  S17  1  0.032575  0.032575  0.750000  1
  S  S18  1  0.386420  0.034050  0.765131  1
  S  S19  1  0.034050  0.386420  0.734869  1
  S  S20  1  0.613580  0.965950  0.234869  1
  S  S21  1  0.965950  0.613580  0.265131  1
  S  S22  1  0.522563  0.242053  0.462595  1
  S  S23  1  0.242053  0.522563  0.037405  1
  S  S24  1  0.477437  0.757947  0.537405  1
  S  S25  1  0.757947  0.477437  0.962595  1
  S  S26  1  0.253970  0.838598  0.087636  1
  S  S27  1  0.838598  0.253970  0.412364  1
  S  S28  1  0.746030  0.161402  0.912364  1
  S  S29  1  0.161402  0.746030  0.587636  1
  S  S30  1  0.183854  0.261481  0.441635  1
  S  S31  1  0.261481  0.183854  0.058365  1
  S  S32  1  0.399590  0.399590  0.750000  1
  S  S33  1  0.600410  0.600410  0.250000  1
  S  S34  1  0.738519  0.816146  0.941635  1
  S  S35  1  0.816146  0.738519  0.558365  1
