# generated using pymatgen
data_CaNi3(P2O7)2
_symmetry_space_group_name_H-M   'P 1'
_cell_length_a   7.39723957
_cell_length_b   7.66210404
_cell_length_c   9.46443197
_cell_angle_alpha   90.00000000
_cell_angle_beta   111.99663979
_cell_angle_gamma   90.00000000
_symmetry_Int_Tables_number   1
_chemical_formula_structural   CaNi3(P2O7)2
_chemical_formula_sum   'Ca2 Ni6 P8 O28'
_cell_volume   497.38013144
_cell_formula_units_Z   2
loop_
 _symmetry_equiv_pos_site_id
 _symmetry_equiv_pos_as_xyz
  1  'x, y, z'
loop_
 _atom_site_type_symbol
 _atom_site_label
 _atom_site_symmetry_multiplicity
 _atom_site_fract_x
 _atom_site_fract_y
 _atom_site_fract_z
 _atom_site_occupancy
  Ca  Ca0  1  0.000000  0.000000  0.000000  1
  Ca  Ca1  1  0.000000  0.500000  0.500000  1
  Ni  Ni2  1  0.315169  0.127326  0.475486  1
  Ni  Ni3  1  0.684831  0.627326  0.024514  1
  Ni  Ni4  1  0.684831  0.872674  0.524514  1
  Ni  Ni5  1  0.315169  0.372674  0.975486  1
  Ni  Ni6  1  0.500000  0.000000  0.000000  1
  Ni  Ni7  1  0.500000  0.500000  0.500000  1
  P  P8  1  0.902045  0.934728  0.296753  1
  P  P9  1  0.097955  0.434728  0.203247  1
  P  P10  1  0.097955  0.065272  0.703247  1
  P  P11  1  0.902045  0.565272  0.796753  1
  P  P12  1  0.618930  0.204164  0.308933  1
  P  P13  1  0.381070  0.704164  0.191067  1
  P  P14  1  0.381070  0.795836  0.691067  1
  P  P15  1  0.618930  0.295836  0.808933  1
  O  O16  1  0.669370  0.377857  0.393619  1
  O  O17  1  0.330630  0.877857  0.106381  1
  O  O18  1  0.330630  0.622143  0.606381  1
  O  O19  1  0.669370  0.122143  0.893619  1
  O  O20  1  0.227121  0.381121  0.370261  1
  O  O21  1  0.772879  0.881121  0.129739  1
  O  O22  1  0.772879  0.618879  0.629739  1
  O  O23  1  0.227121  0.118879  0.870261  1
  O  O24  1  0.878837  0.807386  0.412712  1
  O  O25  1  0.121163  0.307386  0.087288  1
  O  O26  1  0.121163  0.192614  0.587288  1
  O  O27  1  0.878837  0.692614  0.912712  1
  O  O28  1  0.825263  0.122886  0.324771  1
  O  O29  1  0.174737  0.622886  0.175229  1
  O  O30  1  0.174737  0.877114  0.675229  1
  O  O31  1  0.825263  0.377114  0.824771  1
  O  O32  1  0.107429  0.523948  0.804547  1
  O  O33  1  0.892571  0.023948  0.695453  1
  O  O34  1  0.892571  0.476052  0.195453  1
  O  O35  1  0.107429  0.976052  0.304547  1
  O  O36  1  0.492332  0.787810  0.864116  1
  O  O37  1  0.507668  0.287810  0.635884  1
  O  O38  1  0.507668  0.212190  0.135884  1
  O  O39  1  0.492332  0.712190  0.364116  1
  O  O40  1  0.528408  0.423822  0.888612  1
  O  O41  1  0.471592  0.923822  0.611388  1
  O  O42  1  0.471592  0.576178  0.111388  1
  O  O43  1  0.528408  0.076178  0.388612  1
