# generated using pymatgen
data_Ba2CoO4
_symmetry_space_group_name_H-M   'P 1'
_cell_length_a   6.10972100
_cell_length_b   7.69918564
_cell_length_c   11.88064720
_cell_angle_alpha   90.00000000
_cell_angle_beta   117.68975560
_cell_angle_gamma   90.00000000
_symmetry_Int_Tables_number   1
_chemical_formula_structural   Ba2CoO4
_chemical_formula_sum   'Ba8 Co4 O16'
_cell_volume   494.86121792
_cell_formula_units_Z   4
loop_
 _symmetry_equiv_pos_site_id
 _symmetry_equiv_pos_as_xyz
  1  'x, y, z'
loop_
 _atom_site_type_symbol
 _atom_site_label
 _atom_site_symmetry_multiplicity
 _atom_site_fract_x
 _atom_site_fract_y
 _atom_site_fract_z
 _atom_site_occupancy
  Ba  Ba0  1  0.965221  0.000177  0.691853  1
  Ba  Ba1  1  0.034779  0.500177  0.808147  1
  Ba  Ba2  1  0.034779  0.999823  0.308147  1
  Ba  Ba3  1  0.965221  0.499823  0.191853  1
  Ba  Ba4  1  0.315857  0.652314  0.578243  1
  Ba  Ba5  1  0.684143  0.152314  0.921757  1
  Ba  Ba6  1  0.684143  0.347686  0.421757  1
  Ba  Ba7  1  0.315857  0.847686  0.078243  1
  Co  Co8  1  0.339065  0.222736  0.582478  1
  Co  Co9  1  0.660935  0.722736  0.917522  1
  Co  Co10  1  0.660935  0.777264  0.417522  1
  Co  Co11  1  0.339065  0.277264  0.082478  1
  O  O12  1  0.247644  0.318634  0.426446  1
  O  O13  1  0.752356  0.818634  0.073554  1
  O  O14  1  0.752356  0.681366  0.573554  1
  O  O15  1  0.247644  0.181366  0.926446  1
  O  O16  1  0.139847  0.327597  0.637196  1
  O  O17  1  0.860153  0.827597  0.862804  1
  O  O18  1  0.860153  0.672403  0.362804  1
  O  O19  1  0.139847  0.172403  0.137196  1
  O  O20  1  0.660354  0.269606  0.684188  1
  O  O21  1  0.339646  0.769606  0.815812  1
  O  O22  1  0.339646  0.730394  0.315812  1
  O  O23  1  0.660354  0.230394  0.184188  1
  O  O24  1  0.286926  0.505814  0.071663  1
  O  O25  1  0.713074  0.005814  0.428337  1
  O  O26  1  0.713074  0.494186  0.928337  1
  O  O27  1  0.286926  0.994186  0.571663  1
