# generated using pymatgen
data_LaS2
_symmetry_space_group_name_H-M   'P 1'
_cell_length_a   4.15863666
_cell_length_b   8.17163101
_cell_length_c   16.40777999
_cell_angle_alpha   90.00000000
_cell_angle_beta   90.00000000
_cell_angle_gamma   90.00000000
_symmetry_Int_Tables_number   1
_chemical_formula_structural   LaS2
_chemical_formula_sum   'La8 S16'
_cell_volume   557.58303255
_cell_formula_units_Z   8
loop_
 _symmetry_equiv_pos_site_id
 _symmetry_equiv_pos_as_xyz
  1  'x, y, z'
loop_
 _atom_site_type_symbol
 _atom_site_label
 _atom_site_symmetry_multiplicity
 _atom_site_fract_x
 _atom_site_fract_y
 _atom_site_fract_z
 _atom_site_occupancy
  La  La0  1  0.716846  0.129710  0.388527  1
  La  La1  1  0.216846  0.370290  0.611473  1
  La  La2  1  0.783154  0.629710  0.111473  1
  La  La3  1  0.283154  0.870290  0.888527  1
  La  La4  1  0.283154  0.870290  0.611473  1
  La  La5  1  0.783154  0.629710  0.388527  1
  La  La6  1  0.216846  0.370290  0.888527  1
  La  La7  1  0.716846  0.129710  0.111473  1
  S  S8  1  0.238101  0.374246  0.432595  1
  S  S9  1  0.738101  0.125754  0.567405  1
  S  S10  1  0.261899  0.874246  0.067405  1
  S  S11  1  0.761899  0.625754  0.932595  1
  S  S12  1  0.761899  0.625754  0.567405  1
  S  S13  1  0.261899  0.874246  0.432595  1
  S  S14  1  0.738101  0.125754  0.932595  1
  S  S15  1  0.238101  0.374246  0.067405  1
  S  S16  1  0.644229  0.392997  0.250000  1
  S  S17  1  0.144229  0.107003  0.750000  1
  S  S18  1  0.855771  0.892997  0.250000  1
  S  S19  1  0.355771  0.607003  0.750000  1
  S  S20  1  0.159921  0.099914  0.250000  1
  S  S21  1  0.659921  0.400086  0.750000  1
  S  S22  1  0.340079  0.599914  0.250000  1
  S  S23  1  0.840079  0.900086  0.750000  1
