# generated using pymatgen
data_Ga2HgTe4
_symmetry_space_group_name_H-M   'P 1'
_cell_length_a   7.47100439
_cell_length_b   7.47100439
_cell_length_c   7.47100439
_cell_angle_alpha   130.41164683
_cell_angle_beta   130.41164683
_cell_angle_gamma   72.74953177
_symmetry_Int_Tables_number   1
_chemical_formula_structural   Ga2HgTe4
_chemical_formula_sum   'Ga2 Hg1 Te4'
_cell_volume   236.18381063
_cell_formula_units_Z   1
loop_
 _symmetry_equiv_pos_site_id
 _symmetry_equiv_pos_as_xyz
  1  'x, y, z'
loop_
 _atom_site_type_symbol
 _atom_site_label
 _atom_site_symmetry_multiplicity
 _atom_site_fract_x
 _atom_site_fract_y
 _atom_site_fract_z
 _atom_site_occupancy
  Ga  Ga0  1  0.500000  0.500000  0.000000  1
  Ga  Ga1  1  0.250000  0.750000  0.500000  1
  Hg  Hg2  1  0.000000  0.000000  0.000000  1
  Te  Te3  1  0.415102  0.886087  0.023627  1
  Te  Te4  1  0.608525  0.584898  0.470986  1
  Te  Te5  1  0.113913  0.137540  0.529014  1
  Te  Te6  1  0.862460  0.391475  0.976373  1
