# generated using pymatgen
data_Li4MoO5
_symmetry_space_group_name_H-M   'P 1'
_cell_length_a   5.13460241
_cell_length_b   5.18051668
_cell_length_c   7.81392774
_cell_angle_alpha   108.43907881
_cell_angle_beta   101.82195164
_cell_angle_gamma   101.38363236
_symmetry_Int_Tables_number   1
_chemical_formula_structural   Li4MoO5
_chemical_formula_sum   'Li8 Mo2 O10'
_cell_volume   185.14337362
_cell_formula_units_Z   2
loop_
 _symmetry_equiv_pos_site_id
 _symmetry_equiv_pos_as_xyz
  1  'x, y, z'
loop_
 _atom_site_type_symbol
 _atom_site_label
 _atom_site_symmetry_multiplicity
 _atom_site_fract_x
 _atom_site_fract_y
 _atom_site_fract_z
 _atom_site_occupancy
  Li  Li0  1  0.124648  0.508161  0.297971  1
  Li  Li1  1  0.875352  0.491839  0.702029  1
  Li  Li2  1  0.500000  0.500000  0.500000  1
  Li  Li3  1  0.500000  0.000000  0.000000  1
  Li  Li4  1  0.315077  0.500089  0.902376  1
  Li  Li5  1  0.684923  0.499911  0.097624  1
  Li  Li6  1  0.696241  0.003920  0.609993  1
  Li  Li7  1  0.303759  0.996080  0.390007  1
  Mo  Mo8  1  0.110149  0.996386  0.782715  1
  Mo  Mo9  1  0.889851  0.003614  0.217285  1
  O  O10  1  0.729408  0.763869  0.844953  1
  O  O11  1  0.270592  0.236131  0.155047  1
  O  O12  1  0.714845  0.232659  0.335770  1
  O  O13  1  0.285155  0.767341  0.664230  1
  O  O14  1  0.090247  0.781749  0.042041  1
  O  O15  1  0.909753  0.218251  0.957959  1
  O  O16  1  0.471433  0.238009  0.751096  1
  O  O17  1  0.528567  0.761991  0.248904  1
  O  O18  1  0.905389  0.760675  0.427248  1
  O  O19  1  0.094611  0.239325  0.572752  1
