# generated using pymatgen
data_Co(TePd)2
_symmetry_space_group_name_H-M   'P 1'
_cell_length_a   6.95201262
_cell_length_b   6.95201262
_cell_length_c   6.95201262
_cell_angle_alpha   135.59514291
_cell_angle_beta   125.83600758
_cell_angle_gamma   72.54956588
_symmetry_Int_Tables_number   1
_chemical_formula_structural   Co(TePd)2
_chemical_formula_sum   'Co2 Te4 Pd4'
_cell_volume   186.40035815
_cell_formula_units_Z   2
loop_
 _symmetry_equiv_pos_site_id
 _symmetry_equiv_pos_as_xyz
  1  'x, y, z'
loop_
 _atom_site_type_symbol
 _atom_site_label
 _atom_site_symmetry_multiplicity
 _atom_site_fract_x
 _atom_site_fract_y
 _atom_site_fract_z
 _atom_site_occupancy
  Co  Co0  1  0.000000  0.750000  0.750000  1
  Co  Co1  1  0.000000  0.250000  0.250000  1
  Te  Te2  1  0.070987  0.356051  0.714935  1
  Te  Te3  1  0.929013  0.643949  0.285065  1
  Te  Te4  1  0.358884  0.143949  0.214935  1
  Te  Te5  1  0.641116  0.856051  0.785065  1
  Pd  Pd6  1  0.473396  0.605901  0.867495  1
  Pd  Pd7  1  0.261594  0.894099  0.367495  1
  Pd  Pd8  1  0.738406  0.105901  0.632505  1
  Pd  Pd9  1  0.526604  0.394099  0.132505  1
