# generated using pymatgen
data_Zr(WO4)2
_symmetry_space_group_name_H-M   'P 1'
_cell_length_a   9.36435291
_cell_length_b   9.36435291
_cell_length_c   9.36435291
_cell_angle_alpha   90.00000000
_cell_angle_beta   90.00000000
_cell_angle_gamma   90.00000000
_symmetry_Int_Tables_number   1
_chemical_formula_structural   Zr(WO4)2
_chemical_formula_sum   'Zr4 W8 O32'
_cell_volume   821.17045825
_cell_formula_units_Z   4
loop_
 _symmetry_equiv_pos_site_id
 _symmetry_equiv_pos_as_xyz
  1  'x, y, z'
loop_
 _atom_site_type_symbol
 _atom_site_label
 _atom_site_symmetry_multiplicity
 _atom_site_fract_x
 _atom_site_fract_y
 _atom_site_fract_z
 _atom_site_occupancy
  Zr  Zr0  1  0.001572  0.001572  0.001572  1
  Zr  Zr1  1  0.498428  0.998428  0.501572  1
  Zr  Zr2  1  0.501572  0.498428  0.998428  1
  Zr  Zr3  1  0.998428  0.501572  0.498428  1
  W  W4  1  0.654910  0.845090  0.154910  1
  W  W5  1  0.845090  0.154910  0.654910  1
  W  W6  1  0.154910  0.654910  0.845090  1
  W  W7  1  0.345090  0.345090  0.345090  1
  W  W8  1  0.599104  0.599104  0.599104  1
  W  W9  1  0.900896  0.400896  0.099104  1
  W  W10  1  0.099104  0.900896  0.400896  1
  W  W11  1  0.400896  0.099104  0.900896  1
  O  O12  1  0.762909  0.737091  0.262909  1
  O  O13  1  0.737091  0.262909  0.762909  1
  O  O14  1  0.262909  0.762909  0.737091  1
  O  O15  1  0.237091  0.237091  0.237091  1
  O  O16  1  0.510727  0.989273  0.010727  1
  O  O17  1  0.989273  0.010727  0.510727  1
  O  O18  1  0.010727  0.510727  0.989273  1
  O  O19  1  0.489273  0.489273  0.489273  1
  O  O20  1  0.714005  0.432555  0.054611  1
  O  O21  1  0.214005  0.067445  0.945389  1
  O  O22  1  0.285995  0.932555  0.445389  1
  O  O23  1  0.067445  0.945389  0.214005  1
  O  O24  1  0.204868  0.441255  0.446976  1
  O  O25  1  0.446976  0.204868  0.441255  1
  O  O26  1  0.441255  0.446976  0.204868  1
  O  O27  1  0.058745  0.553024  0.704868  1
  O  O28  1  0.946976  0.295132  0.558745  1
  O  O29  1  0.558745  0.946976  0.295132  1
  O  O30  1  0.053024  0.795132  0.941255  1
  O  O31  1  0.553024  0.704868  0.058745  1
  O  O32  1  0.941255  0.053024  0.795132  1
  O  O33  1  0.704868  0.058745  0.553024  1
  O  O34  1  0.795132  0.941255  0.053024  1
  O  O35  1  0.295132  0.558745  0.946976  1
  O  O36  1  0.785995  0.567445  0.554611  1
  O  O37  1  0.554611  0.785995  0.567445  1
  O  O38  1  0.567445  0.554611  0.785995  1
  O  O39  1  0.932555  0.445389  0.285995  1
  O  O40  1  0.054611  0.714005  0.432555  1
  O  O41  1  0.432555  0.054611  0.714005  1
  O  O42  1  0.945389  0.214005  0.067445  1
  O  O43  1  0.445389  0.285995  0.932555  1
