# generated using pymatgen
data_LaSc3(BO3)4
_symmetry_space_group_name_H-M   'P 1'
_cell_length_a   6.31632800
_cell_length_b   6.31632800
_cell_length_c   6.31632800
_cell_angle_alpha   103.21937815
_cell_angle_beta   103.21937815
_cell_angle_gamma   103.21937815
_symmetry_Int_Tables_number   1
_chemical_formula_structural   LaSc3(BO3)4
_chemical_formula_sum   'La1 Sc3 B4 O12'
_cell_volume   228.08076121
_cell_formula_units_Z   1
loop_
 _symmetry_equiv_pos_site_id
 _symmetry_equiv_pos_as_xyz
  1  'x, y, z'
loop_
 _atom_site_type_symbol
 _atom_site_label
 _atom_site_symmetry_multiplicity
 _atom_site_fract_x
 _atom_site_fract_y
 _atom_site_fract_z
 _atom_site_occupancy
  La  La0  1  0.500000  0.500000  0.500000  1
  Sc  Sc1  1  0.951860  0.500000  0.048140  1
  Sc  Sc2  1  0.048140  0.951860  0.500000  1
  Sc  Sc3  1  0.500000  0.048140  0.951860  1
  B  B4  1  0.000000  0.000000  0.000000  1
  B  B5  1  0.549920  0.000000  0.450080  1
  B  B6  1  0.450080  0.549920  1.000000  1
  B  B7  1  0.000000  0.450080  0.549920  1
  O  O8  1  0.140351  0.000000  0.859649  1
  O  O9  1  0.000000  0.590329  0.409671  1
  O  O10  1  0.590329  0.409671  1.000000  1
  O  O11  1  0.409671  0.000000  0.590329  1
  O  O12  1  0.125673  0.297904  0.529818  1
  O  O13  1  0.297904  0.529818  0.125673  1
  O  O14  1  0.529818  0.125673  0.297904  1
  O  O15  1  0.874327  0.470182  0.702096  1
  O  O16  1  0.470182  0.702096  0.874327  1
  O  O17  1  0.702096  0.874327  0.470182  1
  O  O18  1  0.000000  0.859649  0.140351  1
  O  O19  1  0.859649  0.140351  1.000000  1
