# generated using pymatgen
data_USiIr
_symmetry_space_group_name_H-M   'P 1'
_cell_length_a   4.26214975
_cell_length_b   6.74308981
_cell_length_c   7.48528846
_cell_angle_alpha   90.00000000
_cell_angle_beta   90.00000000
_cell_angle_gamma   90.00000000
_symmetry_Int_Tables_number   1
_chemical_formula_structural   USiIr
_chemical_formula_sum   'U4 Si4 Ir4'
_cell_volume   215.12762859
_cell_formula_units_Z   4
loop_
 _symmetry_equiv_pos_site_id
 _symmetry_equiv_pos_as_xyz
  1  'x, y, z'
loop_
 _atom_site_type_symbol
 _atom_site_label
 _atom_site_symmetry_multiplicity
 _atom_site_fract_x
 _atom_site_fract_y
 _atom_site_fract_z
 _atom_site_occupancy
  U  U0  1  0.250000  0.491649  0.702815  1
  U  U1  1  0.750000  0.508351  0.297185  1
  U  U2  1  0.250000  0.991649  0.797185  1
  U  U3  1  0.750000  0.008351  0.202815  1
  Si  Si4  1  0.250000  0.315564  0.085617  1
  Si  Si5  1  0.750000  0.684436  0.914383  1
  Si  Si6  1  0.250000  0.815564  0.414383  1
  Si  Si7  1  0.750000  0.184436  0.585617  1
  Ir  Ir8  1  0.750000  0.783165  0.585845  1
  Ir  Ir9  1  0.250000  0.216835  0.414155  1
  Ir  Ir10  1  0.750000  0.283165  0.914155  1
  Ir  Ir11  1  0.250000  0.716835  0.085845  1
