# generated using pymatgen
data_Sm2S3
_symmetry_space_group_name_H-M   'P 1'
_cell_length_a   3.99617829
_cell_length_b   7.43803432
_cell_length_c   15.49932418
_cell_angle_alpha   90.00000000
_cell_angle_beta   90.00000000
_cell_angle_gamma   90.00000000
_symmetry_Int_Tables_number   1
_chemical_formula_structural   Sm2S3
_chemical_formula_sum   'Sm8 S12'
_cell_volume   460.69743680
_cell_formula_units_Z   4
loop_
 _symmetry_equiv_pos_site_id
 _symmetry_equiv_pos_as_xyz
  1  'x, y, z'
loop_
 _atom_site_type_symbol
 _atom_site_label
 _atom_site_symmetry_multiplicity
 _atom_site_fract_x
 _atom_site_fract_y
 _atom_site_fract_z
 _atom_site_occupancy
  Sm  Sm0  1  0.250000  0.643246  0.704560  1
  Sm  Sm1  1  0.750000  0.356754  0.295440  1
  Sm  Sm2  1  0.250000  0.143246  0.795440  1
  Sm  Sm3  1  0.750000  0.856754  0.204560  1
  Sm  Sm4  1  0.250000  0.265227  0.043443  1
  Sm  Sm5  1  0.750000  0.734773  0.956557  1
  Sm  Sm6  1  0.250000  0.765227  0.456557  1
  Sm  Sm7  1  0.750000  0.234773  0.543443  1
  S  S8  1  0.250000  0.875052  0.067649  1
  S  S9  1  0.750000  0.124948  0.932351  1
  S  S10  1  0.250000  0.375052  0.432351  1
  S  S11  1  0.750000  0.624948  0.567649  1
  S  S12  1  0.250000  0.647418  0.281357  1
  S  S13  1  0.750000  0.352582  0.718643  1
  S  S14  1  0.250000  0.147418  0.218643  1
  S  S15  1  0.750000  0.852582  0.781357  1
  S  S16  1  0.750000  0.990380  0.391342  1
  S  S17  1  0.250000  0.009620  0.608658  1
  S  S18  1  0.750000  0.490380  0.108658  1
  S  S19  1  0.250000  0.509620  0.891342  1
