# generated using pymatgen
data_Ba3Cr2O8
_symmetry_space_group_name_H-M   'P 1'
_cell_length_a   7.96345241
_cell_length_b   7.96345241
_cell_length_c   7.96345241
_cell_angle_alpha   43.09013596
_cell_angle_beta   43.09013596
_cell_angle_gamma   43.09013596
_symmetry_Int_Tables_number   1
_chemical_formula_structural   Ba3Cr2O8
_chemical_formula_sum   'Ba3 Cr2 O8'
_cell_volume   213.66551996
_cell_formula_units_Z   1
loop_
 _symmetry_equiv_pos_site_id
 _symmetry_equiv_pos_as_xyz
  1  'x, y, z'
loop_
 _atom_site_type_symbol
 _atom_site_label
 _atom_site_symmetry_multiplicity
 _atom_site_fract_x
 _atom_site_fract_y
 _atom_site_fract_z
 _atom_site_occupancy
  Ba  Ba0  1  0.206257  0.206257  0.206257  1
  Ba  Ba1  1  0.793743  0.793743  0.793743  1
  Ba  Ba2  1  0.000000  0.000000  0.000000  1
  Cr  Cr3  1  0.407302  0.407302  0.407302  1
  Cr  Cr4  1  0.592698  0.592698  0.592698  1
  O  O5  1  0.328071  0.328071  0.328071  1
  O  O6  1  0.671929  0.671929  0.671929  1
  O  O7  1  0.726487  0.243005  0.726487  1
  O  O8  1  0.243005  0.726487  0.726487  1
  O  O9  1  0.726487  0.726487  0.243005  1
  O  O10  1  0.756995  0.273513  0.273513  1
  O  O11  1  0.273513  0.756995  0.273513  1
  O  O12  1  0.273513  0.273513  0.756995  1
