# generated using pymatgen
data_ScCrO3
_symmetry_space_group_name_H-M   'P 1'
_cell_length_a   5.09373327
_cell_length_b   5.41385444
_cell_length_c   7.56056694
_cell_angle_alpha   90.00000000
_cell_angle_beta   90.00000000
_cell_angle_gamma   90.00000000
_symmetry_Int_Tables_number   1
_chemical_formula_structural   ScCrO3
_chemical_formula_sum   'Sc4 Cr4 O12'
_cell_volume   208.49571678
_cell_formula_units_Z   4
loop_
 _symmetry_equiv_pos_site_id
 _symmetry_equiv_pos_as_xyz
  1  'x, y, z'
loop_
 _atom_site_type_symbol
 _atom_site_label
 _atom_site_symmetry_multiplicity
 _atom_site_fract_x
 _atom_site_fract_y
 _atom_site_fract_z
 _atom_site_occupancy
  Sc  Sc0  1  0.973755  0.069090  0.250000  1
  Sc  Sc1  1  0.473755  0.430910  0.750000  1
  Sc  Sc2  1  0.526245  0.569090  0.250000  1
  Sc  Sc3  1  0.026245  0.930910  0.750000  1
  Cr  Cr4  1  0.000000  0.500000  0.000000  1
  Cr  Cr5  1  0.500000  0.000000  0.000000  1
  Cr  Cr6  1  0.500000  0.000000  0.500000  1
  Cr  Cr7  1  0.000000  0.500000  0.500000  1
  O  O8  1  0.685478  0.308947  0.426516  1
  O  O9  1  0.185478  0.191053  0.573484  1
  O  O10  1  0.814522  0.808947  0.073484  1
  O  O11  1  0.314522  0.691053  0.926516  1
  O  O12  1  0.314522  0.691053  0.573484  1
  O  O13  1  0.814522  0.808947  0.426516  1
  O  O14  1  0.185478  0.191053  0.926516  1
  O  O15  1  0.685478  0.308947  0.073484  1
  O  O16  1  0.141632  0.436237  0.250000  1
  O  O17  1  0.641632  0.063763  0.750000  1
  O  O18  1  0.358368  0.936237  0.250000  1
  O  O19  1  0.858368  0.563763  0.750000  1
