# generated using pymatgen
data_Mg2Pt
_symmetry_space_group_name_H-M   'P 1'
_cell_length_a   5.33629820
_cell_length_b   5.33629820
_cell_length_c   5.33629820
_cell_angle_alpha   106.49853262
_cell_angle_beta   106.49853262
_cell_angle_gamma   115.59572268
_symmetry_Int_Tables_number   1
_chemical_formula_structural   Mg2Pt
_chemical_formula_sum   'Mg4 Pt2'
_cell_volume   115.96341697
_cell_formula_units_Z   2
loop_
 _symmetry_equiv_pos_site_id
 _symmetry_equiv_pos_as_xyz
  1  'x, y, z'
loop_
 _atom_site_type_symbol
 _atom_site_label
 _atom_site_symmetry_multiplicity
 _atom_site_fract_x
 _atom_site_fract_y
 _atom_site_fract_z
 _atom_site_occupancy
  Mg  Mg0  1  0.684653  0.815347  0.500000  1
  Mg  Mg1  1  0.184653  0.684653  0.869306  1
  Mg  Mg2  1  0.315347  0.184653  0.500000  1
  Mg  Mg3  1  0.815347  0.315347  0.130694  1
  Pt  Pt4  1  0.750000  0.750000  0.000000  1
  Pt  Pt5  1  0.250000  0.250000  0.000000  1
