# generated using pymatgen
data_Nd2(ZnGe2)3
_symmetry_space_group_name_H-M   'P 1'
_cell_length_a   12.76487069
_cell_length_b   12.76487069
_cell_length_c   5.95625235
_cell_angle_alpha   90.00000000
_cell_angle_beta   90.00000000
_cell_angle_gamma   152.99807105
_symmetry_Int_Tables_number   1
_chemical_formula_structural   Nd2(ZnGe2)3
_chemical_formula_sum   'Nd4 Zn6 Ge12'
_cell_volume   440.63743275
_cell_formula_units_Z   2
loop_
 _symmetry_equiv_pos_site_id
 _symmetry_equiv_pos_as_xyz
  1  'x, y, z'
loop_
 _atom_site_type_symbol
 _atom_site_label
 _atom_site_symmetry_multiplicity
 _atom_site_fract_x
 _atom_site_fract_y
 _atom_site_fract_z
 _atom_site_occupancy
  Nd  Nd0  1  0.893526  0.106474  0.750000  1
  Nd  Nd1  1  0.393409  0.606591  0.250000  1
  Nd  Nd2  1  0.606591  0.393409  0.750000  1
  Nd  Nd3  1  0.106474  0.893526  0.250000  1
  Zn  Zn4  1  0.160574  0.839426  0.750000  1
  Zn  Zn5  1  0.263283  0.263283  0.500000  1
  Zn  Zn6  1  0.263283  0.263283  0.000000  1
  Zn  Zn7  1  0.736717  0.736717  0.000000  1
  Zn  Zn8  1  0.839426  0.160574  0.250000  1
  Zn  Zn9  1  0.736717  0.736717  0.500000  1
  Ge  Ge10  1  0.941010  0.058990  0.250000  1
  Ge  Ge11  1  0.485469  0.083344  0.034678  1
  Ge  Ge12  1  0.058990  0.941010  0.750000  1
  Ge  Ge13  1  0.430255  0.569745  0.750000  1
  Ge  Ge14  1  0.514531  0.916656  0.534678  1
  Ge  Ge15  1  0.916656  0.514531  0.034678  1
  Ge  Ge16  1  0.916656  0.514531  0.465322  1
  Ge  Ge17  1  0.514531  0.916656  0.965322  1
  Ge  Ge18  1  0.485469  0.083344  0.465322  1
  Ge  Ge19  1  0.083344  0.485469  0.534678  1
  Ge  Ge20  1  0.569745  0.430255  0.250000  1
  Ge  Ge21  1  0.083344  0.485469  0.965322  1
