# generated using pymatgen
data_MgB4Os3
_symmetry_space_group_name_H-M   'P 1'
_cell_length_a   6.13421551
_cell_length_b   6.13421551
_cell_length_c   9.80732208
_cell_angle_alpha   90.00000000
_cell_angle_beta   90.00000000
_cell_angle_gamma   152.44868198
_symmetry_Int_Tables_number   1
_chemical_formula_structural   MgB4Os3
_chemical_formula_sum   'Mg2 B8 Os6'
_cell_volume   170.69488676
_cell_formula_units_Z   2
loop_
 _symmetry_equiv_pos_site_id
 _symmetry_equiv_pos_as_xyz
  1  'x, y, z'
loop_
 _atom_site_type_symbol
 _atom_site_label
 _atom_site_symmetry_multiplicity
 _atom_site_fract_x
 _atom_site_fract_y
 _atom_site_fract_z
 _atom_site_occupancy
  Mg  Mg0  1  0.500000  0.500000  1.000000  1
  Mg  Mg1  1  0.500000  0.500000  0.500000  1
  B  B2  1  0.376651  0.623349  0.250000  1
  B  B3  1  0.623349  0.376651  0.750000  1
  B  B4  1  0.654199  0.345801  0.250000  1
  B  B5  1  0.345801  0.654199  0.750000  1
  B  B6  1  0.840902  0.159098  0.889441  1
  B  B7  1  0.159098  0.840902  0.389441  1
  B  B8  1  0.159098  0.840902  0.110559  1
  B  B9  1  0.840902  0.159098  0.610559  1
  Os  Os10  1  0.800290  0.199710  0.107080  1
  Os  Os11  1  0.983598  0.016402  0.750000  1
  Os  Os12  1  0.016402  0.983598  0.250000  1
  Os  Os13  1  0.199710  0.800290  0.892920  1
  Os  Os14  1  0.199710  0.800290  0.607080  1
  Os  Os15  1  0.800290  0.199710  0.392920  1
