# generated using pymatgen
data_Li2TeO4
_symmetry_space_group_name_H-M   'P 1'
_cell_length_a   6.13451733
_cell_length_b   6.13451733
_cell_length_c   8.46094958
_cell_angle_alpha   90.00000000
_cell_angle_beta   90.00000000
_cell_angle_gamma   90.00000000
_symmetry_Int_Tables_number   1
_chemical_formula_structural   Li2TeO4
_chemical_formula_sum   'Li8 Te4 O16'
_cell_volume   318.40501718
_cell_formula_units_Z   4
loop_
 _symmetry_equiv_pos_site_id
 _symmetry_equiv_pos_as_xyz
  1  'x, y, z'
loop_
 _atom_site_type_symbol
 _atom_site_label
 _atom_site_symmetry_multiplicity
 _atom_site_fract_x
 _atom_site_fract_y
 _atom_site_fract_z
 _atom_site_occupancy
  Li  Li0  1  0.745919  0.745919  0.875000  1
  Li  Li1  1  0.254081  0.745919  0.125000  1
  Li  Li2  1  0.745919  0.254081  0.625000  1
  Li  Li3  1  0.254081  0.254081  0.375000  1
  Li  Li4  1  0.712572  0.500000  0.250000  1
  Li  Li5  1  0.500000  0.287428  0.000000  1
  Li  Li6  1  0.500000  0.712572  0.500000  1
  Li  Li7  1  0.287428  0.500000  0.750000  1
  Te  Te8  1  0.000000  0.731247  0.500000  1
  Te  Te9  1  0.268753  0.000000  0.750000  1
  Te  Te10  1  0.731247  0.000000  0.250000  1
  Te  Te11  1  0.000000  0.268753  0.000000  1
  O  O12  1  0.224752  0.981471  0.516502  1
  O  O13  1  0.775248  0.981471  0.483498  1
  O  O14  1  0.018529  0.224752  0.766502  1
  O  O15  1  0.775248  0.018529  0.016502  1
  O  O16  1  0.231278  0.467227  0.005872  1
  O  O17  1  0.532773  0.231278  0.255872  1
  O  O18  1  0.467227  0.768722  0.755872  1
  O  O19  1  0.231278  0.532773  0.494128  1
  O  O20  1  0.768722  0.467227  0.994128  1
  O  O21  1  0.768722  0.532773  0.505872  1
  O  O22  1  0.467227  0.231278  0.744128  1
  O  O23  1  0.532773  0.768722  0.244128  1
  O  O24  1  0.981471  0.224752  0.233498  1
  O  O25  1  0.224752  0.018529  0.983498  1
  O  O26  1  0.981471  0.775248  0.266502  1
  O  O27  1  0.018529  0.775248  0.733498  1
