# generated using pymatgen
data_NaNd(PO3)4
_symmetry_space_group_name_H-M   'P 1'
_cell_length_a   7.31852748
_cell_length_b   13.36496609
_cell_length_c   12.39580547
_cell_angle_alpha   90.00000000
_cell_angle_beta   125.76862033
_cell_angle_gamma   90.00000000
_symmetry_Int_Tables_number   1
_chemical_formula_structural   NaNd(PO3)4
_chemical_formula_sum   'Na4 Nd4 P16 O48'
_cell_volume   983.76823592
_cell_formula_units_Z   4
loop_
 _symmetry_equiv_pos_site_id
 _symmetry_equiv_pos_as_xyz
  1  'x, y, z'
loop_
 _atom_site_type_symbol
 _atom_site_label
 _atom_site_symmetry_multiplicity
 _atom_site_fract_x
 _atom_site_fract_y
 _atom_site_fract_z
 _atom_site_occupancy
  Na  Na0  1  0.436883  0.776852  0.936156  1
  Na  Na1  1  0.563117  0.276852  0.563844  1
  Na  Na2  1  0.563117  0.223148  0.063844  1
  Na  Na3  1  0.436883  0.723148  0.436156  1
  Nd  Nd4  1  0.034868  0.721469  0.521830  1
  Nd  Nd5  1  0.965132  0.221469  0.978170  1
  Nd  Nd6  1  0.965132  0.278531  0.478170  1
  Nd  Nd7  1  0.034868  0.778531  0.021830  1
  P  P8  1  0.612389  0.614186  0.733499  1
  P  P9  1  0.387611  0.114186  0.766501  1
  P  P10  1  0.387611  0.385814  0.266501  1
  P  P11  1  0.612389  0.885814  0.233499  1
  P  P12  1  0.067219  0.591108  0.797696  1
  P  P13  1  0.932781  0.091108  0.702304  1
  P  P14  1  0.932781  0.408892  0.202304  1
  P  P15  1  0.067219  0.908892  0.297696  1
  P  P16  1  0.507032  0.898757  0.758333  1
  P  P17  1  0.492968  0.398757  0.741667  1
  P  P18  1  0.492968  0.101243  0.241667  1
  P  P19  1  0.507032  0.601243  0.258333  1
  P  P20  1  0.840165  0.873725  0.696326  1
  P  P21  1  0.159835  0.373725  0.803674  1
  P  P22  1  0.159835  0.126275  0.303674  1
  P  P23  1  0.840165  0.626275  0.196326  1
  O  O24  1  0.796008  0.580654  0.707889  1
  O  O25  1  0.203992  0.080654  0.792111  1
  O  O26  1  0.203992  0.419346  0.292111  1
  O  O27  1  0.796008  0.919346  0.207889  1
  O  O28  1  0.567788  0.513032  0.783472  1
  O  O29  1  0.432212  0.013032  0.716528  1
  O  O30  1  0.432212  0.486968  0.216528  1
  O  O31  1  0.567788  0.986968  0.283472  1
  O  O32  1  0.407334  0.647361  0.601325  1
  O  O33  1  0.592666  0.147361  0.898675  1
  O  O34  1  0.592666  0.352639  0.398675  1
  O  O35  1  0.407334  0.852639  0.101325  1
  O  O36  1  0.714002  0.685552  0.847800  1
  O  O37  1  0.285998  0.185552  0.652200  1
  O  O38  1  0.285998  0.314448  0.152200  1
  O  O39  1  0.714002  0.814448  0.347800  1
  O  O40  1  0.154032  0.660747  0.913266  1
  O  O41  1  0.595107  0.877473  0.668335  1
  O  O42  1  0.845968  0.160747  0.586734  1
  O  O43  1  0.154032  0.839253  0.413266  1
  O  O44  1  0.130854  0.612466  0.704745  1
  O  O45  1  0.869146  0.112466  0.795255  1
  O  O46  1  0.869146  0.387534  0.295255  1
  O  O47  1  0.130854  0.887534  0.204745  1
  O  O48  1  0.818824  0.705323  0.103348  1
  O  O49  1  0.181176  0.205323  0.396652  1
  O  O50  1  0.181176  0.294677  0.896652  1
  O  O51  1  0.818824  0.794677  0.603348  1
  O  O52  1  0.020583  0.634442  0.342793  1
  O  O53  1  0.979417  0.134442  0.157207  1
  O  O54  1  0.979417  0.365558  0.657207  1
  O  O55  1  0.020583  0.865558  0.842793  1
  O  O56  1  0.298745  0.663797  0.204244  1
  O  O57  1  0.701255  0.163797  0.295756  1
  O  O58  1  0.701255  0.336203  0.795756  1
  O  O59  1  0.298745  0.836203  0.704244  1
  O  O60  1  0.689561  0.611757  0.404914  1
  O  O61  1  0.310439  0.111757  0.095086  1
  O  O62  1  0.310439  0.388243  0.595086  1
  O  O63  1  0.689561  0.888243  0.904914  1
  O  O64  1  0.852523  0.519829  0.139494  1
  O  O65  1  0.147477  0.019829  0.360506  1
  O  O66  1  0.147477  0.480171  0.860506  1
  O  O67  1  0.852523  0.980171  0.639494  1
  O  O68  1  0.595107  0.622527  0.168335  1
  O  O69  1  0.404893  0.122527  0.331665  1
  O  O70  1  0.404893  0.377473  0.831665  1
  O  O71  1  0.845968  0.339253  0.086734  1
