# generated using pymatgen
data_La2MgMnO6
_symmetry_space_group_name_H-M   'P 1'
_cell_length_a   5.50469134
_cell_length_b   5.50469134
_cell_length_c   5.50469134
_cell_angle_alpha   60.95210768
_cell_angle_beta   60.95210768
_cell_angle_gamma   60.95210768
_symmetry_Int_Tables_number   1
_chemical_formula_structural   La2MgMnO6
_chemical_formula_sum   'La2 Mg1 Mn1 O6'
_cell_volume   120.47649552
_cell_formula_units_Z   1
loop_
 _symmetry_equiv_pos_site_id
 _symmetry_equiv_pos_as_xyz
  1  'x, y, z'
loop_
 _atom_site_type_symbol
 _atom_site_label
 _atom_site_symmetry_multiplicity
 _atom_site_fract_x
 _atom_site_fract_y
 _atom_site_fract_z
 _atom_site_occupancy
  La  La0  1  0.249095  0.249095  0.249095  1
  La  La1  1  0.750905  0.750905  0.750905  1
  Mg  Mg2  1  0.500000  0.500000  0.500000  1
  Mn  Mn3  1  0.000000  0.000000  0.000000  1
  O  O4  1  0.825739  0.691324  0.237821  1
  O  O5  1  0.691324  0.237821  0.825739  1
  O  O6  1  0.237821  0.825739  0.691324  1
  O  O7  1  0.174261  0.308676  0.762179  1
  O  O8  1  0.762179  0.174261  0.308676  1
  O  O9  1  0.308676  0.762179  0.174261  1
