# generated using pymatgen
data_LiCo2P2O9
_symmetry_space_group_name_H-M   'P 1'
_cell_length_a   6.06033240
_cell_length_b   7.37680709
_cell_length_c   13.61366079
_cell_angle_alpha   90.00000000
_cell_angle_beta   90.00000000
_cell_angle_gamma   90.00000000
_symmetry_Int_Tables_number   1
_chemical_formula_structural   LiCo2P2O9
_chemical_formula_sum   'Li4 Co8 P8 O36'
_cell_volume   608.61099897
_cell_formula_units_Z   4
loop_
 _symmetry_equiv_pos_site_id
 _symmetry_equiv_pos_as_xyz
  1  'x, y, z'
loop_
 _atom_site_type_symbol
 _atom_site_label
 _atom_site_symmetry_multiplicity
 _atom_site_fract_x
 _atom_site_fract_y
 _atom_site_fract_z
 _atom_site_occupancy
  Li  Li0  1  0.750000  0.941985  0.774437  1
  Li  Li1  1  0.750000  0.558015  0.274437  1
  Li  Li2  1  0.250000  0.441985  0.725563  1
  Li  Li3  1  0.250000  0.058015  0.225563  1
  Co  Co4  1  0.750000  0.347471  0.877986  1
  Co  Co5  1  0.250000  0.652529  0.122014  1
  Co  Co6  1  0.250000  0.847471  0.622014  1
  Co  Co7  1  0.750000  0.152529  0.377986  1
  Co  Co8  1  0.500000  0.000000  0.000000  1
  Co  Co9  1  0.500000  0.500000  0.500000  1
  Co  Co10  1  0.000000  0.500000  0.500000  1
  Co  Co11  1  0.000000  0.000000  0.000000  1
  P  P12  1  0.250000  0.354344  0.936745  1
  P  P13  1  0.750000  0.645656  0.063255  1
  P  P14  1  0.750000  0.854344  0.563255  1
  P  P15  1  0.250000  0.145656  0.436745  1
  P  P16  1  0.750000  0.403468  0.694851  1
  P  P17  1  0.750000  0.096532  0.194851  1
  P  P18  1  0.250000  0.903468  0.805149  1
  P  P19  1  0.250000  0.596532  0.305149  1
  O  O20  1  0.036350  0.578349  0.366744  1
  O  O21  1  0.536350  0.421651  0.633256  1
  O  O22  1  0.963650  0.078349  0.133256  1
  O  O23  1  0.463650  0.921651  0.866744  1
  O  O24  1  0.963650  0.421651  0.633256  1
  O  O25  1  0.463650  0.578349  0.366744  1
  O  O26  1  0.036350  0.921651  0.866744  1
  O  O27  1  0.536350  0.078349  0.133256  1
  O  O28  1  0.250000  0.333609  0.493761  1
  O  O29  1  0.750000  0.666391  0.506239  1
  O  O30  1  0.750000  0.833609  0.006239  1
  O  O31  1  0.250000  0.166391  0.993761  1
  O  O32  1  0.750000  0.139888  0.958718  1
  O  O33  1  0.250000  0.860112  0.041282  1
  O  O34  1  0.250000  0.639888  0.541282  1
  O  O35  1  0.750000  0.360112  0.458718  1
  O  O36  1  0.750000  0.220648  0.754046  1
  O  O37  1  0.250000  0.779352  0.245954  1
  O  O38  1  0.250000  0.720648  0.745954  1
  O  O39  1  0.750000  0.279352  0.254046  1
  O  O40  1  0.444270  0.146085  0.364396  1
  O  O41  1  0.944270  0.853915  0.635604  1
  O  O42  1  0.555730  0.646085  0.135604  1
  O  O43  1  0.055730  0.353915  0.864396  1
  O  O44  1  0.555730  0.853915  0.635604  1
  O  O45  1  0.055730  0.146085  0.364396  1
  O  O46  1  0.444270  0.353915  0.864396  1
  O  O47  1  0.944270  0.646085  0.135604  1
  O  O48  1  0.750000  0.488030  0.993239  1
  O  O49  1  0.250000  0.039272  0.717207  1
  O  O50  1  0.250000  0.460728  0.217207  1
  O  O51  1  0.750000  0.539272  0.782793  1
  O  O52  1  0.750000  0.011970  0.493239  1
  O  O53  1  0.250000  0.988030  0.506761  1
  O  O54  1  0.250000  0.511970  0.006761  1
  O  O55  1  0.750000  0.960728  0.282793  1
