# generated using pymatgen
data_CaCr(Si2O5)2
_symmetry_space_group_name_H-M   'P 1'
_cell_length_a   7.47886000
_cell_length_b   7.47886000
_cell_length_c   15.39959900
_cell_angle_alpha   90.00000000
_cell_angle_beta   90.00000000
_cell_angle_gamma   90.00000000
_symmetry_Int_Tables_number   1
_chemical_formula_structural   CaCr(Si2O5)2
_chemical_formula_sum   'Ca4 Cr4 Si16 O40'
_cell_volume   861.35111298
_cell_formula_units_Z   4
loop_
 _symmetry_equiv_pos_site_id
 _symmetry_equiv_pos_as_xyz
  1  'x, y, z'
loop_
 _atom_site_type_symbol
 _atom_site_label
 _atom_site_symmetry_multiplicity
 _atom_site_fract_x
 _atom_site_fract_y
 _atom_site_fract_z
 _atom_site_occupancy
  Ca  Ca0  1  0.500000  0.500000  0.000000  1
  Ca  Ca1  1  0.000000  0.000000  0.000000  1
  Ca  Ca2  1  0.000000  0.000000  0.500000  1
  Ca  Ca3  1  0.500000  0.500000  0.500000  1
  Cr  Cr4  1  0.500000  0.000000  0.080597  1
  Cr  Cr5  1  0.000000  0.500000  0.419403  1
  Cr  Cr6  1  0.000000  0.500000  0.919403  1
  Cr  Cr7  1  0.500000  0.000000  0.580597  1
  Si  Si8  1  0.170232  0.251982  0.648312  1
  Si  Si9  1  0.829768  0.748018  0.648312  1
  Si  Si10  1  0.251982  0.170232  0.851688  1
  Si  Si11  1  0.751982  0.329768  0.648312  1
  Si  Si12  1  0.248018  0.670232  0.648312  1
  Si  Si13  1  0.329768  0.751982  0.851688  1
  Si  Si14  1  0.670232  0.248018  0.851688  1
  Si  Si15  1  0.748018  0.829768  0.851688  1
  Si  Si16  1  0.329768  0.248018  0.351688  1
  Si  Si17  1  0.670232  0.751982  0.351688  1
  Si  Si18  1  0.248018  0.329768  0.148312  1
  Si  Si19  1  0.748018  0.170232  0.351688  1
  Si  Si20  1  0.251982  0.829768  0.351688  1
  Si  Si21  1  0.170232  0.748018  0.148312  1
  Si  Si22  1  0.829768  0.251982  0.148312  1
  Si  Si23  1  0.751982  0.670232  0.148312  1
  O  O24  1  0.247768  0.104800  0.582348  1
  O  O25  1  0.752232  0.895200  0.582348  1
  O  O26  1  0.104800  0.247768  0.917652  1
  O  O27  1  0.604800  0.252232  0.582348  1
  O  O28  1  0.395200  0.747768  0.582348  1
  O  O29  1  0.252232  0.604800  0.917652  1
  O  O30  1  0.747768  0.395200  0.917652  1
  O  O31  1  0.895200  0.752232  0.917652  1
  O  O32  1  0.252232  0.395200  0.417652  1
  O  O33  1  0.747768  0.604800  0.417652  1
  O  O34  1  0.395200  0.252232  0.082348  1
  O  O35  1  0.895200  0.247768  0.417652  1
  O  O36  1  0.104800  0.752232  0.417652  1
  O  O37  1  0.247768  0.895200  0.082348  1
  O  O38  1  0.752232  0.104800  0.082348  1
  O  O39  1  0.251557  0.046664  0.371677  1
  O  O40  1  0.604800  0.747768  0.082348  1
  O  O41  1  0.751557  0.546664  0.628323  1
  O  O42  1  0.453336  0.248443  0.871677  1
  O  O43  1  0.953336  0.251557  0.628323  1
  O  O44  1  0.046664  0.748443  0.628323  1
  O  O45  1  0.251557  0.953336  0.871677  1
  O  O46  1  0.748443  0.046664  0.871677  1
  O  O47  1  0.546664  0.751557  0.871677  1
  O  O48  1  0.706347  0.706347  0.250000  1
  O  O49  1  0.793653  0.206347  0.250000  1
  O  O50  1  0.206347  0.793653  0.250000  1
  O  O51  1  0.293653  0.293653  0.250000  1
  O  O52  1  0.793653  0.793653  0.750000  1
  O  O53  1  0.706347  0.293653  0.750000  1
  O  O54  1  0.293653  0.706347  0.750000  1
  O  O55  1  0.206347  0.206347  0.750000  1
  O  O56  1  0.953336  0.748443  0.128323  1
  O  O57  1  0.751557  0.453336  0.128323  1
  O  O58  1  0.248443  0.546664  0.128323  1
  O  O59  1  0.453336  0.751557  0.371677  1
  O  O60  1  0.546664  0.248443  0.371677  1
  O  O61  1  0.046664  0.251557  0.128323  1
  O  O62  1  0.748443  0.953336  0.371677  1
  O  O63  1  0.248443  0.453336  0.628323  1
