# generated using pymatgen
data_NiSb2
_symmetry_space_group_name_H-M   'P 1'
_cell_length_a   3.80348126
_cell_length_b   5.35055021
_cell_length_c   6.31384505
_cell_angle_alpha   90.00000000
_cell_angle_beta   90.00000000
_cell_angle_gamma   90.00000000
_symmetry_Int_Tables_number   1
_chemical_formula_structural   NiSb2
_chemical_formula_sum   'Ni2 Sb4'
_cell_volume   128.49127666
_cell_formula_units_Z   2
loop_
 _symmetry_equiv_pos_site_id
 _symmetry_equiv_pos_as_xyz
  1  'x, y, z'
loop_
 _atom_site_type_symbol
 _atom_site_label
 _atom_site_symmetry_multiplicity
 _atom_site_fract_x
 _atom_site_fract_y
 _atom_site_fract_z
 _atom_site_occupancy
  Ni  Ni0  1  0.500000  0.500000  0.500000  1
  Ni  Ni1  1  0.000000  0.000000  0.000000  1
  Sb  Sb2  1  0.500000  0.715806  0.139590  1
  Sb  Sb3  1  0.500000  0.284194  0.860410  1
  Sb  Sb4  1  0.000000  0.784194  0.639590  1
  Sb  Sb5  1  0.000000  0.215806  0.360410  1
