# generated using pymatgen
data_EuIn2Ni
_symmetry_space_group_name_H-M   'P 1'
_cell_length_a   5.80128736
_cell_length_b   5.80128736
_cell_length_c   7.79388378
_cell_angle_alpha   90.00000000
_cell_angle_beta   90.00000000
_cell_angle_gamma   135.41113458
_symmetry_Int_Tables_number   1
_chemical_formula_structural   EuIn2Ni
_chemical_formula_sum   'Eu2 In4 Ni2'
_cell_volume   184.14030956
_cell_formula_units_Z   2
loop_
 _symmetry_equiv_pos_site_id
 _symmetry_equiv_pos_as_xyz
  1  'x, y, z'
loop_
 _atom_site_type_symbol
 _atom_site_label
 _atom_site_symmetry_multiplicity
 _atom_site_fract_x
 _atom_site_fract_y
 _atom_site_fract_z
 _atom_site_occupancy
  Eu  Eu0  1  0.057376  0.942624  0.250000  1
  Eu  Eu1  1  0.942624  0.057376  0.750000  1
  In  In2  1  0.653756  0.346244  0.946937  1
  In  In3  1  0.346244  0.653756  0.053063  1
  In  In4  1  0.346244  0.653756  0.446937  1
  In  In5  1  0.653756  0.346244  0.553063  1
  Ni  Ni6  1  0.778798  0.221202  0.250000  1
  Ni  Ni7  1  0.221202  0.778798  0.750000  1
