# generated using pymatgen
data_RbVSe2
_symmetry_space_group_name_H-M   'P 1'
_cell_length_a   14.43345200
_cell_length_b   12.95499282
_cell_length_c   7.56275033
_cell_angle_alpha   85.11027590
_cell_angle_beta   63.41873168
_cell_angle_gamma   31.47099242
_symmetry_Int_Tables_number   1
_chemical_formula_structural   RbVSe2
_chemical_formula_sum   'Rb4 V4 Se8'
_cell_volume   510.11131883
_cell_formula_units_Z   4
loop_
 _symmetry_equiv_pos_site_id
 _symmetry_equiv_pos_as_xyz
  1  'x, y, z'
loop_
 _atom_site_type_symbol
 _atom_site_label
 _atom_site_symmetry_multiplicity
 _atom_site_fract_x
 _atom_site_fract_y
 _atom_site_fract_z
 _atom_site_occupancy
  Rb  Rb0  1  0.323226  0.323226  0.676774  1
  Rb  Rb1  1  0.676774  0.676774  0.323226  1
  Rb  Rb2  1  0.926774  0.926774  0.573226  1
  Rb  Rb3  1  0.573226  0.573226  0.926774  1
  V  V4  1  0.500000  0.500000  0.500000  1
  V  V5  1  0.750000  0.750000  0.750000  1
  V  V6  1  1.000000  0.000000  0.000000  1
  V  V7  1  0.250000  0.250000  0.250000  1
  Se  Se8  1  0.649536  0.955574  0.043309  1
  Se  Se9  1  0.351580  0.043309  0.955574  1
  Se  Se10  1  0.043309  0.351580  0.649536  1
  Se  Se11  1  0.955574  0.649536  0.351580  1
  Se  Se12  1  0.600464  0.294426  0.206691  1
  Se  Se13  1  0.898420  0.206691  0.294426  1
  Se  Se14  1  0.206691  0.898420  0.600464  1
  Se  Se15  1  0.294426  0.600464  0.898420  1
