# generated using pymatgen
data_Ca4Al6SO16
_symmetry_space_group_name_H-M   'P 1'
_cell_length_a   9.25465575
_cell_length_b   13.09727507
_cell_length_c   13.26663000
_cell_angle_alpha   90.00000000
_cell_angle_beta   90.00000000
_cell_angle_gamma   90.00000000
_symmetry_Int_Tables_number   1
_chemical_formula_structural   Ca4Al6SO16
_chemical_formula_sum   'Ca16 Al24 S4 O64'
_cell_volume   1608.05846461
_cell_formula_units_Z   4
loop_
 _symmetry_equiv_pos_site_id
 _symmetry_equiv_pos_as_xyz
  1  'x, y, z'
loop_
 _atom_site_type_symbol
 _atom_site_label
 _atom_site_symmetry_multiplicity
 _atom_site_fract_x
 _atom_site_fract_y
 _atom_site_fract_z
 _atom_site_occupancy
  Ca  Ca0  1  0.651954  0.943181  0.249229  1
  Ca  Ca1  1  0.651954  0.056819  0.750771  1
  Ca  Ca2  1  0.151954  0.943181  0.750771  1
  Ca  Ca3  1  0.151954  0.056819  0.249229  1
  Ca  Ca4  1  0.792498  0.746619  0.935579  1
  Ca  Ca5  1  0.792498  0.253381  0.064421  1
  Ca  Ca6  1  0.292498  0.746619  0.064421  1
  Ca  Ca7  1  0.292498  0.253381  0.935579  1
  Ca  Ca8  1  0.739770  0.741704  0.524320  1
  Ca  Ca9  1  0.739770  0.258296  0.475680  1
  Ca  Ca10  1  0.239770  0.741704  0.475680  1
  Ca  Ca11  1  0.239770  0.258296  0.524320  1
  Ca  Ca12  1  0.718989  0.509120  0.254040  1
  Ca  Ca13  1  0.718989  0.490880  0.745960  1
  Ca  Ca14  1  0.218989  0.509120  0.745960  1
  Ca  Ca15  1  0.218989  0.490880  0.254040  1
  Al  Al16  1  0.728949  0.500000  0.500000  1
  Al  Al17  1  0.228949  0.500000  0.500000  1
  Al  Al18  1  0.745111  0.500000  0.000000  1
  Al  Al19  1  0.245111  0.500000  0.000000  1
  Al  Al20  1  0.724292  0.000000  0.000000  1
  Al  Al21  1  0.224292  0.000000  0.000000  1
  Al  Al22  1  0.699317  0.000000  0.500000  1
  Al  Al23  1  0.199317  0.000000  0.500000  1
  Al  Al24  1  0.491545  0.373163  0.120957  1
  Al  Al25  1  0.491545  0.626837  0.879043  1
  Al  Al26  1  0.991545  0.373163  0.879043  1
  Al  Al27  1  0.991545  0.626837  0.120957  1
  Al  Al28  1  0.452213  0.880281  0.630144  1
  Al  Al29  1  0.452213  0.119719  0.369856  1
  Al  Al30  1  0.952213  0.880281  0.369856  1
  Al  Al31  1  0.952213  0.119719  0.630144  1
  Al  Al32  1  0.477223  0.629614  0.631254  1
  Al  Al33  1  0.477223  0.370386  0.368746  1
  Al  Al34  1  0.977223  0.629614  0.368746  1
  Al  Al35  1  0.977223  0.370386  0.631254  1
  Al  Al36  1  0.472232  0.877616  0.878289  1
  Al  Al37  1  0.472232  0.122384  0.121711  1
  Al  Al38  1  0.972232  0.877616  0.121711  1
  Al  Al39  1  0.972232  0.122384  0.878289  1
  S  S40  1  0.470087  0.723114  0.265614  1
  S  S41  1  0.470087  0.276886  0.734386  1
  S  S42  1  0.970087  0.723114  0.734386  1
  S  S43  1  0.970087  0.276886  0.265614  1
  O  O44  1  0.110424  0.330250  0.265144  1
  O  O45  1  0.110424  0.669750  0.734856  1
  O  O46  1  0.610424  0.330250  0.734856  1
  O  O47  1  0.610424  0.669750  0.265144  1
  O  O48  1  0.978197  0.185213  0.196772  1
  O  O49  1  0.978197  0.814787  0.803228  1
  O  O50  1  0.478197  0.185213  0.803228  1
  O  O51  1  0.478197  0.814787  0.196772  1
  O  O52  1  0.936975  0.241950  0.369730  1
  O  O53  1  0.936975  0.758050  0.630270  1
  O  O54  1  0.436975  0.241950  0.630270  1
  O  O55  1  0.436975  0.758050  0.369730  1
  O  O56  1  0.851654  0.343057  0.225362  1
  O  O57  1  0.851654  0.656943  0.774638  1
  O  O58  1  0.351654  0.343057  0.774638  1
  O  O59  1  0.351654  0.656943  0.225362  1
  O  O60  1  0.943528  0.590233  0.244736  1
  O  O61  1  0.943528  0.409767  0.755264  1
  O  O62  1  0.443528  0.590233  0.755264  1
  O  O63  1  0.443528  0.409767  0.244736  1
  O  O64  1  0.638630  0.431511  0.405523  1
  O  O65  1  0.638630  0.568489  0.594477  1
  O  O66  1  0.138630  0.431511  0.594477  1
  O  O67  1  0.138630  0.568489  0.405523  1
  O  O68  1  0.644570  0.450556  0.100604  1
  O  O69  1  0.644570  0.549444  0.899396  1
  O  O70  1  0.144570  0.450556  0.899396  1
  O  O71  1  0.144570  0.549444  0.100604  1
  O  O72  1  0.017277  0.242918  0.604589  1
  O  O73  1  0.017277  0.757082  0.395411  1
  O  O74  1  0.517277  0.242918  0.395411  1
  O  O75  1  0.517277  0.757082  0.604589  1
  O  O76  1  0.321809  0.402931  0.436724  1
  O  O77  1  0.321809  0.597069  0.563276  1
  O  O78  1  0.821809  0.402931  0.563276  1
  O  O79  1  0.821809  0.597069  0.436724  1
  O  O80  1  0.295847  0.104633  0.446666  1
  O  O81  1  0.295847  0.895367  0.553334  1
  O  O82  1  0.795847  0.104633  0.553334  1
  O  O83  1  0.795847  0.895367  0.446666  1
  O  O84  1  0.048894  0.245312  0.896391  1
  O  O85  1  0.048894  0.754688  0.103609  1
  O  O86  1  0.548894  0.245312  0.103609  1
  O  O87  1  0.548894  0.754688  0.896391  1
  O  O88  1  0.327970  0.109013  0.034618  1
  O  O89  1  0.327970  0.890987  0.965382  1
  O  O90  1  0.827970  0.109013  0.965382  1
  O  O91  1  0.827970  0.890987  0.034618  1
  O  O92  1  0.344959  0.391875  0.039335  1
  O  O93  1  0.344959  0.608125  0.960665  1
  O  O94  1  0.844959  0.391875  0.960665  1
  O  O95  1  0.844959  0.608125  0.039335  1
  O  O96  1  0.897181  0.903560  0.243477  1
  O  O97  1  0.897181  0.096440  0.756523  1
  O  O98  1  0.397181  0.903560  0.756523  1
  O  O99  1  0.397181  0.096440  0.243477  1
  O  O100  1  0.620161  0.036596  0.107190  1
  O  O101  1  0.620161  0.963404  0.892810  1
  O  O102  1  0.120161  0.036596  0.892810  1
  O  O103  1  0.120161  0.963404  0.107190  1
  O  O104  1  0.598631  0.037571  0.392897  1
  O  O105  1  0.598631  0.962429  0.607103  1
  O  O106  1  0.098631  0.037571  0.607103  1
  O  O107  1  0.098631  0.962429  0.392897  1
