# generated using pymatgen
data_Na6MnTe4
_symmetry_space_group_name_H-M   'P 1'
_cell_length_a   10.09270995
_cell_length_b   10.09270995
_cell_length_c   7.76062934
_cell_angle_alpha   90.00000000
_cell_angle_beta   90.00000000
_cell_angle_gamma   120.00000000
_symmetry_Int_Tables_number   1
_chemical_formula_structural   Na6MnTe4
_chemical_formula_sum   'Na12 Mn2 Te8'
_cell_volume   684.60987309
_cell_formula_units_Z   2
loop_
 _symmetry_equiv_pos_site_id
 _symmetry_equiv_pos_as_xyz
  1  'x, y, z'
loop_
 _atom_site_type_symbol
 _atom_site_label
 _atom_site_symmetry_multiplicity
 _atom_site_fract_x
 _atom_site_fract_y
 _atom_site_fract_z
 _atom_site_occupancy
  Na  Na0  1  0.150149  0.849851  0.542280  1
  Na  Na1  1  0.300297  0.150149  0.042280  1
  Na  Na2  1  0.849851  0.699703  0.042280  1
  Na  Na3  1  0.150149  0.300297  0.542280  1
  Na  Na4  1  0.699703  0.849851  0.542280  1
  Na  Na5  1  0.849851  0.150149  0.042280  1
  Na  Na6  1  0.527713  0.472287  0.371859  1
  Na  Na7  1  0.055426  0.527713  0.871859  1
  Na  Na8  1  0.472287  0.944574  0.871859  1
  Na  Na9  1  0.527713  0.055426  0.371859  1
  Na  Na10  1  0.944574  0.472287  0.371859  1
  Na  Na11  1  0.472287  0.527713  0.871859  1
  Mn  Mn12  1  0.333333  0.666667  0.251909  1
  Mn  Mn13  1  0.666667  0.333333  0.751909  1
  Te  Te14  1  0.333333  0.666667  0.605120  1
  Te  Te15  1  0.666667  0.333333  0.105120  1
  Te  Te16  1  0.185210  0.814790  0.142418  1
  Te  Te17  1  0.370421  0.185210  0.642418  1
  Te  Te18  1  0.814790  0.629579  0.642418  1
  Te  Te19  1  0.185210  0.370421  0.142418  1
  Te  Te20  1  0.629579  0.814790  0.142418  1
  Te  Te21  1  0.814790  0.185210  0.642418  1
