# generated using pymatgen
data_Sc2Cu2O5
_symmetry_space_group_name_H-M   'P 1'
_cell_length_a   3.24879691
_cell_length_b   10.55464062
_cell_length_c   12.12575374
_cell_angle_alpha   90.00000000
_cell_angle_beta   90.00000000
_cell_angle_gamma   90.00000000
_symmetry_Int_Tables_number   1
_chemical_formula_structural   Sc2Cu2O5
_chemical_formula_sum   'Sc8 Cu8 O20'
_cell_volume   415.79068713
_cell_formula_units_Z   4
loop_
 _symmetry_equiv_pos_site_id
 _symmetry_equiv_pos_as_xyz
  1  'x, y, z'
loop_
 _atom_site_type_symbol
 _atom_site_label
 _atom_site_symmetry_multiplicity
 _atom_site_fract_x
 _atom_site_fract_y
 _atom_site_fract_z
 _atom_site_occupancy
  Sc  Sc0  1  0.780129  0.789430  0.000633  1
  Sc  Sc1  1  0.219871  0.210570  0.500633  1
  Sc  Sc2  1  0.719871  0.289430  0.000633  1
  Sc  Sc3  1  0.280129  0.710570  0.500633  1
  Sc  Sc4  1  0.779185  0.960425  0.330398  1
  Sc  Sc5  1  0.220815  0.039575  0.830398  1
  Sc  Sc6  1  0.720815  0.460425  0.330398  1
  Sc  Sc7  1  0.279185  0.539575  0.830398  1
  Cu  Cu8  1  0.341683  0.009644  0.109459  1
  Cu  Cu9  1  0.658317  0.990356  0.609459  1
  Cu  Cu10  1  0.158317  0.509644  0.109459  1
  Cu  Cu11  1  0.841683  0.490356  0.609459  1
  Cu  Cu12  1  0.349955  0.739667  0.221278  1
  Cu  Cu13  1  0.650045  0.260333  0.721278  1
  Cu  Cu14  1  0.150045  0.239667  0.221278  1
  Cu  Cu15  1  0.849955  0.760333  0.721278  1
  O  O16  1  0.271297  0.919043  0.966540  1
  O  O17  1  0.728703  0.080957  0.466540  1
  O  O18  1  0.228703  0.419043  0.966540  1
  O  O19  1  0.771297  0.580957  0.466540  1
  O  O20  1  0.720088  0.932771  0.765099  1
  O  O21  1  0.279912  0.067229  0.265099  1
  O  O22  1  0.779912  0.432771  0.765099  1
  O  O23  1  0.220088  0.567229  0.265099  1
  O  O24  1  0.204058  0.624621  0.665309  1
  O  O25  1  0.795942  0.375379  0.165309  1
  O  O26  1  0.295942  0.124621  0.665309  1
  O  O27  1  0.704058  0.875379  0.165309  1
  O  O28  1  0.785506  0.817740  0.565241  1
  O  O29  1  0.214494  0.182260  0.065241  1
  O  O30  1  0.714494  0.317740  0.565241  1
  O  O31  1  0.285506  0.682260  0.065241  1
  O  O32  1  0.282105  0.830767  0.364043  1
  O  O33  1  0.717895  0.169233  0.864043  1
  O  O34  1  0.217895  0.330767  0.364043  1
  O  O35  1  0.782105  0.669233  0.864043  1
