# generated using pymatgen
data_Ba3(GaN2)2
_symmetry_space_group_name_H-M   'P 1'
_cell_length_a   6.28477866
_cell_length_b   10.19874485
_cell_length_c   10.64545892
_cell_angle_alpha   90.00000000
_cell_angle_beta   90.00000000
_cell_angle_gamma   90.00000000
_symmetry_Int_Tables_number   1
_chemical_formula_structural   Ba3(GaN2)2
_chemical_formula_sum   'Ba12 Ga8 N16'
_cell_volume   682.34042607
_cell_formula_units_Z   4
loop_
 _symmetry_equiv_pos_site_id
 _symmetry_equiv_pos_as_xyz
  1  'x, y, z'
loop_
 _atom_site_type_symbol
 _atom_site_label
 _atom_site_symmetry_multiplicity
 _atom_site_fract_x
 _atom_site_fract_y
 _atom_site_fract_z
 _atom_site_occupancy
  Ba  Ba0  1  0.250000  0.592965  0.500000  1
  Ba  Ba1  1  0.250000  0.907035  0.000000  1
  Ba  Ba2  1  0.750000  0.407035  0.500000  1
  Ba  Ba3  1  0.750000  0.092965  0.000000  1
  Ba  Ba4  1  0.391975  0.588275  0.154526  1
  Ba  Ba5  1  0.391975  0.911725  0.345474  1
  Ba  Ba6  1  0.108025  0.588275  0.845474  1
  Ba  Ba7  1  0.108025  0.911725  0.654526  1
  Ba  Ba8  1  0.608025  0.411725  0.845474  1
  Ba  Ba9  1  0.608025  0.088275  0.654526  1
  Ba  Ba10  1  0.891975  0.411725  0.154526  1
  Ba  Ba11  1  0.891975  0.088275  0.345474  1
  Ga  Ga12  1  0.835858  0.750000  0.250000  1
  Ga  Ga13  1  0.664142  0.750000  0.750000  1
  Ga  Ga14  1  0.164142  0.250000  0.750000  1
  Ga  Ga15  1  0.335858  0.250000  0.250000  1
  Ga  Ga16  1  0.250000  0.230502  0.000000  1
  Ga  Ga17  1  0.750000  0.730502  0.500000  1
  Ga  Ga18  1  0.750000  0.769498  0.000000  1
  Ga  Ga19  1  0.250000  0.269498  0.500000  1
  N  N20  1  0.478698  0.171300  0.403004  1
  N  N21  1  0.478698  0.328700  0.096996  1
  N  N22  1  0.021302  0.171300  0.596996  1
  N  N23  1  0.021302  0.328700  0.903004  1
  N  N24  1  0.521302  0.828700  0.596996  1
  N  N25  1  0.521302  0.671300  0.903004  1
  N  N26  1  0.978698  0.828700  0.403004  1
  N  N27  1  0.978698  0.671300  0.096996  1
  N  N28  1  0.137706  0.370208  0.353874  1
  N  N29  1  0.137706  0.129792  0.146126  1
  N  N30  1  0.362294  0.370208  0.646126  1
  N  N31  1  0.362294  0.129792  0.853874  1
  N  N32  1  0.862294  0.870208  0.853874  1
  N  N33  1  0.637706  0.629792  0.353874  1
  N  N34  1  0.637706  0.870208  0.146126  1
  N  N35  1  0.862294  0.629792  0.646126  1
