# generated using pymatgen
data_CaFeO3
_symmetry_space_group_name_H-M   'P 1'
_cell_length_a   5.38551965
_cell_length_b   5.44670094
_cell_length_c   7.64091812
_cell_angle_alpha   90.00000000
_cell_angle_beta   90.00000000
_cell_angle_gamma   90.00000000
_symmetry_Int_Tables_number   1
_chemical_formula_structural   CaFeO3
_chemical_formula_sum   'Ca4 Fe4 O12'
_cell_volume   224.13345748
_cell_formula_units_Z   4
loop_
 _symmetry_equiv_pos_site_id
 _symmetry_equiv_pos_as_xyz
  1  'x, y, z'
loop_
 _atom_site_type_symbol
 _atom_site_label
 _atom_site_symmetry_multiplicity
 _atom_site_fract_x
 _atom_site_fract_y
 _atom_site_fract_z
 _atom_site_occupancy
  Ca  Ca0  1  0.507807  0.541586  0.750000  1
  Ca  Ca1  1  0.492193  0.458414  0.250000  1
  Ca  Ca2  1  0.992193  0.041586  0.750000  1
  Ca  Ca3  1  0.007807  0.958414  0.250000  1
  Fe  Fe4  1  0.500000  0.000000  0.500000  1
  Fe  Fe5  1  0.500000  0.000000  0.000000  1
  Fe  Fe6  1  0.000000  0.500000  0.000000  1
  Fe  Fe7  1  0.000000  0.500000  0.500000  1
  O  O8  1  0.210114  0.211031  0.038438  1
  O  O9  1  0.210114  0.211031  0.461562  1
  O  O10  1  0.710114  0.288969  0.961562  1
  O  O11  1  0.789886  0.788969  0.538438  1
  O  O12  1  0.289886  0.711031  0.461562  1
  O  O13  1  0.789886  0.788969  0.961562  1
  O  O14  1  0.426505  0.982657  0.750000  1
  O  O15  1  0.926505  0.517343  0.250000  1
  O  O16  1  0.073495  0.482657  0.750000  1
  O  O17  1  0.710114  0.288969  0.538438  1
  O  O18  1  0.289886  0.711031  0.038438  1
  O  O19  1  0.573495  0.017343  0.250000  1
