# generated using pymatgen
data_CsNa3Li12(GeO4)4
_symmetry_space_group_name_H-M   'P 1'
_cell_length_a   8.65819104
_cell_length_b   8.65819104
_cell_length_c   8.65819104
_cell_angle_alpha   98.25477724
_cell_angle_beta   98.25477724
_cell_angle_gamma   135.46725239
_symmetry_Int_Tables_number   1
_chemical_formula_structural   CsNa3Li12(GeO4)4
_chemical_formula_sum   'Cs1 Na3 Li12 Ge4 O16'
_cell_volume   421.25044744
_cell_formula_units_Z   1
loop_
 _symmetry_equiv_pos_site_id
 _symmetry_equiv_pos_as_xyz
  1  'x, y, z'
loop_
 _atom_site_type_symbol
 _atom_site_label
 _atom_site_symmetry_multiplicity
 _atom_site_fract_x
 _atom_site_fract_y
 _atom_site_fract_z
 _atom_site_occupancy
  Cs  Cs0  1  0.000000  0.000000  0.000000  1
  Na  Na1  1  0.750000  0.250000  0.500000  1
  Na  Na2  1  0.250000  0.750000  0.500000  1
  Na  Na3  1  0.500000  0.500000  0.000000  1
  Li  Li4  1  0.922512  0.284466  0.206978  1
  Li  Li5  1  0.715534  0.922512  0.638046  1
  Li  Li6  1  0.284466  0.077488  0.361954  1
  Li  Li7  1  0.077488  0.715534  0.793022  1
  Li  Li8  1  0.846454  0.977839  0.335353  1
  Li  Li9  1  0.511101  0.846454  0.868614  1
  Li  Li10  1  0.977839  0.642486  0.131386  1
  Li  Li11  1  0.642486  0.511101  0.664647  1
  Li  Li12  1  0.022161  0.357514  0.868614  1
  Li  Li13  1  0.357514  0.488899  0.335353  1
  Li  Li14  1  0.153546  0.022161  0.664647  1
  Li  Li15  1  0.488899  0.153546  0.131386  1
  Ge  Ge16  1  0.419560  0.781132  0.200693  1
  Ge  Ge17  1  0.218868  0.419560  0.638428  1
  Ge  Ge18  1  0.781132  0.580440  0.361572  1
  Ge  Ge19  1  0.580440  0.218868  0.799307  1
  O  O20  1  0.161474  0.567661  0.729135  1
  O  O21  1  0.320085  0.901838  0.221923  1
  O  O22  1  0.901838  0.679915  0.581753  1
  O  O23  1  0.679915  0.098162  0.778077  1
  O  O24  1  0.081169  0.187005  0.718498  1
  O  O25  1  0.362671  0.081169  0.894164  1
  O  O26  1  0.187005  0.468507  0.105836  1
  O  O27  1  0.468507  0.362671  0.281502  1
  O  O28  1  0.918831  0.812995  0.281502  1
  O  O29  1  0.637329  0.918831  0.105836  1
  O  O30  1  0.812995  0.531493  0.894164  1
  O  O31  1  0.531493  0.637329  0.718498  1
  O  O32  1  0.567661  0.838526  0.406187  1
  O  O33  1  0.838526  0.432339  0.270865  1
  O  O34  1  0.098162  0.320085  0.418247  1
  O  O35  1  0.432339  0.161474  0.593813  1
