# generated using pymatgen
data_ScSi7Ir3
_symmetry_space_group_name_H-M   'P 1'
_cell_length_a   7.98625979
_cell_length_b   7.98625979
_cell_length_c   7.98625979
_cell_angle_alpha   56.52297306
_cell_angle_beta   56.52297306
_cell_angle_gamma   56.52297306
_symmetry_Int_Tables_number   1
_chemical_formula_structural   ScSi7Ir3
_chemical_formula_sum   'Sc2 Si14 Ir6'
_cell_volume   331.23347234
_cell_formula_units_Z   2
loop_
 _symmetry_equiv_pos_site_id
 _symmetry_equiv_pos_as_xyz
  1  'x, y, z'
loop_
 _atom_site_type_symbol
 _atom_site_label
 _atom_site_symmetry_multiplicity
 _atom_site_fract_x
 _atom_site_fract_y
 _atom_site_fract_z
 _atom_site_occupancy
  Sc  Sc0  1  0.000000  0.000000  0.000000  1
  Sc  Sc1  1  0.500000  0.500000  0.500000  1
  Si  Si2  1  0.250000  0.250000  0.250000  1
  Si  Si3  1  0.750000  0.750000  0.750000  1
  Si  Si4  1  0.149562  0.327644  0.934906  1
  Si  Si5  1  0.327644  0.934906  0.149562  1
  Si  Si6  1  0.934906  0.149562  0.327644  1
  Si  Si7  1  0.350438  0.565094  0.172356  1
  Si  Si8  1  0.565094  0.172356  0.350438  1
  Si  Si9  1  0.172356  0.350438  0.565094  1
  Si  Si10  1  0.827644  0.649562  0.434906  1
  Si  Si11  1  0.434906  0.827644  0.649562  1
  Si  Si12  1  0.649562  0.434906  0.827644  1
  Si  Si13  1  0.065094  0.850438  0.672356  1
  Si  Si14  1  0.672356  0.065094  0.850438  1
  Si  Si15  1  0.850438  0.672356  0.065094  1
  Ir  Ir16  1  0.927010  0.250000  0.572990  1
  Ir  Ir17  1  0.750000  0.427010  0.072990  1
  Ir  Ir18  1  0.427010  0.072990  0.750000  1
  Ir  Ir19  1  0.072990  0.750000  0.427010  1
  Ir  Ir20  1  0.572990  0.927010  0.250000  1
  Ir  Ir21  1  0.250000  0.572990  0.927010  1
