# generated using pymatgen
data_Y2O3
_symmetry_space_group_name_H-M   'P 1'
_cell_length_a   3.68763291
_cell_length_b   3.68763291
_cell_length_c   5.91912463
_cell_angle_alpha   90.00000000
_cell_angle_beta   90.00000000
_cell_angle_gamma   120.00000000
_symmetry_Int_Tables_number   1
_chemical_formula_structural   Y2O3
_chemical_formula_sum   'Y2 O3'
_cell_volume   69.70813774
_cell_formula_units_Z   1
loop_
 _symmetry_equiv_pos_site_id
 _symmetry_equiv_pos_as_xyz
  1  'x, y, z'
loop_
 _atom_site_type_symbol
 _atom_site_label
 _atom_site_symmetry_multiplicity
 _atom_site_fract_x
 _atom_site_fract_y
 _atom_site_fract_z
 _atom_site_occupancy
  Y  Y0  1  0.666667  0.333333  0.750358  1
  Y  Y1  1  0.333333  0.666667  0.249642  1
  O  O2  1  0.666667  0.333333  0.353675  1
  O  O3  1  0.333333  0.666667  0.646325  1
  O  O4  1  0.000000  0.000000  0.000000  1
