# generated using pymatgen
data_K3La(PO4)2
_symmetry_space_group_name_H-M   'P 1'
_cell_length_a   7.61213698
_cell_length_b   5.74103462
_cell_length_c   9.73823155
_cell_angle_alpha   90.00000000
_cell_angle_beta   91.23663950
_cell_angle_gamma   90.00000000
_symmetry_Int_Tables_number   1
_chemical_formula_structural   K3La(PO4)2
_chemical_formula_sum   'K6 La2 P4 O16'
_cell_volume   425.47661261
_cell_formula_units_Z   2
loop_
 _symmetry_equiv_pos_site_id
 _symmetry_equiv_pos_as_xyz
  1  'x, y, z'
loop_
 _atom_site_type_symbol
 _atom_site_label
 _atom_site_symmetry_multiplicity
 _atom_site_fract_x
 _atom_site_fract_y
 _atom_site_fract_z
 _atom_site_occupancy
  K  K0  1  0.795810  0.750000  0.915671  1
  K  K1  1  0.204190  0.250000  0.084329  1
  K  K2  1  0.358284  0.750000  0.594524  1
  K  K3  1  0.641716  0.250000  0.405476  1
  K  K4  1  0.507738  0.750000  0.190261  1
  K  K5  1  0.492262  0.250000  0.809739  1
  La  La6  1  0.006983  0.750000  0.291851  1
  La  La7  1  0.993017  0.250000  0.708149  1
  P  P8  1  0.800648  0.750000  0.573132  1
  P  P9  1  0.199352  0.250000  0.426868  1
  P  P10  1  0.764341  0.250000  0.085159  1
  P  P11  1  0.235659  0.750000  0.914841  1
  O  O12  1  0.003750  0.750000  0.556455  1
  O  O13  1  0.996250  0.250000  0.443545  1
  O  O14  1  0.716029  0.750000  0.425469  1
  O  O15  1  0.283971  0.250000  0.574531  1
  O  O16  1  0.743566  0.527978  0.652966  1
  O  O17  1  0.256434  0.027978  0.347034  1
  O  O18  1  0.256434  0.472022  0.347034  1
  O  O19  1  0.743566  0.972022  0.652966  1
  O  O20  1  0.843662  0.471745  0.157118  1
  O  O21  1  0.156338  0.971745  0.842882  1
  O  O22  1  0.156338  0.528255  0.842882  1
  O  O23  1  0.843662  0.028255  0.157118  1
  O  O24  1  0.817973  0.250000  0.931237  1
  O  O25  1  0.182027  0.750000  0.068763  1
  O  O26  1  0.563387  0.250000  0.099485  1
  O  O27  1  0.436613  0.750000  0.900515  1
