# generated using pymatgen
data_SrCu2SnS4
_symmetry_space_group_name_H-M   'P 1'
_cell_length_a   6.34706515
_cell_length_b   6.34706515
_cell_length_c   15.58948175
_cell_angle_alpha   90.00000000
_cell_angle_beta   90.00000000
_cell_angle_gamma   120.00000000
_symmetry_Int_Tables_number   1
_chemical_formula_structural   SrCu2SnS4
_chemical_formula_sum   'Sr3 Cu6 Sn3 S12'
_cell_volume   543.88642824
_cell_formula_units_Z   3
loop_
 _symmetry_equiv_pos_site_id
 _symmetry_equiv_pos_as_xyz
  1  'x, y, z'
loop_
 _atom_site_type_symbol
 _atom_site_label
 _atom_site_symmetry_multiplicity
 _atom_site_fract_x
 _atom_site_fract_y
 _atom_site_fract_z
 _atom_site_occupancy
  Sr  Sr0  1  0.000000  0.562989  0.833333  1
  Sr  Sr1  1  0.562989  0.000000  0.166667  1
  Sr  Sr2  1  0.437011  0.437011  0.500000  1
  Cu  Cu3  1  0.927357  0.562928  0.078897  1
  Cu  Cu4  1  0.364429  0.437072  0.254437  1
  Cu  Cu5  1  0.072643  0.635571  0.587770  1
  Cu  Cu6  1  0.635571  0.072643  0.412230  1
  Cu  Cu7  1  0.437072  0.364429  0.745563  1
  Cu  Cu8  1  0.562928  0.927357  0.921103  1
  Sn  Sn9  1  0.704981  0.000000  0.666667  1
  Sn  Sn10  1  0.000000  0.704981  0.333333  1
  Sn  Sn11  1  0.295019  0.295019  0.000000  1
  S  S12  1  0.646892  0.764133  0.338003  1
  S  S13  1  0.235867  0.882759  0.004670  1
  S  S14  1  0.117241  0.353108  0.671337  1
  S  S15  1  0.882759  0.235867  0.995330  1
  S  S16  1  0.353108  0.117241  0.328663  1
  S  S17  1  0.764133  0.646892  0.661997  1
  S  S18  1  0.955122  0.440778  0.454019  1
  S  S19  1  0.559222  0.514344  0.120686  1
  S  S20  1  0.440778  0.955122  0.545981  1
  S  S21  1  0.514344  0.559222  0.879314  1
  S  S22  1  0.044878  0.485656  0.212648  1
  S  S23  1  0.485656  0.044878  0.787352  1
