# generated using pymatgen
data_Li2Mg2(SO4)3
_symmetry_space_group_name_H-M   'P 1'
_cell_length_a   8.63804870
_cell_length_b   8.80974753
_cell_length_c   12.34857652
_cell_angle_alpha   90.00000000
_cell_angle_beta   90.00000000
_cell_angle_gamma   90.00000000
_symmetry_Int_Tables_number   1
_chemical_formula_structural   Li2Mg2(SO4)3
_chemical_formula_sum   'Li8 Mg8 S12 O48'
_cell_volume   939.71467281
_cell_formula_units_Z   4
loop_
 _symmetry_equiv_pos_site_id
 _symmetry_equiv_pos_as_xyz
  1  'x, y, z'
loop_
 _atom_site_type_symbol
 _atom_site_label
 _atom_site_symmetry_multiplicity
 _atom_site_fract_x
 _atom_site_fract_y
 _atom_site_fract_z
 _atom_site_occupancy
  Li  Li0  1  0.285611  0.776796  0.681288  1
  Li  Li1  1  0.285611  0.723204  0.318712  1
  Li  Li2  1  0.214389  0.276796  0.818712  1
  Li  Li3  1  0.214389  0.223204  0.181288  1
  Li  Li4  1  0.714389  0.223204  0.318712  1
  Li  Li5  1  0.714389  0.276796  0.681288  1
  Li  Li6  1  0.785611  0.723204  0.181288  1
  Li  Li7  1  0.785611  0.776796  0.818712  1
  Mg  Mg8  1  0.245364  0.041690  0.390968  1
  Mg  Mg9  1  0.245364  0.458310  0.609032  1
  Mg  Mg10  1  0.254636  0.958310  0.890968  1
  Mg  Mg11  1  0.254636  0.541690  0.109032  1
  Mg  Mg12  1  0.754636  0.541690  0.390968  1
  Mg  Mg13  1  0.754636  0.958310  0.609032  1
  Mg  Mg14  1  0.745364  0.041690  0.109032  1
  Mg  Mg15  1  0.745364  0.458310  0.890968  1
  S  S16  1  0.952506  0.250000  0.500000  1
  S  S17  1  0.547494  0.750000  0.000000  1
  S  S18  1  0.606138  0.604142  0.648385  1
  S  S19  1  0.452506  0.250000  0.000000  1
  S  S20  1  0.047494  0.750000  0.500000  1
  S  S21  1  0.606138  0.895858  0.351615  1
  S  S22  1  0.893862  0.104142  0.851615  1
  S  S23  1  0.893862  0.395858  0.148385  1
  S  S24  1  0.393862  0.395858  0.351615  1
  S  S25  1  0.393862  0.104142  0.648385  1
  S  S26  1  0.106138  0.895858  0.148385  1
  S  S27  1  0.106138  0.604142  0.851615  1
  O  O28  1  0.332392  0.256367  0.680500  1
  O  O29  1  0.169904  0.486679  0.776387  1
  O  O30  1  0.169904  0.013321  0.223613  1
  O  O31  1  0.330096  0.986679  0.723613  1
  O  O32  1  0.330096  0.513321  0.276387  1
  O  O33  1  0.830096  0.513321  0.223613  1
  O  O34  1  0.830096  0.986679  0.776387  1
  O  O35  1  0.669904  0.013321  0.276387  1
  O  O36  1  0.669904  0.486679  0.723613  1
  O  O37  1  0.151053  0.566742  0.962727  1
  O  O38  1  0.151053  0.933258  0.037273  1
  O  O39  1  0.348947  0.066742  0.537273  1
  O  O40  1  0.348947  0.433258  0.462727  1
  O  O41  1  0.848947  0.433258  0.037273  1
  O  O42  1  0.848947  0.066742  0.962727  1
  O  O43  1  0.651053  0.933258  0.462727  1
  O  O44  1  0.651053  0.566742  0.537273  1
  O  O45  1  0.167608  0.756367  0.819500  1
  O  O46  1  0.832392  0.243633  0.180500  1
  O  O47  1  0.332392  0.243633  0.319500  1
  O  O48  1  0.151053  0.668196  0.577716  1
  O  O49  1  0.151053  0.831804  0.422284  1
  O  O50  1  0.348947  0.168196  0.922284  1
  O  O51  1  0.348947  0.331804  0.077716  1
  O  O52  1  0.848947  0.331804  0.422284  1
  O  O53  1  0.848947  0.168196  0.577716  1
  O  O54  1  0.651053  0.831804  0.077716  1
  O  O55  1  0.651053  0.668196  0.922284  1
  O  O56  1  0.954190  0.857911  0.562454  1
  O  O57  1  0.954190  0.642089  0.437546  1
  O  O58  1  0.545810  0.357911  0.937546  1
  O  O59  1  0.545810  0.142089  0.062454  1
  O  O60  1  0.045810  0.142089  0.437546  1
  O  O61  1  0.045810  0.357911  0.562454  1
  O  O62  1  0.454190  0.642089  0.062454  1
  O  O63  1  0.454190  0.857911  0.937546  1
  O  O64  1  0.434233  0.607035  0.658460  1
  O  O65  1  0.434233  0.892965  0.341540  1
  O  O66  1  0.065767  0.107035  0.841540  1
  O  O67  1  0.065767  0.392965  0.158460  1
  O  O68  1  0.565767  0.392965  0.341540  1
  O  O69  1  0.565767  0.107035  0.658460  1
  O  O70  1  0.934233  0.892965  0.158460  1
  O  O71  1  0.934233  0.607035  0.841540  1
  O  O72  1  0.667608  0.756367  0.680500  1
  O  O73  1  0.667608  0.743633  0.319500  1
  O  O74  1  0.832392  0.256367  0.819500  1
  O  O75  1  0.167608  0.743633  0.180500  1
