# generated using pymatgen
data_Mg3N2
_symmetry_space_group_name_H-M   'P 1'
_cell_length_a   8.68145850
_cell_length_b   8.68145850
_cell_length_c   8.68145850
_cell_angle_alpha   109.47122063
_cell_angle_beta   109.47122063
_cell_angle_gamma   109.47122063
_symmetry_Int_Tables_number   1
_chemical_formula_structural   Mg3N2
_chemical_formula_sum   'Mg24 N16'
_cell_volume   503.68172115
_cell_formula_units_Z   8
loop_
 _symmetry_equiv_pos_site_id
 _symmetry_equiv_pos_as_xyz
  1  'x, y, z'
loop_
 _atom_site_type_symbol
 _atom_site_label
 _atom_site_symmetry_multiplicity
 _atom_site_fract_x
 _atom_site_fract_y
 _atom_site_fract_z
 _atom_site_occupancy
  Mg  Mg0  1  0.041819  0.270317  0.006995  1
  Mg  Mg1  1  0.271502  0.736679  0.229683  1
  Mg  Mg2  1  0.763321  0.034823  0.493005  1
  Mg  Mg3  1  0.458181  0.465177  0.228498  1
  Mg  Mg4  1  0.228498  0.458181  0.465177  1
  Mg  Mg5  1  0.270317  0.006995  0.041819  1
  Mg  Mg6  1  0.229683  0.271502  0.736679  1
  Mg  Mg7  1  0.034823  0.493005  0.763321  1
  Mg  Mg8  1  0.493005  0.763321  0.034823  1
  Mg  Mg9  1  0.736679  0.229683  0.271502  1
  Mg  Mg10  1  0.006995  0.041819  0.270317  1
  Mg  Mg11  1  0.465177  0.228498  0.458181  1
  Mg  Mg12  1  0.965177  0.506995  0.236679  1
  Mg  Mg13  1  0.770317  0.728498  0.263321  1
  Mg  Mg14  1  0.729683  0.993005  0.958181  1
  Mg  Mg15  1  0.771502  0.541819  0.534823  1
  Mg  Mg16  1  0.541819  0.534823  0.771502  1
  Mg  Mg17  1  0.236679  0.965177  0.506995  1
  Mg  Mg18  1  0.728498  0.263321  0.770317  1
  Mg  Mg19  1  0.958181  0.729683  0.993005  1
  Mg  Mg20  1  0.506995  0.236679  0.965177  1
  Mg  Mg21  1  0.263321  0.770317  0.728498  1
  Mg  Mg22  1  0.993005  0.958181  0.729683  1
  Mg  Mg23  1  0.534823  0.771502  0.541819  1
  N  N24  1  0.000000  0.500000  0.000000  1
  N  N25  1  0.500000  0.000000  0.000000  1
  N  N26  1  0.000000  0.000000  0.500000  1
  N  N27  1  0.500000  0.500000  0.500000  1
  N  N28  1  0.250000  0.719004  0.469004  1
  N  N29  1  0.030996  0.750000  0.780996  1
  N  N30  1  0.780996  0.030996  0.750000  1
  N  N31  1  0.469004  0.250000  0.719004  1
  N  N32  1  0.719004  0.469004  0.250000  1
  N  N33  1  0.750000  0.780996  0.030996  1
  N  N34  1  0.750000  0.280996  0.530996  1
  N  N35  1  0.969004  0.250000  0.219004  1
  N  N36  1  0.219004  0.969004  0.250000  1
  N  N37  1  0.530996  0.750000  0.280996  1
  N  N38  1  0.280996  0.530996  0.750000  1
  N  N39  1  0.250000  0.219004  0.969004  1
