# generated using pymatgen
data_Na7Al4P9O32
_symmetry_space_group_name_H-M   'P 1'
_cell_length_a   14.22363403
_cell_length_b   14.22363403
_cell_length_c   6.23738288
_cell_angle_alpha   90.00000000
_cell_angle_beta   90.00000000
_cell_angle_gamma   90.00000000
_symmetry_Int_Tables_number   1
_chemical_formula_structural   Na7Al4P9O32
_chemical_formula_sum   'Na14 Al8 P18 O64'
_cell_volume   1261.89593955
_cell_formula_units_Z   2
loop_
 _symmetry_equiv_pos_site_id
 _symmetry_equiv_pos_as_xyz
  1  'x, y, z'
loop_
 _atom_site_type_symbol
 _atom_site_label
 _atom_site_symmetry_multiplicity
 _atom_site_fract_x
 _atom_site_fract_y
 _atom_site_fract_z
 _atom_site_occupancy
  Na  Na0  1  0.259025  0.076969  0.592268  1
  Na  Na1  1  0.759025  0.423031  0.907732  1
  Na  Na2  1  0.740975  0.923031  0.592268  1
  Na  Na3  1  0.240975  0.576969  0.907732  1
  Na  Na4  1  0.923031  0.259025  0.407732  1
  Na  Na5  1  0.576969  0.759025  0.092268  1
  Na  Na6  1  0.076969  0.740975  0.407732  1
  Na  Na7  1  0.423031  0.240975  0.092268  1
  Na  Na8  1  0.500000  0.000000  0.815384  1
  Na  Na9  1  0.000000  0.500000  0.684616  1
  Na  Na10  1  0.000000  0.500000  0.184616  1
  Na  Na11  1  0.500000  0.000000  0.315384  1
  Na  Na12  1  0.000000  0.000000  0.500000  1
  Na  Na13  1  0.500000  0.500000  0.000000  1
  Al  Al14  1  0.122122  0.179141  0.137133  1
  Al  Al15  1  0.622122  0.320859  0.362867  1
  Al  Al16  1  0.877878  0.820859  0.137133  1
  Al  Al17  1  0.377878  0.679141  0.362867  1
  Al  Al18  1  0.820859  0.122122  0.862867  1
  Al  Al19  1  0.679141  0.622122  0.637133  1
  Al  Al20  1  0.179141  0.877878  0.862867  1
  Al  Al21  1  0.320859  0.377878  0.637133  1
  P  P22  1  0.242042  0.872278  0.350081  1
  P  P23  1  0.742042  0.627722  0.149919  1
  P  P24  1  0.757958  0.127722  0.350081  1
  P  P25  1  0.257958  0.372278  0.149919  1
  P  P26  1  0.127722  0.242042  0.649919  1
  P  P27  1  0.372278  0.742042  0.850081  1
  P  P28  1  0.872278  0.757958  0.649919  1
  P  P29  1  0.627722  0.257958  0.850081  1
  P  P30  1  0.299637  0.038209  0.100539  1
  P  P31  1  0.799637  0.461791  0.399461  1
  P  P32  1  0.700363  0.961791  0.100539  1
  P  P33  1  0.200363  0.538209  0.399461  1
  P  P34  1  0.961791  0.299637  0.899461  1
  P  P35  1  0.538209  0.799637  0.600539  1
  P  P36  1  0.038209  0.700363  0.899461  1
  P  P37  1  0.461791  0.200363  0.600539  1
  P  P38  1  0.000000  0.000000  0.000000  1
  P  P39  1  0.500000  0.500000  0.500000  1
  O  O40  1  0.398983  0.072934  0.060897  1
  O  O41  1  0.898983  0.427066  0.439103  1
  O  O42  1  0.601017  0.927066  0.060897  1
  O  O43  1  0.101017  0.572934  0.439103  1
  O  O44  1  0.927066  0.398983  0.939103  1
  O  O45  1  0.572934  0.898983  0.560897  1
  O  O46  1  0.072934  0.601017  0.939103  1
  O  O47  1  0.427066  0.101017  0.560897  1
  O  O48  1  0.313645  0.958063  0.288130  1
  O  O49  1  0.813645  0.541937  0.211870  1
  O  O50  1  0.686355  0.041937  0.288130  1
  O  O51  1  0.186355  0.458063  0.211870  1
  O  O52  1  0.041937  0.313645  0.711870  1
  O  O53  1  0.458063  0.813645  0.788130  1
  O  O54  1  0.958063  0.686355  0.711870  1
  O  O55  1  0.541937  0.186355  0.788130  1
  O  O56  1  0.235991  0.112495  0.204022  1
  O  O57  1  0.735991  0.387505  0.295978  1
  O  O58  1  0.764009  0.887505  0.204022  1
  O  O59  1  0.264009  0.612495  0.295978  1
  O  O60  1  0.887505  0.235991  0.795978  1
  O  O61  1  0.612495  0.735991  0.704022  1
  O  O62  1  0.112495  0.764009  0.795978  1
  O  O63  1  0.387505  0.264009  0.704022  1
  O  O64  1  0.255967  0.989097  0.906588  1
  O  O65  1  0.755967  0.510903  0.593412  1
  O  O66  1  0.744033  0.010903  0.906588  1
  O  O67  1  0.244033  0.489097  0.593412  1
  O  O68  1  0.010903  0.255967  0.093412  1
  O  O69  1  0.489097  0.755967  0.406588  1
  O  O70  1  0.989097  0.744033  0.093412  1
  O  O71  1  0.510903  0.244033  0.406588  1
  O  O72  1  0.304881  0.788524  0.379291  1
  O  O73  1  0.804881  0.711476  0.120709  1
  O  O74  1  0.695119  0.211476  0.379291  1
  O  O75  1  0.195119  0.288524  0.120709  1
  O  O76  1  0.211476  0.304881  0.620709  1
  O  O77  1  0.288524  0.804881  0.879291  1
  O  O78  1  0.788524  0.695119  0.620709  1
  O  O79  1  0.711476  0.195119  0.879291  1
  O  O80  1  0.192818  0.903532  0.557150  1
  O  O81  1  0.692818  0.596468  0.942850  1
  O  O82  1  0.807182  0.096468  0.557150  1
  O  O83  1  0.307182  0.403532  0.942850  1
  O  O84  1  0.096468  0.192818  0.442850  1
  O  O85  1  0.403532  0.692818  0.057150  1
  O  O86  1  0.903532  0.807182  0.442850  1
  O  O87  1  0.596468  0.307182  0.057150  1
  O  O88  1  0.168714  0.862700  0.171636  1
  O  O89  1  0.668714  0.637300  0.328364  1
  O  O90  1  0.831286  0.137300  0.171636  1
  O  O91  1  0.331286  0.362700  0.328364  1
  O  O92  1  0.137300  0.168714  0.828364  1
  O  O93  1  0.362700  0.668714  0.671636  1
  O  O94  1  0.862700  0.831286  0.828364  1
  O  O95  1  0.637300  0.331286  0.671636  1
  O  O96  1  0.052253  0.068352  0.152503  1
  O  O97  1  0.552253  0.431648  0.347497  1
  O  O98  1  0.947747  0.931648  0.152503  1
  O  O99  1  0.447747  0.568352  0.347497  1
  O  O100  1  0.931648  0.052253  0.847497  1
  O  O101  1  0.568352  0.552253  0.652503  1
  O  O102  1  0.068352  0.947747  0.847497  1
  O  O103  1  0.431648  0.447747  0.652503  1
