# generated using pymatgen
data_Y(MnAl2)4
_symmetry_space_group_name_H-M   'P 1'
_cell_length_a   6.68921450
_cell_length_b   6.68921450
_cell_length_c   6.68921450
_cell_angle_alpha   97.83098381
_cell_angle_beta   97.83098381
_cell_angle_gamma   136.67699739
_symmetry_Int_Tables_number   1
_chemical_formula_structural   Y(MnAl2)4
_chemical_formula_sum   'Y1 Mn4 Al8'
_cell_volume   190.85920841
_cell_formula_units_Z   1
loop_
 _symmetry_equiv_pos_site_id
 _symmetry_equiv_pos_as_xyz
  1  'x, y, z'
loop_
 _atom_site_type_symbol
 _atom_site_label
 _atom_site_symmetry_multiplicity
 _atom_site_fract_x
 _atom_site_fract_y
 _atom_site_fract_z
 _atom_site_occupancy
  Y  Y0  1  0.000000  0.000000  0.000000  1
  Mn  Mn1  1  1.000000  0.500000  1.000000  1
  Mn  Mn2  1  1.000000  1.000000  0.500000  1
  Mn  Mn3  1  0.500000  0.500000  0.500000  1
  Mn  Mn4  1  0.500000  1.000000  1.000000  1
  Al  Al5  1  1.000000  0.341653  0.341653  1
  Al  Al6  1  0.658347  1.000000  0.658347  1
  Al  Al7  1  0.341653  1.000000  0.341653  1
  Al  Al8  1  1.000000  0.658347  0.658347  1
  Al  Al9  1  0.500000  0.281479  0.781479  1
  Al  Al10  1  0.718521  0.500000  0.218521  1
  Al  Al11  1  0.281479  0.500000  0.781479  1
  Al  Al12  1  0.500000  0.718521  0.218521  1
