# generated using pymatgen
data_KCoO2
_symmetry_space_group_name_H-M   'P 1'
_cell_length_a   5.52814901
_cell_length_b   5.52814901
_cell_length_c   5.52814901
_cell_angle_alpha   116.47546954
_cell_angle_beta   116.47546954
_cell_angle_gamma   96.22140582
_symmetry_Int_Tables_number   1
_chemical_formula_structural   KCoO2
_chemical_formula_sum   'K2 Co2 O4'
_cell_volume   125.02631632
_cell_formula_units_Z   2
loop_
 _symmetry_equiv_pos_site_id
 _symmetry_equiv_pos_as_xyz
  1  'x, y, z'
loop_
 _atom_site_type_symbol
 _atom_site_label
 _atom_site_symmetry_multiplicity
 _atom_site_fract_x
 _atom_site_fract_y
 _atom_site_fract_z
 _atom_site_occupancy
  K  K0  1  0.500000  0.500000  0.000000  1
  K  K1  1  0.250000  0.750000  0.500000  1
  Co  Co2  1  0.000000  0.000000  0.000000  1
  Co  Co3  1  0.750000  0.250000  0.500000  1
  O  O4  1  0.744598  0.125000  0.119598  1
  O  O5  1  0.875000  0.994598  0.619598  1
  O  O6  1  0.375000  0.255402  0.380402  1
  O  O7  1  0.005402  0.625000  0.880402  1
