# generated using pymatgen
data_Li6B4O9
_symmetry_space_group_name_H-M   'P 1'
_cell_length_a   3.39381465
_cell_length_b   23.65045789
_cell_length_c   9.73317084
_cell_angle_alpha   90.00000000
_cell_angle_beta   107.90055681
_cell_angle_gamma   90.00000000
_symmetry_Int_Tables_number   1
_chemical_formula_structural   Li6B4O9
_chemical_formula_sum   'Li24 B16 O36'
_cell_volume   743.41708104
_cell_formula_units_Z   4
loop_
 _symmetry_equiv_pos_site_id
 _symmetry_equiv_pos_as_xyz
  1  'x, y, z'
loop_
 _atom_site_type_symbol
 _atom_site_label
 _atom_site_symmetry_multiplicity
 _atom_site_fract_x
 _atom_site_fract_y
 _atom_site_fract_z
 _atom_site_occupancy
  Li  Li0  1  0.629923  0.118638  0.821160  1
  Li  Li1  1  0.629923  0.381362  0.321160  1
  Li  Li2  1  0.370077  0.881362  0.178840  1
  Li  Li3  1  0.370077  0.618638  0.678840  1
  Li  Li4  1  0.139743  0.942509  0.458680  1
  Li  Li5  1  0.139743  0.557491  0.958680  1
  Li  Li6  1  0.860257  0.057491  0.541320  1
  Li  Li7  1  0.860257  0.442509  0.041320  1
  Li  Li8  1  0.751334  0.958183  0.010382  1
  Li  Li9  1  0.751334  0.541817  0.510382  1
  Li  Li10  1  0.248666  0.041817  0.989618  1
  Li  Li11  1  0.248666  0.458183  0.489618  1
  Li  Li12  1  0.342280  0.143365  0.521209  1
  Li  Li13  1  0.342280  0.356635  0.021209  1
  Li  Li14  1  0.657720  0.856635  0.478791  1
  Li  Li15  1  0.657720  0.643365  0.978791  1
  Li  Li16  1  0.682960  0.204248  0.350933  1
  Li  Li17  1  0.682960  0.295752  0.850933  1
  Li  Li18  1  0.317040  0.795752  0.649067  1
  Li  Li19  1  0.317040  0.704248  0.149067  1
  Li  Li20  1  0.119322  0.206264  0.802722  1
  Li  Li21  1  0.119322  0.293736  0.302722  1
  Li  Li22  1  0.880678  0.793736  0.197278  1
  Li  Li23  1  0.880678  0.706264  0.697278  1
  B  B24  1  0.504743  0.977189  0.262283  1
  B  B25  1  0.504743  0.522811  0.762283  1
  B  B26  1  0.495257  0.022811  0.737717  1
  B  B27  1  0.495257  0.477189  0.237717  1
  B  B28  1  0.621873  0.086454  0.296690  1
  B  B29  1  0.621873  0.413546  0.796690  1
  B  B30  1  0.378127  0.913546  0.703310  1
  B  B31  1  0.378127  0.586454  0.203310  1
  B  B32  1  0.370356  0.148037  0.064753  1
  B  B33  1  0.370356  0.351963  0.564753  1
  B  B34  1  0.629644  0.851963  0.935247  1
  B  B35  1  0.629644  0.648037  0.435247  1
  B  B36  1  0.409992  0.256746  0.082944  1
  B  B37  1  0.409992  0.243254  0.582944  1
  B  B38  1  0.590008  0.743254  0.917056  1
  B  B39  1  0.590008  0.756746  0.417056  1
  O  O40  1  0.341279  0.973772  0.117309  1
  O  O41  1  0.341279  0.526228  0.617309  1
  O  O42  1  0.658721  0.026228  0.882691  1
  O  O43  1  0.658721  0.473772  0.382691  1
  O  O44  1  0.545161  0.931751  0.354250  1
  O  O45  1  0.545161  0.568249  0.854250  1
  O  O46  1  0.454839  0.068249  0.645750  1
  O  O47  1  0.454839  0.431751  0.145750  1
  O  O48  1  0.670625  0.028919  0.336201  1
  O  O49  1  0.670625  0.471081  0.836201  1
  O  O50  1  0.329375  0.971081  0.663799  1
  O  O51  1  0.329375  0.528919  0.163799  1
  O  O52  1  0.742686  0.124149  0.405222  1
  O  O53  1  0.742686  0.375851  0.905222  1
  O  O54  1  0.257314  0.875851  0.594778  1
  O  O55  1  0.257314  0.624149  0.094778  1
  O  O56  1  0.447620  0.098421  0.150402  1
  O  O57  1  0.447620  0.401579  0.650402  1
  O  O58  1  0.552380  0.901579  0.849598  1
  O  O59  1  0.552380  0.598421  0.349598  1
  O  O60  1  0.468467  0.199392  0.137716  1
  O  O61  1  0.468467  0.300608  0.637716  1
  O  O62  1  0.531533  0.800608  0.862284  1
  O  O63  1  0.531533  0.699392  0.362284  1
  O  O64  1  0.212813  0.140061  0.921956  1
  O  O65  1  0.212813  0.359939  0.421956  1
  O  O66  1  0.787187  0.859939  0.078044  1
  O  O67  1  0.787187  0.640061  0.578044  1
  O  O68  1  0.519360  0.297563  0.187848  1
  O  O69  1  0.519360  0.202437  0.687848  1
  O  O70  1  0.480640  0.702437  0.812152  1
  O  O71  1  0.480640  0.797563  0.312152  1
  O  O72  1  0.259038  0.268323  0.939467  1
  O  O73  1  0.259038  0.231677  0.439467  1
  O  O74  1  0.740962  0.731677  0.060533  1
  O  O75  1  0.740962  0.768323  0.560533  1
