# generated using pymatgen
data_HfGa2
_symmetry_space_group_name_H-M   'P 1'
_cell_length_a   13.12859146
_cell_length_b   13.12859146
_cell_length_c   13.12859146
_cell_angle_alpha   162.17715784
_cell_angle_beta   162.17715784
_cell_angle_gamma   25.30906953
_symmetry_Int_Tables_number   1
_chemical_formula_structural   HfGa2
_chemical_formula_sum   'Hf4 Ga8'
_cell_volume   211.92316901
_cell_formula_units_Z   4
loop_
 _symmetry_equiv_pos_site_id
 _symmetry_equiv_pos_as_xyz
  1  'x, y, z'
loop_
 _atom_site_type_symbol
 _atom_site_label
 _atom_site_symmetry_multiplicity
 _atom_site_fract_x
 _atom_site_fract_y
 _atom_site_fract_z
 _atom_site_occupancy
  Hf  Hf0  1  0.325585  0.825585  0.500000  1
  Hf  Hf1  1  0.575585  0.575585  0.000000  1
  Hf  Hf2  1  0.424415  0.424415  0.000000  1
  Hf  Hf3  1  0.174415  0.674415  0.500000  1
  Ga  Ga4  1  0.500652  0.000652  0.500000  1
  Ga  Ga5  1  0.750652  0.750652  0.000000  1
  Ga  Ga6  1  0.249348  0.249348  0.000000  1
  Ga  Ga7  1  0.999348  0.499348  0.500000  1
  Ga  Ga8  1  0.661631  0.161631  0.500000  1
  Ga  Ga9  1  0.911631  0.911631  0.000000  1
  Ga  Ga10  1  0.088369  0.088369  0.000000  1
  Ga  Ga11  1  0.838369  0.338369  0.500000  1
