# generated using pymatgen
data_PaAs2
_symmetry_space_group_name_H-M   'P 1'
_cell_length_a   4.01844958
_cell_length_b   4.01844958
_cell_length_c   8.17204162
_cell_angle_alpha   90.00000000
_cell_angle_beta   90.00000000
_cell_angle_gamma   90.00000000
_symmetry_Int_Tables_number   1
_chemical_formula_structural   PaAs2
_chemical_formula_sum   'Pa2 As4'
_cell_volume   131.96161346
_cell_formula_units_Z   2
loop_
 _symmetry_equiv_pos_site_id
 _symmetry_equiv_pos_as_xyz
  1  'x, y, z'
loop_
 _atom_site_type_symbol
 _atom_site_label
 _atom_site_symmetry_multiplicity
 _atom_site_fract_x
 _atom_site_fract_y
 _atom_site_fract_z
 _atom_site_occupancy
  Pa  Pa0  1  0.000000  0.500000  0.280694  1
  Pa  Pa1  1  0.500000  0.000000  0.719306  1
  As  As2  1  0.000000  0.500000  0.641069  1
  As  As3  1  0.500000  0.000000  0.358931  1
  As  As4  1  0.500000  0.500000  0.000000  1
  As  As5  1  0.000000  0.000000  0.000000  1
