# generated using pymatgen
data_NdGa
_symmetry_space_group_name_H-M   'P 1'
_cell_length_a   6.09513960
_cell_length_b   6.09513960
_cell_length_c   4.18605890
_cell_angle_alpha   90.00000000
_cell_angle_beta   90.00000000
_cell_angle_gamma   136.86512960
_symmetry_Int_Tables_number   1
_chemical_formula_structural   NdGa
_chemical_formula_sum   'Nd2 Ga2'
_cell_volume   106.32849784
_cell_formula_units_Z   2
loop_
 _symmetry_equiv_pos_site_id
 _symmetry_equiv_pos_as_xyz
  1  'x, y, z'
loop_
 _atom_site_type_symbol
 _atom_site_label
 _atom_site_symmetry_multiplicity
 _atom_site_fract_x
 _atom_site_fract_y
 _atom_site_fract_z
 _atom_site_occupancy
  Nd  Nd0  1  0.859439  0.140561  0.750000  1
  Nd  Nd1  1  0.140561  0.859439  0.250000  1
  Ga  Ga2  1  0.570915  0.429085  0.750000  1
  Ga  Ga3  1  0.429085  0.570915  0.250000  1
