# generated using pymatgen
data_CaCo(SiO3)2
_symmetry_space_group_name_H-M   'P 1'
_cell_length_a   6.71329612
_cell_length_b   6.71329612
_cell_length_c   5.32036308
_cell_angle_alpha   78.39627254
_cell_angle_beta   101.60372746
_cell_angle_gamma   95.37316371
_symmetry_Int_Tables_number   1
_chemical_formula_structural   CaCo(SiO3)2
_chemical_formula_sum   'Ca2 Co2 Si4 O12'
_cell_volume   229.72526494
_cell_formula_units_Z   2
loop_
 _symmetry_equiv_pos_site_id
 _symmetry_equiv_pos_as_xyz
  1  'x, y, z'
loop_
 _atom_site_type_symbol
 _atom_site_label
 _atom_site_symmetry_multiplicity
 _atom_site_fract_x
 _atom_site_fract_y
 _atom_site_fract_z
 _atom_site_occupancy
  Ca  Ca0  1  0.703445  0.703445  0.750000  1
  Ca  Ca1  1  0.296555  0.296555  0.250000  1
  Co  Co2  1  0.906156  0.906156  0.250000  1
  Co  Co3  1  0.093844  0.093844  0.750000  1
  Si  Si4  1  0.379583  0.805386  0.231129  1
  Si  Si5  1  0.805386  0.379583  0.268871  1
  Si  Si6  1  0.194614  0.620417  0.731129  1
  Si  Si7  1  0.620417  0.194614  0.768871  1
  O  O8  1  0.368417  0.668461  0.995457  1
  O  O9  1  0.668461  0.368417  0.504543  1
  O  O10  1  0.631583  0.331539  0.004543  1
  O  O11  1  0.331539  0.631583  0.495457  1
  O  O12  1  0.610538  0.886191  0.323131  1
  O  O13  1  0.886191  0.610538  0.176869  1
  O  O14  1  0.389462  0.113809  0.676869  1
  O  O15  1  0.113809  0.389462  0.823131  1
  O  O16  1  0.028451  0.793918  0.646353  1
  O  O17  1  0.793918  0.028451  0.853647  1
  O  O18  1  0.206082  0.971549  0.146353  1
  O  O19  1  0.971549  0.206082  0.353647  1
