# generated using pymatgen
data_Cs4Si3O8
_symmetry_space_group_name_H-M   'P 1'
_cell_length_a   9.53710111
_cell_length_b   11.33601401
_cell_length_c   13.68069318
_cell_angle_alpha   101.53541030
_cell_angle_beta   100.69981752
_cell_angle_gamma   114.10554091
_symmetry_Int_Tables_number   1
_chemical_formula_structural   Cs4Si3O8
_chemical_formula_sum   'Cs16 Si12 O32'
_cell_volume   1262.32665123
_cell_formula_units_Z   4
loop_
 _symmetry_equiv_pos_site_id
 _symmetry_equiv_pos_as_xyz
  1  'x, y, z'
loop_
 _atom_site_type_symbol
 _atom_site_label
 _atom_site_symmetry_multiplicity
 _atom_site_fract_x
 _atom_site_fract_y
 _atom_site_fract_z
 _atom_site_occupancy
  Cs  Cs0  1  0.606632  0.268769  0.750772  1
  Cs  Cs1  1  0.393368  0.731231  0.249228  1
  Cs  Cs2  1  0.959255  0.728263  0.243499  1
  Cs  Cs3  1  0.040745  0.271737  0.756501  1
  Cs  Cs4  1  0.381675  0.900375  0.828861  1
  Cs  Cs5  1  0.618325  0.099625  0.171139  1
  Cs  Cs6  1  0.932567  0.900976  0.828917  1
  Cs  Cs7  1  0.067433  0.099024  0.171083  1
  Cs  Cs8  1  0.609733  0.924002  0.590918  1
  Cs  Cs9  1  0.390267  0.075998  0.409082  1
  Cs  Cs10  1  0.375364  0.258239  0.993791  1
  Cs  Cs11  1  0.624636  0.741761  0.006209  1
  Cs  Cs12  1  0.925888  0.545390  0.640534  1
  Cs  Cs13  1  0.074112  0.454610  0.359466  1
  Cs  Cs14  1  0.429701  0.556858  0.657149  1
  Cs  Cs15  1  0.570299  0.443142  0.342851  1
  Si  Si16  1  0.818285  0.951492  0.357260  1
  Si  Si17  1  0.181715  0.048508  0.642740  1
  Si  Si18  1  0.191434  0.791126  0.521739  1
  Si  Si19  1  0.808566  0.208874  0.478261  1
  Si  Si20  1  0.866187  0.795315  0.516114  1
  Si  Si21  1  0.133813  0.204685  0.483886  1
  Si  Si22  1  0.195649  0.598681  0.934755  1
  Si  Si23  1  0.804351  0.401319  0.065245  1
  Si  Si24  1  0.807098  0.140897  0.942236  1
  Si  Si25  1  0.192902  0.859103  0.057764  1
  Si  Si26  1  0.874304  0.599237  0.927563  1
  Si  Si27  1  0.125696  0.400763  0.072437  1
  O  O28  1  0.983161  0.947536  0.606154  1
  O  O29  1  0.016839  0.052464  0.393846  1
  O  O30  1  0.786039  0.825148  0.410005  1
  O  O31  1  0.213961  0.174852  0.589995  1
  O  O32  1  0.746257  0.890917  0.233365  1
  O  O33  1  0.253743  0.109083  0.766635  1
  O  O34  1  0.263640  0.959195  0.588105  1
  O  O35  1  0.736360  0.040805  0.411895  1
  O  O36  1  0.749745  0.217918  0.581327  1
  O  O37  1  0.250255  0.782082  0.418673  1
  O  O38  1  0.238956  0.715652  0.600161  1
  O  O39  1  0.761044  0.284348  0.399839  1
  O  O40  1  0.987452  0.732816  0.484310  1
  O  O41  1  0.012548  0.267184  0.515690  1
  O  O42  1  0.730238  0.697676  0.555961  1
  O  O43  1  0.269762  0.302324  0.444039  1
  O  O44  1  0.997269  0.542813  0.887179  1
  O  O45  1  0.002731  0.457187  0.112821  1
  O  O46  1  0.779741  0.499099  0.993636  1
  O  O47  1  0.220259  0.500901  0.006364  1
  O  O48  1  0.278452  0.593679  0.844258  1
  O  O49  1  0.721548  0.406321  0.155742  1
  O  O50  1  0.728113  0.246476  0.981564  1
  O  O51  1  0.271887  0.753524  0.018436  1
  O  O52  1  0.750202  0.086712  0.816341  1
  O  O53  1  0.249798  0.913288  0.183659  1
  O  O54  1  0.766297  0.026557  0.000871  1
  O  O55  1  0.233703  0.973443  0.999129  1
  O  O56  1  0.990009  0.752550  0.014384  1
  O  O57  1  0.009991  0.247450  0.985616  1
  O  O58  1  0.748909  0.598028  0.831967  1
  O  O59  1  0.251091  0.401972  0.168033  1
