# generated using pymatgen
data_K2SN2O5
_symmetry_space_group_name_H-M   'P 1'
_cell_length_a   7.21728128
_cell_length_b   8.24090750
_cell_length_c   10.11494629
_cell_angle_alpha   90.00000000
_cell_angle_beta   90.00000000
_cell_angle_gamma   90.00000000
_symmetry_Int_Tables_number   1
_chemical_formula_structural   K2SN2O5
_chemical_formula_sum   'K8 S4 N8 O20'
_cell_volume   601.60612875
_cell_formula_units_Z   4
loop_
 _symmetry_equiv_pos_site_id
 _symmetry_equiv_pos_as_xyz
  1  'x, y, z'
loop_
 _atom_site_type_symbol
 _atom_site_label
 _atom_site_symmetry_multiplicity
 _atom_site_fract_x
 _atom_site_fract_y
 _atom_site_fract_z
 _atom_site_occupancy
  K  K0  1  0.446463  0.511640  0.810294  1
  K  K1  1  0.053537  0.988360  0.310294  1
  K  K2  1  0.553537  0.011640  0.189706  1
  K  K3  1  0.946463  0.488360  0.689706  1
  K  K4  1  0.553537  0.488360  0.189706  1
  K  K5  1  0.946463  0.011640  0.689706  1
  K  K6  1  0.446463  0.988360  0.810294  1
  K  K7  1  0.053537  0.511640  0.310294  1
  S  S8  1  0.644303  0.750000  0.503074  1
  S  S9  1  0.855697  0.750000  0.003074  1
  S  S10  1  0.355697  0.250000  0.496926  1
  S  S11  1  0.144303  0.250000  0.996926  1
  N  N12  1  0.401865  0.750000  0.464511  1
  N  N13  1  0.098135  0.750000  0.964511  1
  N  N14  1  0.598135  0.250000  0.535489  1
  N  N15  1  0.901865  0.250000  0.035489  1
  N  N16  1  0.285805  0.750000  0.563529  1
  N  N17  1  0.214195  0.750000  0.063529  1
  N  N18  1  0.714195  0.250000  0.436471  1
  N  N19  1  0.785805  0.250000  0.936471  1
  O  O20  1  0.655930  0.750000  0.647785  1
  O  O21  1  0.844070  0.750000  0.147785  1
  O  O22  1  0.344070  0.250000  0.352215  1
  O  O23  1  0.155930  0.250000  0.852215  1
  O  O24  1  0.710656  0.601156  0.441146  1
  O  O25  1  0.789344  0.898844  0.941146  1
  O  O26  1  0.289344  0.101156  0.558854  1
  O  O27  1  0.210656  0.398844  0.058854  1
  O  O28  1  0.289344  0.398844  0.558854  1
  O  O29  1  0.210656  0.101156  0.058854  1
  O  O30  1  0.710656  0.898844  0.441146  1
  O  O31  1  0.789344  0.601156  0.941146  1
  O  O32  1  0.360469  0.750000  0.338871  1
  O  O33  1  0.139531  0.750000  0.838871  1
  O  O34  1  0.639531  0.250000  0.661129  1
  O  O35  1  0.860469  0.250000  0.161129  1
  O  O36  1  0.113259  0.750000  0.527550  1
  O  O37  1  0.386741  0.750000  0.027550  1
  O  O38  1  0.886741  0.250000  0.472450  1
  O  O39  1  0.613259  0.250000  0.972450  1
