# generated using pymatgen
data_In(PO3)3
_symmetry_space_group_name_H-M   'P 1'
_cell_length_a   12.12994284
_cell_length_b   12.12994284
_cell_length_c   9.84902796
_cell_angle_alpha   69.97723156
_cell_angle_beta   110.02276844
_cell_angle_gamma   69.27794403
_symmetry_Int_Tables_number   1
_chemical_formula_structural   In(PO3)3
_chemical_formula_sum   'In6 P18 O54'
_cell_volume   1081.89056446
_cell_formula_units_Z   6
loop_
 _symmetry_equiv_pos_site_id
 _symmetry_equiv_pos_as_xyz
  1  'x, y, z'
loop_
 _atom_site_type_symbol
 _atom_site_label
 _atom_site_symmetry_multiplicity
 _atom_site_fract_x
 _atom_site_fract_y
 _atom_site_fract_z
 _atom_site_occupancy
  In  In0  1  0.190678  0.988047  0.511720  1
  In  In1  1  0.011953  0.809322  0.011720  1
  In  In2  1  0.339158  0.173127  0.978420  1
  In  In3  1  0.826873  0.660842  0.478420  1
  In  In4  1  0.520807  0.322278  0.510984  1
  In  In5  1  0.677722  0.479193  0.010984  1
  P  P6  1  0.542182  0.839640  0.765628  1
  P  P7  1  0.160360  0.457818  0.265628  1
  P  P8  1  0.837184  0.112287  0.285273  1
  P  P9  1  0.887713  0.162816  0.785273  1
  P  P10  1  0.080676  0.194082  0.663820  1
  P  P11  1  0.805918  0.919324  0.163820  1
  P  P12  1  0.748196  0.853574  0.660200  1
  P  P13  1  0.146426  0.251804  0.160200  1
  P  P14  1  0.467559  0.813949  0.220650  1
  P  P15  1  0.186051  0.532441  0.720650  1
  P  P16  1  0.484809  0.576550  0.180384  1
  P  P17  1  0.423450  0.515191  0.680384  1
  P  P18  1  0.275178  0.781414  0.346295  1
  P  P19  1  0.218586  0.724822  0.846295  1
  P  P20  1  0.541988  0.068084  0.820569  1
  P  P21  1  0.931916  0.458012  0.320569  1
  P  P22  1  0.601001  0.126216  0.329947  1
  P  P23  1  0.873784  0.398999  0.829947  1
  O  O24  1  0.750537  0.259227  0.138806  1
  O  O25  1  0.740773  0.249463  0.638806  1
  O  O26  1  0.834860  0.745400  0.638041  1
  O  O27  1  0.254600  0.165140  0.138041  1
  O  O28  1  0.823437  0.886380  0.781103  1
  O  O29  1  0.113620  0.176563  0.281103  1
  O  O30  1  0.673185  0.037105  0.976814  1
  O  O31  1  0.962895  0.326815  0.476814  1
  O  O32  1  0.988264  0.141710  0.712086  1
  O  O33  1  0.858290  0.011736  0.212086  1
  O  O34  1  0.413892  0.152490  0.814941  1
  O  O35  1  0.847510  0.586108  0.314941  1
  O  O36  1  0.182240  0.086134  0.655249  1
  O  O37  1  0.913866  0.817760  0.155249  1
  O  O38  1  0.657314  0.803648  0.716120  1
  O  O39  1  0.196352  0.342686  0.216120  1
  O  O40  1  0.627068  0.992911  0.479257  1
  O  O41  1  0.007089  0.372932  0.979257  1
  O  O42  1  0.139749  0.238729  0.780022  1
  O  O43  1  0.761271  0.860251  0.280022  1
  O  O44  1  0.573418  0.704006  0.891046  1
  O  O45  1  0.295994  0.426582  0.391046  1
  O  O46  1  0.401633  0.938340  0.603654  1
  O  O47  1  0.061660  0.598367  0.103654  1
  O  O48  1  0.265899  0.558463  0.622989  1
  O  O49  1  0.441537  0.734101  0.122989  1
  O  O50  1  0.356302  0.599758  0.027534  1
  O  O51  1  0.400242  0.643698  0.527534  1
  O  O52  1  0.046510  0.578252  0.585562  1
  O  O53  1  0.421748  0.953490  0.085562  1
  O  O54  1  0.485960  0.514131  0.841707  1
  O  O55  1  0.485869  0.514040  0.341707  1
  O  O56  1  0.162777  0.640148  0.782852  1
  O  O57  1  0.359852  0.837223  0.282852  1
  O  O58  1  0.502810  0.385063  0.685967  1
  O  O59  1  0.614937  0.497190  0.185967  1
  O  O60  1  0.255963  0.798056  0.730505  1
  O  O61  1  0.201944  0.744037  0.230505  1
  O  O62  1  0.114064  0.811639  0.872650  1
  O  O63  1  0.188361  0.885936  0.372650  1
  O  O64  1  0.085335  0.426055  0.368637  1
  O  O65  1  0.573945  0.914665  0.868637  1
  O  O66  1  0.869668  0.454352  0.162466  1
  O  O67  1  0.545648  0.130332  0.662466  1
  O  O68  1  0.919848  0.242372  0.880213  1
  O  O69  1  0.757628  0.080152  0.380213  1
  O  O70  1  0.275605  0.388733  0.875297  1
  O  O71  1  0.611267  0.724395  0.375297  1
  O  O72  1  0.940068  0.022982  0.926923  1
  O  O73  1  0.977018  0.059932  0.426923  1
  O  O74  1  0.749331  0.464602  0.841487  1
  O  O75  1  0.535398  0.250669  0.341487  1
  O  O76  1  0.862369  0.473669  0.664431  1
  O  O77  1  0.526331  0.137631  0.164431  1
