# generated using pymatgen
data_K2SmF5
_symmetry_space_group_name_H-M   'P 1'
_cell_length_a   6.76513217
_cell_length_b   7.45944643
_cell_length_c   11.07514034
_cell_angle_alpha   90.00000000
_cell_angle_beta   90.00000000
_cell_angle_gamma   90.00000000
_symmetry_Int_Tables_number   1
_chemical_formula_structural   K2SmF5
_chemical_formula_sum   'K8 Sm4 F20'
_cell_volume   558.89744387
_cell_formula_units_Z   4
loop_
 _symmetry_equiv_pos_site_id
 _symmetry_equiv_pos_as_xyz
  1  'x, y, z'
loop_
 _atom_site_type_symbol
 _atom_site_label
 _atom_site_symmetry_multiplicity
 _atom_site_fract_x
 _atom_site_fract_y
 _atom_site_fract_z
 _atom_site_occupancy
  K  K0  1  0.527992  0.996967  0.827986  1
  K  K1  1  0.472008  0.496967  0.172014  1
  K  K2  1  0.972008  0.996967  0.327986  1
  K  K3  1  0.027992  0.496967  0.672014  1
  K  K4  1  0.527992  0.503033  0.827986  1
  K  K5  1  0.472008  0.003033  0.172014  1
  K  K6  1  0.972008  0.503033  0.327986  1
  K  K7  1  0.027992  0.003033  0.672014  1
  Sm  Sm8  1  0.565223  0.250000  0.502561  1
  Sm  Sm9  1  0.434777  0.750000  0.497439  1
  Sm  Sm10  1  0.934777  0.250000  0.002561  1
  Sm  Sm11  1  0.065223  0.750000  0.997439  1
  F  F12  1  0.866354  0.750000  0.832239  1
  F  F13  1  0.133646  0.250000  0.167761  1
  F  F14  1  0.633646  0.750000  0.332239  1
  F  F15  1  0.366354  0.250000  0.667761  1
  F  F16  1  0.835345  0.250000  0.805475  1
  F  F17  1  0.164655  0.750000  0.194525  1
  F  F18  1  0.664655  0.250000  0.305475  1
  F  F19  1  0.335345  0.750000  0.694525  1
  F  F20  1  0.646037  0.966418  0.579484  1
  F  F21  1  0.353963  0.466418  0.420516  1
  F  F22  1  0.853963  0.966418  0.079484  1
  F  F23  1  0.146037  0.466418  0.920516  1
  F  F24  1  0.398713  0.750000  0.987607  1
  F  F25  1  0.601287  0.250000  0.012393  1
  F  F26  1  0.101287  0.750000  0.487607  1
  F  F27  1  0.898713  0.250000  0.512393  1
  F  F28  1  0.146037  0.033582  0.920516  1
  F  F29  1  0.853963  0.533582  0.079484  1
  F  F30  1  0.353963  0.033582  0.420516  1
  F  F31  1  0.646037  0.533582  0.579484  1
