# generated using pymatgen
data_CaCu3(GeO3)4
_symmetry_space_group_name_H-M   'P 1'
_cell_length_a   6.34336172
_cell_length_b   6.34336172
_cell_length_c   6.34336172
_cell_angle_alpha   109.47122063
_cell_angle_beta   109.47122063
_cell_angle_gamma   109.47122063
_symmetry_Int_Tables_number   1
_chemical_formula_structural   CaCu3(GeO3)4
_chemical_formula_sum   'Ca1 Cu3 Ge4 O12'
_cell_volume   196.48823033
_cell_formula_units_Z   1
loop_
 _symmetry_equiv_pos_site_id
 _symmetry_equiv_pos_as_xyz
  1  'x, y, z'
loop_
 _atom_site_type_symbol
 _atom_site_label
 _atom_site_symmetry_multiplicity
 _atom_site_fract_x
 _atom_site_fract_y
 _atom_site_fract_z
 _atom_site_occupancy
  Ca  Ca0  1  0.000000  0.000000  0.000000  1
  Cu  Cu1  1  0.500000  0.500000  0.000000  1
  Cu  Cu2  1  1.000000  0.500000  0.500000  1
  Cu  Cu3  1  0.500000  1.000000  0.500000  1
  Ge  Ge4  1  0.500000  0.500000  0.500000  1
  Ge  Ge5  1  0.000000  0.500000  0.000000  1
  Ge  Ge6  1  0.000000  0.000000  0.500000  1
  Ge  Ge7  1  0.500000  0.000000  0.000000  1
  O  O8  1  0.816947  0.300656  0.117603  1
  O  O9  1  0.183053  0.699344  0.882397  1
  O  O10  1  0.816947  0.699344  0.516292  1
  O  O11  1  0.300656  0.483708  0.183053  1
  O  O12  1  0.483708  0.183053  0.300656  1
  O  O13  1  0.117603  0.816947  0.300656  1
  O  O14  1  0.699344  0.882397  0.183053  1
  O  O15  1  0.516292  0.816947  0.699344  1
  O  O16  1  0.183053  0.300656  0.483708  1
  O  O17  1  0.699344  0.516292  0.816947  1
  O  O18  1  0.882397  0.183053  0.699344  1
  O  O19  1  0.300656  0.117603  0.816947  1
