# generated using pymatgen
data_BaCo2(AsO4)2
_symmetry_space_group_name_H-M   'P 1'
_cell_length_a   8.60416341
_cell_length_b   8.60416341
_cell_length_c   8.60416341
_cell_angle_alpha   34.21916818
_cell_angle_beta   34.21916818
_cell_angle_gamma   34.21916818
_symmetry_Int_Tables_number   1
_chemical_formula_structural   BaCo2(AsO4)2
_chemical_formula_sum   'Ba1 Co2 As2 O8'
_cell_volume   179.62829138
_cell_formula_units_Z   1
loop_
 _symmetry_equiv_pos_site_id
 _symmetry_equiv_pos_as_xyz
  1  'x, y, z'
loop_
 _atom_site_type_symbol
 _atom_site_label
 _atom_site_symmetry_multiplicity
 _atom_site_fract_x
 _atom_site_fract_y
 _atom_site_fract_z
 _atom_site_occupancy
  Ba  Ba0  1  0.000000  0.000000  0.000000  1
  Co  Co1  1  0.169577  0.169577  0.169577  1
  Co  Co2  1  0.830423  0.830423  0.830423  1
  As  As3  1  0.572685  0.572685  0.572685  1
  As  As4  1  0.427315  0.427315  0.427315  1
  O  O5  1  0.782826  0.125955  0.438829  1
  O  O6  1  0.125955  0.438829  0.782826  1
  O  O7  1  0.438829  0.782826  0.125955  1
  O  O8  1  0.217174  0.874045  0.561171  1
  O  O9  1  0.874045  0.561171  0.217174  1
  O  O10  1  0.642543  0.642543  0.642543  1
  O  O11  1  0.357457  0.357457  0.357457  1
  O  O12  1  0.561171  0.217174  0.874045  1
