# generated using pymatgen
data_LiMg3P3O11
_symmetry_space_group_name_H-M   'P 1'
_cell_length_a   8.40362220
_cell_length_b   9.15723056
_cell_length_c   10.72919222
_cell_angle_alpha   90.00000000
_cell_angle_beta   90.00000000
_cell_angle_gamma   90.00000000
_symmetry_Int_Tables_number   1
_chemical_formula_structural   LiMg3P3O11
_chemical_formula_sum   'Li4 Mg12 P12 O44'
_cell_volume   825.65324982
_cell_formula_units_Z   4
loop_
 _symmetry_equiv_pos_site_id
 _symmetry_equiv_pos_as_xyz
  1  'x, y, z'
loop_
 _atom_site_type_symbol
 _atom_site_label
 _atom_site_symmetry_multiplicity
 _atom_site_fract_x
 _atom_site_fract_y
 _atom_site_fract_z
 _atom_site_occupancy
  Li  Li0  1  0.025260  0.812754  0.750000  1
  Li  Li1  1  0.474740  0.312754  0.750000  1
  Li  Li2  1  0.974740  0.187246  0.250000  1
  Li  Li3  1  0.525260  0.687246  0.250000  1
  Mg  Mg4  1  0.859551  0.545586  0.089975  1
  Mg  Mg5  1  0.640449  0.045586  0.410025  1
  Mg  Mg6  1  0.140449  0.454414  0.589975  1
  Mg  Mg7  1  0.359551  0.954414  0.910025  1
  Mg  Mg8  1  0.140449  0.454414  0.910025  1
  Mg  Mg9  1  0.359551  0.954414  0.589975  1
  Mg  Mg10  1  0.859551  0.545586  0.410025  1
  Mg  Mg11  1  0.640449  0.045586  0.089975  1
  Mg  Mg12  1  0.000000  0.000000  0.000000  1
  Mg  Mg13  1  0.500000  0.500000  0.500000  1
  Mg  Mg14  1  0.000000  0.000000  0.500000  1
  Mg  Mg15  1  0.500000  0.500000  0.000000  1
  P  P16  1  0.214063  0.710843  0.109066  1
  P  P17  1  0.285937  0.210843  0.390934  1
  P  P18  1  0.785937  0.289157  0.609066  1
  P  P19  1  0.714063  0.789157  0.890934  1
  P  P20  1  0.785937  0.289157  0.890934  1
  P  P21  1  0.714063  0.789157  0.609066  1
  P  P22  1  0.214063  0.710843  0.390934  1
  P  P23  1  0.285937  0.210843  0.109066  1
  P  P24  1  0.289522  0.646842  0.750000  1
  P  P25  1  0.210478  0.146842  0.750000  1
  P  P26  1  0.710478  0.353158  0.250000  1
  P  P27  1  0.789522  0.853158  0.250000  1
  O  O28  1  0.200798  0.850122  0.029975  1
  O  O29  1  0.299202  0.350122  0.470025  1
  O  O30  1  0.799202  0.149878  0.529975  1
  O  O31  1  0.700798  0.649878  0.970025  1
  O  O32  1  0.799202  0.149878  0.970025  1
  O  O33  1  0.700798  0.649878  0.529975  1
  O  O34  1  0.200798  0.850122  0.470025  1
  O  O35  1  0.299202  0.350122  0.029975  1
  O  O36  1  0.607592  0.891616  0.250000  1
  O  O37  1  0.892408  0.391616  0.250000  1
  O  O38  1  0.392408  0.108384  0.750000  1
  O  O39  1  0.107592  0.608384  0.750000  1
  O  O40  1  0.855340  0.927381  0.132480  1
  O  O41  1  0.644660  0.427381  0.367520  1
  O  O42  1  0.144660  0.072619  0.632480  1
  O  O43  1  0.355340  0.572619  0.867520  1
  O  O44  1  0.144660  0.072619  0.867520  1
  O  O45  1  0.355340  0.572619  0.632480  1
  O  O46  1  0.855340  0.927381  0.367520  1
  O  O47  1  0.644660  0.427381  0.132480  1
  O  O48  1  0.382108  0.649501  0.115124  1
  O  O49  1  0.117892  0.149501  0.384876  1
  O  O50  1  0.617892  0.350499  0.615124  1
  O  O51  1  0.882108  0.850499  0.884876  1
  O  O52  1  0.617892  0.350499  0.884876  1
  O  O53  1  0.882108  0.850499  0.615124  1
  O  O54  1  0.382108  0.649501  0.384876  1
  O  O55  1  0.117892  0.149501  0.115124  1
  O  O56  1  0.311302  0.815035  0.750000  1
  O  O57  1  0.188698  0.315035  0.750000  1
  O  O58  1  0.688698  0.184965  0.250000  1
  O  O59  1  0.811302  0.684965  0.250000  1
  O  O60  1  0.089788  0.598405  0.063616  1
  O  O61  1  0.410212  0.098405  0.436384  1
  O  O62  1  0.910212  0.401595  0.563616  1
  O  O63  1  0.589788  0.901595  0.936384  1
  O  O64  1  0.910212  0.401595  0.936384  1
  O  O65  1  0.589788  0.901595  0.563616  1
  O  O66  1  0.089788  0.598405  0.436384  1
  O  O67  1  0.410212  0.098405  0.063616  1
  O  O68  1  0.163534  0.759159  0.250000  1
  O  O69  1  0.336466  0.259159  0.250000  1
  O  O70  1  0.836466  0.240841  0.750000  1
  O  O71  1  0.663534  0.740841  0.750000  1
