# generated using pymatgen
data_KB(SO4)2
_symmetry_space_group_name_H-M   'P 1'
_cell_length_a   9.22610595
_cell_length_b   9.22610595
_cell_length_c   7.54276750
_cell_angle_alpha   90.00000000
_cell_angle_beta   90.00000000
_cell_angle_gamma   90.00000000
_symmetry_Int_Tables_number   1
_chemical_formula_structural   KB(SO4)2
_chemical_formula_sum   'K4 B4 S8 O32'
_cell_volume   642.04814620
_cell_formula_units_Z   4
loop_
 _symmetry_equiv_pos_site_id
 _symmetry_equiv_pos_as_xyz
  1  'x, y, z'
loop_
 _atom_site_type_symbol
 _atom_site_label
 _atom_site_symmetry_multiplicity
 _atom_site_fract_x
 _atom_site_fract_y
 _atom_site_fract_z
 _atom_site_occupancy
  K  K0  1  0.500000  0.000000  0.436262  1
  K  K1  1  0.500000  0.000000  0.936262  1
  K  K2  1  0.000000  0.500000  0.563738  1
  K  K3  1  0.000000  0.500000  0.063738  1
  B  B4  1  0.000000  0.000000  0.500000  1
  B  B5  1  0.000000  0.000000  0.000000  1
  B  B6  1  0.500000  0.500000  0.000000  1
  B  B7  1  0.500000  0.500000  0.500000  1
  S  S8  1  0.846116  0.153884  0.250000  1
  S  S9  1  0.846116  0.846116  0.750000  1
  S  S10  1  0.153884  0.153884  0.750000  1
  S  S11  1  0.153884  0.846116  0.250000  1
  S  S12  1  0.653884  0.346116  0.750000  1
  S  S13  1  0.653884  0.653884  0.250000  1
  S  S14  1  0.346116  0.346116  0.250000  1
  S  S15  1  0.346116  0.653884  0.750000  1
  O  O16  1  0.295660  0.874039  0.178062  1
  O  O17  1  0.295660  0.125961  0.678062  1
  O  O18  1  0.704340  0.874039  0.678062  1
  O  O19  1  0.704340  0.125961  0.178062  1
  O  O20  1  0.374039  0.795660  0.678062  1
  O  O21  1  0.374039  0.204340  0.178062  1
  O  O22  1  0.625961  0.795660  0.178062  1
  O  O23  1  0.625961  0.204340  0.678062  1
  O  O24  1  0.204340  0.625961  0.821938  1
  O  O25  1  0.204340  0.374039  0.321938  1
  O  O26  1  0.795660  0.625961  0.321938  1
  O  O27  1  0.795660  0.374039  0.821938  1
  O  O28  1  0.125961  0.704340  0.321938  1
  O  O29  1  0.125961  0.295660  0.821938  1
  O  O30  1  0.874039  0.704340  0.821938  1
  O  O31  1  0.874039  0.295660  0.321938  1
  O  O32  1  0.467005  0.370769  0.391532  1
  O  O33  1  0.467005  0.629231  0.891532  1
  O  O34  1  0.532995  0.370769  0.891532  1
  O  O35  1  0.532995  0.629231  0.391532  1
  O  O36  1  0.870769  0.967005  0.891532  1
  O  O37  1  0.870769  0.032995  0.391532  1
  O  O38  1  0.129231  0.967005  0.391532  1
  O  O39  1  0.129231  0.032995  0.891532  1
  O  O40  1  0.032995  0.129231  0.608468  1
  O  O41  1  0.032995  0.870769  0.108468  1
  O  O42  1  0.967005  0.129231  0.108468  1
  O  O43  1  0.967005  0.870769  0.608468  1
  O  O44  1  0.629231  0.532995  0.108468  1
  O  O45  1  0.629231  0.467005  0.608468  1
  O  O46  1  0.370769  0.532995  0.608468  1
  O  O47  1  0.370769  0.467005  0.108468  1
