# generated using pymatgen
data_Y2AlSi2
_symmetry_space_group_name_H-M   'P 1'
_cell_length_a   5.61782249
_cell_length_b   5.61782249
_cell_length_c   5.61782249
_cell_angle_alpha   137.63581953
_cell_angle_beta   117.41319846
_cell_angle_gamma   78.50508088
_symmetry_Int_Tables_number   1
_chemical_formula_structural   Y2AlSi2
_chemical_formula_sum   'Y2 Al1 Si2'
_cell_volume   103.07101088
_cell_formula_units_Z   1
loop_
 _symmetry_equiv_pos_site_id
 _symmetry_equiv_pos_as_xyz
  1  'x, y, z'
loop_
 _atom_site_type_symbol
 _atom_site_label
 _atom_site_symmetry_multiplicity
 _atom_site_fract_x
 _atom_site_fract_y
 _atom_site_fract_z
 _atom_site_occupancy
  Y  Y0  1  0.288894  0.788894  0.500000  1
  Y  Y1  1  0.711106  0.211106  0.500000  1
  Al  Al2  1  0.000000  0.000000  0.000000  1
  Si  Si3  1  0.289000  0.500000  0.789000  1
  Si  Si4  1  0.711000  0.500000  0.211000  1
