# generated using pymatgen
data_La4Co3O10
_symmetry_space_group_name_H-M   'P 1'
_cell_length_a   14.40861452
_cell_length_b   14.40861452
_cell_length_c   14.40861452
_cell_angle_alpha   164.53478294
_cell_angle_beta   164.53478294
_cell_angle_gamma   21.93856056
_symmetry_Int_Tables_number   1
_chemical_formula_structural   La4Co3O10
_chemical_formula_sum   'La4 Co3 O10'
_cell_volume   212.66051349
_cell_formula_units_Z   1
loop_
 _symmetry_equiv_pos_site_id
 _symmetry_equiv_pos_as_xyz
  1  'x, y, z'
loop_
 _atom_site_type_symbol
 _atom_site_label
 _atom_site_symmetry_multiplicity
 _atom_site_fract_x
 _atom_site_fract_y
 _atom_site_fract_z
 _atom_site_occupancy
  La  La0  1  0.565348  0.565348  0.000000  1
  La  La1  1  0.434652  0.434652  0.000000  1
  La  La2  1  0.299703  0.299703  0.000000  1
  La  La3  1  0.700297  0.700297  0.000000  1
  Co  Co4  1  0.138809  0.138809  0.000000  1
  Co  Co5  1  0.861191  0.861191  0.000000  1
  Co  Co6  1  1.000000  0.000000  0.000000  1
  O  O7  1  0.638798  0.138798  0.500000  1
  O  O8  1  0.066596  0.066596  0.000000  1
  O  O9  1  0.138798  0.638798  0.500000  1
  O  O10  1  0.361202  0.861202  0.500000  1
  O  O11  1  0.861202  0.361202  0.500000  1
  O  O12  1  0.933404  0.933404  0.000000  1
  O  O13  1  0.217470  0.217470  0.000000  1
  O  O14  1  0.782530  0.782530  0.000000  1
  O  O15  1  0.500000  0.000000  0.500000  1
  O  O16  1  0.000000  0.500000  0.500000  1
