# generated using pymatgen
data_K2NaZn(BO2)5
_symmetry_space_group_name_H-M   'P 1'
_cell_length_a   7.68406946
_cell_length_b   7.68406946
_cell_length_c   19.64192369
_cell_angle_alpha   85.07990221
_cell_angle_beta   94.92009779
_cell_angle_gamma   63.27469850
_symmetry_Int_Tables_number   1
_chemical_formula_structural   K2NaZn(BO2)5
_chemical_formula_sum   'K8 Na4 Zn4 B20 O40'
_cell_volume   1021.92195565
_cell_formula_units_Z   4
loop_
 _symmetry_equiv_pos_site_id
 _symmetry_equiv_pos_as_xyz
  1  'x, y, z'
loop_
 _atom_site_type_symbol
 _atom_site_label
 _atom_site_symmetry_multiplicity
 _atom_site_fract_x
 _atom_site_fract_y
 _atom_site_fract_z
 _atom_site_occupancy
  K  K0  1  0.817561  0.002374  0.562273  1
  K  K1  1  0.002374  0.817561  0.937727  1
  K  K2  1  0.182439  0.997626  0.437727  1
  K  K3  1  0.997626  0.182439  0.062273  1
  K  K4  1  0.378617  0.459822  0.577372  1
  K  K5  1  0.459822  0.378617  0.922628  1
  K  K6  1  0.621383  0.540178  0.422628  1
  K  K7  1  0.540178  0.621383  0.077372  1
  Na  Na8  1  0.152862  0.152862  0.750000  1
  Na  Na9  1  0.847138  0.847138  0.250000  1
  Na  Na10  1  0.651087  0.651087  0.750000  1
  Na  Na11  1  0.348913  0.348913  0.250000  1
  Zn  Zn12  1  0.362427  0.958373  0.610532  1
  Zn  Zn13  1  0.958373  0.362427  0.889468  1
  Zn  Zn14  1  0.637573  0.041627  0.389468  1
  Zn  Zn15  1  0.041627  0.637573  0.110532  1
  B  B16  1  0.004867  0.320919  0.583387  1
  B  B17  1  0.320919  0.004867  0.916613  1
  B  B18  1  0.995133  0.679081  0.416613  1
  B  B19  1  0.679081  0.995133  0.083387  1
  B  B20  1  0.697321  0.629403  0.581312  1
  B  B21  1  0.629403  0.697321  0.918688  1
  B  B22  1  0.302679  0.370597  0.418688  1
  B  B23  1  0.370597  0.302679  0.081312  1
  B  B24  1  0.996461  0.560948  0.667141  1
  B  B25  1  0.560948  0.996461  0.832859  1
  B  B26  1  0.003539  0.439052  0.332859  1
  B  B27  1  0.439052  0.003539  0.167141  1
  B  B28  1  0.202091  0.728833  0.704412  1
  B  B29  1  0.728833  0.202091  0.795588  1
  B  B30  1  0.797909  0.271167  0.295588  1
  B  B31  1  0.271167  0.797909  0.204412  1
  B  B32  1  0.095451  0.567326  0.793792  1
  B  B33  1  0.567326  0.095451  0.706208  1
  B  B34  1  0.904549  0.432674  0.206208  1
  B  B35  1  0.432674  0.904549  0.293792  1
  O  O36  1  0.100210  0.149580  0.558170  1
  O  O37  1  0.149580  0.100210  0.941830  1
  O  O38  1  0.899790  0.850420  0.441830  1
  O  O39  1  0.850420  0.899790  0.058170  1
  O  O40  1  0.090441  0.373492  0.637690  1
  O  O41  1  0.373492  0.090441  0.862310  1
  O  O42  1  0.909559  0.626508  0.362310  1
  O  O43  1  0.626508  0.909559  0.137690  1
  O  O44  1  0.806737  0.451194  0.554433  1
  O  O45  1  0.451194  0.806737  0.945567  1
  O  O46  1  0.193263  0.548806  0.445567  1
  O  O47  1  0.548806  0.193263  0.054433  1
  O  O48  1  0.787554  0.674110  0.636280  1
  O  O49  1  0.674110  0.787554  0.863720  1
  O  O50  1  0.212446  0.325890  0.363720  1
  O  O51  1  0.325890  0.212446  0.136280  1
  O  O52  1  0.507898  0.746138  0.553177  1
  O  O53  1  0.746138  0.507898  0.946823  1
  O  O54  1  0.492102  0.253862  0.446823  1
  O  O55  1  0.253862  0.492102  0.053177  1
  O  O56  1  0.101615  0.679266  0.653188  1
  O  O57  1  0.679266  0.101615  0.846812  1
  O  O58  1  0.898385  0.320734  0.346812  1
  O  O59  1  0.320734  0.898385  0.153188  1
  O  O60  1  0.004379  0.512664  0.741644  1
  O  O61  1  0.512664  0.004379  0.758356  1
  O  O62  1  0.995621  0.487336  0.258356  1
  O  O63  1  0.487336  0.995621  0.241644  1
  O  O64  1  0.196332  0.674418  0.774661  1
  O  O65  1  0.674418  0.196332  0.725339  1
  O  O66  1  0.803668  0.325582  0.225339  1
  O  O67  1  0.325582  0.803668  0.274661  1
  O  O68  1  0.306957  0.825106  0.690843  1
  O  O69  1  0.825106  0.306957  0.809157  1
  O  O70  1  0.693043  0.174894  0.309157  1
  O  O71  1  0.174894  0.693043  0.190843  1
  O  O72  1  0.092486  0.519420  0.861033  1
  O  O73  1  0.519420  0.092486  0.638967  1
  O  O74  1  0.907514  0.480580  0.138967  1
  O  O75  1  0.480580  0.907514  0.361033  1
