# generated using pymatgen
data_CsReO4
_symmetry_space_group_name_H-M   'P 1'
_cell_length_a   5.96430516
_cell_length_b   6.16253430
_cell_length_c   14.66572207
_cell_angle_alpha   90.00000000
_cell_angle_beta   90.00000000
_cell_angle_gamma   90.00000000
_symmetry_Int_Tables_number   1
_chemical_formula_structural   CsReO4
_chemical_formula_sum   'Cs4 Re4 O16'
_cell_volume   539.04206295
_cell_formula_units_Z   4
loop_
 _symmetry_equiv_pos_site_id
 _symmetry_equiv_pos_as_xyz
  1  'x, y, z'
loop_
 _atom_site_type_symbol
 _atom_site_label
 _atom_site_symmetry_multiplicity
 _atom_site_fract_x
 _atom_site_fract_y
 _atom_site_fract_z
 _atom_site_occupancy
  Cs  Cs0  1  0.477196  0.250000  0.628127  1
  Cs  Cs1  1  0.977196  0.250000  0.871873  1
  Cs  Cs2  1  0.522804  0.750000  0.371873  1
  Cs  Cs3  1  0.022804  0.750000  0.128127  1
  Re  Re4  1  0.466029  0.750000  0.880830  1
  Re  Re5  1  0.966029  0.750000  0.619170  1
  Re  Re6  1  0.533971  0.250000  0.119170  1
  Re  Re7  1  0.033971  0.250000  0.380830  1
  O  O8  1  0.517174  0.517164  0.815040  1
  O  O9  1  0.017174  0.982836  0.684960  1
  O  O10  1  0.482826  0.017164  0.184960  1
  O  O11  1  0.982826  0.482836  0.315040  1
  O  O12  1  0.482826  0.482836  0.184960  1
  O  O13  1  0.982826  0.017164  0.315040  1
  O  O14  1  0.517174  0.982836  0.815040  1
  O  O15  1  0.017174  0.517164  0.684960  1
  O  O16  1  0.814936  0.250000  0.082449  1
  O  O17  1  0.314936  0.250000  0.417551  1
  O  O18  1  0.185064  0.750000  0.917551  1
  O  O19  1  0.685064  0.750000  0.582449  1
  O  O20  1  0.854209  0.250000  0.475418  1
  O  O21  1  0.354209  0.250000  0.024582  1
  O  O22  1  0.145791  0.750000  0.524582  1
  O  O23  1  0.645791  0.750000  0.975418  1
