# generated using pymatgen
data_Na4(CoO2)7
_symmetry_space_group_name_H-M   'P 1'
_cell_length_a   7.50246685
_cell_length_b   7.50246685
_cell_length_c   11.13554949
_cell_angle_alpha   90.00000000
_cell_angle_beta   90.00000000
_cell_angle_gamma   120.00000000
_symmetry_Int_Tables_number   1
_chemical_formula_structural   Na4(CoO2)7
_chemical_formula_sum   'Na8 Co14 O28'
_cell_volume   542.81326765
_cell_formula_units_Z   2
loop_
 _symmetry_equiv_pos_site_id
 _symmetry_equiv_pos_as_xyz
  1  'x, y, z'
loop_
 _atom_site_type_symbol
 _atom_site_label
 _atom_site_symmetry_multiplicity
 _atom_site_fract_x
 _atom_site_fract_y
 _atom_site_fract_z
 _atom_site_occupancy
  Na  Na0  1  0.000000  0.000000  0.250000  1
  Na  Na1  1  0.000000  0.000000  0.750000  1
  Na  Na2  1  0.452468  0.410075  0.250000  1
  Na  Na3  1  0.042393  0.452468  0.750000  1
  Na  Na4  1  0.410075  0.957607  0.750000  1
  Na  Na5  1  0.589925  0.042393  0.250000  1
  Na  Na6  1  0.957607  0.547532  0.250000  1
  Na  Na7  1  0.547532  0.589925  0.750000  1
  Co  Co8  1  0.571553  0.856556  0.998377  1
  Co  Co9  1  0.428447  0.143444  0.498377  1
  Co  Co10  1  0.856556  0.285003  0.498377  1
  Co  Co11  1  0.285003  0.428447  0.998377  1
  Co  Co12  1  0.000000  0.000000  0.500000  1
  Co  Co13  1  0.000000  0.000000  0.000000  1
  Co  Co14  1  0.143444  0.714997  0.998377  1
  Co  Co15  1  0.714997  0.571553  0.498377  1
  Co  Co16  1  0.714997  0.571553  0.001623  1
  Co  Co17  1  0.143444  0.714997  0.501623  1
  Co  Co18  1  0.571553  0.856556  0.501623  1
  Co  Co19  1  0.428447  0.143444  0.001623  1
  Co  Co20  1  0.856556  0.285003  0.001623  1
  Co  Co21  1  0.285003  0.428447  0.501623  1
  O  O22  1  0.333333  0.666667  0.593899  1
  O  O23  1  0.666667  0.333333  0.093899  1
  O  O24  1  0.666667  0.333333  0.406101  1
  O  O25  1  0.333333  0.666667  0.906101  1
  O  O26  1  0.096258  0.476904  0.415952  1
  O  O27  1  0.619355  0.096258  0.915952  1
  O  O28  1  0.476904  0.380645  0.915952  1
  O  O29  1  0.523096  0.619355  0.415952  1
  O  O30  1  0.380645  0.903742  0.415952  1
  O  O31  1  0.903742  0.523096  0.915952  1
  O  O32  1  0.903742  0.523096  0.584048  1
  O  O33  1  0.380645  0.903742  0.084048  1
  O  O34  1  0.523096  0.619355  0.084048  1
  O  O35  1  0.476904  0.380645  0.584048  1
  O  O36  1  0.619355  0.096258  0.584048  1
  O  O37  1  0.096258  0.476904  0.084048  1
  O  O38  1  0.238373  0.192838  0.411082  1
  O  O39  1  0.045535  0.238373  0.911082  1
  O  O40  1  0.192838  0.954465  0.911082  1
  O  O41  1  0.807162  0.045535  0.411082  1
  O  O42  1  0.954465  0.761627  0.411082  1
  O  O43  1  0.761627  0.807162  0.911082  1
  O  O44  1  0.238373  0.192838  0.088918  1
  O  O45  1  0.045535  0.238373  0.588918  1
  O  O46  1  0.192838  0.954465  0.588918  1
  O  O47  1  0.807162  0.045535  0.088918  1
  O  O48  1  0.954465  0.761627  0.088918  1
  O  O49  1  0.761627  0.807162  0.588918  1
