# generated using pymatgen
data_Na2Ga2As3
_symmetry_space_group_name_H-M   'P 1'
_cell_length_a   13.33305715
_cell_length_b   6.80340024
_cell_length_c   14.59039245
_cell_angle_alpha   90.00000000
_cell_angle_beta   90.30448503
_cell_angle_gamma   90.00000000
_symmetry_Int_Tables_number   1
_chemical_formula_structural   Na2Ga2As3
_chemical_formula_sum   'Na16 Ga16 As24'
_cell_volume   1323.47762280
_cell_formula_units_Z   8
loop_
 _symmetry_equiv_pos_site_id
 _symmetry_equiv_pos_as_xyz
  1  'x, y, z'
loop_
 _atom_site_type_symbol
 _atom_site_label
 _atom_site_symmetry_multiplicity
 _atom_site_fract_x
 _atom_site_fract_y
 _atom_site_fract_z
 _atom_site_occupancy
  Na  Na0  1  0.859440  0.047482  0.989064  1
  Na  Na1  1  0.140560  0.547482  0.510936  1
  Na  Na2  1  0.140560  0.952518  0.010936  1
  Na  Na3  1  0.859440  0.452518  0.489064  1
  Na  Na4  1  0.347103  0.419358  0.021932  1
  Na  Na5  1  0.652897  0.919358  0.478068  1
  Na  Na6  1  0.652897  0.580642  0.978068  1
  Na  Na7  1  0.347103  0.080642  0.521932  1
  Na  Na8  1  0.085053  0.455473  0.109878  1
  Na  Na9  1  0.914947  0.955473  0.390122  1
  Na  Na10  1  0.914947  0.544527  0.890122  1
  Na  Na11  1  0.085053  0.044527  0.609878  1
  Na  Na12  1  0.565785  0.091173  0.911310  1
  Na  Na13  1  0.434215  0.591173  0.588690  1
  Na  Na14  1  0.434215  0.908827  0.088690  1
  Na  Na15  1  0.565785  0.408827  0.411310  1
  Ga  Ga16  1  0.317719  0.717759  0.839797  1
  Ga  Ga17  1  0.682281  0.217759  0.660203  1
  Ga  Ga18  1  0.682281  0.282241  0.160203  1
  Ga  Ga19  1  0.317719  0.782241  0.339797  1
  Ga  Ga20  1  0.909557  0.211654  0.728406  1
  Ga  Ga21  1  0.090443  0.711654  0.771594  1
  Ga  Ga22  1  0.090443  0.788346  0.271594  1
  Ga  Ga23  1  0.909557  0.288346  0.228406  1
  Ga  Ga24  1  0.186778  0.239512  0.830807  1
  Ga  Ga25  1  0.813222  0.739512  0.669193  1
  Ga  Ga26  1  0.813222  0.760488  0.169193  1
  Ga  Ga27  1  0.186778  0.260488  0.330807  1
  Ga  Ga28  1  0.413361  0.238223  0.759098  1
  Ga  Ga29  1  0.586639  0.738223  0.740902  1
  Ga  Ga30  1  0.586639  0.761777  0.240902  1
  Ga  Ga31  1  0.413361  0.261777  0.259098  1
  As  As32  1  0.030489  0.035146  0.831461  1
  As  As33  1  0.969511  0.535146  0.668539  1
  As  As34  1  0.969511  0.964854  0.168539  1
  As  As35  1  0.030489  0.464854  0.331461  1
  As  As36  1  0.160085  0.551378  0.915311  1
  As  As37  1  0.839915  0.051378  0.584689  1
  As  As38  1  0.839915  0.448622  0.084689  1
  As  As39  1  0.160085  0.948622  0.415311  1
  As  As40  1  0.340283  0.056608  0.897638  1
  As  As41  1  0.659717  0.556608  0.602362  1
  As  As42  1  0.659717  0.943392  0.102362  1
  As  As43  1  0.340283  0.443392  0.397638  1
  As  As44  1  0.252133  0.163340  0.173300  1
  As  As45  1  0.747867  0.663340  0.326700  1
  As  As46  1  0.747867  0.836660  0.826700  1
  As  As47  1  0.252133  0.336660  0.673300  1
  As  As48  1  0.480228  0.530267  0.845047  1
  As  As49  1  0.519772  0.030267  0.654953  1
  As  As50  1  0.519772  0.469733  0.154953  1
  As  As51  1  0.480228  0.969733  0.345047  1
  As  As52  1  0.250322  0.794380  0.179168  1
  As  As53  1  0.749678  0.294380  0.320832  1
  As  As54  1  0.749678  0.205620  0.820832  1
  As  As55  1  0.250322  0.705620  0.679168  1
