# generated using pymatgen
data_Y(TiGa2)2
_symmetry_space_group_name_H-M   'P 1'
_cell_length_a   5.51417305
_cell_length_b   5.51417305
_cell_length_c   5.51417305
_cell_angle_alpha   104.32906078
_cell_angle_beta   104.32906078
_cell_angle_gamma   120.33261739
_symmetry_Int_Tables_number   1
_chemical_formula_structural   Y(TiGa2)2
_chemical_formula_sum   'Y1 Ti2 Ga4'
_cell_volume   125.53430269
_cell_formula_units_Z   1
loop_
 _symmetry_equiv_pos_site_id
 _symmetry_equiv_pos_as_xyz
  1  'x, y, z'
loop_
 _atom_site_type_symbol
 _atom_site_label
 _atom_site_symmetry_multiplicity
 _atom_site_fract_x
 _atom_site_fract_y
 _atom_site_fract_z
 _atom_site_occupancy
  Y  Y0  1  0.000000  0.000000  0.000000  1
  Ti  Ti1  1  0.750000  0.250000  0.500000  1
  Ti  Ti2  1  0.250000  0.750000  0.500000  1
  Ga  Ga3  1  0.303105  0.303105  0.606209  1
  Ga  Ga4  1  0.696895  0.303105  0.000000  1
  Ga  Ga5  1  0.303105  0.696895  0.000000  1
  Ga  Ga6  1  0.696895  0.696895  0.393791  1
