# generated using pymatgen
data_Sr6GaN5
_symmetry_space_group_name_H-M   'P 1'
_cell_length_a   6.71956488
_cell_length_b   6.71956488
_cell_length_c   13.09600675
_cell_angle_alpha   90.00000000
_cell_angle_beta   90.00000000
_cell_angle_gamma   120.00000000
_symmetry_Int_Tables_number   1
_chemical_formula_structural   Sr6GaN5
_chemical_formula_sum   'Sr12 Ga2 N10'
_cell_volume   512.09652074
_cell_formula_units_Z   2
loop_
 _symmetry_equiv_pos_site_id
 _symmetry_equiv_pos_as_xyz
  1  'x, y, z'
loop_
 _atom_site_type_symbol
 _atom_site_label
 _atom_site_symmetry_multiplicity
 _atom_site_fract_x
 _atom_site_fract_y
 _atom_site_fract_z
 _atom_site_occupancy
  Sr  Sr0  1  0.592368  0.592368  0.876360  1
  Sr  Sr1  1  0.407632  0.000000  0.876360  1
  Sr  Sr2  1  0.000000  0.407632  0.876360  1
  Sr  Sr3  1  0.000000  0.592368  0.376360  1
  Sr  Sr4  1  0.407632  0.000000  0.623640  1
  Sr  Sr5  1  0.407632  0.407632  0.376360  1
  Sr  Sr6  1  0.592368  0.000000  0.376360  1
  Sr  Sr7  1  0.407632  0.407632  0.123640  1
  Sr  Sr8  1  0.000000  0.592368  0.123640  1
  Sr  Sr9  1  0.000000  0.407632  0.623640  1
  Sr  Sr10  1  0.592368  0.592368  0.623640  1
  Sr  Sr11  1  0.592368  0.000000  0.123640  1
  Ga  Ga12  1  0.000000  0.000000  0.750000  1
  Ga  Ga13  1  0.000000  0.000000  0.250000  1
  N  N14  1  0.715018  0.000000  0.750000  1
  N  N15  1  0.715018  0.715018  0.250000  1
  N  N16  1  0.000000  0.284982  0.250000  1
  N  N17  1  0.000000  0.715018  0.750000  1
  N  N18  1  0.284982  0.284982  0.750000  1
  N  N19  1  0.333333  0.666667  0.000000  1
  N  N20  1  0.284982  0.000000  0.250000  1
  N  N21  1  0.666667  0.333333  0.000000  1
  N  N22  1  0.666667  0.333333  0.500000  1
  N  N23  1  0.333333  0.666667  0.500000  1
