# generated using pymatgen
data_Tl9Pd13
_symmetry_space_group_name_H-M   'P 1'
_cell_length_a   9.16591402
_cell_length_b   9.16591402
_cell_length_c   5.77193321
_cell_angle_alpha   90.00000000
_cell_angle_beta   90.00000000
_cell_angle_gamma   120.00000000
_symmetry_Int_Tables_number   1
_chemical_formula_structural   Tl9Pd13
_chemical_formula_sum   'Tl9 Pd13'
_cell_volume   419.95570636
_cell_formula_units_Z   1
loop_
 _symmetry_equiv_pos_site_id
 _symmetry_equiv_pos_as_xyz
  1  'x, y, z'
loop_
 _atom_site_type_symbol
 _atom_site_label
 _atom_site_symmetry_multiplicity
 _atom_site_fract_x
 _atom_site_fract_y
 _atom_site_fract_z
 _atom_site_occupancy
  Tl  Tl0  1  0.000000  0.000000  0.500000  1
  Tl  Tl1  1  0.333333  0.666667  0.749474  1
  Tl  Tl2  1  0.666667  0.333333  0.250526  1
  Tl  Tl3  1  0.192702  0.807298  0.246591  1
  Tl  Tl4  1  0.192702  0.385404  0.246591  1
  Tl  Tl5  1  0.614596  0.807298  0.246591  1
  Tl  Tl6  1  0.385404  0.192702  0.753409  1
  Tl  Tl7  1  0.807298  0.614596  0.753409  1
  Tl  Tl8  1  0.807298  0.192702  0.753409  1
  Pd  Pd9  1  0.000000  0.000000  0.000000  1
  Pd  Pd10  1  0.500000  0.000000  0.000000  1
  Pd  Pd11  1  0.000000  0.500000  0.000000  1
  Pd  Pd12  1  0.500000  0.500000  0.000000  1
  Pd  Pd13  1  0.500000  0.000000  0.500000  1
  Pd  Pd14  1  0.000000  0.500000  0.500000  1
  Pd  Pd15  1  0.500000  0.500000  0.500000  1
  Pd  Pd16  1  0.159577  0.840423  0.753078  1
  Pd  Pd17  1  0.159577  0.319154  0.753078  1
  Pd  Pd18  1  0.680846  0.840423  0.753078  1
  Pd  Pd19  1  0.319154  0.159577  0.246922  1
  Pd  Pd20  1  0.840423  0.680846  0.246922  1
  Pd  Pd21  1  0.840423  0.159577  0.246922  1
