# generated using pymatgen
data_Lu2Co3Si5
_symmetry_space_group_name_H-M   'P 1'
_cell_length_a   7.77434579
_cell_length_b   7.77434579
_cell_length_c   5.42930824
_cell_angle_alpha   71.06339619
_cell_angle_beta   108.93660381
_cell_angle_gamma   86.30059377
_symmetry_Int_Tables_number   1
_chemical_formula_structural   Lu2Co3Si5
_chemical_formula_sum   'Lu4 Co6 Si10'
_cell_volume   288.25269422
_cell_formula_units_Z   2
loop_
 _symmetry_equiv_pos_site_id
 _symmetry_equiv_pos_as_xyz
  1  'x, y, z'
loop_
 _atom_site_type_symbol
 _atom_site_label
 _atom_site_symmetry_multiplicity
 _atom_site_fract_x
 _atom_site_fract_y
 _atom_site_fract_z
 _atom_site_occupancy
  Lu  Lu0  1  0.594402  0.129790  0.735472  1
  Lu  Lu1  1  0.129790  0.594402  0.764528  1
  Lu  Lu2  1  0.405598  0.870210  0.264528  1
  Lu  Lu3  1  0.870210  0.405598  0.235472  1
  Co  Co4  1  0.996964  0.996964  0.750000  1
  Co  Co5  1  0.737781  0.541107  0.626028  1
  Co  Co6  1  0.458893  0.262219  0.126028  1
  Co  Co7  1  0.262219  0.458893  0.373972  1
  Co  Co8  1  0.003036  0.003036  0.250000  1
  Co  Co9  1  0.541107  0.737781  0.873972  1
  Si  Si10  1  0.772905  0.772905  0.250000  1
  Si  Si11  1  0.227095  0.227095  0.750000  1
  Si  Si12  1  0.511811  0.511811  0.250000  1
  Si  Si13  1  0.488189  0.488189  0.750000  1
  Si  Si14  1  0.212037  0.212037  0.250000  1
  Si  Si15  1  0.787963  0.787963  0.750000  1
  Si  Si16  1  0.068110  0.736229  0.166908  1
  Si  Si17  1  0.263771  0.931890  0.666908  1
  Si  Si18  1  0.931890  0.263771  0.833092  1
  Si  Si19  1  0.736229  0.068110  0.333092  1
