# generated using pymatgen
data_Tm2Al3Si2
_symmetry_space_group_name_H-M   'P 1'
_cell_length_a   5.42659300
_cell_length_b   5.42659300
_cell_length_c   6.57891800
_cell_angle_alpha   80.01896439
_cell_angle_beta   99.98103561
_cell_angle_gamma   136.73589022
_symmetry_Int_Tables_number   1
_chemical_formula_structural   Tm2Al3Si2
_chemical_formula_sum   'Tm2 Al3 Si2'
_cell_volume   130.45048897
_cell_formula_units_Z   1
loop_
 _symmetry_equiv_pos_site_id
 _symmetry_equiv_pos_as_xyz
  1  'x, y, z'
loop_
 _atom_site_type_symbol
 _atom_site_label
 _atom_site_symmetry_multiplicity
 _atom_site_fract_x
 _atom_site_fract_y
 _atom_site_fract_z
 _atom_site_occupancy
  Tm  Tm0  1  0.619334  0.380666  0.322924  1
  Tm  Tm1  1  0.380666  0.619334  0.677076  1
  Al  Al2  1  0.305110  0.694890  0.133134  1
  Al  Al3  1  0.000000  0.000000  0.000000  1
  Al  Al4  1  0.694890  0.305110  0.866866  1
  Si  Si5  1  0.093894  0.906106  0.639229  1
  Si  Si6  1  0.906106  0.093894  0.360771  1
