# generated using pymatgen
data_Na2Ge2Se5
_symmetry_space_group_name_H-M   'P 1'
_cell_length_a   6.27548566
_cell_length_b   11.33754940
_cell_length_c   14.42396361
_cell_angle_alpha   90.00000000
_cell_angle_beta   90.00000000
_cell_angle_gamma   90.00000000
_symmetry_Int_Tables_number   1
_chemical_formula_structural   Na2Ge2Se5
_chemical_formula_sum   'Na8 Ge8 Se20'
_cell_volume   1026.24523097
_cell_formula_units_Z   4
loop_
 _symmetry_equiv_pos_site_id
 _symmetry_equiv_pos_as_xyz
  1  'x, y, z'
loop_
 _atom_site_type_symbol
 _atom_site_label
 _atom_site_symmetry_multiplicity
 _atom_site_fract_x
 _atom_site_fract_y
 _atom_site_fract_z
 _atom_site_occupancy
  Na  Na0  1  0.992801  0.494073  0.056669  1
  Na  Na1  1  0.007199  0.994073  0.943331  1
  Na  Na2  1  0.507199  0.494073  0.556669  1
  Na  Na3  1  0.492801  0.994073  0.443331  1
  Na  Na4  1  0.997136  0.249581  0.462711  1
  Na  Na5  1  0.002864  0.749581  0.537289  1
  Na  Na6  1  0.502864  0.249581  0.962711  1
  Na  Na7  1  0.497136  0.749581  0.037289  1
  Ge  Ge8  1  0.532861  0.394070  0.205135  1
  Ge  Ge9  1  0.467139  0.894070  0.794865  1
  Ge  Ge10  1  0.967139  0.394070  0.705135  1
  Ge  Ge11  1  0.032861  0.894070  0.294865  1
  Ge  Ge12  1  0.041060  0.201334  0.155006  1
  Ge  Ge13  1  0.958940  0.701334  0.844994  1
  Ge  Ge14  1  0.458940  0.201334  0.655006  1
  Ge  Ge15  1  0.541060  0.701334  0.344994  1
  Se  Se16  1  0.394440  0.504243  0.335692  1
  Se  Se17  1  0.605560  0.004243  0.664308  1
  Se  Se18  1  0.105560  0.504243  0.835692  1
  Se  Se19  1  0.894440  0.004243  0.164308  1
  Se  Se20  1  0.899290  0.693501  0.284079  1
  Se  Se21  1  0.100710  0.193501  0.715921  1
  Se  Se22  1  0.600710  0.693501  0.784079  1
  Se  Se23  1  0.399290  0.193501  0.215921  1
  Se  Se24  1  0.397517  0.854277  0.244500  1
  Se  Se25  1  0.602483  0.354277  0.755500  1
  Se  Se26  1  0.102483  0.854277  0.744500  1
  Se  Se27  1  0.897517  0.354277  0.255500  1
  Se  Se28  1  0.502087  0.743565  0.501690  1
  Se  Se29  1  0.497913  0.243565  0.498310  1
  Se  Se30  1  0.997913  0.743565  0.001690  1
  Se  Se31  1  0.002087  0.243565  0.998310  1
  Se  Se32  1  0.496040  0.482556  0.061419  1
  Se  Se33  1  0.503960  0.982556  0.938581  1
  Se  Se34  1  0.003960  0.482556  0.561419  1
  Se  Se35  1  0.996040  0.982556  0.438581  1
