# generated using pymatgen
data_CsBaLiP2O7
_symmetry_space_group_name_H-M   'P 1'
_cell_length_a   7.18070788
_cell_length_b   10.98438666
_cell_length_c   10.88136577
_cell_angle_alpha   90.00000000
_cell_angle_beta   105.56181202
_cell_angle_gamma   90.00000000
_symmetry_Int_Tables_number   1
_chemical_formula_structural   CsBaLiP2O7
_chemical_formula_sum   'Cs4 Ba4 Li4 P8 O28'
_cell_volume   826.81203735
_cell_formula_units_Z   4
loop_
 _symmetry_equiv_pos_site_id
 _symmetry_equiv_pos_as_xyz
  1  'x, y, z'
loop_
 _atom_site_type_symbol
 _atom_site_label
 _atom_site_symmetry_multiplicity
 _atom_site_fract_x
 _atom_site_fract_y
 _atom_site_fract_z
 _atom_site_occupancy
  Cs  Cs0  1  0.751218  0.327701  0.495786  1
  Cs  Cs1  1  0.248782  0.827701  0.004214  1
  Cs  Cs2  1  0.248782  0.672299  0.504214  1
  Cs  Cs3  1  0.751218  0.172299  0.995786  1
  Ba  Ba4  1  0.805980  0.942555  0.622559  1
  Ba  Ba5  1  0.194020  0.442555  0.877441  1
  Ba  Ba6  1  0.194020  0.057445  0.377441  1
  Ba  Ba7  1  0.805980  0.557445  0.122559  1
  Li  Li8  1  0.665606  0.758956  0.859338  1
  Li  Li9  1  0.334394  0.258956  0.640662  1
  Li  Li10  1  0.334394  0.241044  0.140662  1
  Li  Li11  1  0.665606  0.741044  0.359338  1
  P  P12  1  0.377313  0.984998  0.697008  1
  P  P13  1  0.622687  0.484998  0.802992  1
  P  P14  1  0.622687  0.015002  0.302992  1
  P  P15  1  0.377313  0.515002  0.197008  1
  P  P16  1  0.838805  0.635831  0.663678  1
  P  P17  1  0.161195  0.135831  0.836322  1
  P  P18  1  0.161195  0.364169  0.336322  1
  P  P19  1  0.838805  0.864169  0.163678  1
  O  O20  1  0.656221  0.545783  0.672815  1
  O  O21  1  0.343779  0.045783  0.827185  1
  O  O22  1  0.343779  0.454217  0.327185  1
  O  O23  1  0.656221  0.954217  0.172815  1
  O  O24  1  0.464786  0.085996  0.630309  1
  O  O25  1  0.535214  0.585996  0.869691  1
  O  O26  1  0.535214  0.914004  0.369691  1
  O  O27  1  0.464786  0.414004  0.130309  1
  O  O28  1  0.181842  0.941967  0.611345  1
  O  O29  1  0.818158  0.441967  0.888655  1
  O  O30  1  0.818158  0.058033  0.388655  1
  O  O31  1  0.181842  0.558033  0.111345  1
  O  O32  1  0.879844  0.721323  0.779697  1
  O  O33  1  0.120156  0.221323  0.720303  1
  O  O34  1  0.120156  0.278677  0.220303  1
  O  O35  1  0.879844  0.778677  0.279697  1
  O  O36  1  0.520181  0.881434  0.744429  1
  O  O37  1  0.479819  0.381434  0.755571  1
  O  O38  1  0.479819  0.118566  0.255571  1
  O  O39  1  0.520181  0.618566  0.244429  1
  O  O40  1  0.757911  0.705985  0.539132  1
  O  O41  1  0.242089  0.205985  0.960868  1
  O  O42  1  0.242089  0.294015  0.460868  1
  O  O43  1  0.757911  0.794015  0.039132  1
  O  O44  1  0.005038  0.550579  0.661241  1
  O  O45  1  0.994962  0.050579  0.838759  1
  O  O46  1  0.994962  0.449421  0.338759  1
  O  O47  1  0.005038  0.949421  0.161241  1
