# generated using pymatgen
data_AgRuF7
_symmetry_space_group_name_H-M   'P 1'
_cell_length_a   8.61592916
_cell_length_b   5.66735865
_cell_length_c   12.74366999
_cell_angle_alpha   90.00000000
_cell_angle_beta   111.39366592
_cell_angle_gamma   90.00000000
_symmetry_Int_Tables_number   1
_chemical_formula_structural   AgRuF7
_chemical_formula_sum   'Ag4 Ru4 F28'
_cell_volume   579.39115768
_cell_formula_units_Z   4
loop_
 _symmetry_equiv_pos_site_id
 _symmetry_equiv_pos_as_xyz
  1  'x, y, z'
loop_
 _atom_site_type_symbol
 _atom_site_label
 _atom_site_symmetry_multiplicity
 _atom_site_fract_x
 _atom_site_fract_y
 _atom_site_fract_z
 _atom_site_occupancy
  Ag  Ag0  1  0.860499  0.289722  0.289802  1
  Ag  Ag1  1  0.139501  0.789722  0.210198  1
  Ag  Ag2  1  0.139501  0.710278  0.710198  1
  Ag  Ag3  1  0.860499  0.210278  0.789802  1
  Ru  Ru4  1  0.288680  0.209159  0.563815  1
  Ru  Ru5  1  0.711320  0.709159  0.936185  1
  Ru  Ru6  1  0.711320  0.790841  0.436185  1
  Ru  Ru7  1  0.288680  0.290841  0.063815  1
  F  F8  1  0.981203  0.581143  0.260150  1
  F  F9  1  0.018797  0.081143  0.239850  1
  F  F10  1  0.018797  0.418857  0.739850  1
  F  F11  1  0.981203  0.918857  0.760150  1
  F  F12  1  0.314487  0.382806  0.447315  1
  F  F13  1  0.685513  0.882806  0.052685  1
  F  F14  1  0.685513  0.617194  0.552685  1
  F  F15  1  0.314487  0.117194  0.947315  1
  F  F16  1  0.261803  0.462813  0.189157  1
  F  F17  1  0.738197  0.962813  0.310843  1
  F  F18  1  0.738197  0.537187  0.810843  1
  F  F19  1  0.261803  0.037187  0.689157  1
  F  F20  1  0.303435  0.001054  0.150017  1
  F  F21  1  0.696565  0.501054  0.349983  1
  F  F22  1  0.696565  0.998946  0.849983  1
  F  F23  1  0.303435  0.498946  0.650017  1
  F  F24  1  0.053704  0.249486  0.998956  1
  F  F25  1  0.946296  0.749486  0.501044  1
  F  F26  1  0.946296  0.750514  0.001044  1
  F  F27  1  0.053704  0.250514  0.498956  1
  F  F28  1  0.520613  0.324787  0.134951  1
  F  F29  1  0.479387  0.824787  0.365049  1
  F  F30  1  0.479387  0.675213  0.865049  1
  F  F31  1  0.520613  0.175213  0.634951  1
  F  F32  1  0.271577  0.574043  0.986094  1
  F  F33  1  0.728423  0.074043  0.513906  1
  F  F34  1  0.728423  0.425957  0.013906  1
  F  F35  1  0.271577  0.925957  0.486094  1
