# generated using pymatgen
data_BaNd2MnS5
_symmetry_space_group_name_H-M   'P 1'
_cell_length_a   8.87166076
_cell_length_b   8.87166076
_cell_length_c   8.87166076
_cell_angle_alpha   126.95044129
_cell_angle_beta   126.95044129
_cell_angle_gamma   78.33155222
_symmetry_Int_Tables_number   1
_chemical_formula_structural   BaNd2MnS5
_chemical_formula_sum   'Ba2 Nd4 Mn2 S10'
_cell_volume   431.88160729
_cell_formula_units_Z   2
loop_
 _symmetry_equiv_pos_site_id
 _symmetry_equiv_pos_as_xyz
  1  'x, y, z'
loop_
 _atom_site_type_symbol
 _atom_site_label
 _atom_site_symmetry_multiplicity
 _atom_site_fract_x
 _atom_site_fract_y
 _atom_site_fract_z
 _atom_site_occupancy
  Ba  Ba0  1  0.750000  0.750000  0.000000  1
  Ba  Ba1  1  0.250000  0.250000  0.000000  1
  Nd  Nd2  1  0.838114  0.661886  0.500000  1
  Nd  Nd3  1  0.661886  0.161886  0.823772  1
  Nd  Nd4  1  0.338114  0.838114  0.176228  1
  Nd  Nd5  1  0.161886  0.338114  0.500000  1
  Mn  Mn6  1  0.250000  0.750000  0.500000  1
  Mn  Mn7  1  0.750000  0.250000  0.500000  1
  S  S8  1  0.983054  0.483054  0.199808  1
  S  S9  1  0.716754  0.216754  0.199808  1
  S  S10  1  0.016946  0.516946  0.800192  1
  S  S11  1  0.516946  0.716754  0.500000  1
  S  S12  1  0.216754  0.016946  0.500000  1
  S  S13  1  0.483054  0.283246  0.500000  1
  S  S14  1  0.783246  0.983054  0.500000  1
  S  S15  1  0.283246  0.783246  0.800192  1
  S  S16  1  0.000000  0.000000  0.000000  1
  S  S17  1  0.500000  0.500000  0.000000  1
