# generated using pymatgen
data_Tb3Fe5O12
_symmetry_space_group_name_H-M   'P 1'
_cell_length_a   10.88814592
_cell_length_b   10.88814592
_cell_length_c   10.88814592
_cell_angle_alpha   109.47122063
_cell_angle_beta   109.47122063
_cell_angle_gamma   109.47122063
_symmetry_Int_Tables_number   1
_chemical_formula_structural   Tb3Fe5O12
_chemical_formula_sum   'Tb12 Fe20 O48'
_cell_volume   993.66480285
_cell_formula_units_Z   4
loop_
 _symmetry_equiv_pos_site_id
 _symmetry_equiv_pos_as_xyz
  1  'x, y, z'
loop_
 _atom_site_type_symbol
 _atom_site_label
 _atom_site_symmetry_multiplicity
 _atom_site_fract_x
 _atom_site_fract_y
 _atom_site_fract_z
 _atom_site_occupancy
  Tb  Tb0  1  0.750000  0.625000  0.875000  1
  Tb  Tb1  1  0.875000  0.750000  0.625000  1
  Tb  Tb2  1  0.625000  0.875000  0.750000  1
  Tb  Tb3  1  0.250000  0.375000  0.125000  1
  Tb  Tb4  1  0.125000  0.250000  0.375000  1
  Tb  Tb5  1  0.375000  0.125000  0.250000  1
  Tb  Tb6  1  0.750000  0.125000  0.375000  1
  Tb  Tb7  1  0.375000  0.750000  0.125000  1
  Tb  Tb8  1  0.125000  0.375000  0.750000  1
  Tb  Tb9  1  0.250000  0.875000  0.625000  1
  Tb  Tb10  1  0.625000  0.250000  0.875000  1
  Tb  Tb11  1  0.875000  0.625000  0.250000  1
  Fe  Fe12  1  1.000000  1.000000  0.000000  1
  Fe  Fe13  1  0.500000  0.500000  0.500000  1
  Fe  Fe14  1  0.500000  1.000000  0.500000  1
  Fe  Fe15  1  0.500000  0.500000  0.000000  1
  Fe  Fe16  1  1.000000  0.500000  0.500000  1
  Fe  Fe17  1  1.000000  0.500000  0.000000  1
  Fe  Fe18  1  1.000000  1.000000  0.500000  1
  Fe  Fe19  1  0.500000  1.000000  0.000000  1
  Fe  Fe20  1  0.750000  0.375000  0.625000  1
  Fe  Fe21  1  0.625000  0.750000  0.375000  1
  Fe  Fe22  1  0.375000  0.625000  0.750000  1
  Fe  Fe23  1  0.250000  0.625000  0.375000  1
  Fe  Fe24  1  0.375000  0.250000  0.625000  1
  Fe  Fe25  1  0.625000  0.375000  0.250000  1
  Fe  Fe26  1  0.250000  0.125000  0.875000  1
  Fe  Fe27  1  0.875000  0.250000  0.125000  1
  Fe  Fe28  1  0.125000  0.875000  0.250000  1
  Fe  Fe29  1  0.750000  0.875000  0.125000  1
  Fe  Fe30  1  0.125000  0.750000  0.875000  1
  Fe  Fe31  1  0.875000  0.125000  0.750000  1
  O  O32  1  0.969109  0.793297  0.874941  1
  O  O33  1  0.874941  0.969109  0.793297  1
  O  O34  1  0.793297  0.874941  0.969109  1
  O  O35  1  0.030891  0.206703  0.125059  1
  O  O36  1  0.125059  0.030891  0.206703  1
  O  O37  1  0.206703  0.125059  0.030891  1
  O  O38  1  0.793297  0.418356  0.824187  1
  O  O39  1  0.824187  0.793297  0.418356  1
  O  O40  1  0.418356  0.824187  0.793297  1
  O  O41  1  0.206703  0.581644  0.175813  1
  O  O42  1  0.175813  0.206703  0.581644  1
  O  O43  1  0.581644  0.175813  0.206703  1
  O  O44  1  0.081644  0.874941  0.405831  1
  O  O45  1  0.405831  0.081644  0.874941  1
  O  O46  1  0.874941  0.405831  0.081644  1
  O  O47  1  0.918356  0.125059  0.594169  1
  O  O48  1  0.594169  0.918356  0.125059  1
  O  O49  1  0.125059  0.594169  0.918356  1
  O  O50  1  0.675813  0.094169  0.969109  1
  O  O51  1  0.969109  0.675813  0.094169  1
  O  O52  1  0.094169  0.969109  0.675813  1
  O  O53  1  0.324187  0.905831  0.030891  1
  O  O54  1  0.030891  0.324187  0.905831  1
  O  O55  1  0.905831  0.030891  0.324187  1
  O  O56  1  0.530891  0.625059  0.706703  1
  O  O57  1  0.706703  0.530891  0.625059  1
  O  O58  1  0.625059  0.706703  0.530891  1
  O  O59  1  0.469109  0.374941  0.293297  1
  O  O60  1  0.293297  0.469109  0.374941  1
  O  O61  1  0.374941  0.293297  0.469109  1
  O  O62  1  0.706703  0.675813  0.081644  1
  O  O63  1  0.081644  0.706703  0.675813  1
  O  O64  1  0.675813  0.081644  0.706703  1
  O  O65  1  0.293297  0.324187  0.918356  1
  O  O66  1  0.918356  0.293297  0.324187  1
  O  O67  1  0.324187  0.918356  0.293297  1
  O  O68  1  0.418356  0.094169  0.625059  1
  O  O69  1  0.625059  0.418356  0.094169  1
  O  O70  1  0.094169  0.625059  0.418356  1
  O  O71  1  0.581644  0.905831  0.374941  1
  O  O72  1  0.374941  0.581644  0.905831  1
  O  O73  1  0.905831  0.374941  0.581644  1
  O  O74  1  0.824187  0.530891  0.405831  1
  O  O75  1  0.405831  0.824187  0.530891  1
  O  O76  1  0.530891  0.405831  0.824187  1
  O  O77  1  0.175813  0.469109  0.594169  1
  O  O78  1  0.594169  0.175813  0.469109  1
  O  O79  1  0.469109  0.594169  0.175813  1
