# generated using pymatgen
data_Sm2O3
_symmetry_space_group_name_H-M   'P 1'
_cell_length_a   7.42279066
_cell_length_b   7.42279066
_cell_length_c   8.91731010
_cell_angle_alpha   80.05886135
_cell_angle_beta   99.94113865
_cell_angle_gamma   151.69236549
_symmetry_Int_Tables_number   1
_chemical_formula_structural   Sm2O3
_chemical_formula_sum   'Sm6 O9'
_cell_volume   229.26627217
_cell_formula_units_Z   3
loop_
 _symmetry_equiv_pos_site_id
 _symmetry_equiv_pos_as_xyz
  1  'x, y, z'
loop_
 _atom_site_type_symbol
 _atom_site_label
 _atom_site_symmetry_multiplicity
 _atom_site_fract_x
 _atom_site_fract_y
 _atom_site_fract_z
 _atom_site_occupancy
  Sm  Sm0  1  0.967354  0.032646  0.187206  1
  Sm  Sm1  1  0.032646  0.967354  0.812794  1
  Sm  Sm2  1  0.691168  0.308832  0.137730  1
  Sm  Sm3  1  0.308832  0.691168  0.862270  1
  Sm  Sm4  1  0.634668  0.365332  0.488802  1
  Sm  Sm5  1  0.365332  0.634668  0.511198  1
  O  O6  1  0.500000  0.500000  0.000000  1
  O  O7  1  0.472521  0.527479  0.343664  1
  O  O8  1  0.527479  0.472521  0.656336  1
  O  O9  1  0.795702  0.204298  0.375572  1
  O  O10  1  0.204298  0.795702  0.624428  1
  O  O11  1  0.824864  0.175136  0.028448  1
  O  O12  1  0.871379  0.128621  0.716452  1
  O  O13  1  0.128621  0.871379  0.283548  1
  O  O14  1  0.175136  0.824864  0.971552  1
