# generated using pymatgen
data_Nd7Co3
_symmetry_space_group_name_H-M   'P 1'
_cell_length_a   9.82190862
_cell_length_b   9.82190862
_cell_length_c   6.31341393
_cell_angle_alpha   90.00000000
_cell_angle_beta   90.00000000
_cell_angle_gamma   120.00000000
_symmetry_Int_Tables_number   1
_chemical_formula_structural   Nd7Co3
_chemical_formula_sum   'Nd14 Co6'
_cell_volume   527.45653138
_cell_formula_units_Z   2
loop_
 _symmetry_equiv_pos_site_id
 _symmetry_equiv_pos_as_xyz
  1  'x, y, z'
loop_
 _atom_site_type_symbol
 _atom_site_label
 _atom_site_symmetry_multiplicity
 _atom_site_fract_x
 _atom_site_fract_y
 _atom_site_fract_z
 _atom_site_occupancy
  Nd  Nd0  1  0.333333  0.666667  0.016738  1
  Nd  Nd1  1  0.666667  0.333333  0.516738  1
  Nd  Nd2  1  0.539492  0.460508  0.059243  1
  Nd  Nd3  1  0.460508  0.539492  0.559243  1
  Nd  Nd4  1  0.539492  0.078984  0.059243  1
  Nd  Nd5  1  0.921016  0.460508  0.059243  1
  Nd  Nd6  1  0.078984  0.539492  0.559243  1
  Nd  Nd7  1  0.460508  0.921016  0.559243  1
  Nd  Nd8  1  0.125793  0.874207  0.246267  1
  Nd  Nd9  1  0.874207  0.125793  0.746267  1
  Nd  Nd10  1  0.125793  0.251585  0.246267  1
  Nd  Nd11  1  0.748415  0.874207  0.246267  1
  Nd  Nd12  1  0.251585  0.125793  0.746267  1
  Nd  Nd13  1  0.874207  0.748415  0.746267  1
  Co  Co14  1  0.812751  0.187249  0.298736  1
  Co  Co15  1  0.187249  0.812751  0.798736  1
  Co  Co16  1  0.812751  0.625502  0.298736  1
  Co  Co17  1  0.374498  0.187249  0.298736  1
  Co  Co18  1  0.625502  0.812751  0.798736  1
  Co  Co19  1  0.187249  0.374498  0.798736  1
