# generated using pymatgen
data_Na3Ge3(MoO6)2
_symmetry_space_group_name_H-M   'P 1'
_cell_length_a   10.91243645
_cell_length_b   10.91243645
_cell_length_c   10.91243645
_cell_angle_alpha   109.47122063
_cell_angle_beta   109.47122063
_cell_angle_gamma   109.47122063
_symmetry_Int_Tables_number   1
_chemical_formula_structural   Na3Ge3(MoO6)2
_chemical_formula_sum   'Na12 Ge12 Mo8 O48'
_cell_volume   1000.32999548
_cell_formula_units_Z   4
loop_
 _symmetry_equiv_pos_site_id
 _symmetry_equiv_pos_as_xyz
  1  'x, y, z'
loop_
 _atom_site_type_symbol
 _atom_site_label
 _atom_site_symmetry_multiplicity
 _atom_site_fract_x
 _atom_site_fract_y
 _atom_site_fract_z
 _atom_site_occupancy
  Na  Na0  1  0.625000  0.250000  0.875000  1
  Na  Na1  1  0.875000  0.750000  0.625000  1
  Na  Na2  1  0.750000  0.625000  0.875000  1
  Na  Na3  1  0.250000  0.875000  0.625000  1
  Na  Na4  1  0.875000  0.625000  0.250000  1
  Na  Na5  1  0.625000  0.875000  0.750000  1
  Na  Na6  1  0.375000  0.750000  0.125000  1
  Na  Na7  1  0.125000  0.250000  0.375000  1
  Na  Na8  1  0.250000  0.375000  0.125000  1
  Na  Na9  1  0.750000  0.125000  0.375000  1
  Na  Na10  1  0.125000  0.375000  0.750000  1
  Na  Na11  1  0.375000  0.125000  0.250000  1
  Ge  Ge12  1  0.875000  0.125000  0.750000  1
  Ge  Ge13  1  0.125000  0.875000  0.250000  1
  Ge  Ge14  1  0.250000  0.625000  0.375000  1
  Ge  Ge15  1  0.125000  0.750000  0.875000  1
  Ge  Ge16  1  0.750000  0.875000  0.125000  1
  Ge  Ge17  1  0.375000  0.250000  0.625000  1
  Ge  Ge18  1  0.625000  0.750000  0.375000  1
  Ge  Ge19  1  0.875000  0.250000  0.125000  1
  Ge  Ge20  1  0.250000  0.125000  0.875000  1
  Ge  Ge21  1  0.750000  0.375000  0.625000  1
  Ge  Ge22  1  0.375000  0.625000  0.750000  1
  Ge  Ge23  1  0.625000  0.375000  0.250000  1
  Mo  Mo24  1  0.500000  0.500000  0.500000  1
  Mo  Mo25  1  0.500000  0.500000  0.000000  1
  Mo  Mo26  1  0.500000  1.000000  0.500000  1
  Mo  Mo27  1  1.000000  0.500000  0.500000  1
  Mo  Mo28  1  0.500000  1.000000  0.000000  1
  Mo  Mo29  1  1.000000  1.000000  0.500000  1
  Mo  Mo30  1  1.000000  0.500000  0.000000  1
  Mo  Mo31  1  0.000000  0.000000  0.000000  1
  O  O32  1  0.804599  0.419554  0.814159  1
  O  O33  1  0.080446  0.885045  0.394605  1
  O  O34  1  0.685841  0.105395  0.990440  1
  O  O35  1  0.695401  0.509560  0.614955  1
  O  O36  1  0.695401  0.685841  0.080446  1
  O  O37  1  0.509560  0.614955  0.695401  1
  O  O38  1  0.105395  0.614955  0.419554  1
  O  O39  1  0.614955  0.695401  0.509560  1
  O  O40  1  0.394605  0.814159  0.509560  1
  O  O41  1  0.885045  0.990440  0.804599  1
  O  O42  1  0.990440  0.804599  0.885045  1
  O  O43  1  0.080446  0.695401  0.685841  1
  O  O44  1  0.614955  0.419554  0.105395  1
  O  O45  1  0.509560  0.394605  0.814159  1
  O  O46  1  0.685841  0.080446  0.695401  1
  O  O47  1  0.419554  0.105395  0.614955  1
  O  O48  1  0.814159  0.509560  0.394605  1
  O  O49  1  0.394605  0.080446  0.885045  1
  O  O50  1  0.105395  0.990440  0.685841  1
  O  O51  1  0.605395  0.185841  0.490440  1
  O  O52  1  0.990440  0.685841  0.105395  1
  O  O53  1  0.814159  0.804599  0.419554  1
  O  O54  1  0.885045  0.394605  0.080446  1
  O  O55  1  0.804599  0.885045  0.990440  1
  O  O56  1  0.195401  0.580446  0.185841  1
  O  O57  1  0.919554  0.114955  0.605395  1
  O  O58  1  0.314159  0.894605  0.009560  1
  O  O59  1  0.304599  0.490440  0.385045  1
  O  O60  1  0.304599  0.314159  0.919554  1
  O  O61  1  0.490440  0.385045  0.304599  1
  O  O62  1  0.894605  0.385045  0.580446  1
  O  O63  1  0.385045  0.304599  0.490440  1
  O  O64  1  0.195401  0.114955  0.009560  1
  O  O65  1  0.114955  0.605395  0.919554  1
  O  O66  1  0.185841  0.195401  0.580446  1
  O  O67  1  0.580446  0.185841  0.195401  1
  O  O68  1  0.009560  0.314159  0.894605  1
  O  O69  1  0.894605  0.009560  0.314159  1
  O  O70  1  0.605395  0.919554  0.114955  1
  O  O71  1  0.185841  0.490440  0.605395  1
  O  O72  1  0.580446  0.894605  0.385045  1
  O  O73  1  0.314159  0.919554  0.304599  1
  O  O74  1  0.490440  0.605395  0.185841  1
  O  O75  1  0.385045  0.580446  0.894605  1
  O  O76  1  0.919554  0.304599  0.314159  1
  O  O77  1  0.009560  0.195401  0.114955  1
  O  O78  1  0.114955  0.009560  0.195401  1
  O  O79  1  0.419554  0.814159  0.804599  1
