# generated using pymatgen
data_NdGeAu
_symmetry_space_group_name_H-M   'P 1'
_cell_length_a   4.51209017
_cell_length_b   4.51209017
_cell_length_c   7.87416992
_cell_angle_alpha   90.00000000
_cell_angle_beta   90.00000000
_cell_angle_gamma   120.00000000
_symmetry_Int_Tables_number   1
_chemical_formula_structural   NdGeAu
_chemical_formula_sum   'Nd2 Ge2 Au2'
_cell_volume   138.83243900
_cell_formula_units_Z   2
loop_
 _symmetry_equiv_pos_site_id
 _symmetry_equiv_pos_as_xyz
  1  'x, y, z'
loop_
 _atom_site_type_symbol
 _atom_site_label
 _atom_site_symmetry_multiplicity
 _atom_site_fract_x
 _atom_site_fract_y
 _atom_site_fract_z
 _atom_site_occupancy
  Nd  Nd0  1  0.000000  0.000000  0.751485  1
  Nd  Nd1  1  0.000000  0.000000  0.251485  1
  Ge  Ge2  1  0.666667  0.333333  0.969386  1
  Ge  Ge3  1  0.333333  0.666667  0.469386  1
  Au  Au4  1  0.666667  0.333333  0.519129  1
  Au  Au5  1  0.333333  0.666667  0.019129  1
