# generated using pymatgen
data_MgSiO3
_symmetry_space_group_name_H-M   'P 1'
_cell_length_a   5.25605956
_cell_length_b   8.98205496
_cell_length_c   18.53142235
_cell_angle_alpha   90.00000000
_cell_angle_beta   90.22504054
_cell_angle_gamma   90.00000000
_symmetry_Int_Tables_number   1
_chemical_formula_structural   MgSiO3
_chemical_formula_sum   'Mg16 Si16 O48'
_cell_volume   874.86570127
_cell_formula_units_Z   16
loop_
 _symmetry_equiv_pos_site_id
 _symmetry_equiv_pos_as_xyz
  1  'x, y, z'
loop_
 _atom_site_type_symbol
 _atom_site_label
 _atom_site_symmetry_multiplicity
 _atom_site_fract_x
 _atom_site_fract_y
 _atom_site_fract_z
 _atom_site_occupancy
  Mg  Mg0  1  0.929242  0.848760  0.874264  1
  Mg  Mg1  1  0.570758  0.348760  0.125736  1
  Mg  Mg2  1  0.070758  0.151240  0.125736  1
  Mg  Mg3  1  0.429242  0.651240  0.874264  1
  Mg  Mg4  1  0.930504  0.490967  0.874238  1
  Mg  Mg5  1  0.569496  0.990967  0.125762  1
  Mg  Mg6  1  0.069496  0.509033  0.125762  1
  Mg  Mg7  1  0.430504  0.009033  0.874238  1
  Mg  Mg8  1  0.633200  0.848722  0.374613  1
  Mg  Mg9  1  0.866800  0.348722  0.625387  1
  Mg  Mg10  1  0.366800  0.151278  0.625387  1
  Mg  Mg11  1  0.133200  0.651278  0.374613  1
  Mg  Mg12  1  0.635515  0.490978  0.379406  1
  Mg  Mg13  1  0.864485  0.990978  0.620594  1
  Mg  Mg14  1  0.364485  0.509022  0.620594  1
  Mg  Mg15  1  0.135515  0.009022  0.379406  1
  Si  Si16  1  0.232324  0.339623  0.977167  1
  Si  Si17  1  0.267676  0.839623  0.022833  1
  Si  Si18  1  0.767676  0.660377  0.022833  1
  Si  Si19  1  0.732324  0.160377  0.977167  1
  Si  Si20  1  0.416233  0.161313  0.273745  1
  Si  Si21  1  0.083767  0.661313  0.726255  1
  Si  Si22  1  0.583767  0.838687  0.726255  1
  Si  Si23  1  0.916233  0.338687  0.273745  1
  Si  Si24  1  0.976620  0.838748  0.227551  1
  Si  Si25  1  0.523380  0.338748  0.772449  1
  Si  Si26  1  0.023380  0.161252  0.772449  1
  Si  Si27  1  0.476620  0.661252  0.227551  1
  Si  Si28  1  0.197597  0.336408  0.473946  1
  Si  Si29  1  0.302403  0.836408  0.526054  1
  Si  Si30  1  0.802403  0.663592  0.526054  1
  Si  Si31  1  0.697597  0.163592  0.473946  1
  O  O32  1  0.239861  0.339937  0.065196  1
  O  O33  1  0.260139  0.839937  0.934804  1
  O  O34  1  0.760139  0.660063  0.934804  1
  O  O35  1  0.739861  0.160063  0.065196  1
  O  O36  1  0.251482  0.497142  0.936582  1
  O  O37  1  0.248518  0.997142  0.063418  1
  O  O38  1  0.748518  0.502858  0.063418  1
  O  O39  1  0.751482  0.002858  0.936582  1
  O  O40  1  0.446833  0.218013  0.946906  1
  O  O41  1  0.053167  0.718013  0.053094  1
  O  O42  1  0.553167  0.781987  0.053094  1
  O  O43  1  0.946833  0.281987  0.946906  1
  O  O44  1  0.410698  0.162007  0.185501  1
  O  O45  1  0.089302  0.662007  0.814499  1
  O  O46  1  0.589302  0.837993  0.814499  1
  O  O47  1  0.910698  0.337993  0.185501  1
  O  O48  1  0.447790  0.005341  0.314434  1
  O  O49  1  0.052210  0.505341  0.685566  1
  O  O50  1  0.552210  0.994659  0.685566  1
  O  O51  1  0.947790  0.494659  0.314434  1
  O  O52  1  0.126835  0.213416  0.303069  1
  O  O53  1  0.373165  0.713416  0.696931  1
  O  O54  1  0.873165  0.786584  0.696931  1
  O  O55  1  0.626835  0.286584  0.303069  1
  O  O56  1  0.968709  0.841707  0.316088  1
  O  O57  1  0.531291  0.341707  0.683912  1
  O  O58  1  0.031291  0.158293  0.683912  1
  O  O59  1  0.468709  0.658293  0.316088  1
  O  O60  1  0.888480  0.987993  0.185514  1
  O  O61  1  0.611520  0.487993  0.814486  1
  O  O62  1  0.111520  0.012007  0.814486  1
  O  O63  1  0.388480  0.512007  0.185514  1
  O  O64  1  0.269998  0.792979  0.200520  1
  O  O65  1  0.230002  0.292979  0.799480  1
  O  O66  1  0.730002  0.207021  0.799480  1
  O  O67  1  0.769998  0.707021  0.200520  1
  O  O68  1  0.198134  0.338816  0.562416  1
  O  O69  1  0.301866  0.838816  0.437584  1
  O  O70  1  0.801866  0.661184  0.437584  1
  O  O71  1  0.698134  0.161184  0.562416  1
  O  O72  1  0.305593  0.481622  0.433354  1
  O  O73  1  0.194407  0.981622  0.566646  1
  O  O74  1  0.694407  0.518378  0.566646  1
  O  O75  1  0.805593  0.018378  0.433354  1
  O  O76  1  0.393040  0.196270  0.448253  1
  O  O77  1  0.106960  0.696270  0.551747  1
  O  O78  1  0.606960  0.803730  0.551747  1
  O  O79  1  0.893040  0.303730  0.448253  1
