# generated using pymatgen
data_Cs2NaTiF6
_symmetry_space_group_name_H-M   'P 1'
_cell_length_a   11.09355201
_cell_length_b   11.09355201
_cell_length_c   11.09355201
_cell_angle_alpha   33.45975728
_cell_angle_beta   33.45975728
_cell_angle_gamma   33.45975728
_symmetry_Int_Tables_number   1
_chemical_formula_structural   Cs2NaTiF6
_chemical_formula_sum   'Cs4 Na2 Ti2 F12'
_cell_volume   369.60837295
_cell_formula_units_Z   2
loop_
 _symmetry_equiv_pos_site_id
 _symmetry_equiv_pos_as_xyz
  1  'x, y, z'
loop_
 _atom_site_type_symbol
 _atom_site_label
 _atom_site_symmetry_multiplicity
 _atom_site_fract_x
 _atom_site_fract_y
 _atom_site_fract_z
 _atom_site_occupancy
  Cs  Cs0  1  0.281558  0.281558  0.281558  1
  Cs  Cs1  1  0.718442  0.718442  0.718442  1
  Cs  Cs2  1  0.127987  0.127987  0.127987  1
  Cs  Cs3  1  0.872013  0.872013  0.872013  1
  Na  Na4  1  0.597220  0.597220  0.597220  1
  Na  Na5  1  0.402780  0.402780  0.402780  1
  Ti  Ti6  1  0.000000  0.000000  0.000000  1
  Ti  Ti7  1  0.500000  0.500000  0.500000  1
  F  F8  1  0.814474  0.260641  0.814474  1
  F  F9  1  0.260641  0.814474  0.814474  1
  F  F10  1  0.814474  0.814474  0.260641  1
  F  F11  1  0.185526  0.185526  0.739359  1
  F  F12  1  0.185526  0.739359  0.185526  1
  F  F13  1  0.739359  0.185526  0.185526  1
  F  F14  1  0.604482  0.174779  0.604482  1
  F  F15  1  0.174779  0.604482  0.604482  1
  F  F16  1  0.825221  0.395518  0.395518  1
  F  F17  1  0.395518  0.825221  0.395518  1
  F  F18  1  0.395518  0.395518  0.825221  1
  F  F19  1  0.604482  0.604482  0.174779  1
