# generated using pymatgen
data_Mn5B2P
_symmetry_space_group_name_H-M   'P 1'
_cell_length_a   6.46269962
_cell_length_b   6.46269962
_cell_length_c   6.46269962
_cell_angle_alpha   129.46044802
_cell_angle_beta   129.46044802
_cell_angle_gamma   74.27081307
_symmetry_Int_Tables_number   1
_chemical_formula_structural   Mn5B2P
_chemical_formula_sum   'Mn10 B4 P2'
_cell_volume   156.85148257
_cell_formula_units_Z   2
loop_
 _symmetry_equiv_pos_site_id
 _symmetry_equiv_pos_as_xyz
  1  'x, y, z'
loop_
 _atom_site_type_symbol
 _atom_site_label
 _atom_site_symmetry_multiplicity
 _atom_site_fract_x
 _atom_site_fract_y
 _atom_site_fract_z
 _atom_site_occupancy
  Mn  Mn0  1  0.191538  0.691538  0.161628  1
  Mn  Mn1  1  0.470090  0.970090  0.161628  1
  Mn  Mn2  1  0.000000  0.000000  0.000000  1
  Mn  Mn3  1  0.500000  0.500000  0.000000  1
  Mn  Mn4  1  0.529910  0.029910  0.838372  1
  Mn  Mn5  1  0.029910  0.191538  0.500000  1
  Mn  Mn6  1  0.691538  0.529910  0.500000  1
  Mn  Mn7  1  0.970090  0.808462  0.500000  1
  Mn  Mn8  1  0.308462  0.470090  0.500000  1
  Mn  Mn9  1  0.808462  0.308462  0.838372  1
  B  B10  1  0.881137  0.381137  0.262273  1
  B  B11  1  0.381137  0.118863  0.500000  1
  B  B12  1  0.618863  0.881137  0.500000  1
  B  B13  1  0.118863  0.618863  0.737727  1
  P  P14  1  0.750000  0.750000  0.000000  1
  P  P15  1  0.250000  0.250000  0.000000  1
