# generated using pymatgen
data_LiZr2(PO4)3
_symmetry_space_group_name_H-M   'P 1'
_cell_length_a   8.95742799
_cell_length_b   9.08005333
_cell_length_c   15.37326006
_cell_angle_alpha   90.00000000
_cell_angle_beta   124.94980907
_cell_angle_gamma   90.00000000
_symmetry_Int_Tables_number   1
_chemical_formula_structural   LiZr2(PO4)3
_chemical_formula_sum   'Li4 Zr8 P12 O48'
_cell_volume   1024.86900128
_cell_formula_units_Z   4
loop_
 _symmetry_equiv_pos_site_id
 _symmetry_equiv_pos_as_xyz
  1  'x, y, z'
loop_
 _atom_site_type_symbol
 _atom_site_label
 _atom_site_symmetry_multiplicity
 _atom_site_fract_x
 _atom_site_fract_y
 _atom_site_fract_z
 _atom_site_occupancy
  Li  Li0  1  0.031642  0.224157  0.321054  1
  Li  Li1  1  0.968358  0.724157  0.178946  1
  Li  Li2  1  0.968358  0.775843  0.678946  1
  Li  Li3  1  0.031642  0.275843  0.821054  1
  Zr  Zr4  1  0.855475  0.454897  0.609625  1
  Zr  Zr5  1  0.629648  0.474881  0.878868  1
  Zr  Zr6  1  0.370352  0.974881  0.621132  1
  Zr  Zr7  1  0.370352  0.525119  0.121132  1
  Zr  Zr8  1  0.629648  0.025119  0.378868  1
  Zr  Zr9  1  0.855475  0.045103  0.109625  1
  Zr  Zr10  1  0.144525  0.545103  0.390375  1
  Zr  Zr11  1  0.144525  0.954897  0.890375  1
  P  P12  1  0.452821  0.249863  0.988521  1
  P  P13  1  0.547179  0.749863  0.511479  1
  P  P14  1  0.452821  0.250137  0.488521  1
  P  P15  1  0.755752  0.121360  0.853565  1
  P  P16  1  0.244248  0.621360  0.646435  1
  P  P17  1  0.244248  0.878640  0.146435  1
  P  P18  1  0.755752  0.378640  0.353565  1
  P  P19  1  0.029245  0.401768  0.145144  1
  P  P20  1  0.970755  0.901768  0.354856  1
  P  P21  1  0.970755  0.598232  0.854856  1
  P  P22  1  0.029245  0.098232  0.645144  1
  P  P23  1  0.547179  0.750137  0.011479  1
  O  O24  1  0.295095  0.785497  0.666620  1
  O  O25  1  0.559858  0.648573  0.936384  1
  O  O26  1  0.440142  0.148573  0.563616  1
  O  O27  1  0.440142  0.351427  0.063616  1
  O  O28  1  0.559858  0.851427  0.436384  1
  O  O29  1  0.404223  0.522264  0.726306  1
  O  O30  1  0.595777  0.022264  0.773694  1
  O  O31  1  0.595777  0.477736  0.273694  1
  O  O32  1  0.201119  0.102936  0.645818  1
  O  O33  1  0.201119  0.397064  0.145818  1
  O  O34  1  0.798881  0.897064  0.354182  1
  O  O35  1  0.482088  0.335344  0.913533  1
  O  O36  1  0.517912  0.835344  0.586467  1
  O  O37  1  0.517912  0.664656  0.086467  1
  O  O38  1  0.482088  0.164656  0.413533  1
  O  O39  1  0.704905  0.285497  0.833380  1
  O  O40  1  0.404223  0.977736  0.226306  1
  O  O41  1  0.798881  0.602936  0.854182  1
  O  O42  1  0.295095  0.714503  0.166620  1
  O  O43  1  0.704905  0.214503  0.333380  1
  O  O44  1  0.817367  0.421043  0.467438  1
  O  O45  1  0.182633  0.921043  0.032562  1
  O  O46  1  0.182633  0.578957  0.532562  1
  O  O47  1  0.817367  0.078957  0.967438  1
  O  O48  1  0.998518  0.252266  0.678396  1
  O  O49  1  0.001482  0.752266  0.821604  1
  O  O50  1  0.001482  0.747734  0.321604  1
  O  O51  1  0.998518  0.247734  0.178396  1
  O  O52  1  0.610066  0.360419  0.556430  1
  O  O53  1  0.389934  0.860419  0.943570  1
  O  O54  1  0.860684  0.444794  0.036190  1
  O  O55  1  0.610066  0.139581  0.056430  1
  O  O56  1  0.081369  0.597468  0.655308  1
  O  O57  1  0.918631  0.097468  0.844692  1
  O  O58  1  0.918631  0.402532  0.344692  1
  O  O59  1  0.081369  0.902532  0.155308  1
  O  O60  1  0.945069  0.481241  0.772573  1
  O  O61  1  0.054931  0.981241  0.727427  1
  O  O62  1  0.054931  0.518759  0.227427  1
  O  O63  1  0.945069  0.018759  0.272573  1
  O  O64  1  0.731401  0.664702  0.580264  1
  O  O65  1  0.268599  0.164702  0.919736  1
  O  O66  1  0.268599  0.335298  0.419736  1
  O  O67  1  0.731401  0.835298  0.080264  1
  O  O68  1  0.860684  0.055206  0.536190  1
  O  O69  1  0.139316  0.555206  0.963810  1
  O  O70  1  0.139316  0.944794  0.463810  1
  O  O71  1  0.389934  0.639581  0.443570  1
