# generated using pymatgen
data_Mg2Au
_symmetry_space_group_name_H-M   'P 1'
_cell_length_a   8.53811205
_cell_length_b   13.20547263
_cell_length_c   18.92033079
_cell_angle_alpha   90.00000000
_cell_angle_beta   90.00000000
_cell_angle_gamma   90.00000000
_symmetry_Int_Tables_number   1
_chemical_formula_structural   Mg2Au
_chemical_formula_sum   'Mg72 Au36'
_cell_volume   2133.26360688
_cell_formula_units_Z   36
loop_
 _symmetry_equiv_pos_site_id
 _symmetry_equiv_pos_as_xyz
  1  'x, y, z'
loop_
 _atom_site_type_symbol
 _atom_site_label
 _atom_site_symmetry_multiplicity
 _atom_site_fract_x
 _atom_site_fract_y
 _atom_site_fract_z
 _atom_site_occupancy
  Mg  Mg0  1  0.439316  0.750000  0.562849  1
  Mg  Mg1  1  0.060684  0.750000  0.062849  1
  Mg  Mg2  1  0.560684  0.250000  0.437151  1
  Mg  Mg3  1  0.939316  0.250000  0.937151  1
  Mg  Mg4  1  0.441098  0.750000  0.880135  1
  Mg  Mg5  1  0.058902  0.750000  0.380135  1
  Mg  Mg6  1  0.558902  0.250000  0.119865  1
  Mg  Mg7  1  0.941098  0.250000  0.619865  1
  Mg  Mg8  1  0.440944  0.750000  0.227483  1
  Mg  Mg9  1  0.059056  0.750000  0.727483  1
  Mg  Mg10  1  0.559056  0.250000  0.772517  1
  Mg  Mg11  1  0.940944  0.250000  0.272517  1
  Mg  Mg12  1  0.710925  0.750000  0.676140  1
  Mg  Mg13  1  0.789075  0.750000  0.176140  1
  Mg  Mg14  1  0.289075  0.250000  0.323860  1
  Mg  Mg15  1  0.210925  0.250000  0.823860  1
  Mg  Mg16  1  0.689115  0.750000  0.010527  1
  Mg  Mg17  1  0.810885  0.750000  0.510527  1
  Mg  Mg18  1  0.310885  0.250000  0.989473  1
  Mg  Mg19  1  0.189115  0.250000  0.489473  1
  Mg  Mg20  1  0.695692  0.750000  0.346428  1
  Mg  Mg21  1  0.804308  0.750000  0.846428  1
  Mg  Mg22  1  0.304308  0.250000  0.653572  1
  Mg  Mg23  1  0.195692  0.250000  0.153572  1
  Mg  Mg24  1  0.441919  0.415751  0.553561  1
  Mg  Mg25  1  0.058081  0.084249  0.053561  1
  Mg  Mg26  1  0.558081  0.915751  0.446439  1
  Mg  Mg27  1  0.941919  0.584249  0.946439  1
  Mg  Mg28  1  0.558081  0.584249  0.446439  1
  Mg  Mg29  1  0.941919  0.915751  0.946439  1
  Mg  Mg30  1  0.441919  0.084249  0.553561  1
  Mg  Mg31  1  0.058081  0.415751  0.053561  1
  Mg  Mg32  1  0.440207  0.419502  0.887664  1
  Mg  Mg33  1  0.059793  0.080498  0.387665  1
  Mg  Mg34  1  0.559793  0.919502  0.112336  1
  Mg  Mg35  1  0.940207  0.580498  0.612336  1
  Mg  Mg36  1  0.559793  0.580498  0.112336  1
  Mg  Mg37  1  0.940207  0.919502  0.612336  1
  Mg  Mg38  1  0.440207  0.080498  0.887664  1
  Mg  Mg39  1  0.059793  0.419502  0.387665  1
  Mg  Mg40  1  0.442948  0.415515  0.229019  1
  Mg  Mg41  1  0.057052  0.084485  0.729019  1
  Mg  Mg42  1  0.557052  0.915515  0.770981  1
  Mg  Mg43  1  0.942948  0.584485  0.270981  1
  Mg  Mg44  1  0.557052  0.584485  0.770981  1
  Mg  Mg45  1  0.942948  0.915515  0.270981  1
  Mg  Mg46  1  0.442948  0.084485  0.229019  1
  Mg  Mg47  1  0.057052  0.415515  0.729019  1
  Mg  Mg48  1  0.697155  0.414890  0.676591  1
  Mg  Mg49  1  0.802845  0.085110  0.176591  1
  Mg  Mg50  1  0.302845  0.914890  0.323409  1
  Mg  Mg51  1  0.197155  0.585110  0.823409  1
  Mg  Mg52  1  0.302845  0.585110  0.323409  1
  Mg  Mg53  1  0.197155  0.914890  0.823409  1
  Mg  Mg54  1  0.697155  0.085110  0.676591  1
  Mg  Mg55  1  0.802845  0.414890  0.176591  1
  Mg  Mg56  1  0.688777  0.411750  0.011330  1
  Mg  Mg57  1  0.811223  0.088250  0.511330  1
  Mg  Mg58  1  0.311223  0.911750  0.988670  1
  Mg  Mg59  1  0.188777  0.588250  0.488670  1
  Mg  Mg60  1  0.311223  0.588250  0.988670  1
  Mg  Mg61  1  0.188777  0.911750  0.488670  1
  Mg  Mg62  1  0.688777  0.088250  0.011330  1
  Mg  Mg63  1  0.811223  0.411750  0.511330  1
  Mg  Mg64  1  0.705635  0.422799  0.346381  1
  Mg  Mg65  1  0.794365  0.077201  0.846381  1
  Mg  Mg66  1  0.294365  0.922799  0.653619  1
  Mg  Mg67  1  0.205635  0.577201  0.153619  1
  Mg  Mg68  1  0.294365  0.577201  0.653619  1
  Mg  Mg69  1  0.205635  0.922799  0.153619  1
  Mg  Mg70  1  0.705635  0.077201  0.346381  1
  Mg  Mg71  1  0.794365  0.422799  0.846381  1
  Au  Au72  1  0.373587  0.750000  0.413897  1
  Au  Au73  1  0.126413  0.750000  0.913897  1
  Au  Au74  1  0.626413  0.250000  0.586103  1
  Au  Au75  1  0.873587  0.250000  0.086103  1
  Au  Au76  1  0.379055  0.750000  0.085180  1
  Au  Au77  1  0.120945  0.750000  0.585180  1
  Au  Au78  1  0.620945  0.250000  0.914820  1
  Au  Au79  1  0.879055  0.250000  0.414820  1
  Au  Au80  1  0.379183  0.750000  0.734431  1
  Au  Au81  1  0.120817  0.750000  0.234431  1
  Au  Au82  1  0.620817  0.250000  0.265569  1
  Au  Au83  1  0.879183  0.250000  0.765569  1
  Au  Au84  1  0.622925  0.917376  0.590512  1
  Au  Au85  1  0.877075  0.582624  0.090512  1
  Au  Au86  1  0.377075  0.417376  0.409488  1
  Au  Au87  1  0.122925  0.082624  0.909488  1
  Au  Au88  1  0.377075  0.082624  0.409488  1
  Au  Au89  1  0.122925  0.417376  0.909488  1
  Au  Au90  1  0.622925  0.582624  0.590512  1
  Au  Au91  1  0.877075  0.917376  0.090512  1
  Au  Au92  1  0.623650  0.914607  0.918245  1
  Au  Au93  1  0.876350  0.585393  0.418245  1
  Au  Au94  1  0.376350  0.414607  0.081755  1
  Au  Au95  1  0.123650  0.085393  0.581755  1
  Au  Au96  1  0.376350  0.085393  0.081755  1
  Au  Au97  1  0.123650  0.414607  0.581755  1
  Au  Au98  1  0.623650  0.585393  0.918245  1
  Au  Au99  1  0.876350  0.914607  0.418245  1
  Au  Au100  1  0.624283  0.916065  0.255771  1
  Au  Au101  1  0.875717  0.583935  0.755771  1
  Au  Au102  1  0.375717  0.416065  0.744229  1
  Au  Au103  1  0.124283  0.083935  0.244229  1
  Au  Au104  1  0.375717  0.083935  0.744229  1
  Au  Au105  1  0.124283  0.416065  0.244229  1
  Au  Au106  1  0.624283  0.583935  0.255771  1
  Au  Au107  1  0.875717  0.916065  0.755771  1
