# generated using pymatgen
data_CaGa2
_symmetry_space_group_name_H-M   'P 1'
_cell_length_a   4.50590831
_cell_length_b   4.50590831
_cell_length_c   7.38822157
_cell_angle_alpha   90.00000000
_cell_angle_beta   90.00000000
_cell_angle_gamma   120.00000000
_symmetry_Int_Tables_number   1
_chemical_formula_structural   CaGa2
_chemical_formula_sum   'Ca2 Ga4'
_cell_volume   129.90780437
_cell_formula_units_Z   2
loop_
 _symmetry_equiv_pos_site_id
 _symmetry_equiv_pos_as_xyz
  1  'x, y, z'
loop_
 _atom_site_type_symbol
 _atom_site_label
 _atom_site_symmetry_multiplicity
 _atom_site_fract_x
 _atom_site_fract_y
 _atom_site_fract_z
 _atom_site_occupancy
  Ca  Ca0  1  0.000000  0.000000  0.250000  1
  Ca  Ca1  1  0.000000  0.000000  0.750000  1
  Ga  Ga2  1  0.333333  0.666667  0.042370  1
  Ga  Ga3  1  0.666667  0.333333  0.542370  1
  Ga  Ga4  1  0.666667  0.333333  0.957630  1
  Ga  Ga5  1  0.333333  0.666667  0.457630  1
