# generated using pymatgen
data_Sr3AlO4F
_symmetry_space_group_name_H-M   'P 1'
_cell_length_a   7.42129077
_cell_length_b   7.42129077
_cell_length_c   7.42129077
_cell_angle_alpha   125.15455011
_cell_angle_beta   125.15455011
_cell_angle_gamma   81.28220220
_symmetry_Int_Tables_number   1
_chemical_formula_structural   Sr3AlO4F
_chemical_formula_sum   'Sr6 Al2 O8 F2'
_cell_volume   263.13900124
_cell_formula_units_Z   2
loop_
 _symmetry_equiv_pos_site_id
 _symmetry_equiv_pos_as_xyz
  1  'x, y, z'
loop_
 _atom_site_type_symbol
 _atom_site_label
 _atom_site_symmetry_multiplicity
 _atom_site_fract_x
 _atom_site_fract_y
 _atom_site_fract_z
 _atom_site_occupancy
  Sr  Sr0  1  0.331256  0.831256  0.162513  1
  Sr  Sr1  1  0.831256  0.668744  0.500000  1
  Sr  Sr2  1  0.168744  0.331256  0.500000  1
  Sr  Sr3  1  0.668744  0.168744  0.837487  1
  Sr  Sr4  1  0.750000  0.750000  0.000000  1
  Sr  Sr5  1  0.250000  0.250000  0.000000  1
  Al  Al6  1  0.250000  0.750000  0.500000  1
  Al  Al7  1  0.750000  0.250000  0.500000  1
  O  O8  1  0.005830  0.505830  0.215506  1
  O  O9  1  0.709675  0.209675  0.215506  1
  O  O10  1  0.994170  0.494170  0.784494  1
  O  O11  1  0.494170  0.709675  0.500000  1
  O  O12  1  0.209675  0.994170  0.500000  1
  O  O13  1  0.505830  0.290325  0.500000  1
  O  O14  1  0.790325  0.005830  0.500000  1
  O  O15  1  0.290325  0.790325  0.784494  1
  F  F16  1  0.000000  0.000000  0.000000  1
  F  F17  1  0.500000  0.500000  0.000000  1
