# generated using pymatgen
data_BaGe(S2O7)3
_symmetry_space_group_name_H-M   'P 1'
_cell_length_a   7.73511508
_cell_length_b   13.24451308
_cell_length_c   17.28916288
_cell_angle_alpha   90.00000000
_cell_angle_beta   90.00000000
_cell_angle_gamma   90.00000000
_symmetry_Int_Tables_number   1
_chemical_formula_structural   BaGe(S2O7)3
_chemical_formula_sum   'Ba4 Ge4 S24 O84'
_cell_volume   1771.23726889
_cell_formula_units_Z   4
loop_
 _symmetry_equiv_pos_site_id
 _symmetry_equiv_pos_as_xyz
  1  'x, y, z'
loop_
 _atom_site_type_symbol
 _atom_site_label
 _atom_site_symmetry_multiplicity
 _atom_site_fract_x
 _atom_site_fract_y
 _atom_site_fract_z
 _atom_site_occupancy
  Ba  Ba0  1  0.252399  0.512012  0.479219  1
  Ba  Ba1  1  0.247601  0.487988  0.979219  1
  Ba  Ba2  1  0.752399  0.987988  0.520781  1
  Ba  Ba3  1  0.747601  0.012012  0.020781  1
  Ge  Ge4  1  0.254805  0.766530  0.232286  1
  Ge  Ge5  1  0.245195  0.233470  0.732286  1
  Ge  Ge6  1  0.754805  0.733470  0.767714  1
  Ge  Ge7  1  0.745195  0.266530  0.267714  1
  S  S8  1  0.245861  0.935569  0.106855  1
  S  S9  1  0.254139  0.064431  0.606855  1
  S  S10  1  0.745861  0.564431  0.893145  1
  S  S11  1  0.754139  0.435569  0.393145  1
  S  S12  1  0.268875  0.534285  0.248466  1
  S  S13  1  0.231125  0.465715  0.748466  1
  S  S14  1  0.768875  0.965715  0.751534  1
  S  S15  1  0.731125  0.034285  0.251534  1
  S  S16  1  0.036319  0.758870  0.081728  1
  S  S17  1  0.463681  0.241130  0.581728  1
  S  S18  1  0.536319  0.741130  0.918272  1
  S  S19  1  0.963681  0.258870  0.418272  1
  S  S20  1  0.475304  0.780538  0.382854  1
  S  S21  1  0.024696  0.219462  0.882854  1
  S  S22  1  0.975304  0.719462  0.617146  1
  S  S23  1  0.524696  0.280538  0.117146  1
  S  S24  1  0.108292  0.813154  0.396542  1
  S  S25  1  0.391708  0.186846  0.896542  1
  S  S26  1  0.608292  0.686846  0.603458  1
  S  S27  1  0.891708  0.313154  0.103458  1
  S  S28  1  0.534370  0.622404  0.153644  1
  S  S29  1  0.965630  0.377596  0.653644  1
  S  S30  1  0.034370  0.877596  0.846356  1
  S  S31  1  0.465630  0.122404  0.346356  1
  O  O32  1  0.273072  0.467541  0.313810  1
  O  O33  1  0.226928  0.532459  0.813810  1
  O  O34  1  0.773072  0.032459  0.686190  1
  O  O35  1  0.726928  0.967541  0.186190  1
  O  O36  1  0.212309  0.638594  0.277746  1
  O  O37  1  0.287691  0.361406  0.777746  1
  O  O38  1  0.712309  0.861406  0.722254  1
  O  O39  1  0.787691  0.138594  0.222254  1
  O  O40  1  0.053570  0.749819  0.169095  1
  O  O41  1  0.446430  0.250181  0.669095  1
  O  O42  1  0.553570  0.750181  0.830905  1
  O  O43  1  0.946430  0.249819  0.330905  1
  O  O44  1  0.285751  0.897356  0.188525  1
  O  O45  1  0.214249  0.102644  0.688525  1
  O  O46  1  0.785751  0.602644  0.811475  1
  O  O47  1  0.714249  0.397356  0.311475  1
  O  O48  1  0.454637  0.794465  0.295620  1
  O  O49  1  0.045363  0.205535  0.795620  1
  O  O50  1  0.954637  0.705535  0.704380  1
  O  O51  1  0.545363  0.294465  0.204380  1
  O  O52  1  0.475891  0.553007  0.229321  1
  O  O53  1  0.024109  0.446993  0.729321  1
  O  O54  1  0.975891  0.946993  0.770679  1
  O  O55  1  0.524109  0.053007  0.270679  1
  O  O56  1  0.621943  0.837167  0.408630  1
  O  O57  1  0.878057  0.162833  0.908630  1
  O  O58  1  0.121943  0.662833  0.591370  1
  O  O59  1  0.378057  0.337167  0.091370  1
  O  O60  1  0.203741  0.831554  0.058038  1
  O  O61  1  0.296259  0.168446  0.558038  1
  O  O62  1  0.703741  0.668446  0.941962  1
  O  O63  1  0.796259  0.331554  0.441962  1
  O  O64  1  0.457517  0.677047  0.406063  1
  O  O65  1  0.042483  0.322953  0.906063  1
  O  O66  1  0.957517  0.822953  0.593937  1
  O  O67  1  0.542483  0.177047  0.093937  1
  O  O68  1  0.881407  0.812788  0.062626  1
  O  O69  1  0.618593  0.187212  0.562626  1
  O  O70  1  0.381407  0.687212  0.937374  1
  O  O71  1  0.118593  0.312788  0.437374  1
  O  O72  1  0.405891  0.710491  0.155529  1
  O  O73  1  0.094109  0.289509  0.655529  1
  O  O74  1  0.905891  0.789509  0.844471  1
  O  O75  1  0.594109  0.210491  0.344471  1
  O  O76  1  0.073788  0.666574  0.042129  1
  O  O77  1  0.426212  0.333426  0.542129  1
  O  O78  1  0.573788  0.833426  0.957871  1
  O  O79  1  0.926212  0.166574  0.457871  1
  O  O80  1  0.104990  0.824163  0.308643  1
  O  O81  1  0.395010  0.175837  0.808643  1
  O  O82  1  0.604990  0.675837  0.691357  1
  O  O83  1  0.895010  0.324163  0.191357  1
  O  O84  1  0.310609  0.844838  0.418550  1
  O  O85  1  0.189391  0.155162  0.918550  1
  O  O86  1  0.810609  0.655162  0.581450  1
  O  O87  1  0.689391  0.344838  0.081450  1
  O  O88  1  0.400234  0.972024  0.071052  1
  O  O89  1  0.099766  0.027976  0.571052  1
  O  O90  1  0.900234  0.527976  0.928948  1
  O  O91  1  0.599766  0.472024  0.428948  1
  O  O92  1  0.093661  0.997742  0.105882  1
  O  O93  1  0.406339  0.002258  0.605882  1
  O  O94  1  0.593661  0.502258  0.894118  1
  O  O95  1  0.906339  0.497742  0.394118  1
  O  O96  1  0.011929  0.893744  0.430334  1
  O  O97  1  0.488071  0.106256  0.930334  1
  O  O98  1  0.511929  0.606256  0.569666  1
  O  O99  1  0.988071  0.393744  0.069666  1
  O  O100  1  0.079754  0.711651  0.422491  1
  O  O101  1  0.420246  0.288349  0.922491  1
  O  O102  1  0.579754  0.788349  0.577509  1
  O  O103  1  0.920246  0.211651  0.077509  1
  O  O104  1  0.501654  0.564373  0.084626  1
  O  O105  1  0.998346  0.435627  0.584626  1
  O  O106  1  0.001654  0.935627  0.915374  1
  O  O107  1  0.498346  0.064373  0.415374  1
  O  O108  1  0.183559  0.506055  0.178537  1
  O  O109  1  0.316441  0.493945  0.678537  1
  O  O110  1  0.683559  0.993945  0.821463  1
  O  O111  1  0.816441  0.006055  0.321463  1
  O  O112  1  0.706856  0.650570  0.172212  1
  O  O113  1  0.793144  0.349430  0.672212  1
  O  O114  1  0.206856  0.849430  0.827788  1
  O  O115  1  0.293144  0.150570  0.327788  1
