# generated using pymatgen
data_Fe3C
_symmetry_space_group_name_H-M   'P 1'
_cell_length_a   4.66170915
_cell_length_b   4.66170915
_cell_length_c   4.32030252
_cell_angle_alpha   90.00000000
_cell_angle_beta   90.00000000
_cell_angle_gamma   120.00000000
_symmetry_Int_Tables_number   1
_chemical_formula_structural   Fe3C
_chemical_formula_sum   'Fe6 C2'
_cell_volume   81.30834807
_cell_formula_units_Z   2
loop_
 _symmetry_equiv_pos_site_id
 _symmetry_equiv_pos_as_xyz
  1  'x, y, z'
loop_
 _atom_site_type_symbol
 _atom_site_label
 _atom_site_symmetry_multiplicity
 _atom_site_fract_x
 _atom_site_fract_y
 _atom_site_fract_z
 _atom_site_occupancy
  Fe  Fe0  1  0.000000  0.678894  0.500000  1
  Fe  Fe1  1  0.000000  0.321106  0.000000  1
  Fe  Fe2  1  0.678894  0.678894  0.000000  1
  Fe  Fe3  1  0.678894  0.000000  0.500000  1
  Fe  Fe4  1  0.321106  0.321106  0.500000  1
  Fe  Fe5  1  0.321106  0.000000  0.000000  1
  C  C6  1  0.666667  0.333333  0.750000  1
  C  C7  1  0.333333  0.666667  0.250000  1
