# generated using pymatgen
data_La2SnS5
_symmetry_space_group_name_H-M   'P 1'
_cell_length_a   4.04407312
_cell_length_b   7.94617599
_cell_length_c   11.36764558
_cell_angle_alpha   90.00000000
_cell_angle_beta   90.00000000
_cell_angle_gamma   90.00000000
_symmetry_Int_Tables_number   1
_chemical_formula_structural   La2SnS5
_chemical_formula_sum   'La4 Sn2 S10'
_cell_volume   365.29834411
_cell_formula_units_Z   2
loop_
 _symmetry_equiv_pos_site_id
 _symmetry_equiv_pos_as_xyz
  1  'x, y, z'
loop_
 _atom_site_type_symbol
 _atom_site_label
 _atom_site_symmetry_multiplicity
 _atom_site_fract_x
 _atom_site_fract_y
 _atom_site_fract_z
 _atom_site_occupancy
  La  La0  1  0.500000  0.574082  0.168691  1
  La  La1  1  0.500000  0.425918  0.831309  1
  La  La2  1  0.500000  0.074082  0.331309  1
  La  La3  1  0.500000  0.925918  0.668691  1
  Sn  Sn4  1  0.000000  0.500000  0.500000  1
  Sn  Sn5  1  0.000000  0.000000  0.000000  1
  S  S6  1  0.500000  0.689882  0.430741  1
  S  S7  1  0.500000  0.310118  0.569259  1
  S  S8  1  0.500000  0.189882  0.069259  1
  S  S9  1  0.500000  0.810118  0.930741  1
  S  S10  1  0.000000  0.855812  0.203262  1
  S  S11  1  0.000000  0.144188  0.796738  1
  S  S12  1  0.000000  0.500000  0.000000  1
  S  S13  1  0.000000  0.000000  0.500000  1
  S  S14  1  0.000000  0.644188  0.703262  1
  S  S15  1  0.000000  0.355812  0.296738  1
