# generated using pymatgen
data_K2Pd(NO2)4
_symmetry_space_group_name_H-M   'P 1'
_cell_length_a   7.91632905
_cell_length_b   12.93821754
_cell_length_c   9.71498047
_cell_angle_alpha   90.00000000
_cell_angle_beta   97.43144455
_cell_angle_gamma   90.00000000
_symmetry_Int_Tables_number   1
_chemical_formula_structural   K2Pd(NO2)4
_chemical_formula_sum   'K8 Pd4 N16 O32'
_cell_volume   986.68126290
_cell_formula_units_Z   4
loop_
 _symmetry_equiv_pos_site_id
 _symmetry_equiv_pos_as_xyz
  1  'x, y, z'
loop_
 _atom_site_type_symbol
 _atom_site_label
 _atom_site_symmetry_multiplicity
 _atom_site_fract_x
 _atom_site_fract_y
 _atom_site_fract_z
 _atom_site_occupancy
  K  K0  1  0.350323  0.816957  0.341592  1
  K  K1  1  0.149677  0.316957  0.658408  1
  K  K2  1  0.649677  0.183043  0.658408  1
  K  K3  1  0.850323  0.683043  0.341592  1
  K  K4  1  0.084326  0.656926  0.810919  1
  K  K5  1  0.415674  0.156926  0.189081  1
  K  K6  1  0.915674  0.343074  0.189081  1
  K  K7  1  0.584326  0.843074  0.810919  1
  Pd  Pd8  1  0.500000  0.500000  0.500000  1
  Pd  Pd9  1  0.000000  0.000000  0.500000  1
  Pd  Pd10  1  0.000000  0.000000  0.000000  1
  Pd  Pd11  1  0.500000  0.500000  0.000000  1
  N  N12  1  0.245569  0.521446  0.419373  1
  N  N13  1  0.487629  0.636758  0.605343  1
  N  N14  1  0.012371  0.136758  0.394657  1
  N  N15  1  0.512371  0.363242  0.394657  1
  N  N16  1  0.987629  0.863242  0.605343  1
  N  N17  1  0.254431  0.021446  0.580627  1
  N  N18  1  0.754431  0.478554  0.580627  1
  N  N19  1  0.745569  0.978554  0.419373  1
  N  N20  1  0.235315  0.933274  0.992624  1
  N  N21  1  0.264685  0.433274  0.007376  1
  N  N22  1  0.764685  0.066726  0.007376  1
  N  N23  1  0.735315  0.566726  0.992624  1
  N  N24  1  0.569133  0.372808  0.891986  1
  N  N25  1  0.930867  0.872808  0.108014  1
  N  N26  1  0.430867  0.627192  0.108014  1
  N  N27  1  0.069133  0.127192  0.891986  1
  O  O28  1  0.697220  0.892036  0.372282  1
  O  O29  1  0.802780  0.392036  0.627718  1
  O  O30  1  0.302780  0.107964  0.627718  1
  O  O31  1  0.197220  0.607964  0.372282  1
  O  O32  1  0.066750  0.786468  0.567351  1
  O  O33  1  0.433250  0.286468  0.432649  1
  O  O34  1  0.933250  0.213532  0.432649  1
  O  O35  1  0.400565  0.644813  0.703213  1
  O  O36  1  0.566750  0.713532  0.567351  1
  O  O37  1  0.900565  0.855187  0.703213  1
  O  O38  1  0.599435  0.355187  0.296787  1
  O  O39  1  0.099435  0.144813  0.296787  1
  O  O40  1  0.701845  0.323797  0.933718  1
  O  O41  1  0.798155  0.823797  0.066282  1
  O  O42  1  0.298155  0.676203  0.066282  1
  O  O43  1  0.201845  0.176203  0.933718  1
  O  O44  1  0.477116  0.344687  0.783705  1
  O  O45  1  0.022884  0.844687  0.216295  1
  O  O46  1  0.522884  0.655313  0.216295  1
  O  O47  1  0.977116  0.155313  0.783705  1
  O  O48  1  0.852405  0.549920  0.089653  1
  O  O49  1  0.647595  0.049920  0.910347  1
  O  O50  1  0.147595  0.450080  0.910347  1
  O  O51  1  0.352405  0.950080  0.089653  1
  O  O52  1  0.760117  0.623458  0.893229  1
  O  O53  1  0.739883  0.123458  0.106771  1
  O  O54  1  0.239883  0.376542  0.106771  1
  O  O55  1  0.260117  0.876542  0.893229  1
  O  O56  1  0.641570  0.051388  0.419375  1
  O  O57  1  0.858430  0.551388  0.580625  1
  O  O58  1  0.358430  0.948612  0.580625  1
  O  O59  1  0.141570  0.448612  0.419375  1
