# generated using pymatgen
data_YAl2Ni
_symmetry_space_group_name_H-M   'P 1'
_cell_length_a   5.52979988
_cell_length_b   5.52979988
_cell_length_c   6.87132696
_cell_angle_alpha   90.00000000
_cell_angle_beta   90.00000000
_cell_angle_gamma   137.01817687
_symmetry_Int_Tables_number   1
_chemical_formula_structural   YAl2Ni
_chemical_formula_sum   'Y2 Al4 Ni2'
_cell_volume   143.25011460
_cell_formula_units_Z   2
loop_
 _symmetry_equiv_pos_site_id
 _symmetry_equiv_pos_as_xyz
  1  'x, y, z'
loop_
 _atom_site_type_symbol
 _atom_site_label
 _atom_site_symmetry_multiplicity
 _atom_site_fract_x
 _atom_site_fract_y
 _atom_site_fract_z
 _atom_site_occupancy
  Y  Y0  1  0.060573  0.939427  0.250000  1
  Y  Y1  1  0.939427  0.060573  0.750000  1
  Al  Al2  1  0.658393  0.341607  0.945215  1
  Al  Al3  1  0.341607  0.658393  0.054785  1
  Al  Al4  1  0.341607  0.658393  0.445215  1
  Al  Al5  1  0.658393  0.341607  0.554785  1
  Ni  Ni6  1  0.783875  0.216125  0.250000  1
  Ni  Ni7  1  0.216125  0.783875  0.750000  1
