# generated using pymatgen
data_ReB2
_symmetry_space_group_name_H-M   'P 1'
_cell_length_a   2.91696936
_cell_length_b   2.91696936
_cell_length_c   7.50347674
_cell_angle_alpha   90.00000000
_cell_angle_beta   90.00000000
_cell_angle_gamma   120.00000000
_symmetry_Int_Tables_number   1
_chemical_formula_structural   ReB2
_chemical_formula_sum   'Re2 B4'
_cell_volume   55.29131350
_cell_formula_units_Z   2
loop_
 _symmetry_equiv_pos_site_id
 _symmetry_equiv_pos_as_xyz
  1  'x, y, z'
loop_
 _atom_site_type_symbol
 _atom_site_label
 _atom_site_symmetry_multiplicity
 _atom_site_fract_x
 _atom_site_fract_y
 _atom_site_fract_z
 _atom_site_occupancy
  Re  Re0  1  0.666667  0.333333  0.750000  1
  Re  Re1  1  0.333333  0.666667  0.250000  1
  B  B2  1  0.666667  0.333333  0.452330  1
  B  B3  1  0.333333  0.666667  0.952330  1
  B  B4  1  0.666667  0.333333  0.047670  1
  B  B5  1  0.333333  0.666667  0.547670  1
