# generated using pymatgen
data_Nd(BOs)4
_symmetry_space_group_name_H-M   'P 1'
_cell_length_a   7.62822829
_cell_length_b   7.62822829
_cell_length_c   4.00770763
_cell_angle_alpha   90.00000000
_cell_angle_beta   90.00000000
_cell_angle_gamma   90.00000000
_symmetry_Int_Tables_number   1
_chemical_formula_structural   Nd(BOs)4
_chemical_formula_sum   'Nd2 B8 Os8'
_cell_volume   233.20797334
_cell_formula_units_Z   2
loop_
 _symmetry_equiv_pos_site_id
 _symmetry_equiv_pos_as_xyz
  1  'x, y, z'
loop_
 _atom_site_type_symbol
 _atom_site_label
 _atom_site_symmetry_multiplicity
 _atom_site_fract_x
 _atom_site_fract_y
 _atom_site_fract_z
 _atom_site_occupancy
  Nd  Nd0  1  0.500000  0.500000  0.000000  1
  Nd  Nd1  1  0.000000  0.000000  0.500000  1
  B  B2  1  0.664294  0.780590  0.611016  1
  B  B3  1  0.164294  0.280590  0.888984  1
  B  B4  1  0.280590  0.835706  0.111016  1
  B  B5  1  0.719410  0.164294  0.111016  1
  B  B6  1  0.335706  0.219410  0.611016  1
  B  B7  1  0.835706  0.719410  0.888984  1
  B  B8  1  0.219410  0.664294  0.388984  1
  B  B9  1  0.780590  0.335706  0.388984  1
  Os  Os10  1  0.353875  0.106616  0.112255  1
  Os  Os11  1  0.646125  0.893384  0.112255  1
  Os  Os12  1  0.606616  0.146125  0.612255  1
  Os  Os13  1  0.106616  0.646125  0.887745  1
  Os  Os14  1  0.146125  0.393384  0.387745  1
  Os  Os15  1  0.853875  0.606616  0.387745  1
  Os  Os16  1  0.893384  0.353875  0.887745  1
  Os  Os17  1  0.393384  0.853875  0.612255  1
