# generated using pymatgen
data_Sr2Ga2S5
_symmetry_space_group_name_H-M   'P 1'
_cell_length_a   11.30702298
_cell_length_b   12.14725776
_cell_length_c   12.65366126
_cell_angle_alpha   90.00000000
_cell_angle_beta   90.00000000
_cell_angle_gamma   90.00000000
_symmetry_Int_Tables_number   1
_chemical_formula_structural   Sr2Ga2S5
_chemical_formula_sum   'Sr16 Ga16 S40'
_cell_volume   1737.97180293
_cell_formula_units_Z   8
loop_
 _symmetry_equiv_pos_site_id
 _symmetry_equiv_pos_as_xyz
  1  'x, y, z'
loop_
 _atom_site_type_symbol
 _atom_site_label
 _atom_site_symmetry_multiplicity
 _atom_site_fract_x
 _atom_site_fract_y
 _atom_site_fract_z
 _atom_site_occupancy
  Sr  Sr0  1  0.747128  0.253478  0.689884  1
  Sr  Sr1  1  0.247128  0.746522  0.810116  1
  Sr  Sr2  1  0.752872  0.753478  0.310116  1
  Sr  Sr3  1  0.252872  0.246522  0.189884  1
  Sr  Sr4  1  0.252872  0.746522  0.310116  1
  Sr  Sr5  1  0.752872  0.253478  0.189884  1
  Sr  Sr6  1  0.247128  0.246522  0.689884  1
  Sr  Sr7  1  0.747128  0.753478  0.810116  1
  Sr  Sr8  1  0.497903  0.477678  0.801815  1
  Sr  Sr9  1  0.997903  0.522322  0.698185  1
  Sr  Sr10  1  0.002097  0.977678  0.198185  1
  Sr  Sr11  1  0.502097  0.022322  0.301815  1
  Sr  Sr12  1  0.502097  0.522322  0.198185  1
  Sr  Sr13  1  0.002097  0.477678  0.301815  1
  Sr  Sr14  1  0.997903  0.022322  0.801815  1
  Sr  Sr15  1  0.497903  0.977678  0.698185  1
  Ga  Ga16  1  0.559232  0.295130  0.450895  1
  Ga  Ga17  1  0.059232  0.704870  0.049105  1
  Ga  Ga18  1  0.940768  0.795130  0.549105  1
  Ga  Ga19  1  0.440768  0.204870  0.950895  1
  Ga  Ga20  1  0.440768  0.704870  0.549105  1
  Ga  Ga21  1  0.940768  0.295130  0.950895  1
  Ga  Ga22  1  0.059232  0.204870  0.450895  1
  Ga  Ga23  1  0.559232  0.795130  0.049105  1
  Ga  Ga24  1  0.776052  0.536114  0.028633  1
  Ga  Ga25  1  0.276052  0.463886  0.471367  1
  Ga  Ga26  1  0.723948  0.036114  0.971367  1
  Ga  Ga27  1  0.223948  0.963886  0.528633  1
  Ga  Ga28  1  0.223948  0.463886  0.971367  1
  Ga  Ga29  1  0.723948  0.536114  0.528633  1
  Ga  Ga30  1  0.276052  0.963886  0.028633  1
  Ga  Ga31  1  0.776052  0.036114  0.471367  1
  S  S32  1  0.750346  0.361625  0.461807  1
  S  S33  1  0.250346  0.638375  0.038193  1
  S  S34  1  0.749654  0.861625  0.538193  1
  S  S35  1  0.249654  0.138375  0.961807  1
  S  S36  1  0.249654  0.638375  0.538193  1
  S  S37  1  0.749654  0.361625  0.961807  1
  S  S38  1  0.250346  0.138375  0.461807  1
  S  S39  1  0.750346  0.861625  0.038193  1
  S  S40  1  0.234960  0.486125  0.793712  1
  S  S41  1  0.734960  0.513875  0.706288  1
  S  S42  1  0.265040  0.986125  0.206288  1
  S  S43  1  0.765040  0.013875  0.293712  1
  S  S44  1  0.765040  0.513875  0.206288  1
  S  S45  1  0.265040  0.486125  0.293712  1
  S  S46  1  0.734960  0.013875  0.793712  1
  S  S47  1  0.234960  0.986125  0.706288  1
  S  S48  1  0.428208  0.382647  0.563005  1
  S  S49  1  0.007517  0.225260  0.280456  1
  S  S50  1  0.928208  0.617353  0.936995  1
  S  S51  1  0.571792  0.117353  0.063005  1
  S  S52  1  0.571792  0.617353  0.436995  1
  S  S53  1  0.071792  0.382647  0.063005  1
  S  S54  1  0.928208  0.117353  0.563005  1
  S  S55  1  0.428208  0.882647  0.936995  1
  S  S56  1  0.903669  0.119511  0.023679  1
  S  S57  1  0.403669  0.880489  0.476321  1
  S  S58  1  0.596331  0.619511  0.976321  1
  S  S59  1  0.096331  0.380489  0.523679  1
  S  S60  1  0.096331  0.880489  0.976321  1
  S  S61  1  0.596331  0.119511  0.523679  1
  S  S62  1  0.403669  0.380489  0.023679  1
  S  S63  1  0.903669  0.619511  0.476321  1
  S  S64  1  0.007517  0.725260  0.219544  1
  S  S65  1  0.507517  0.274740  0.280456  1
  S  S66  1  0.492483  0.225260  0.780456  1
  S  S67  1  0.992483  0.774740  0.719544  1
  S  S68  1  0.992483  0.274740  0.780456  1
  S  S69  1  0.492483  0.725260  0.719544  1
  S  S70  1  0.507517  0.774740  0.219544  1
  S  S71  1  0.071792  0.882647  0.436995  1
