# generated using pymatgen
data_Np
_symmetry_space_group_name_H-M   'P 1'
_cell_length_a   4.66657280
_cell_length_b   4.79610724
_cell_length_c   6.58657131
_cell_angle_alpha   90.00000000
_cell_angle_beta   90.00000000
_cell_angle_gamma   90.00000000
_symmetry_Int_Tables_number   1
_chemical_formula_structural   Np
_chemical_formula_sum   Np8
_cell_volume   147.41657905
_cell_formula_units_Z   8
loop_
 _symmetry_equiv_pos_site_id
 _symmetry_equiv_pos_as_xyz
  1  'x, y, z'
loop_
 _atom_site_type_symbol
 _atom_site_label
 _atom_site_symmetry_multiplicity
 _atom_site_fract_x
 _atom_site_fract_y
 _atom_site_fract_z
 _atom_site_occupancy
  Np  Np0  1  0.250000  0.217798  0.044816  1
  Np  Np1  1  0.750000  0.782202  0.955184  1
  Np  Np2  1  0.750000  0.717798  0.455184  1
  Np  Np3  1  0.250000  0.282202  0.544816  1
  Np  Np4  1  0.250000  0.860069  0.318009  1
  Np  Np5  1  0.750000  0.139931  0.681991  1
  Np  Np6  1  0.750000  0.360069  0.181991  1
  Np  Np7  1  0.250000  0.639931  0.818009  1
