# generated using pymatgen
data_K3TbSi2O7
_symmetry_space_group_name_H-M   'P 1'
_cell_length_a   9.98658275
_cell_length_b   9.98658275
_cell_length_c   14.53028102
_cell_angle_alpha   90.00000000
_cell_angle_beta   90.00000000
_cell_angle_gamma   120.00000000
_symmetry_Int_Tables_number   1
_chemical_formula_structural   K3TbSi2O7
_chemical_formula_sum   'K18 Tb6 Si12 O42'
_cell_volume   1254.98476980
_cell_formula_units_Z   6
loop_
 _symmetry_equiv_pos_site_id
 _symmetry_equiv_pos_as_xyz
  1  'x, y, z'
loop_
 _atom_site_type_symbol
 _atom_site_label
 _atom_site_symmetry_multiplicity
 _atom_site_fract_x
 _atom_site_fract_y
 _atom_site_fract_z
 _atom_site_occupancy
  K  K0  1  0.000000  0.000000  0.500000  1
  K  K1  1  0.331845  0.000000  0.091212  1
  K  K2  1  0.331845  0.331845  0.591212  1
  K  K3  1  0.000000  0.668155  0.591212  1
  K  K4  1  0.000000  0.331845  0.091212  1
  K  K5  1  0.668155  0.668155  0.091212  1
  K  K6  1  0.331845  0.000000  0.408788  1
  K  K7  1  0.000000  0.000000  0.000000  1
  K  K8  1  0.333333  0.666667  0.750000  1
  K  K9  1  0.666667  0.333333  0.250000  1
  K  K10  1  0.666667  0.333333  0.750000  1
  K  K11  1  0.333333  0.666667  0.250000  1
  K  K12  1  0.668155  0.668155  0.408788  1
  K  K13  1  0.668155  0.000000  0.908788  1
  K  K14  1  0.000000  0.668155  0.908788  1
  K  K15  1  0.000000  0.331845  0.408788  1
  K  K16  1  0.668155  0.000000  0.591212  1
  K  K17  1  0.331845  0.331845  0.908788  1
  Tb  Tb18  1  0.000000  0.000000  0.750000  1
  Tb  Tb19  1  0.333333  0.666667  0.000000  1
  Tb  Tb20  1  0.666667  0.333333  0.500000  1
  Tb  Tb21  1  0.666667  0.333333  0.000000  1
  Tb  Tb22  1  0.333333  0.666667  0.500000  1
  Tb  Tb23  1  0.000000  0.000000  0.250000  1
  Si  Si24  1  0.658655  0.658655  0.857048  1
  Si  Si25  1  0.341345  0.000000  0.857048  1
  Si  Si26  1  0.000000  0.341345  0.857048  1
  Si  Si27  1  0.000000  0.658655  0.357048  1
  Si  Si28  1  0.341345  0.000000  0.642952  1
  Si  Si29  1  0.341345  0.341345  0.357048  1
  Si  Si30  1  0.658655  0.000000  0.357048  1
  Si  Si31  1  0.341345  0.341345  0.142952  1
  Si  Si32  1  0.000000  0.658655  0.142952  1
  Si  Si33  1  0.000000  0.341345  0.642952  1
  Si  Si34  1  0.658655  0.658655  0.642952  1
  Si  Si35  1  0.658655  0.000000  0.142952  1
  O  O36  1  0.407005  0.000000  0.750000  1
  O  O37  1  0.407005  0.407005  0.250000  1
  O  O38  1  0.000000  0.592995  0.250000  1
  O  O39  1  0.000000  0.407005  0.750000  1
  O  O40  1  0.592995  0.592995  0.750000  1
  O  O41  1  0.592995  0.000000  0.250000  1
  O  O42  1  0.822570  0.822570  0.852432  1
  O  O43  1  0.177430  0.000000  0.852432  1
  O  O44  1  0.000000  0.177430  0.852432  1
  O  O45  1  0.000000  0.822570  0.352432  1
  O  O46  1  0.177430  0.000000  0.647568  1
  O  O47  1  0.177430  0.177430  0.352432  1
  O  O48  1  0.822570  0.000000  0.352432  1
  O  O49  1  0.177430  0.177430  0.147568  1
  O  O50  1  0.000000  0.822570  0.147568  1
  O  O51  1  0.000000  0.177430  0.647568  1
  O  O52  1  0.822570  0.822570  0.647568  1
  O  O53  1  0.822570  0.000000  0.147568  1
  O  O54  1  0.321852  0.844938  0.907955  1
  O  O55  1  0.155062  0.476914  0.907955  1
  O  O56  1  0.523086  0.678148  0.907955  1
  O  O57  1  0.476914  0.321852  0.407955  1
  O  O58  1  0.678148  0.523086  0.592045  1
  O  O59  1  0.678148  0.155062  0.407955  1
  O  O60  1  0.844938  0.523086  0.407955  1
  O  O61  1  0.155062  0.678148  0.092045  1
  O  O62  1  0.523086  0.844938  0.092045  1
  O  O63  1  0.476914  0.155062  0.592045  1
  O  O64  1  0.844938  0.321852  0.592045  1
  O  O65  1  0.321852  0.476914  0.092045  1
  O  O66  1  0.678148  0.155062  0.092045  1
  O  O67  1  0.844938  0.523086  0.092045  1
  O  O68  1  0.476914  0.321852  0.092045  1
  O  O69  1  0.523086  0.678148  0.592045  1
  O  O70  1  0.321852  0.476914  0.407955  1
  O  O71  1  0.321852  0.844938  0.592045  1
  O  O72  1  0.678148  0.523086  0.907955  1
  O  O73  1  0.155062  0.678148  0.407955  1
  O  O74  1  0.523086  0.844938  0.407955  1
  O  O75  1  0.476914  0.155062  0.907955  1
  O  O76  1  0.844938  0.321852  0.907955  1
  O  O77  1  0.155062  0.476914  0.592045  1
