# generated using pymatgen
data_Hf2Ga3
_symmetry_space_group_name_H-M   'P 1'
_cell_length_a   8.30310669
_cell_length_b   7.36408425
_cell_length_c   5.47034599
_cell_angle_alpha   79.11610150
_cell_angle_beta   60.56960272
_cell_angle_gamma   40.31429578
_symmetry_Int_Tables_number   1
_chemical_formula_structural   Hf2Ga3
_chemical_formula_sum   'Hf4 Ga6'
_cell_volume   177.93113885
_cell_formula_units_Z   2
loop_
 _symmetry_equiv_pos_site_id
 _symmetry_equiv_pos_as_xyz
  1  'x, y, z'
loop_
 _atom_site_type_symbol
 _atom_site_label
 _atom_site_symmetry_multiplicity
 _atom_site_fract_x
 _atom_site_fract_y
 _atom_site_fract_z
 _atom_site_occupancy
  Hf  Hf0  1  0.115804  0.488816  0.019381  1
  Hf  Hf1  1  0.375999  0.019381  0.488816  1
  Hf  Hf2  1  0.230619  0.874001  0.134196  1
  Hf  Hf3  1  0.761184  0.134196  0.874001  1
  Ga  Ga4  1  0.623108  0.876892  0.876892  1
  Ga  Ga5  1  0.373108  0.626892  0.626892  1
  Ga  Ga6  1  0.712057  0.058668  0.426243  1
  Ga  Ga7  1  0.803031  0.426243  0.058668  1
  Ga  Ga8  1  0.823757  0.446969  0.537943  1
  Ga  Ga9  1  0.191332  0.537943  0.446969  1
