# generated using pymatgen
data_Na6MnSe4
_symmetry_space_group_name_H-M   'P 1'
_cell_length_a   9.42087289
_cell_length_b   9.42087289
_cell_length_c   7.27488185
_cell_angle_alpha   90.00000000
_cell_angle_beta   90.00000000
_cell_angle_gamma   120.00000000
_symmetry_Int_Tables_number   1
_chemical_formula_structural   Na6MnSe4
_chemical_formula_sum   'Na12 Mn2 Se8'
_cell_volume   559.16356438
_cell_formula_units_Z   2
loop_
 _symmetry_equiv_pos_site_id
 _symmetry_equiv_pos_as_xyz
  1  'x, y, z'
loop_
 _atom_site_type_symbol
 _atom_site_label
 _atom_site_symmetry_multiplicity
 _atom_site_fract_x
 _atom_site_fract_y
 _atom_site_fract_z
 _atom_site_occupancy
  Na  Na0  1  0.147960  0.852040  0.539602  1
  Na  Na1  1  0.295919  0.147960  0.039602  1
  Na  Na2  1  0.852040  0.704081  0.039602  1
  Na  Na3  1  0.147960  0.295919  0.539602  1
  Na  Na4  1  0.704081  0.852040  0.539602  1
  Na  Na5  1  0.852040  0.147960  0.039602  1
  Na  Na6  1  0.531057  0.468943  0.370529  1
  Na  Na7  1  0.062114  0.531057  0.870529  1
  Na  Na8  1  0.468943  0.937886  0.870529  1
  Na  Na9  1  0.531057  0.062114  0.370529  1
  Na  Na10  1  0.937886  0.468943  0.370529  1
  Na  Na11  1  0.468943  0.531057  0.870529  1
  Mn  Mn12  1  0.333333  0.666667  0.251459  1
  Mn  Mn13  1  0.666667  0.333333  0.751459  1
  Se  Se14  1  0.333333  0.666667  0.600775  1
  Se  Se15  1  0.666667  0.333333  0.100775  1
  Se  Se16  1  0.185837  0.814163  0.143224  1
  Se  Se17  1  0.371673  0.185837  0.643224  1
  Se  Se18  1  0.814163  0.628327  0.643224  1
  Se  Se19  1  0.185837  0.371673  0.143224  1
  Se  Se20  1  0.628327  0.814163  0.143224  1
  Se  Se21  1  0.814163  0.185837  0.643224  1
