# generated using pymatgen
data_BaCaSi
_symmetry_space_group_name_H-M   'P 1'
_cell_length_a   5.07254655
_cell_length_b   8.57783628
_cell_length_c   9.19073236
_cell_angle_alpha   90.00000000
_cell_angle_beta   90.00000000
_cell_angle_gamma   90.00000000
_symmetry_Int_Tables_number   1
_chemical_formula_structural   BaCaSi
_chemical_formula_sum   'Ba4 Ca4 Si4'
_cell_volume   399.90231055
_cell_formula_units_Z   4
loop_
 _symmetry_equiv_pos_site_id
 _symmetry_equiv_pos_as_xyz
  1  'x, y, z'
loop_
 _atom_site_type_symbol
 _atom_site_label
 _atom_site_symmetry_multiplicity
 _atom_site_fract_x
 _atom_site_fract_y
 _atom_site_fract_z
 _atom_site_occupancy
  Ba  Ba0  1  0.250000  0.028479  0.175745  1
  Ba  Ba1  1  0.750000  0.971521  0.824255  1
  Ba  Ba2  1  0.250000  0.528479  0.324255  1
  Ba  Ba3  1  0.750000  0.471521  0.675745  1
  Ca  Ca4  1  0.750000  0.358637  0.074243  1
  Ca  Ca5  1  0.250000  0.641363  0.925757  1
  Ca  Ca6  1  0.750000  0.858637  0.425757  1
  Ca  Ca7  1  0.250000  0.141363  0.574243  1
  Si  Si8  1  0.250000  0.781574  0.608595  1
  Si  Si9  1  0.750000  0.218426  0.391405  1
  Si  Si10  1  0.250000  0.281574  0.891405  1
  Si  Si11  1  0.750000  0.718426  0.108595  1
