# generated using pymatgen
data_Na3Zn(BO2)5
_symmetry_space_group_name_H-M   'P 1'
_cell_length_a   7.98461790
_cell_length_b   12.38284862
_cell_length_c   18.24243302
_cell_angle_alpha   90.00000000
_cell_angle_beta   90.00000000
_cell_angle_gamma   90.00000000
_symmetry_Int_Tables_number   1
_chemical_formula_structural   Na3Zn(BO2)5
_chemical_formula_sum   'Na24 Zn8 B40 O80'
_cell_volume   1803.67157925
_cell_formula_units_Z   8
loop_
 _symmetry_equiv_pos_site_id
 _symmetry_equiv_pos_as_xyz
  1  'x, y, z'
loop_
 _atom_site_type_symbol
 _atom_site_label
 _atom_site_symmetry_multiplicity
 _atom_site_fract_x
 _atom_site_fract_y
 _atom_site_fract_z
 _atom_site_occupancy
  Na  Na0  1  0.707319  0.572768  0.429652  1
  Na  Na1  1  0.207319  0.927232  0.570348  1
  Na  Na2  1  0.292681  0.072768  0.070348  1
  Na  Na3  1  0.792681  0.427232  0.929652  1
  Na  Na4  1  0.292681  0.427232  0.570348  1
  Na  Na5  1  0.792681  0.072768  0.429652  1
  Na  Na6  1  0.707319  0.927232  0.929652  1
  Na  Na7  1  0.207319  0.572768  0.070348  1
  Na  Na8  1  0.331044  0.081622  0.421393  1
  Na  Na9  1  0.831044  0.418378  0.578607  1
  Na  Na10  1  0.668956  0.581622  0.078607  1
  Na  Na11  1  0.168956  0.918378  0.921393  1
  Na  Na12  1  0.668956  0.918378  0.578607  1
  Na  Na13  1  0.168956  0.581622  0.421393  1
  Na  Na14  1  0.331044  0.418378  0.921393  1
  Na  Na15  1  0.831044  0.081622  0.078607  1
  Na  Na16  1  0.310182  0.347194  0.245398  1
  Na  Na17  1  0.810182  0.152806  0.754602  1
  Na  Na18  1  0.689818  0.847194  0.254602  1
  Na  Na19  1  0.189818  0.652806  0.745398  1
  Na  Na20  1  0.689818  0.652806  0.754602  1
  Na  Na21  1  0.189818  0.847194  0.245398  1
  Na  Na22  1  0.310182  0.152806  0.745398  1
  Na  Na23  1  0.810182  0.347194  0.254602  1
  Zn  Zn24  1  0.576232  0.323469  0.403318  1
  Zn  Zn25  1  0.076232  0.176531  0.596682  1
  Zn  Zn26  1  0.423768  0.823469  0.096682  1
  Zn  Zn27  1  0.923768  0.676531  0.903318  1
  Zn  Zn28  1  0.423768  0.676531  0.596682  1
  Zn  Zn29  1  0.923768  0.823469  0.403318  1
  Zn  Zn30  1  0.576232  0.176531  0.903318  1
  Zn  Zn31  1  0.076232  0.323469  0.096682  1
  B  B32  1  0.920228  0.342960  0.424636  1
  B  B33  1  0.420228  0.157040  0.575364  1
  B  B34  1  0.079772  0.842960  0.075364  1
  B  B35  1  0.579772  0.657040  0.924636  1
  B  B36  1  0.079772  0.657040  0.575364  1
  B  B37  1  0.579772  0.842960  0.424636  1
  B  B38  1  0.920228  0.157040  0.924636  1
  B  B39  1  0.420228  0.342960  0.075364  1
  B  B40  1  0.227394  0.327808  0.427028  1
  B  B41  1  0.727394  0.172192  0.572972  1
  B  B42  1  0.772606  0.827808  0.072972  1
  B  B43  1  0.272606  0.672192  0.927028  1
  B  B44  1  0.772606  0.672192  0.572972  1
  B  B45  1  0.272606  0.827808  0.427028  1
  B  B46  1  0.227394  0.172192  0.927028  1
  B  B47  1  0.727394  0.327808  0.072972  1
  B  B48  1  0.063259  0.212909  0.336392  1
  B  B49  1  0.563259  0.287091  0.663608  1
  B  B50  1  0.936741  0.712909  0.163608  1
  B  B51  1  0.436741  0.787091  0.836392  1
  B  B52  1  0.936741  0.787091  0.663608  1
  B  B53  1  0.436741  0.712909  0.336392  1
  B  B54  1  0.063259  0.287091  0.836392  1
  B  B55  1  0.563259  0.212909  0.163608  1
  B  B56  1  0.555128  0.150574  0.297096  1
  B  B57  1  0.055128  0.349426  0.702904  1
  B  B58  1  0.444872  0.650574  0.202904  1
  B  B59  1  0.944872  0.849426  0.797096  1
  B  B60  1  0.444872  0.849426  0.702904  1
  B  B61  1  0.944872  0.650574  0.297096  1
  B  B62  1  0.555128  0.349426  0.797096  1
  B  B63  1  0.055128  0.150574  0.202904  1
  B  B64  1  0.509696  0.521541  0.301415  1
  B  B65  1  0.009696  0.978459  0.698585  1
  B  B66  1  0.490304  0.021541  0.198585  1
  B  B67  1  0.990304  0.478459  0.801415  1
  B  B68  1  0.490304  0.478459  0.698585  1
  B  B69  1  0.990304  0.021541  0.301415  1
  B  B70  1  0.509696  0.978459  0.801415  1
  B  B71  1  0.009696  0.521541  0.198585  1
  O  O72  1  0.574183  0.169747  0.369495  1
  O  O73  1  0.074183  0.330253  0.630505  1
  O  O74  1  0.425817  0.669747  0.130505  1
  O  O75  1  0.925817  0.830253  0.869495  1
  O  O76  1  0.425817  0.830253  0.630505  1
  O  O77  1  0.925817  0.669747  0.369495  1
  O  O78  1  0.574183  0.330253  0.869495  1
  O  O79  1  0.074183  0.169747  0.130505  1
  O  O80  1  0.219683  0.253665  0.369902  1
  O  O81  1  0.719683  0.246335  0.630098  1
  O  O82  1  0.780317  0.753665  0.130098  1
  O  O83  1  0.280317  0.746335  0.869902  1
  O  O84  1  0.780317  0.746335  0.630098  1
  O  O85  1  0.280317  0.753665  0.369902  1
  O  O86  1  0.219683  0.246335  0.869902  1
  O  O87  1  0.719683  0.253665  0.130098  1
  O  O88  1  0.778118  0.381706  0.455149  1
  O  O89  1  0.278118  0.118294  0.544851  1
  O  O90  1  0.221882  0.881706  0.044851  1
  O  O91  1  0.721882  0.618294  0.955149  1
  O  O92  1  0.221882  0.618294  0.544851  1
  O  O93  1  0.721882  0.881706  0.455149  1
  O  O94  1  0.778118  0.118294  0.955149  1
  O  O95  1  0.278118  0.381706  0.044851  1
  O  O96  1  0.371687  0.358331  0.458517  1
  O  O97  1  0.871687  0.141669  0.541483  1
  O  O98  1  0.628313  0.858331  0.041483  1
  O  O99  1  0.128313  0.641669  0.958517  1
  O  O100  1  0.628313  0.641669  0.541483  1
  O  O101  1  0.128313  0.858331  0.458517  1
  O  O102  1  0.371687  0.141669  0.958517  1
  O  O103  1  0.871687  0.358331  0.041483  1
  O  O104  1  0.575644  0.425837  0.318663  1
  O  O105  1  0.075644  0.074163  0.681337  1
  O  O106  1  0.424356  0.925837  0.181337  1
  O  O107  1  0.924356  0.574163  0.818663  1
  O  O108  1  0.424356  0.574163  0.681337  1
  O  O109  1  0.924356  0.925837  0.318663  1
  O  O110  1  0.575644  0.074163  0.818663  1
  O  O111  1  0.075644  0.425837  0.181337  1
  O  O112  1  0.573697  0.229075  0.243557  1
  O  O113  1  0.073697  0.270925  0.756443  1
  O  O114  1  0.426303  0.729075  0.256443  1
  O  O115  1  0.926303  0.770925  0.743557  1
  O  O116  1  0.426303  0.770925  0.756443  1
  O  O117  1  0.926303  0.729075  0.243557  1
  O  O118  1  0.573697  0.270925  0.743557  1
  O  O119  1  0.073697  0.229075  0.256443  1
  O  O120  1  0.456913  0.596396  0.353877  1
  O  O121  1  0.956913  0.903604  0.646123  1
  O  O122  1  0.543087  0.096396  0.146123  1
  O  O123  1  0.043087  0.403604  0.853877  1
  O  O124  1  0.543087  0.403604  0.646123  1
  O  O125  1  0.043087  0.096396  0.353877  1
  O  O126  1  0.456913  0.903604  0.853877  1
  O  O127  1  0.956913  0.596396  0.146123  1
  O  O128  1  0.490215  0.545805  0.225900  1
  O  O129  1  0.990215  0.954195  0.774100  1
  O  O130  1  0.509785  0.045805  0.274100  1
  O  O131  1  0.009785  0.454195  0.725900  1
  O  O132  1  0.509785  0.454195  0.774100  1
  O  O133  1  0.009785  0.045805  0.225900  1
  O  O134  1  0.490215  0.954195  0.725900  1
  O  O135  1  0.990215  0.545805  0.274100  1
  O  O136  1  0.917154  0.273075  0.365332  1
  O  O137  1  0.417154  0.226925  0.634668  1
  O  O138  1  0.082846  0.773075  0.134668  1
  O  O139  1  0.582846  0.726925  0.865332  1
  O  O140  1  0.082846  0.726925  0.634668  1
  O  O141  1  0.582846  0.773075  0.365332  1
  O  O142  1  0.917154  0.226925  0.865332  1
  O  O143  1  0.417154  0.273075  0.134668  1
  O  O144  1  0.077271  0.376652  0.452387  1
  O  O145  1  0.577271  0.123348  0.547613  1
  O  O146  1  0.922729  0.876652  0.047613  1
  O  O147  1  0.422729  0.623348  0.952387  1
  O  O148  1  0.922729  0.623348  0.547613  1
  O  O149  1  0.422729  0.876652  0.452387  1
  O  O150  1  0.077271  0.123348  0.952387  1
  O  O151  1  0.577271  0.376652  0.047613  1
