# generated using pymatgen
data_Al7Si3BO18
_symmetry_space_group_name_H-M   'P 1'
_cell_length_a   4.79773430
_cell_length_b   11.85026192
_cell_length_c   20.27312244
_cell_angle_alpha   90.00000000
_cell_angle_beta   90.00000000
_cell_angle_gamma   90.00000000
_symmetry_Int_Tables_number   1
_chemical_formula_structural   Al7Si3BO18
_chemical_formula_sum   'Al28 Si12 B4 O72'
_cell_volume   1152.61637621
_cell_formula_units_Z   4
loop_
 _symmetry_equiv_pos_site_id
 _symmetry_equiv_pos_as_xyz
  1  'x, y, z'
loop_
 _atom_site_type_symbol
 _atom_site_label
 _atom_site_symmetry_multiplicity
 _atom_site_fract_x
 _atom_site_fract_y
 _atom_site_fract_z
 _atom_site_occupancy
  Al  Al0  1  0.889608  0.250000  0.249624  1
  Al  Al1  1  0.389608  0.250000  0.250376  1
  Al  Al2  1  0.110392  0.750000  0.750376  1
  Al  Al3  1  0.610392  0.750000  0.749624  1
  Al  Al4  1  0.058816  0.389885  0.472207  1
  Al  Al5  1  0.558816  0.110115  0.027793  1
  Al  Al6  1  0.941184  0.889885  0.527793  1
  Al  Al7  1  0.441184  0.610115  0.972207  1
  Al  Al8  1  0.941184  0.610115  0.527793  1
  Al  Al9  1  0.441184  0.889885  0.972207  1
  Al  Al10  1  0.058816  0.110115  0.472207  1
  Al  Al11  1  0.558816  0.389885  0.027793  1
  Al  Al12  1  0.559754  0.508625  0.430616  1
  Al  Al13  1  0.059754  0.991375  0.069384  1
  Al  Al14  1  0.440246  0.008625  0.569384  1
  Al  Al15  1  0.940246  0.491375  0.930616  1
  Al  Al16  1  0.440246  0.491375  0.569384  1
  Al  Al17  1  0.940246  0.008625  0.930616  1
  Al  Al18  1  0.559754  0.991375  0.430616  1
  Al  Al19  1  0.059754  0.508625  0.069384  1
  Al  Al20  1  0.554082  0.643538  0.287057  1
  Al  Al21  1  0.054082  0.856462  0.212943  1
  Al  Al22  1  0.445918  0.143538  0.712943  1
  Al  Al23  1  0.945918  0.356462  0.787057  1
  Al  Al24  1  0.445918  0.356462  0.712943  1
  Al  Al25  1  0.945918  0.143538  0.787057  1
  Al  Al26  1  0.554082  0.856462  0.287057  1
  Al  Al27  1  0.054082  0.643538  0.212943  1
  Si  Si28  1  0.589036  0.250000  0.403742  1
  Si  Si29  1  0.089036  0.250000  0.096258  1
  Si  Si30  1  0.410964  0.750000  0.596258  1
  Si  Si31  1  0.910964  0.750000  0.903742  1
  Si  Si32  1  0.086987  0.474498  0.327539  1
  Si  Si33  1  0.586987  0.025502  0.172461  1
  Si  Si34  1  0.913013  0.974498  0.672461  1
  Si  Si35  1  0.413013  0.525502  0.827539  1
  Si  Si36  1  0.913013  0.525502  0.672461  1
  Si  Si37  1  0.413013  0.974498  0.827539  1
  Si  Si38  1  0.086987  0.025502  0.327539  1
  Si  Si39  1  0.586987  0.474498  0.172461  1
  B  B40  1  0.722625  0.750000  0.416070  1
  B  B41  1  0.222625  0.750000  0.083930  1
  B  B42  1  0.277375  0.250000  0.583930  1
  B  B43  1  0.777375  0.250000  0.916070  1
  O  O44  1  0.642661  0.250000  0.323035  1
  O  O45  1  0.142661  0.250000  0.176965  1
  O  O46  1  0.357339  0.750000  0.676965  1
  O  O47  1  0.857339  0.750000  0.823035  1
  O  O48  1  0.140176  0.357115  0.285781  1
  O  O49  1  0.640176  0.142885  0.214219  1
  O  O50  1  0.859824  0.857115  0.714219  1
  O  O51  1  0.359824  0.642885  0.785781  1
  O  O52  1  0.859824  0.642885  0.714219  1
  O  O53  1  0.359824  0.857115  0.785781  1
  O  O54  1  0.140176  0.142885  0.285781  1
  O  O55  1  0.640176  0.357115  0.214219  1
  O  O56  1  0.397789  0.360384  0.423601  1
  O  O57  1  0.897789  0.139616  0.076399  1
  O  O58  1  0.602211  0.860384  0.576399  1
  O  O59  1  0.102211  0.639616  0.923601  1
  O  O60  1  0.602211  0.639616  0.576399  1
  O  O61  1  0.102211  0.860384  0.923601  1
  O  O62  1  0.397789  0.139616  0.423601  1
  O  O63  1  0.897789  0.360384  0.076399  1
  O  O64  1  0.896645  0.448616  0.392973  1
  O  O65  1  0.396645  0.051384  0.107027  1
  O  O66  1  0.103355  0.948616  0.607027  1
  O  O67  1  0.603355  0.551384  0.892973  1
  O  O68  1  0.103355  0.551384  0.607027  1
  O  O69  1  0.603355  0.948616  0.892973  1
  O  O70  1  0.896645  0.051384  0.392973  1
  O  O71  1  0.396645  0.448616  0.107027  1
  O  O72  1  0.896119  0.561688  0.282789  1
  O  O73  1  0.396119  0.938312  0.217211  1
  O  O74  1  0.103881  0.061688  0.717211  1
  O  O75  1  0.603881  0.438312  0.782789  1
  O  O76  1  0.103881  0.438312  0.717211  1
  O  O77  1  0.603881  0.061688  0.782789  1
  O  O78  1  0.896119  0.938312  0.282789  1
  O  O79  1  0.396119  0.561688  0.217211  1
  O  O80  1  0.877544  0.250000  0.452314  1
  O  O81  1  0.377544  0.250000  0.047686  1
  O  O82  1  0.122456  0.750000  0.547686  1
  O  O83  1  0.622456  0.750000  0.952314  1
  O  O84  1  0.379065  0.543439  0.348901  1
  O  O85  1  0.879065  0.956561  0.151099  1
  O  O86  1  0.620935  0.043439  0.651099  1
  O  O87  1  0.120935  0.456561  0.848901  1
  O  O88  1  0.620935  0.456561  0.651099  1
  O  O89  1  0.120935  0.043439  0.848901  1
  O  O90  1  0.379065  0.956561  0.348901  1
  O  O91  1  0.879065  0.543439  0.151099  1
  O  O92  1  0.260984  0.750000  0.270713  1
  O  O93  1  0.760984  0.750000  0.229287  1
  O  O94  1  0.739016  0.250000  0.729287  1
  O  O95  1  0.239016  0.250000  0.770713  1
  O  O96  1  0.649663  0.750000  0.351431  1
  O  O97  1  0.149663  0.750000  0.148569  1
  O  O98  1  0.350337  0.250000  0.648569  1
  O  O99  1  0.850337  0.250000  0.851431  1
  O  O100  1  0.755606  0.648605  0.448112  1
  O  O101  1  0.255606  0.851395  0.051888  1
  O  O102  1  0.244394  0.148605  0.551888  1
  O  O103  1  0.744394  0.351395  0.948112  1
  O  O104  1  0.244394  0.351395  0.551888  1
  O  O105  1  0.744394  0.148605  0.948112  1
  O  O106  1  0.755606  0.851395  0.448112  1
  O  O107  1  0.255606  0.648605  0.051888  1
  O  O108  1  0.250408  0.533785  0.487938  1
  O  O109  1  0.750408  0.966215  0.012062  1
  O  O110  1  0.749592  0.033785  0.512062  1
  O  O111  1  0.249592  0.466215  0.987938  1
  O  O112  1  0.749592  0.466215  0.512062  1
  O  O113  1  0.249592  0.033785  0.987938  1
  O  O114  1  0.250408  0.966215  0.487938  1
  O  O115  1  0.750408  0.533785  0.012062  1
