# generated using pymatgen
data_YbCrSb3
_symmetry_space_group_name_H-M   'P 1'
_cell_length_a   6.02671015
_cell_length_b   6.22352534
_cell_length_c   13.14951253
_cell_angle_alpha   90.00000000
_cell_angle_beta   90.00000000
_cell_angle_gamma   90.00000000
_symmetry_Int_Tables_number   1
_chemical_formula_structural   YbCrSb3
_chemical_formula_sum   'Yb4 Cr4 Sb12'
_cell_volume   493.20380714
_cell_formula_units_Z   4
loop_
 _symmetry_equiv_pos_site_id
 _symmetry_equiv_pos_as_xyz
  1  'x, y, z'
loop_
 _atom_site_type_symbol
 _atom_site_label
 _atom_site_symmetry_multiplicity
 _atom_site_fract_x
 _atom_site_fract_y
 _atom_site_fract_z
 _atom_site_occupancy
  Yb  Yb0  1  0.250000  0.501761  0.308426  1
  Yb  Yb1  1  0.750000  0.498239  0.691574  1
  Yb  Yb2  1  0.250000  0.001761  0.691574  1
  Yb  Yb3  1  0.750000  0.998239  0.308426  1
  Cr  Cr4  1  0.500000  0.750000  0.904034  1
  Cr  Cr5  1  0.000000  0.250000  0.095966  1
  Cr  Cr6  1  0.500000  0.250000  0.095966  1
  Cr  Cr7  1  0.000000  0.750000  0.904034  1
  Sb  Sb8  1  0.000000  0.750000  0.502035  1
  Sb  Sb9  1  0.500000  0.250000  0.497965  1
  Sb  Sb10  1  0.000000  0.250000  0.497965  1
  Sb  Sb11  1  0.500000  0.750000  0.502035  1
  Sb  Sb12  1  0.750000  0.892760  0.063845  1
  Sb  Sb13  1  0.250000  0.107240  0.936155  1
  Sb  Sb14  1  0.750000  0.392760  0.936155  1
  Sb  Sb15  1  0.250000  0.607240  0.063845  1
  Sb  Sb16  1  0.750000  0.504040  0.215901  1
  Sb  Sb17  1  0.250000  0.495960  0.784099  1
  Sb  Sb18  1  0.750000  0.004040  0.784099  1
  Sb  Sb19  1  0.250000  0.995960  0.215901  1
