# generated using pymatgen
data_HfGeTe
_symmetry_space_group_name_H-M   'P 1'
_cell_length_a   3.89961353
_cell_length_b   3.89961353
_cell_length_c   8.53524872
_cell_angle_alpha   90.00000000
_cell_angle_beta   90.00000000
_cell_angle_gamma   90.00000000
_symmetry_Int_Tables_number   1
_chemical_formula_structural   HfGeTe
_chemical_formula_sum   'Hf2 Ge2 Te2'
_cell_volume   129.79540509
_cell_formula_units_Z   2
loop_
 _symmetry_equiv_pos_site_id
 _symmetry_equiv_pos_as_xyz
  1  'x, y, z'
loop_
 _atom_site_type_symbol
 _atom_site_label
 _atom_site_symmetry_multiplicity
 _atom_site_fract_x
 _atom_site_fract_y
 _atom_site_fract_z
 _atom_site_occupancy
  Hf  Hf0  1  0.000000  0.500000  0.753712  1
  Hf  Hf1  1  0.500000  0.000000  0.246288  1
  Ge  Ge2  1  0.000000  0.000000  0.000000  1
  Ge  Ge3  1  0.500000  0.500000  0.000000  1
  Te  Te4  1  0.500000  0.000000  0.621187  1
  Te  Te5  1  0.000000  0.500000  0.378813  1
