# generated using pymatgen
data_K2Si(S2O7)3
_symmetry_space_group_name_H-M   'P 1'
_cell_length_a   11.28048125
_cell_length_b   9.60016630
_cell_length_c   19.82058870
_cell_angle_alpha   90.00000000
_cell_angle_beta   122.31892785
_cell_angle_gamma   90.00000000
_symmetry_Int_Tables_number   1
_chemical_formula_structural   K2Si(S2O7)3
_chemical_formula_sum   'K8 Si4 S24 O84'
_cell_volume   1813.94227175
_cell_formula_units_Z   4
loop_
 _symmetry_equiv_pos_site_id
 _symmetry_equiv_pos_as_xyz
  1  'x, y, z'
loop_
 _atom_site_type_symbol
 _atom_site_label
 _atom_site_symmetry_multiplicity
 _atom_site_fract_x
 _atom_site_fract_y
 _atom_site_fract_z
 _atom_site_occupancy
  K  K0  1  0.201783  0.509769  0.638540  1
  K  K1  1  0.201783  0.990231  0.138540  1
  K  K2  1  0.798217  0.490231  0.361460  1
  K  K3  1  0.798217  0.009769  0.861460  1
  K  K4  1  0.778260  0.498095  0.685277  1
  K  K5  1  0.778260  0.001905  0.185277  1
  K  K6  1  0.221740  0.501905  0.314723  1
  K  K7  1  0.221740  0.998095  0.814723  1
  Si  Si8  1  0.730414  0.498786  0.997268  1
  Si  Si9  1  0.730414  0.001214  0.497268  1
  Si  Si10  1  0.269586  0.501214  0.002732  1
  Si  Si11  1  0.269586  0.998786  0.502732  1
  S  S12  1  0.454878  0.757839  0.603527  1
  S  S13  1  0.454878  0.742161  0.103527  1
  S  S14  1  0.545122  0.242161  0.396473  1
  S  S15  1  0.545122  0.257839  0.896473  1
  S  S16  1  0.946274  0.216257  0.618599  1
  S  S17  1  0.946274  0.283743  0.118599  1
  S  S18  1  0.053726  0.783743  0.381401  1
  S  S19  1  0.053726  0.716257  0.881401  1
  S  S20  1  0.670477  0.421432  0.829435  1
  S  S21  1  0.670477  0.078568  0.329435  1
  S  S22  1  0.329523  0.578568  0.170565  1
  S  S23  1  0.329523  0.921432  0.670565  1
  S  S24  1  0.880416  0.713911  0.552834  1
  S  S25  1  0.880416  0.786089  0.052834  1
  S  S26  1  0.119584  0.286089  0.447166  1
  S  S27  1  0.119584  0.213911  0.947166  1
  S  S28  1  0.193761  0.533864  0.830731  1
  S  S29  1  0.193761  0.966136  0.330731  1
  S  S30  1  0.806239  0.466136  0.169269  1
  S  S31  1  0.806239  0.033864  0.669269  1
  S  S32  1  0.412352  0.277217  0.570271  1
  S  S33  1  0.412352  0.222783  0.070271  1
  S  S34  1  0.587648  0.722783  0.429729  1
  S  S35  1  0.587648  0.777217  0.929729  1
  O  O36  1  0.067768  0.453238  0.786637  1
  O  O37  1  0.067768  0.046762  0.286637  1
  O  O38  1  0.932232  0.546762  0.213363  1
  O  O39  1  0.932232  0.953238  0.713363  1
  O  O40  1  0.863745  0.869034  0.534740  1
  O  O41  1  0.863745  0.630966  0.034740  1
  O  O42  1  0.136255  0.130966  0.465260  1
  O  O43  1  0.136255  0.369034  0.965260  1
  O  O44  1  0.284485  0.487071  0.917257  1
  O  O45  1  0.284485  0.012929  0.417257  1
  O  O46  1  0.715515  0.512929  0.082743  1
  O  O47  1  0.715515  0.987071  0.582743  1
  O  O48  1  0.596497  0.723354  0.630031  1
  O  O49  1  0.596497  0.776646  0.130031  1
  O  O50  1  0.403503  0.276646  0.369969  1
  O  O51  1  0.403503  0.223354  0.869969  1
  O  O52  1  0.869751  0.126911  0.543930  1
  O  O53  1  0.869751  0.373089  0.043930  1
  O  O54  1  0.130249  0.873089  0.456070  1
  O  O55  1  0.130249  0.626911  0.956070  1
  O  O56  1  0.717717  0.660225  0.516586  1
  O  O57  1  0.717717  0.839775  0.016586  1
  O  O58  1  0.282283  0.339775  0.483414  1
  O  O59  1  0.282283  0.160225  0.983414  1
  O  O60  1  0.278783  0.557110  0.798265  1
  O  O61  1  0.278783  0.942890  0.298265  1
  O  O62  1  0.721217  0.442890  0.201735  1
  O  O63  1  0.721217  0.057110  0.701735  1
  O  O64  1  0.745010  0.487633  0.912107  1
  O  O65  1  0.745010  0.012367  0.412107  1
  O  O66  1  0.254990  0.512367  0.087893  1
  O  O67  1  0.254990  0.987633  0.587893  1
  O  O68  1  0.947020  0.684013  0.636225  1
  O  O69  1  0.947020  0.815987  0.136225  1
  O  O70  1  0.052980  0.315987  0.363775  1
  O  O71  1  0.052980  0.184013  0.863775  1
  O  O72  1  0.409152  0.123199  0.550512  1
  O  O73  1  0.409152  0.376801  0.050512  1
  O  O74  1  0.590848  0.876801  0.449488  1
  O  O75  1  0.590848  0.623199  0.949488  1
  O  O76  1  0.529613  0.349818  0.821593  1
  O  O77  1  0.529613  0.150182  0.321593  1
  O  O78  1  0.470387  0.650182  0.178407  1
  O  O79  1  0.470387  0.849818  0.678407  1
  O  O80  1  0.354179  0.649360  0.584203  1
  O  O81  1  0.354179  0.850640  0.084203  1
  O  O82  1  0.645821  0.350640  0.415797  1
  O  O83  1  0.645821  0.149360  0.915797  1
  O  O84  1  0.928099  0.361892  0.599826  1
  O  O85  1  0.928099  0.138108  0.099826  1
  O  O86  1  0.071901  0.638108  0.400174  1
  O  O87  1  0.071901  0.861892  0.900174  1
  O  O88  1  0.534180  0.340969  0.578829  1
  O  O89  1  0.534180  0.159031  0.078829  1
  O  O90  1  0.465820  0.659031  0.421171  1
  O  O91  1  0.465820  0.840969  0.921171  1
  O  O92  1  0.611900  0.523853  0.767483  1
  O  O93  1  0.611900  0.976147  0.267483  1
  O  O94  1  0.388100  0.476147  0.232517  1
  O  O95  1  0.388100  0.023853  0.732517  1
  O  O96  1  0.085332  0.164710  0.672810  1
  O  O97  1  0.085332  0.335290  0.172810  1
  O  O98  1  0.914668  0.835290  0.327190  1
  O  O99  1  0.914668  0.664710  0.827190  1
  O  O100  1  0.851186  0.194196  0.659284  1
  O  O101  1  0.851186  0.305804  0.159284  1
  O  O102  1  0.148814  0.805804  0.340716  1
  O  O103  1  0.148814  0.694196  0.840716  1
  O  O104  1  0.400741  0.866926  0.537418  1
  O  O105  1  0.400741  0.633074  0.037418  1
  O  O106  1  0.599259  0.133074  0.462582  1
  O  O107  1  0.599259  0.366926  0.962582  1
  O  O108  1  0.933925  0.646945  0.509485  1
  O  O109  1  0.933925  0.853055  0.009485  1
  O  O110  1  0.066075  0.353055  0.490515  1
  O  O111  1  0.066075  0.146945  0.990515  1
  O  O112  1  0.376093  0.300976  0.628471  1
  O  O113  1  0.376093  0.199024  0.128471  1
  O  O114  1  0.623907  0.699024  0.371529  1
  O  O115  1  0.623907  0.800976  0.871529  1
  O  O116  1  0.755265  0.312783  0.826461  1
  O  O117  1  0.755265  0.187217  0.326461  1
  O  O118  1  0.244735  0.687217  0.173539  1
  O  O119  1  0.244735  0.812783  0.673539  1
