# generated using pymatgen
data_K2La2B2O7
_symmetry_space_group_name_H-M   'P 1'
_cell_length_a   10.91604484
_cell_length_b   6.73283582
_cell_length_c   11.50475418
_cell_angle_alpha   90.00000000
_cell_angle_beta   117.11524476
_cell_angle_gamma   90.00000000
_symmetry_Int_Tables_number   1
_chemical_formula_structural   K2La2B2O7
_chemical_formula_sum   'K8 La8 B8 O28'
_cell_volume   752.61932339
_cell_formula_units_Z   4
loop_
 _symmetry_equiv_pos_site_id
 _symmetry_equiv_pos_as_xyz
  1  'x, y, z'
loop_
 _atom_site_type_symbol
 _atom_site_label
 _atom_site_symmetry_multiplicity
 _atom_site_fract_x
 _atom_site_fract_y
 _atom_site_fract_z
 _atom_site_occupancy
  K  K0  1  0.264793  0.061742  0.032308  1
  K  K1  1  0.235207  0.561742  0.967692  1
  K  K2  1  0.735207  0.938258  0.967692  1
  K  K3  1  0.764793  0.438258  0.032308  1
  K  K4  1  0.445048  0.244755  0.882366  1
  K  K5  1  0.054952  0.744755  0.117634  1
  K  K6  1  0.554952  0.755245  0.117634  1
  K  K7  1  0.945048  0.255245  0.882366  1
  La  La8  1  0.180341  0.546117  0.481254  1
  La  La9  1  0.319659  0.046117  0.518746  1
  La  La10  1  0.819659  0.453883  0.518746  1
  La  La11  1  0.680341  0.953883  0.481254  1
  La  La12  1  0.084874  0.917678  0.677791  1
  La  La13  1  0.415126  0.417678  0.322209  1
  La  La14  1  0.915126  0.082322  0.322209  1
  La  La15  1  0.584874  0.582322  0.677791  1
  B  B16  1  0.411642  0.747171  0.805085  1
  B  B17  1  0.088358  0.247171  0.194915  1
  B  B18  1  0.588358  0.252829  0.194915  1
  B  B19  1  0.911642  0.752829  0.805085  1
  B  B20  1  0.145539  0.345897  0.696299  1
  B  B21  1  0.354461  0.845897  0.303701  1
  B  B22  1  0.854461  0.654103  0.303701  1
  B  B23  1  0.645539  0.154103  0.696299  1
  O  O24  1  0.535574  0.650259  0.877821  1
  O  O25  1  0.964426  0.150259  0.122179  1
  O  O26  1  0.464426  0.349741  0.122179  1
  O  O27  1  0.035574  0.849741  0.877821  1
  O  O28  1  0.338499  0.847036  0.858424  1
  O  O29  1  0.161501  0.347036  0.141576  1
  O  O30  1  0.661501  0.152964  0.141576  1
  O  O31  1  0.838499  0.652964  0.858424  1
  O  O32  1  0.087786  0.532629  0.649264  1
  O  O33  1  0.412214  0.032629  0.350736  1
  O  O34  1  0.912214  0.467371  0.350736  1
  O  O35  1  0.587786  0.967371  0.649264  1
  O  O36  1  0.140608  0.254098  0.800615  1
  O  O37  1  0.359392  0.754098  0.199385  1
  O  O38  1  0.859392  0.745902  0.199385  1
  O  O39  1  0.640608  0.245902  0.800615  1
  O  O40  1  0.287136  0.747935  0.366316  1
  O  O41  1  0.212864  0.247935  0.633684  1
  O  O42  1  0.712864  0.252065  0.633684  1
  O  O43  1  0.787136  0.752065  0.366316  1
  O  O44  1  0.097674  0.880165  0.473074  1
  O  O45  1  0.402326  0.380165  0.526926  1
  O  O46  1  0.902326  0.119835  0.526926  1
  O  O47  1  0.597674  0.619835  0.473074  1
  O  O48  1  0.361199  0.742632  0.667107  1
  O  O49  1  0.138801  0.242632  0.332893  1
  O  O50  1  0.638801  0.257368  0.332893  1
  O  O51  1  0.861199  0.757368  0.667107  1
