# generated using pymatgen
data_CaAs3
_symmetry_space_group_name_H-M   'P 1'
_cell_length_a   5.88128499
_cell_length_b   5.92679054
_cell_length_c   5.99021591
_cell_angle_alpha   80.09653321
_cell_angle_beta   70.65490115
_cell_angle_gamma   75.48362192
_symmetry_Int_Tables_number   1
_chemical_formula_structural   CaAs3
_chemical_formula_sum   'Ca2 As6'
_cell_volume   189.81691507
_cell_formula_units_Z   2
loop_
 _symmetry_equiv_pos_site_id
 _symmetry_equiv_pos_as_xyz
  1  'x, y, z'
loop_
 _atom_site_type_symbol
 _atom_site_label
 _atom_site_symmetry_multiplicity
 _atom_site_fract_x
 _atom_site_fract_y
 _atom_site_fract_z
 _atom_site_occupancy
  Ca  Ca0  1  0.660645  0.683878  0.632134  1
  Ca  Ca1  1  0.339355  0.316122  0.367866  1
  As  As2  1  0.779117  0.011943  0.015845  1
  As  As3  1  0.220883  0.988057  0.984155  1
  As  As4  1  0.189671  0.855073  0.408256  1
  As  As5  1  0.810329  0.144927  0.591744  1
  As  As6  1  0.779099  0.589157  0.099410  1
  As  As7  1  0.220901  0.410843  0.900590  1
