# generated using pymatgen
data_Sr2SiO4
_symmetry_space_group_name_H-M   'P 1'
_cell_length_a   5.75752578
_cell_length_b   7.16529547
_cell_length_c   11.12053386
_cell_angle_alpha   90.00000000
_cell_angle_beta   117.74248697
_cell_angle_gamma   90.00000000
_symmetry_Int_Tables_number   1
_chemical_formula_structural   Sr2SiO4
_chemical_formula_sum   'Sr8 Si4 O16'
_cell_volume   406.03436566
_cell_formula_units_Z   4
loop_
 _symmetry_equiv_pos_site_id
 _symmetry_equiv_pos_as_xyz
  1  'x, y, z'
loop_
 _atom_site_type_symbol
 _atom_site_label
 _atom_site_symmetry_multiplicity
 _atom_site_fract_x
 _atom_site_fract_y
 _atom_site_fract_z
 _atom_site_occupancy
  Sr  Sr0  1  0.027828  0.501468  0.801979  1
  Sr  Sr1  1  0.972172  0.001468  0.698021  1
  Sr  Sr2  1  0.972172  0.498532  0.198021  1
  Sr  Sr3  1  0.027828  0.998532  0.301979  1
  Sr  Sr4  1  0.311289  0.159974  0.075441  1
  Sr  Sr5  1  0.688711  0.659974  0.424559  1
  Sr  Sr6  1  0.688711  0.840026  0.924559  1
  Sr  Sr7  1  0.311289  0.340026  0.575441  1
  Si  Si8  1  0.340727  0.721017  0.081511  1
  Si  Si9  1  0.659273  0.221017  0.418489  1
  Si  Si10  1  0.659273  0.278983  0.918489  1
  Si  Si11  1  0.340727  0.778983  0.581511  1
  O  O12  1  0.654914  0.764203  0.180905  1
  O  O13  1  0.345086  0.264203  0.319095  1
  O  O14  1  0.345086  0.235797  0.819095  1
  O  O15  1  0.654914  0.735797  0.680905  1
  O  O16  1  0.154239  0.824070  0.139532  1
  O  O17  1  0.845761  0.324070  0.360468  1
  O  O18  1  0.845761  0.175930  0.860468  1
  O  O19  1  0.154239  0.675930  0.639532  1
  O  O20  1  0.251430  0.818994  0.930125  1
  O  O21  1  0.748570  0.318994  0.569875  1
  O  O22  1  0.748570  0.181006  0.069875  1
  O  O23  1  0.251430  0.681006  0.430125  1
  O  O24  1  0.286375  0.003574  0.567685  1
  O  O25  1  0.713625  0.503574  0.932315  1
  O  O26  1  0.713625  0.996426  0.432315  1
  O  O27  1  0.286375  0.496426  0.067685  1
