# generated using pymatgen
data_CaB2F8
_symmetry_space_group_name_H-M   'P 1'
_cell_length_a   9.05665322
_cell_length_b   9.41320209
_cell_length_c   13.59525420
_cell_angle_alpha   90.00000000
_cell_angle_beta   90.00000000
_cell_angle_gamma   90.00000000
_symmetry_Int_Tables_number   1
_chemical_formula_structural   CaB2F8
_chemical_formula_sum   'Ca8 B16 F64'
_cell_volume   1159.02406601
_cell_formula_units_Z   8
loop_
 _symmetry_equiv_pos_site_id
 _symmetry_equiv_pos_as_xyz
  1  'x, y, z'
loop_
 _atom_site_type_symbol
 _atom_site_label
 _atom_site_symmetry_multiplicity
 _atom_site_fract_x
 _atom_site_fract_y
 _atom_site_fract_z
 _atom_site_occupancy
  Ca  Ca0  1  0.780750  0.466091  0.396164  1
  Ca  Ca1  1  0.280750  0.533909  0.103836  1
  Ca  Ca2  1  0.719250  0.966091  0.603836  1
  Ca  Ca3  1  0.219250  0.033909  0.896164  1
  Ca  Ca4  1  0.219250  0.533909  0.603836  1
  Ca  Ca5  1  0.719250  0.466091  0.896164  1
  Ca  Ca6  1  0.280750  0.033909  0.396164  1
  Ca  Ca7  1  0.780750  0.966091  0.103836  1
  B  B8  1  0.002751  0.721158  0.943682  1
  B  B9  1  0.675749  0.103587  0.341214  1
  B  B10  1  0.175749  0.896413  0.158786  1
  B  B11  1  0.824251  0.603587  0.658786  1
  B  B12  1  0.324251  0.396413  0.841214  1
  B  B13  1  0.324251  0.896413  0.658786  1
  B  B14  1  0.824251  0.103587  0.841214  1
  B  B15  1  0.175749  0.396413  0.341214  1
  B  B16  1  0.675749  0.603587  0.158786  1
  B  B17  1  0.502751  0.278842  0.556318  1
  B  B18  1  0.497249  0.221157  0.056318  1
  B  B19  1  0.997249  0.778842  0.443682  1
  B  B20  1  0.997249  0.278842  0.056318  1
  B  B21  1  0.497249  0.721158  0.443682  1
  B  B22  1  0.502751  0.778842  0.943682  1
  B  B23  1  0.002751  0.221157  0.556318  1
  F  F24  1  0.978976  0.085497  0.831006  1
  F  F25  1  0.749676  0.513027  0.225922  1
  F  F26  1  0.249676  0.486973  0.274078  1
  F  F27  1  0.750324  0.013027  0.774078  1
  F  F28  1  0.250324  0.986973  0.725922  1
  F  F29  1  0.250324  0.486973  0.774078  1
  F  F30  1  0.750324  0.513027  0.725922  1
  F  F31  1  0.249676  0.986973  0.225922  1
  F  F32  1  0.904452  0.813069  0.994532  1
  F  F33  1  0.404452  0.186931  0.505468  1
  F  F34  1  0.595548  0.313069  0.005468  1
  F  F35  1  0.095548  0.686931  0.494532  1
  F  F36  1  0.095548  0.186931  0.005468  1
  F  F37  1  0.595548  0.813069  0.494532  1
  F  F38  1  0.404452  0.686931  0.994532  1
  F  F39  1  0.904452  0.313069  0.505468  1
  F  F40  1  0.580201  0.127316  0.115940  1
  F  F41  1  0.080201  0.872684  0.384060  1
  F  F42  1  0.919799  0.627316  0.884060  1
  F  F43  1  0.419799  0.372684  0.615940  1
  F  F44  1  0.419799  0.872684  0.884060  1
  F  F45  1  0.919799  0.127316  0.615940  1
  F  F46  1  0.080201  0.372684  0.115940  1
  F  F47  1  0.580201  0.627316  0.384060  1
  F  F48  1  0.902264  0.195200  0.115201  1
  F  F49  1  0.402264  0.804800  0.384799  1
  F  F50  1  0.597736  0.695200  0.884799  1
  F  F51  1  0.097736  0.304800  0.615201  1
  F  F52  1  0.097736  0.804800  0.884799  1
  F  F53  1  0.597736  0.195200  0.615201  1
  F  F54  1  0.402264  0.304800  0.115201  1
  F  F55  1  0.902264  0.695200  0.384799  1
  F  F56  1  0.584792  0.858337  0.012804  1
  F  F57  1  0.084792  0.141663  0.487196  1
  F  F58  1  0.915208  0.358337  0.987196  1
  F  F59  1  0.415208  0.641663  0.512804  1
  F  F60  1  0.415208  0.141663  0.987196  1
  F  F61  1  0.915208  0.858337  0.512804  1
  F  F62  1  0.084792  0.641663  0.012804  1
  F  F63  1  0.584792  0.358337  0.487196  1
  F  F64  1  0.521024  0.585497  0.168994  1
  F  F65  1  0.021024  0.414503  0.331006  1
  F  F66  1  0.749676  0.013027  0.274078  1
  F  F67  1  0.478976  0.914503  0.668994  1
  F  F68  1  0.478976  0.414503  0.831006  1
  F  F69  1  0.978976  0.585497  0.668994  1
  F  F70  1  0.021024  0.914503  0.168994  1
  F  F71  1  0.521024  0.085497  0.331006  1
  F  F72  1  0.718146  0.569275  0.061267  1
  F  F73  1  0.218146  0.430725  0.438733  1
  F  F74  1  0.715283  0.246392  0.320868  1
  F  F75  1  0.281854  0.930725  0.561267  1
  F  F76  1  0.281854  0.430725  0.938733  1
  F  F77  1  0.781854  0.569275  0.561267  1
  F  F78  1  0.218146  0.930725  0.061267  1
  F  F79  1  0.718146  0.069275  0.438733  1
  F  F80  1  0.715283  0.746392  0.179132  1
  F  F81  1  0.215283  0.253608  0.320868  1
  F  F82  1  0.784717  0.246392  0.820868  1
  F  F83  1  0.284717  0.753608  0.679132  1
  F  F84  1  0.284717  0.253608  0.820868  1
  F  F85  1  0.784717  0.746392  0.679132  1
  F  F86  1  0.215283  0.753608  0.179132  1
  F  F87  1  0.781854  0.069275  0.938733  1
