# generated using pymatgen
data_Be2V
_symmetry_space_group_name_H-M   'P 1'
_cell_length_a   4.36713951
_cell_length_b   4.36713951
_cell_length_c   7.04590598
_cell_angle_alpha   90.00000000
_cell_angle_beta   90.00000000
_cell_angle_gamma   120.00000000
_symmetry_Int_Tables_number   1
_chemical_formula_structural   Be2V
_chemical_formula_sum   'Be8 V4'
_cell_volume   116.37551277
_cell_formula_units_Z   4
loop_
 _symmetry_equiv_pos_site_id
 _symmetry_equiv_pos_as_xyz
  1  'x, y, z'
loop_
 _atom_site_type_symbol
 _atom_site_label
 _atom_site_symmetry_multiplicity
 _atom_site_fract_x
 _atom_site_fract_y
 _atom_site_fract_z
 _atom_site_occupancy
  Be  Be0  1  0.000000  0.000000  0.000000  1
  Be  Be1  1  0.000000  0.000000  0.500000  1
  Be  Be2  1  0.828735  0.657470  0.250000  1
  Be  Be3  1  0.171265  0.828735  0.750000  1
  Be  Be4  1  0.657470  0.828735  0.750000  1
  Be  Be5  1  0.342530  0.171265  0.250000  1
  Be  Be6  1  0.828735  0.171265  0.250000  1
  Be  Be7  1  0.171265  0.342530  0.750000  1
  V  V8  1  0.333333  0.666667  0.067657  1
  V  V9  1  0.666667  0.333333  0.567657  1
  V  V10  1  0.666667  0.333333  0.932343  1
  V  V11  1  0.333333  0.666667  0.432343  1
