# generated using pymatgen
data_Fe2SiO4
_symmetry_space_group_name_H-M   'P 1'
_cell_length_a   5.89834761
_cell_length_b   5.89834761
_cell_length_c   5.89834761
_cell_angle_alpha   60.00000000
_cell_angle_beta   60.00000000
_cell_angle_gamma   60.00000000
_symmetry_Int_Tables_number   1
_chemical_formula_structural   Fe2SiO4
_chemical_formula_sum   'Fe4 Si2 O8'
_cell_volume   145.10289979
_cell_formula_units_Z   2
loop_
 _symmetry_equiv_pos_site_id
 _symmetry_equiv_pos_as_xyz
  1  'x, y, z'
loop_
 _atom_site_type_symbol
 _atom_site_label
 _atom_site_symmetry_multiplicity
 _atom_site_fract_x
 _atom_site_fract_y
 _atom_site_fract_z
 _atom_site_occupancy
  Fe  Fe0  1  0.625000  0.125000  0.625000  1
  Fe  Fe1  1  0.625000  0.625000  0.625000  1
  Fe  Fe2  1  0.125000  0.625000  0.625000  1
  Fe  Fe3  1  0.625000  0.625000  0.125000  1
  Si  Si4  1  0.000000  0.000000  0.000000  1
  Si  Si5  1  0.250000  0.250000  0.250000  1
  O  O6  1  0.884246  0.884246  0.347262  1
  O  O7  1  0.347262  0.884246  0.884246  1
  O  O8  1  0.884246  0.884246  0.884246  1
  O  O9  1  0.884246  0.347262  0.884246  1
  O  O10  1  0.365754  0.365754  0.902738  1
  O  O11  1  0.902738  0.365754  0.365754  1
  O  O12  1  0.365754  0.365754  0.365754  1
  O  O13  1  0.365754  0.902738  0.365754  1
