# generated using pymatgen
data_ZrZn16
_symmetry_space_group_name_H-M   'P 1'
_cell_length_a   6.98271522
_cell_length_b   6.98271522
_cell_length_c   11.82696958
_cell_angle_alpha   90.00000000
_cell_angle_beta   90.00000000
_cell_angle_gamma   112.32231042
_symmetry_Int_Tables_number   1
_chemical_formula_structural   ZrZn16
_chemical_formula_sum   'Zr2 Zn32'
_cell_volume   533.44903149
_cell_formula_units_Z   2
loop_
 _symmetry_equiv_pos_site_id
 _symmetry_equiv_pos_as_xyz
  1  'x, y, z'
loop_
 _atom_site_type_symbol
 _atom_site_label
 _atom_site_symmetry_multiplicity
 _atom_site_fract_x
 _atom_site_fract_y
 _atom_site_fract_z
 _atom_site_occupancy
  Zr  Zr0  1  0.952598  0.047402  0.250000  1
  Zr  Zr1  1  0.047402  0.952598  0.750000  1
  Zn  Zn2  1  0.982882  0.355063  0.068721  1
  Zn  Zn3  1  0.017118  0.644937  0.568721  1
  Zn  Zn4  1  0.355063  0.982882  0.931279  1
  Zn  Zn5  1  0.644937  0.017118  0.431279  1
  Zn  Zn6  1  0.017118  0.644937  0.931279  1
  Zn  Zn7  1  0.982882  0.355063  0.431279  1
  Zn  Zn8  1  0.644937  0.017118  0.068721  1
  Zn  Zn9  1  0.355063  0.982882  0.568721  1
  Zn  Zn10  1  0.755886  0.648324  0.134032  1
  Zn  Zn11  1  0.244114  0.351676  0.634032  1
  Zn  Zn12  1  0.648324  0.755886  0.865968  1
  Zn  Zn13  1  0.351676  0.244114  0.365968  1
  Zn  Zn14  1  0.244114  0.351676  0.865968  1
  Zn  Zn15  1  0.755886  0.648324  0.365968  1
  Zn  Zn16  1  0.351676  0.244114  0.134032  1
  Zn  Zn17  1  0.648324  0.755886  0.634032  1
  Zn  Zn18  1  0.194671  0.480854  0.250000  1
  Zn  Zn19  1  0.805329  0.519146  0.750000  1
  Zn  Zn20  1  0.480854  0.194671  0.750000  1
  Zn  Zn21  1  0.519146  0.805329  0.250000  1
  Zn  Zn22  1  0.821748  0.178252  0.639579  1
  Zn  Zn23  1  0.178252  0.821748  0.139579  1
  Zn  Zn24  1  0.178252  0.821748  0.360421  1
  Zn  Zn25  1  0.821748  0.178252  0.860421  1
  Zn  Zn26  1  0.379011  0.620989  0.030550  1
  Zn  Zn27  1  0.620989  0.379011  0.530550  1
  Zn  Zn28  1  0.620989  0.379011  0.969450  1
  Zn  Zn29  1  0.379011  0.620989  0.469450  1
  Zn  Zn30  1  0.707843  0.292157  0.250000  1
  Zn  Zn31  1  0.292157  0.707843  0.750000  1
  Zn  Zn32  1  0.000000  0.000000  0.000000  1
  Zn  Zn33  1  0.000000  0.000000  0.500000  1
