# generated using pymatgen
data_UTl4C3O11
_symmetry_space_group_name_H-M   'P 1'
_cell_length_a   7.23969389
_cell_length_b   7.23969389
_cell_length_c   13.06352242
_cell_angle_alpha   86.63191258
_cell_angle_beta   93.36808742
_cell_angle_gamma   97.83355930
_symmetry_Int_Tables_number   1
_chemical_formula_structural   UTl4C3O11
_chemical_formula_sum   'U2 Tl8 C6 O22'
_cell_volume   676.24751392
_cell_formula_units_Z   2
loop_
 _symmetry_equiv_pos_site_id
 _symmetry_equiv_pos_as_xyz
  1  'x, y, z'
loop_
 _atom_site_type_symbol
 _atom_site_label
 _atom_site_symmetry_multiplicity
 _atom_site_fract_x
 _atom_site_fract_y
 _atom_site_fract_z
 _atom_site_occupancy
  U  U0  1  0.798760  0.798760  0.750000  1
  U  U1  1  0.201240  0.201240  0.250000  1
  Tl  Tl2  1  0.957102  0.329611  0.649404  1
  Tl  Tl3  1  0.329611  0.957102  0.850596  1
  Tl  Tl4  1  0.200981  0.414193  0.946226  1
  Tl  Tl5  1  0.414193  0.200981  0.553774  1
  Tl  Tl6  1  0.799019  0.585807  0.053774  1
  Tl  Tl7  1  0.585807  0.799019  0.446226  1
  Tl  Tl8  1  0.670389  0.042898  0.149404  1
  Tl  Tl9  1  0.042898  0.670389  0.350596  1
  C  C10  1  0.068220  0.840970  0.590327  1
  C  C11  1  0.931780  0.159030  0.409673  1
  C  C12  1  0.159030  0.931780  0.090327  1
  C  C13  1  0.840970  0.068220  0.909673  1
  C  C14  1  0.504944  0.504944  0.250000  1
  C  C15  1  0.495056  0.495056  0.750000  1
  O  O16  1  0.193404  0.850188  0.525870  1
  O  O17  1  0.850188  0.193404  0.974130  1
  O  O18  1  0.638550  0.638550  0.250000  1
  O  O19  1  0.361450  0.361450  0.750000  1
  O  O20  1  0.149812  0.806596  0.025870  1
  O  O21  1  0.806596  0.149812  0.474130  1
  O  O22  1  0.646310  0.953052  0.679256  1
  O  O23  1  0.046948  0.353690  0.179256  1
  O  O24  1  0.953052  0.646310  0.820744  1
  O  O25  1  0.353690  0.046948  0.320744  1
  O  O26  1  0.523293  0.617109  0.822013  1
  O  O27  1  0.617109  0.523293  0.677987  1
  O  O28  1  0.476707  0.382891  0.177987  1
  O  O29  1  0.382891  0.476707  0.322013  1
  O  O30  1  0.717777  0.916313  0.912461  1
  O  O31  1  0.916313  0.717777  0.587539  1
  O  O32  1  0.282223  0.083687  0.087539  1
  O  O33  1  0.083687  0.282223  0.412461  1
  O  O34  1  0.954076  0.078865  0.833487  1
  O  O35  1  0.078865  0.954076  0.666513  1
  O  O36  1  0.045924  0.921135  0.166513  1
  O  O37  1  0.921135  0.045924  0.333487  1
