# generated using pymatgen
data_Ce2Al2Co15
_symmetry_space_group_name_H-M   'P 1'
_cell_length_a   6.32590691
_cell_length_b   6.32590691
_cell_length_c   6.32590691
_cell_angle_alpha   82.50745599
_cell_angle_beta   82.50745599
_cell_angle_gamma   82.50745599
_symmetry_Int_Tables_number   1
_chemical_formula_structural   Ce2Al2Co15
_chemical_formula_sum   'Ce2 Al2 Co15'
_cell_volume   247.17893649
_cell_formula_units_Z   1
loop_
 _symmetry_equiv_pos_site_id
 _symmetry_equiv_pos_as_xyz
  1  'x, y, z'
loop_
 _atom_site_type_symbol
 _atom_site_label
 _atom_site_symmetry_multiplicity
 _atom_site_fract_x
 _atom_site_fract_y
 _atom_site_fract_z
 _atom_site_occupancy
  Ce  Ce0  1  0.645717  0.645717  0.645717  1
  Ce  Ce1  1  0.354283  0.354283  0.354283  1
  Al  Al2  1  0.894451  0.894451  0.894451  1
  Al  Al3  1  0.105549  0.105549  0.105549  1
  Co  Co4  1  0.285947  0.000000  0.714053  1
  Co  Co5  1  0.146684  0.648809  0.648809  1
  Co  Co6  1  0.500000  0.000000  0.000000  1
  Co  Co7  1  1.000000  0.500000  1.000000  1
  Co  Co8  1  1.000000  0.000000  0.500000  1
  Co  Co9  1  0.000000  0.714053  0.285947  1
  Co  Co10  1  0.714053  0.285947  0.000000  1
  Co  Co11  1  0.714053  0.000000  0.285947  1
  Co  Co12  1  0.000000  0.285947  0.714053  1
  Co  Co13  1  0.648809  0.146684  0.648809  1
  Co  Co14  1  0.285947  0.714053  0.000000  1
  Co  Co15  1  0.351191  0.351191  0.853316  1
  Co  Co16  1  0.853316  0.351191  0.351191  1
  Co  Co17  1  0.351191  0.853316  0.351191  1
  Co  Co18  1  0.648809  0.648809  0.146684  1
