# generated using pymatgen
data_Ca2MnAlO5
_symmetry_space_group_name_H-M   'P 1'
_cell_length_a   8.37298644
_cell_length_b   8.37298644
_cell_length_c   8.37298644
_cell_angle_alpha   142.73037244
_cell_angle_beta   140.80489248
_cell_angle_gamma   55.19445338
_symmetry_Int_Tables_number   1
_chemical_formula_structural   Ca2MnAlO5
_chemical_formula_sum   'Ca4 Mn2 Al2 O10'
_cell_volume   223.01907271
_cell_formula_units_Z   2
loop_
 _symmetry_equiv_pos_site_id
 _symmetry_equiv_pos_as_xyz
  1  'x, y, z'
loop_
 _atom_site_type_symbol
 _atom_site_label
 _atom_site_symmetry_multiplicity
 _atom_site_fract_x
 _atom_site_fract_y
 _atom_site_fract_z
 _atom_site_occupancy
  Ca  Ca0  1  0.418366  0.898786  0.540474  1
  Ca  Ca1  1  0.141688  0.622107  0.540474  1
  Ca  Ca2  1  0.581634  0.122107  0.480420  1
  Ca  Ca3  1  0.858312  0.398786  0.480420  1
  Mn  Mn4  1  0.500000  0.498994  0.998994  1
  Mn  Mn5  1  0.000000  0.998994  0.998994  1
  Al  Al6  1  0.823230  0.787182  0.110412  1
  Al  Al7  1  0.176770  0.287182  0.963952  1
  O  O8  1  0.895397  0.119627  0.515024  1
  O  O9  1  0.104603  0.619627  0.224230  1
  O  O10  1  0.424600  0.317293  0.039047  1
  O  O11  1  0.575400  0.614448  0.892693  1
  O  O12  1  0.778245  0.817293  0.892693  1
  O  O13  1  0.221755  0.114448  0.039047  1
  O  O14  1  0.768368  0.265396  0.004628  1
  O  O15  1  0.231632  0.236260  0.497028  1
  O  O16  1  0.239232  0.736260  0.004628  1
  O  O17  1  0.760768  0.765396  0.497028  1
