# generated using pymatgen
data_Rh3(PbS)2
_symmetry_space_group_name_H-M   'P 1'
_cell_length_a   5.78181383
_cell_length_b   5.78181383
_cell_length_c   5.78181383
_cell_angle_alpha   60.32677240
_cell_angle_beta   60.32677240
_cell_angle_gamma   60.32677240
_symmetry_Int_Tables_number   1
_chemical_formula_structural   Rh3(PbS)2
_chemical_formula_sum   'Rh3 Pb2 S2'
_cell_volume   137.68175221
_cell_formula_units_Z   1
loop_
 _symmetry_equiv_pos_site_id
 _symmetry_equiv_pos_as_xyz
  1  'x, y, z'
loop_
 _atom_site_type_symbol
 _atom_site_label
 _atom_site_symmetry_multiplicity
 _atom_site_fract_x
 _atom_site_fract_y
 _atom_site_fract_z
 _atom_site_occupancy
  Rh  Rh0  1  0.000000  0.500000  0.000000  1
  Rh  Rh1  1  0.500000  0.000000  0.000000  1
  Rh  Rh2  1  0.000000  0.000000  0.500000  1
  Pb  Pb3  1  0.500000  0.500000  0.500000  1
  Pb  Pb4  1  0.000000  0.000000  0.000000  1
  S  S5  1  0.281717  0.281717  0.281717  1
  S  S6  1  0.718283  0.718283  0.718283  1
