# generated using pymatgen
data_Nd2Fe17
_symmetry_space_group_name_H-M   'P 1'
_cell_length_a   6.46797108
_cell_length_b   6.46797108
_cell_length_c   6.46797108
_cell_angle_alpha   83.13389071
_cell_angle_beta   83.13389071
_cell_angle_gamma   83.13389071
_symmetry_Int_Tables_number   1
_chemical_formula_structural   Nd2Fe17
_chemical_formula_sum   'Nd2 Fe17'
_cell_volume   265.19305199
_cell_formula_units_Z   1
loop_
 _symmetry_equiv_pos_site_id
 _symmetry_equiv_pos_as_xyz
  1  'x, y, z'
loop_
 _atom_site_type_symbol
 _atom_site_label
 _atom_site_symmetry_multiplicity
 _atom_site_fract_x
 _atom_site_fract_y
 _atom_site_fract_z
 _atom_site_occupancy
  Nd  Nd0  1  0.341910  0.341910  0.341910  1
  Nd  Nd1  1  0.658090  0.658090  0.658090  1
  Fe  Fe2  1  0.500000  1.000000  1.000000  1
  Fe  Fe3  1  0.000000  1.000000  0.500000  1
  Fe  Fe4  1  0.000000  0.500000  0.000000  1
  Fe  Fe5  1  0.000000  0.710555  0.289445  1
  Fe  Fe6  1  0.710555  0.289445  0.000000  1
  Fe  Fe7  1  0.289445  1.000000  0.710555  1
  Fe  Fe8  1  0.289445  0.710555  0.000000  1
  Fe  Fe9  1  0.710555  1.000000  0.289445  1
  Fe  Fe10  1  1.000000  0.289445  0.710555  1
  Fe  Fe11  1  0.153911  0.658636  0.658636  1
  Fe  Fe12  1  0.658636  0.658636  0.153911  1
  Fe  Fe13  1  0.658636  0.153911  0.658636  1
  Fe  Fe14  1  0.846089  0.341364  0.341364  1
  Fe  Fe15  1  0.341364  0.341364  0.846089  1
  Fe  Fe16  1  0.341364  0.846089  0.341364  1
  Fe  Fe17  1  0.097004  0.097004  0.097004  1
  Fe  Fe18  1  0.902996  0.902996  0.902996  1
