# generated using pymatgen
data_Sb2(PSe3)3
_symmetry_space_group_name_H-M   'P 1'
_cell_length_a   9.53240885
_cell_length_b   7.71195593
_cell_length_c   23.87505422
_cell_angle_alpha   90.00000000
_cell_angle_beta   113.32599012
_cell_angle_gamma   90.00000000
_symmetry_Int_Tables_number   1
_chemical_formula_structural   Sb2(PSe3)3
_chemical_formula_sum   'Sb8 P12 Se36'
_cell_volume   1611.68616882
_cell_formula_units_Z   4
loop_
 _symmetry_equiv_pos_site_id
 _symmetry_equiv_pos_as_xyz
  1  'x, y, z'
loop_
 _atom_site_type_symbol
 _atom_site_label
 _atom_site_symmetry_multiplicity
 _atom_site_fract_x
 _atom_site_fract_y
 _atom_site_fract_z
 _atom_site_occupancy
  Sb  Sb0  1  0.608800  0.282933  0.354404  1
  Sb  Sb1  1  0.391200  0.782933  0.145596  1
  Sb  Sb2  1  0.391200  0.717067  0.645596  1
  Sb  Sb3  1  0.608800  0.217067  0.854404  1
  Sb  Sb4  1  0.941025  0.405926  0.653406  1
  Sb  Sb5  1  0.058975  0.905926  0.846594  1
  Sb  Sb6  1  0.058975  0.594074  0.346594  1
  Sb  Sb7  1  0.941025  0.094074  0.153406  1
  P  P8  1  0.423071  0.453146  0.452115  1
  P  P9  1  0.576929  0.953146  0.047885  1
  P  P10  1  0.576929  0.546854  0.547885  1
  P  P11  1  0.423071  0.046854  0.952115  1
  P  P12  1  0.078409  0.562681  0.145465  1
  P  P13  1  0.921591  0.062681  0.354535  1
  P  P14  1  0.921591  0.437319  0.854535  1
  P  P15  1  0.078409  0.937319  0.645465  1
  P  P16  1  0.748780  0.653509  0.815125  1
  P  P17  1  0.251220  0.153509  0.684875  1
  P  P18  1  0.251220  0.346491  0.184875  1
  P  P19  1  0.748780  0.846491  0.315125  1
  Se  Se20  1  0.226875  0.247271  0.266226  1
  Se  Se21  1  0.520197  0.535373  0.798320  1
  Se  Se22  1  0.520197  0.964627  0.298320  1
  Se  Se23  1  0.479803  0.464627  0.201680  1
  Se  Se24  1  0.164504  0.350928  0.609675  1
  Se  Se25  1  0.835496  0.850928  0.890325  1
  Se  Se26  1  0.835496  0.649072  0.390325  1
  Se  Se27  1  0.164504  0.149072  0.109675  1
  Se  Se28  1  0.148353  0.733354  0.714753  1
  Se  Se29  1  0.851647  0.233354  0.785247  1
  Se  Se30  1  0.851647  0.266646  0.285247  1
  Se  Se31  1  0.479803  0.035373  0.701680  1
  Se  Se32  1  0.851598  0.061979  0.620913  1
  Se  Se33  1  0.148402  0.561979  0.879087  1
  Se  Se34  1  0.148402  0.938021  0.379087  1
  Se  Se35  1  0.851598  0.438021  0.120913  1
  Se  Se36  1  0.130015  0.853873  0.565507  1
  Se  Se37  1  0.869985  0.353873  0.934493  1
  Se  Se38  1  0.869985  0.146127  0.434493  1
  Se  Se39  1  0.130015  0.646127  0.065507  1
  Se  Se40  1  0.193254  0.075652  0.955813  1
  Se  Se41  1  0.806746  0.575652  0.544187  1
  Se  Se42  1  0.806746  0.924348  0.044187  1
  Se  Se43  1  0.193254  0.424348  0.455813  1
  Se  Se44  1  0.424102  0.861030  0.883887  1
  Se  Se45  1  0.575898  0.361030  0.616113  1
  Se  Se46  1  0.575898  0.138970  0.116113  1
  Se  Se47  1  0.424102  0.638970  0.383887  1
  Se  Se48  1  0.521610  0.306401  0.945804  1
  Se  Se49  1  0.478390  0.806401  0.554196  1
  Se  Se50  1  0.478390  0.693599  0.054196  1
  Se  Se51  1  0.521610  0.193599  0.445804  1
  Se  Se52  1  0.773125  0.752729  0.733774  1
  Se  Se53  1  0.226875  0.252729  0.766226  1
  Se  Se54  1  0.148353  0.766646  0.214753  1
  Se  Se55  1  0.773125  0.747271  0.233774  1
