# generated using pymatgen
data_RbScAsO4F
_symmetry_space_group_name_H-M   'P 1'
_cell_length_a   6.89715134
_cell_length_b   11.42323024
_cell_length_c   13.91489017
_cell_angle_alpha   90.00000000
_cell_angle_beta   90.00000000
_cell_angle_gamma   90.00000000
_symmetry_Int_Tables_number   1
_chemical_formula_structural   RbScAsO4F
_chemical_formula_sum   'Rb8 Sc8 As8 O32 F8'
_cell_volume   1096.32285678
_cell_formula_units_Z   8
loop_
 _symmetry_equiv_pos_site_id
 _symmetry_equiv_pos_as_xyz
  1  'x, y, z'
loop_
 _atom_site_type_symbol
 _atom_site_label
 _atom_site_symmetry_multiplicity
 _atom_site_fract_x
 _atom_site_fract_y
 _atom_site_fract_z
 _atom_site_occupancy
  Rb  Rb0  1  0.200705  0.544052  0.393311  1
  Rb  Rb1  1  0.799295  0.044052  0.606689  1
  Rb  Rb2  1  0.299295  0.544052  0.893311  1
  Rb  Rb3  1  0.700705  0.044052  0.106689  1
  Rb  Rb4  1  0.273210  0.784933  0.123695  1
  Rb  Rb5  1  0.726790  0.284933  0.876305  1
  Rb  Rb6  1  0.226790  0.784933  0.623695  1
  Rb  Rb7  1  0.773210  0.284933  0.376305  1
  Sc  Sc8  1  0.994729  0.482163  0.111841  1
  Sc  Sc9  1  0.494729  0.982163  0.388159  1
  Sc  Sc10  1  0.505271  0.482163  0.611841  1
  Sc  Sc11  1  0.005271  0.982163  0.888159  1
  Sc  Sc12  1  0.251474  0.231230  0.245826  1
  Sc  Sc13  1  0.748526  0.731230  0.754174  1
  Sc  Sc14  1  0.248526  0.231230  0.745826  1
  Sc  Sc15  1  0.751474  0.731230  0.254174  1
  As  As16  1  0.998331  0.985087  0.317862  1
  As  As17  1  0.675753  0.733672  0.501500  1
  As  As18  1  0.175753  0.233672  0.998500  1
  As  As19  1  0.824247  0.733672  0.001500  1
  As  As20  1  0.324247  0.233672  0.498500  1
  As  As21  1  0.498331  0.485087  0.182138  1
  As  As22  1  0.501669  0.985087  0.817862  1
  As  As23  1  0.001669  0.485087  0.682138  1
  O  O24  1  0.534465  0.604194  0.256521  1
  O  O25  1  0.316413  0.212111  0.098370  1
  O  O26  1  0.816413  0.712111  0.401630  1
  O  O27  1  0.183587  0.212111  0.598370  1
  O  O28  1  0.686418  0.752407  0.103013  1
  O  O29  1  0.313582  0.252407  0.896987  1
  O  O30  1  0.813582  0.752407  0.603013  1
  O  O31  1  0.186418  0.252407  0.396987  1
  O  O32  1  0.952681  0.868149  0.243006  1
  O  O33  1  0.047319  0.368149  0.756994  1
  O  O34  1  0.547319  0.868149  0.743006  1
  O  O35  1  0.452681  0.368149  0.256994  1
  O  O36  1  0.034465  0.104194  0.243479  1
  O  O37  1  0.965535  0.604194  0.756521  1
  O  O38  1  0.465535  0.104194  0.743479  1
  O  O39  1  0.683587  0.712111  0.901630  1
  O  O40  1  0.197678  0.957003  0.387502  1
  O  O41  1  0.802322  0.457003  0.612498  1
  O  O42  1  0.302322  0.957003  0.887502  1
  O  O43  1  0.967280  0.856697  0.990200  1
  O  O44  1  0.800359  0.015874  0.388459  1
  O  O45  1  0.199641  0.515874  0.611541  1
  O  O46  1  0.699641  0.015874  0.888459  1
  O  O47  1  0.300359  0.515874  0.111541  1
  O  O48  1  0.485620  0.120182  0.483856  1
  O  O49  1  0.514380  0.620182  0.516144  1
  O  O50  1  0.014380  0.120182  0.983856  1
  O  O51  1  0.985620  0.620182  0.016144  1
  O  O52  1  0.467280  0.356697  0.509800  1
  O  O53  1  0.532720  0.856697  0.490200  1
  O  O54  1  0.032720  0.356697  0.009800  1
  O  O55  1  0.697678  0.457003  0.112498  1
  F  F56  1  0.466083  0.109478  0.275338  1
  F  F57  1  0.533917  0.609478  0.724662  1
  F  F58  1  0.033917  0.109478  0.775338  1
  F  F59  1  0.966083  0.609478  0.224662  1
  F  F60  1  0.039625  0.359967  0.223939  1
  F  F61  1  0.960375  0.859967  0.776061  1
  F  F62  1  0.460375  0.359967  0.723939  1
  F  F63  1  0.539625  0.859967  0.276061  1
