# generated using pymatgen
data_Na4Si23
_symmetry_space_group_name_H-M   'P 1'
_cell_length_a   10.24375391
_cell_length_b   10.24375391
_cell_length_c   10.24375391
_cell_angle_alpha   90.00000000
_cell_angle_beta   90.00000000
_cell_angle_gamma   90.00000000
_symmetry_Int_Tables_number   1
_chemical_formula_structural   Na4Si23
_chemical_formula_sum   'Na8 Si46'
_cell_volume   1074.92313493
_cell_formula_units_Z   2
loop_
 _symmetry_equiv_pos_site_id
 _symmetry_equiv_pos_as_xyz
  1  'x, y, z'
loop_
 _atom_site_type_symbol
 _atom_site_label
 _atom_site_symmetry_multiplicity
 _atom_site_fract_x
 _atom_site_fract_y
 _atom_site_fract_z
 _atom_site_occupancy
  Na  Na0  1  0.000000  0.250000  0.500000  1
  Na  Na1  1  0.000000  0.750000  0.500000  1
  Na  Na2  1  0.500000  0.000000  0.750000  1
  Na  Na3  1  0.500000  0.000000  0.250000  1
  Na  Na4  1  0.750000  0.500000  0.000000  1
  Na  Na5  1  0.250000  0.500000  0.000000  1
  Na  Na6  1  0.500000  0.500000  0.500000  1
  Na  Na7  1  0.000000  0.000000  0.000000  1
  Si  Si8  1  0.684086  0.684086  0.315914  1
  Si  Si9  1  0.315914  0.684086  0.684086  1
  Si  Si10  1  0.815914  0.815914  0.184086  1
  Si  Si11  1  0.184086  0.815914  0.815914  1
  Si  Si12  1  0.815914  0.184086  0.815914  1
  Si  Si13  1  0.315914  0.315914  0.315914  1
  Si  Si14  1  0.815914  0.815914  0.815914  1
  Si  Si15  1  0.315914  0.684086  0.315914  1
  Si  Si16  1  0.315914  0.315914  0.684086  1
  Si  Si17  1  0.684086  0.315914  0.315914  1
  Si  Si18  1  0.184086  0.184086  0.815914  1
  Si  Si19  1  0.815914  0.184086  0.184086  1
  Si  Si20  1  0.184086  0.815914  0.184086  1
  Si  Si21  1  0.684086  0.684086  0.684086  1
  Si  Si22  1  0.000000  0.307811  0.117251  1
  Si  Si23  1  0.500000  0.382749  0.807811  1
  Si  Si24  1  0.500000  0.617251  0.192189  1
  Si  Si25  1  0.617251  0.807811  0.500000  1
  Si  Si26  1  0.382749  0.807811  0.500000  1
  Si  Si27  1  0.192189  0.500000  0.617251  1
  Si  Si28  1  0.807811  0.500000  0.617251  1
  Si  Si29  1  0.117251  0.000000  0.307811  1
  Si  Si30  1  0.307811  0.117251  0.000000  1
  Si  Si31  1  0.692189  0.882749  0.000000  1
  Si  Si32  1  0.117251  0.000000  0.692189  1
  Si  Si33  1  0.692189  0.117251  0.000000  1
  Si  Si34  1  0.882749  0.000000  0.307811  1
  Si  Si35  1  0.882749  0.000000  0.692189  1
  Si  Si36  1  0.307811  0.882749  0.000000  1
  Si  Si37  1  0.000000  0.692189  0.882749  1
  Si  Si38  1  0.000000  0.307811  0.882749  1
  Si  Si39  1  0.000000  0.692189  0.117251  1
  Si  Si40  1  0.807811  0.500000  0.382749  1
  Si  Si41  1  0.192189  0.500000  0.382749  1
  Si  Si42  1  0.617251  0.192189  0.500000  1
  Si  Si43  1  0.382749  0.192189  0.500000  1
  Si  Si44  1  0.500000  0.617251  0.807811  1
  Si  Si45  1  0.500000  0.382749  0.192189  1
  Si  Si46  1  0.684086  0.315914  0.684086  1
  Si  Si47  1  0.184086  0.184086  0.184086  1
  Si  Si48  1  0.500000  0.250000  0.000000  1
  Si  Si49  1  0.500000  0.750000  0.000000  1
  Si  Si50  1  0.000000  0.500000  0.750000  1
  Si  Si51  1  0.000000  0.500000  0.250000  1
  Si  Si52  1  0.750000  0.000000  0.500000  1
  Si  Si53  1  0.250000  0.000000  0.500000  1
