# generated using pymatgen
data_LaAsRh
_symmetry_space_group_name_H-M   'P 1'
_cell_length_a   8.11798695
_cell_length_b   8.11798695
_cell_length_c   8.11798695
_cell_angle_alpha   149.89280728
_cell_angle_beta   149.89280728
_cell_angle_gamma   43.09877277
_symmetry_Int_Tables_number   1
_chemical_formula_structural   LaAsRh
_chemical_formula_sum   'La2 As2 Rh2'
_cell_volume   134.26240256
_cell_formula_units_Z   2
loop_
 _symmetry_equiv_pos_site_id
 _symmetry_equiv_pos_as_xyz
  1  'x, y, z'
loop_
 _atom_site_type_symbol
 _atom_site_label
 _atom_site_symmetry_multiplicity
 _atom_site_fract_x
 _atom_site_fract_y
 _atom_site_fract_z
 _atom_site_occupancy
  La  La0  1  0.750327  0.250327  0.500000  1
  La  La1  1  0.000327  0.000327  0.000000  1
  As  As2  1  0.330256  0.830256  0.500000  1
  As  As3  1  0.580256  0.580256  0.000000  1
  Rh  Rh4  1  0.165216  0.665216  0.500000  1
  Rh  Rh5  1  0.415216  0.415216  0.000000  1
