# generated using pymatgen
data_Hf5Si4
_symmetry_space_group_name_H-M   'P 1'
_cell_length_a   7.07033269
_cell_length_b   7.07033269
_cell_length_c   12.87656301
_cell_angle_alpha   90.00000000
_cell_angle_beta   90.00000000
_cell_angle_gamma   90.00000000
_symmetry_Int_Tables_number   1
_chemical_formula_structural   Hf5Si4
_chemical_formula_sum   'Hf20 Si16'
_cell_volume   643.69429022
_cell_formula_units_Z   4
loop_
 _symmetry_equiv_pos_site_id
 _symmetry_equiv_pos_as_xyz
  1  'x, y, z'
loop_
 _atom_site_type_symbol
 _atom_site_label
 _atom_site_symmetry_multiplicity
 _atom_site_fract_x
 _atom_site_fract_y
 _atom_site_fract_z
 _atom_site_occupancy
  Hf  Hf0  1  0.675436  0.324564  0.750000  1
  Hf  Hf1  1  0.324564  0.675436  0.250000  1
  Hf  Hf2  1  0.824564  0.824564  0.500000  1
  Hf  Hf3  1  0.175436  0.175436  0.000000  1
  Hf  Hf4  1  0.496152  0.150239  0.534613  1
  Hf  Hf5  1  0.503848  0.849761  0.034613  1
  Hf  Hf6  1  0.650239  0.003848  0.284613  1
  Hf  Hf7  1  0.349761  0.996152  0.784613  1
  Hf  Hf8  1  0.849761  0.503848  0.965387  1
  Hf  Hf9  1  0.150239  0.496152  0.465387  1
  Hf  Hf10  1  0.003848  0.650239  0.715387  1
  Hf  Hf11  1  0.996152  0.349761  0.215387  1
  Hf  Hf12  1  0.499873  0.354086  0.126448  1
  Hf  Hf13  1  0.500127  0.645914  0.626448  1
  Hf  Hf14  1  0.854086  0.000127  0.876448  1
  Hf  Hf15  1  0.145914  0.999873  0.376448  1
  Hf  Hf16  1  0.645914  0.500127  0.373552  1
  Hf  Hf17  1  0.354086  0.499873  0.873552  1
  Hf  Hf18  1  0.000127  0.854086  0.123552  1
  Hf  Hf19  1  0.999873  0.145914  0.623552  1
  Si  Si20  1  0.796397  0.147185  0.072239  1
  Si  Si21  1  0.203603  0.852815  0.572239  1
  Si  Si22  1  0.647185  0.703603  0.822239  1
  Si  Si23  1  0.352815  0.296397  0.322239  1
  Si  Si24  1  0.852815  0.203603  0.427761  1
  Si  Si25  1  0.147185  0.796397  0.927761  1
  Si  Si26  1  0.703603  0.647185  0.177761  1
  Si  Si27  1  0.296397  0.352815  0.677761  1
  Si  Si28  1  0.549081  0.198439  0.936002  1
  Si  Si29  1  0.450919  0.801561  0.436002  1
  Si  Si30  1  0.698439  0.950919  0.686002  1
  Si  Si31  1  0.301561  0.049081  0.186002  1
  Si  Si32  1  0.801561  0.450919  0.563998  1
  Si  Si33  1  0.198439  0.549081  0.063998  1
  Si  Si34  1  0.950919  0.698439  0.313998  1
  Si  Si35  1  0.049081  0.301561  0.813998  1
