# generated using pymatgen
data_Sr2CdWO6
_symmetry_space_group_name_H-M   'P 1'
_cell_length_a   5.80763975
_cell_length_b   5.95888518
_cell_length_c   10.09819365
_cell_angle_alpha   90.00000000
_cell_angle_beta   125.15627469
_cell_angle_gamma   90.00000000
_symmetry_Int_Tables_number   1
_chemical_formula_structural   Sr2CdWO6
_chemical_formula_sum   'Sr4 Cd2 W2 O12'
_cell_volume   285.72027890
_cell_formula_units_Z   2
loop_
 _symmetry_equiv_pos_site_id
 _symmetry_equiv_pos_as_xyz
  1  'x, y, z'
loop_
 _atom_site_type_symbol
 _atom_site_label
 _atom_site_symmetry_multiplicity
 _atom_site_fract_x
 _atom_site_fract_y
 _atom_site_fract_z
 _atom_site_occupancy
  Sr  Sr0  1  0.241773  0.953672  0.751979  1
  Sr  Sr1  1  0.758227  0.453672  0.748021  1
  Sr  Sr2  1  0.758227  0.046328  0.248021  1
  Sr  Sr3  1  0.241773  0.546328  0.251979  1
  Cd  Cd4  1  0.500000  0.000000  0.500000  1
  Cd  Cd5  1  0.500000  0.500000  0.000000  1
  W  W6  1  0.000000  0.500000  0.500000  1
  W  W7  1  0.000000  0.000000  0.000000  1
  O  O8  1  0.870938  0.230338  0.551166  1
  O  O9  1  0.129062  0.730338  0.948834  1
  O  O10  1  0.129062  0.769662  0.448834  1
  O  O11  1  0.870938  0.269662  0.051166  1
  O  O12  1  0.768071  0.684916  0.540823  1
  O  O13  1  0.231929  0.184916  0.959177  1
  O  O14  1  0.231929  0.315084  0.459177  1
  O  O15  1  0.768071  0.815084  0.040823  1
  O  O16  1  0.684524  0.031673  0.771926  1
  O  O17  1  0.315476  0.531673  0.728074  1
  O  O18  1  0.315476  0.968327  0.228074  1
  O  O19  1  0.684524  0.468327  0.271926  1
