# generated using pymatgen
data_Cu4O3
_symmetry_space_group_name_H-M   'P 1'
_cell_length_a   6.45384478
_cell_length_b   6.45384478
_cell_length_c   6.45384478
_cell_angle_alpha   125.50488409
_cell_angle_beta   125.50488409
_cell_angle_gamma   80.70343231
_symmetry_Int_Tables_number   1
_chemical_formula_structural   Cu4O3
_chemical_formula_sum   'Cu8 O6'
_cell_volume   171.76648474
_cell_formula_units_Z   2
loop_
 _symmetry_equiv_pos_site_id
 _symmetry_equiv_pos_as_xyz
  1  'x, y, z'
loop_
 _atom_site_type_symbol
 _atom_site_label
 _atom_site_symmetry_multiplicity
 _atom_site_fract_x
 _atom_site_fract_y
 _atom_site_fract_z
 _atom_site_occupancy
  Cu  Cu0  1  0.375000  0.625000  0.250000  1
  Cu  Cu1  1  0.875000  0.625000  0.250000  1
  Cu  Cu2  1  0.375000  0.125000  0.750000  1
  Cu  Cu3  1  0.375000  0.625000  0.750000  1
  Cu  Cu4  1  0.375000  0.125000  0.250000  1
  Cu  Cu5  1  0.875000  0.125000  0.250000  1
  Cu  Cu6  1  0.875000  0.625000  0.750000  1
  Cu  Cu7  1  0.875000  0.125000  0.750000  1
  O  O8  1  0.250000  0.750000  0.500000  1
  O  O9  1  0.500000  0.500000  0.000000  1
  O  O10  1  0.762953  0.762953  0.000000  1
  O  O11  1  0.512953  0.012953  0.500000  1
  O  O12  1  0.987047  0.487047  0.500000  1
  O  O13  1  0.237047  0.237047  0.000000  1
