# generated using pymatgen
data_NaZnAsO4
_symmetry_space_group_name_H-M   'P 1'
_cell_length_a   9.10296939
_cell_length_b   8.41876701
_cell_length_c   18.35716447
_cell_angle_alpha   90.00000000
_cell_angle_beta   119.52003613
_cell_angle_gamma   90.00000000
_symmetry_Int_Tables_number   1
_chemical_formula_structural   NaZnAsO4
_chemical_formula_sum   'Na12 Zn12 As12 O48'
_cell_volume   1224.18763396
_cell_formula_units_Z   12
loop_
 _symmetry_equiv_pos_site_id
 _symmetry_equiv_pos_as_xyz
  1  'x, y, z'
loop_
 _atom_site_type_symbol
 _atom_site_label
 _atom_site_symmetry_multiplicity
 _atom_site_fract_x
 _atom_site_fract_y
 _atom_site_fract_z
 _atom_site_occupancy
  Na  Na0  1  0.297490  0.969569  0.070369  1
  Na  Na1  1  0.702510  0.469569  0.429631  1
  Na  Na2  1  0.702510  0.030431  0.929631  1
  Na  Na3  1  0.297490  0.530431  0.570369  1
  Na  Na4  1  0.351928  0.537227  0.088038  1
  Na  Na5  1  0.648072  0.037227  0.411962  1
  Na  Na6  1  0.648072  0.462773  0.911962  1
  Na  Na7  1  0.351928  0.962773  0.588038  1
  Na  Na8  1  0.998095  0.540497  0.254804  1
  Na  Na9  1  0.001905  0.040497  0.245196  1
  Na  Na10  1  0.001905  0.459503  0.745196  1
  Na  Na11  1  0.998095  0.959503  0.754804  1
  Zn  Zn12  1  0.343156  0.336867  0.407860  1
  Zn  Zn13  1  0.656844  0.836867  0.092140  1
  Zn  Zn14  1  0.656844  0.663133  0.592140  1
  Zn  Zn15  1  0.343156  0.163133  0.907860  1
  Zn  Zn16  1  0.982535  0.333139  0.079305  1
  Zn  Zn17  1  0.017465  0.833139  0.420695  1
  Zn  Zn18  1  0.017465  0.666861  0.920695  1
  Zn  Zn19  1  0.982535  0.166861  0.579305  1
  Zn  Zn20  1  0.320189  0.829458  0.241361  1
  Zn  Zn21  1  0.679811  0.329458  0.258639  1
  Zn  Zn22  1  0.679811  0.170542  0.758639  1
  Zn  Zn23  1  0.320189  0.670542  0.741361  1
  As  As24  1  0.349747  0.729350  0.410877  1
  As  As25  1  0.650253  0.229350  0.089123  1
  As  As26  1  0.650253  0.270650  0.589123  1
  As  As27  1  0.349747  0.770650  0.910877  1
  As  As28  1  0.028283  0.276797  0.920532  1
  As  As29  1  0.971717  0.776797  0.579468  1
  As  As30  1  0.971717  0.723203  0.079468  1
  As  As31  1  0.028283  0.223203  0.420532  1
  As  As32  1  0.312378  0.224460  0.232705  1
  As  As33  1  0.687622  0.724460  0.267295  1
  As  As34  1  0.687622  0.775540  0.767295  1
  As  As35  1  0.312378  0.275540  0.732705  1
  O  O36  1  0.527842  0.242523  0.296576  1
  O  O37  1  0.472158  0.742523  0.203424  1
  O  O38  1  0.472158  0.757477  0.703424  1
  O  O39  1  0.527842  0.257477  0.796576  1
  O  O40  1  0.218699  0.245387  0.294297  1
  O  O41  1  0.781301  0.745387  0.205703  1
  O  O42  1  0.781301  0.754613  0.705703  1
  O  O43  1  0.218699  0.254613  0.794297  1
  O  O44  1  0.562499  0.233551  0.483177  1
  O  O45  1  0.437501  0.733551  0.016823  1
  O  O46  1  0.437501  0.766449  0.516823  1
  O  O47  1  0.562499  0.266449  0.983177  1
  O  O48  1  0.867135  0.225114  0.133015  1
  O  O49  1  0.132865  0.725114  0.366985  1
  O  O50  1  0.132865  0.774886  0.866985  1
  O  O51  1  0.867135  0.274886  0.633015  1
  O  O52  1  0.419780  0.550719  0.393618  1
  O  O53  1  0.580220  0.050719  0.106382  1
  O  O54  1  0.580220  0.449281  0.606382  1
  O  O55  1  0.419780  0.949281  0.893618  1
  O  O56  1  0.130245  0.456403  0.952779  1
  O  O57  1  0.405369  0.871719  0.361117  1
  O  O58  1  0.594631  0.128281  0.638883  1
  O  O59  1  0.405369  0.628281  0.861117  1
  O  O60  1  0.182940  0.366321  0.449995  1
  O  O61  1  0.817060  0.866321  0.050005  1
  O  O62  1  0.817060  0.633679  0.550005  1
  O  O63  1  0.182940  0.133679  0.949995  1
  O  O64  1  0.098909  0.720320  0.186880  1
  O  O65  1  0.901091  0.220320  0.313120  1
  O  O66  1  0.901091  0.279680  0.813120  1
  O  O67  1  0.098909  0.779680  0.686880  1
  O  O68  1  0.905650  0.238972  0.966530  1
  O  O69  1  0.094350  0.738972  0.533470  1
  O  O70  1  0.094350  0.761028  0.033470  1
  O  O71  1  0.905650  0.261028  0.466530  1
  O  O72  1  0.229091  0.138901  0.652081  1
  O  O73  1  0.770909  0.638901  0.847919  1
  O  O74  1  0.770909  0.861099  0.347919  1
  O  O75  1  0.229091  0.361099  0.152081  1
  O  O76  1  0.256331  0.458901  0.684928  1
  O  O77  1  0.743669  0.958901  0.815072  1
  O  O78  1  0.743669  0.541099  0.315072  1
  O  O79  1  0.256331  0.041099  0.184928  1
  O  O80  1  0.130245  0.043597  0.452779  1
  O  O81  1  0.869755  0.543597  0.047221  1
  O  O82  1  0.869755  0.956403  0.547221  1
  O  O83  1  0.594631  0.371719  0.138883  1
