# generated using pymatgen
data_LaS2
_symmetry_space_group_name_H-M   'P 1'
_cell_length_a   4.04634288
_cell_length_b   4.04634288
_cell_length_c   8.31767835
_cell_angle_alpha   90.00000000
_cell_angle_beta   90.00000000
_cell_angle_gamma   90.00000000
_symmetry_Int_Tables_number   1
_chemical_formula_structural   LaS2
_chemical_formula_sum   'La2 S4'
_cell_volume   136.18443852
_cell_formula_units_Z   2
loop_
 _symmetry_equiv_pos_site_id
 _symmetry_equiv_pos_as_xyz
  1  'x, y, z'
loop_
 _atom_site_type_symbol
 _atom_site_label
 _atom_site_symmetry_multiplicity
 _atom_site_fract_x
 _atom_site_fract_y
 _atom_site_fract_z
 _atom_site_occupancy
  La  La0  1  0.000000  0.500000  0.724233  1
  La  La1  1  0.500000  0.000000  0.275767  1
  S  S2  1  0.000000  0.500000  0.363972  1
  S  S3  1  0.500000  0.000000  0.636028  1
  S  S4  1  0.000000  0.000000  0.000000  1
  S  S5  1  0.500000  0.500000  0.000000  1
