# generated using pymatgen
data_LiMoP2O7
_symmetry_space_group_name_H-M   'P 1'
_cell_length_a   5.00521871
_cell_length_b   8.59743841
_cell_length_c   7.14541959
_cell_angle_alpha   90.00000000
_cell_angle_beta   108.71422634
_cell_angle_gamma   90.00000000
_symmetry_Int_Tables_number   1
_chemical_formula_structural   LiMoP2O7
_chemical_formula_sum   'Li2 Mo2 P4 O14'
_cell_volume   291.22573915
_cell_formula_units_Z   2
loop_
 _symmetry_equiv_pos_site_id
 _symmetry_equiv_pos_as_xyz
  1  'x, y, z'
loop_
 _atom_site_type_symbol
 _atom_site_label
 _atom_site_symmetry_multiplicity
 _atom_site_fract_x
 _atom_site_fract_y
 _atom_site_fract_z
 _atom_site_occupancy
  Li  Li0  1  0.685451  0.144249  0.667231  1
  Li  Li1  1  0.314549  0.644249  0.332769  1
  Mo  Mo2  1  0.290856  0.998478  0.275034  1
  Mo  Mo3  1  0.709144  0.498478  0.724966  1
  P  P4  1  0.715785  0.211757  0.080959  1
  P  P5  1  0.284215  0.711757  0.919041  1
  P  P6  1  0.097321  0.319982  0.466267  1
  P  P7  1  0.902679  0.819982  0.533733  1
  O  O8  1  0.706383  0.961958  0.496846  1
  O  O9  1  0.091007  0.838192  0.762422  1
  O  O10  1  0.262266  0.166283  0.491038  1
  O  O11  1  0.737734  0.666283  0.508962  1
  O  O12  1  0.293617  0.461958  0.503154  1
  O  O13  1  0.908993  0.338192  0.237578  1
  O  O14  1  0.543152  0.677845  0.859688  1
  O  O15  1  0.456848  0.177845  0.140312  1
  O  O16  1  0.899100  0.318887  0.591141  1
  O  O17  1  0.891547  0.066572  0.078696  1
  O  O18  1  0.641417  0.295697  0.881607  1
  O  O19  1  0.358583  0.795697  0.118393  1
  O  O20  1  0.108453  0.566572  0.921304  1
  O  O21  1  0.100900  0.818887  0.408859  1
