# generated using pymatgen
data_Mo2S3
_symmetry_space_group_name_H-M   'P 1'
_cell_length_a   6.17036390
_cell_length_b   3.20985655
_cell_length_c   8.70627263
_cell_angle_alpha   90.00000000
_cell_angle_beta   102.95757287
_cell_angle_gamma   90.00000000
_symmetry_Int_Tables_number   1
_chemical_formula_structural   Mo2S3
_chemical_formula_sum   'Mo4 S6'
_cell_volume   168.04543407
_cell_formula_units_Z   2
loop_
 _symmetry_equiv_pos_site_id
 _symmetry_equiv_pos_as_xyz
  1  'x, y, z'
loop_
 _atom_site_type_symbol
 _atom_site_label
 _atom_site_symmetry_multiplicity
 _atom_site_fract_x
 _atom_site_fract_y
 _atom_site_fract_z
 _atom_site_occupancy
  Mo  Mo0  1  0.312528  0.750000  0.009121  1
  Mo  Mo1  1  0.687472  0.250000  0.990879  1
  Mo  Mo2  1  0.107465  0.750000  0.626414  1
  Mo  Mo3  1  0.892535  0.250000  0.373586  1
  S  S4  1  0.506726  0.750000  0.803533  1
  S  S5  1  0.493274  0.250000  0.196467  1
  S  S6  1  0.973735  0.750000  0.157805  1
  S  S7  1  0.026265  0.250000  0.842195  1
  S  S8  1  0.726530  0.750000  0.513250  1
  S  S9  1  0.273470  0.250000  0.486750  1
