# generated using pymatgen
data_EuAl2O4
_symmetry_space_group_name_H-M   'P 1'
_cell_length_a   5.20729266
_cell_length_b   8.89045148
_cell_length_c   8.49530801
_cell_angle_alpha   90.00000000
_cell_angle_beta   93.37153314
_cell_angle_gamma   90.00000000
_symmetry_Int_Tables_number   1
_chemical_formula_structural   EuAl2O4
_chemical_formula_sum   'Eu4 Al8 O16'
_cell_volume   392.61111575
_cell_formula_units_Z   4
loop_
 _symmetry_equiv_pos_site_id
 _symmetry_equiv_pos_as_xyz
  1  'x, y, z'
loop_
 _atom_site_type_symbol
 _atom_site_label
 _atom_site_symmetry_multiplicity
 _atom_site_fract_x
 _atom_site_fract_y
 _atom_site_fract_z
 _atom_site_occupancy
  Eu  Eu0  1  0.253780  0.499173  0.487404  1
  Eu  Eu1  1  0.746220  0.999173  0.512596  1
  Eu  Eu2  1  0.198286  0.491170  0.026164  1
  Eu  Eu3  1  0.801714  0.991170  0.973836  1
  Al  Al4  1  0.708240  0.330094  0.189485  1
  Al  Al5  1  0.291760  0.830094  0.810515  1
  Al  Al6  1  0.726524  0.337297  0.798650  1
  Al  Al7  1  0.273476  0.837297  0.201350  1
  Al  Al8  1  0.221081  0.168234  0.708577  1
  Al  Al9  1  0.778919  0.668234  0.291423  1
  Al  Al10  1  0.802850  0.669386  0.679822  1
  Al  Al11  1  0.197150  0.169386  0.320178  1
  O  O12  1  0.437459  0.670430  0.267361  1
  O  O13  1  0.562541  0.170430  0.732639  1
  O  O14  1  0.595471  0.816916  0.730490  1
  O  O15  1  0.404529  0.316916  0.269510  1
  O  O16  1  0.344622  0.990573  0.328799  1
  O  O17  1  0.655378  0.490573  0.671201  1
  O  O18  1  0.897670  0.483264  0.264527  1
  O  O19  1  0.102330  0.983264  0.735473  1
  O  O20  1  0.939069  0.794670  0.169994  1
  O  O21  1  0.060931  0.294670  0.830006  1
  O  O22  1  0.898538  0.164202  0.205977  1
  O  O23  1  0.101462  0.664202  0.794023  1
  O  O24  1  0.886972  0.718176  0.486424  1
  O  O25  1  0.113028  0.218176  0.513576  1
  O  O26  1  0.636824  0.383817  0.990532  1
  O  O27  1  0.363176  0.883817  0.009468  1
