# generated using pymatgen
data_KBaPS4
_symmetry_space_group_name_H-M   'P 1'
_cell_length_a   6.78621792
_cell_length_b   9.89302478
_cell_length_c   12.26911445
_cell_angle_alpha   90.00000000
_cell_angle_beta   90.00000000
_cell_angle_gamma   90.00000000
_symmetry_Int_Tables_number   1
_chemical_formula_structural   KBaPS4
_chemical_formula_sum   'K4 Ba4 P4 S16'
_cell_volume   823.70199201
_cell_formula_units_Z   4
loop_
 _symmetry_equiv_pos_site_id
 _symmetry_equiv_pos_as_xyz
  1  'x, y, z'
loop_
 _atom_site_type_symbol
 _atom_site_label
 _atom_site_symmetry_multiplicity
 _atom_site_fract_x
 _atom_site_fract_y
 _atom_site_fract_z
 _atom_site_occupancy
  K  K0  1  0.250000  0.168381  0.622294  1
  K  K1  1  0.750000  0.831619  0.377706  1
  K  K2  1  0.750000  0.668381  0.877706  1
  K  K3  1  0.250000  0.331619  0.122294  1
  Ba  Ba4  1  0.250000  0.619893  0.641644  1
  Ba  Ba5  1  0.750000  0.380107  0.358356  1
  Ba  Ba6  1  0.750000  0.119893  0.858356  1
  Ba  Ba7  1  0.250000  0.880107  0.141644  1
  P  P8  1  0.750000  0.102422  0.173777  1
  P  P9  1  0.250000  0.602422  0.326223  1
  P  P10  1  0.750000  0.397578  0.673777  1
  P  P11  1  0.250000  0.897578  0.826223  1
  S  S12  1  0.494123  0.603995  0.227632  1
  S  S13  1  0.994123  0.396005  0.772368  1
  S  S14  1  0.505877  0.103995  0.272368  1
  S  S15  1  0.005877  0.896005  0.727632  1
  S  S16  1  0.250000  0.069734  0.921039  1
  S  S17  1  0.250000  0.430266  0.421039  1
  S  S18  1  0.750000  0.930266  0.078961  1
  S  S19  1  0.750000  0.569734  0.578961  1
  S  S20  1  0.250000  0.777996  0.415898  1
  S  S21  1  0.750000  0.222004  0.584102  1
  S  S22  1  0.750000  0.277996  0.084102  1
  S  S23  1  0.250000  0.722004  0.915898  1
  S  S24  1  0.994123  0.103995  0.272368  1
  S  S25  1  0.494123  0.896005  0.727632  1
  S  S26  1  0.005877  0.603995  0.227632  1
  S  S27  1  0.505877  0.396005  0.772368  1
