# generated using pymatgen
data_K6MnSe4
_symmetry_space_group_name_H-M   'P 1'
_cell_length_a   10.31226068
_cell_length_b   10.31226068
_cell_length_c   8.05913917
_cell_angle_alpha   90.00000000
_cell_angle_beta   90.00000000
_cell_angle_gamma   120.00000000
_symmetry_Int_Tables_number   1
_chemical_formula_structural   K6MnSe4
_chemical_formula_sum   'K12 Mn2 Se8'
_cell_volume   742.21042984
_cell_formula_units_Z   2
loop_
 _symmetry_equiv_pos_site_id
 _symmetry_equiv_pos_as_xyz
  1  'x, y, z'
loop_
 _atom_site_type_symbol
 _atom_site_label
 _atom_site_symmetry_multiplicity
 _atom_site_fract_x
 _atom_site_fract_y
 _atom_site_fract_z
 _atom_site_occupancy
  K  K0  1  0.146453  0.853547  0.542261  1
  K  K1  1  0.292906  0.146453  0.042261  1
  K  K2  1  0.853547  0.707094  0.042261  1
  K  K3  1  0.146453  0.292906  0.542261  1
  K  K4  1  0.707094  0.853547  0.542261  1
  K  K5  1  0.853547  0.146453  0.042261  1
  K  K6  1  0.529052  0.470948  0.367143  1
  K  K7  1  0.058104  0.529052  0.867143  1
  K  K8  1  0.470948  0.941896  0.867143  1
  K  K9  1  0.529052  0.058104  0.367143  1
  K  K10  1  0.941896  0.470948  0.367143  1
  K  K11  1  0.470948  0.529052  0.867143  1
  Mn  Mn12  1  0.333333  0.666667  0.252724  1
  Mn  Mn13  1  0.666667  0.333333  0.752724  1
  Se  Se14  1  0.333333  0.666667  0.573597  1
  Se  Se15  1  0.666667  0.333333  0.073597  1
  Se  Se16  1  0.195574  0.804426  0.152722  1
  Se  Se17  1  0.391148  0.195574  0.652722  1
  Se  Se18  1  0.804426  0.608852  0.652722  1
  Se  Se19  1  0.195574  0.391148  0.152722  1
  Se  Se20  1  0.608852  0.804426  0.152722  1
  Se  Se21  1  0.804426  0.195574  0.652722  1
