# generated using pymatgen
data_Gd2Si2O7
_symmetry_space_group_name_H-M   'P 1'
_cell_length_a   6.62296879
_cell_length_b   6.74854081
_cell_length_c   12.72865600
_cell_angle_alpha   90.00000000
_cell_angle_beta   108.15632518
_cell_angle_gamma   90.00000000
_symmetry_Int_Tables_number   1
_chemical_formula_structural   Gd2Si2O7
_chemical_formula_sum   'Gd8 Si8 O28'
_cell_volume   540.58584368
_cell_formula_units_Z   4
loop_
 _symmetry_equiv_pos_site_id
 _symmetry_equiv_pos_as_xyz
  1  'x, y, z'
loop_
 _atom_site_type_symbol
 _atom_site_label
 _atom_site_symmetry_multiplicity
 _atom_site_fract_x
 _atom_site_fract_y
 _atom_site_fract_z
 _atom_site_occupancy
  Gd  Gd0  1  0.157557  0.829919  0.848684  1
  Gd  Gd1  1  0.842443  0.329919  0.651316  1
  Gd  Gd2  1  0.842443  0.170081  0.151316  1
  Gd  Gd3  1  0.157557  0.670081  0.348684  1
  Gd  Gd4  1  0.472057  0.611151  0.137060  1
  Gd  Gd5  1  0.527943  0.111151  0.362940  1
  Gd  Gd6  1  0.527943  0.388849  0.862940  1
  Gd  Gd7  1  0.472057  0.888849  0.637060  1
  Si  Si8  1  0.711497  0.918309  0.888599  1
  Si  Si9  1  0.288503  0.418309  0.611401  1
  Si  Si10  1  0.288503  0.081691  0.111401  1
  Si  Si11  1  0.711497  0.581691  0.388599  1
  Si  Si12  1  0.896533  0.671342  0.085467  1
  Si  Si13  1  0.103467  0.171342  0.414533  1
  Si  Si14  1  0.103467  0.328658  0.914533  1
  Si  Si15  1  0.896533  0.828658  0.585467  1
  O  O16  1  0.663629  0.105029  0.957352  1
  O  O17  1  0.336371  0.605029  0.542648  1
  O  O18  1  0.336371  0.894971  0.042648  1
  O  O19  1  0.663629  0.394971  0.457352  1
  O  O20  1  0.783365  0.830700  0.145975  1
  O  O21  1  0.216635  0.330700  0.354025  1
  O  O22  1  0.216635  0.169300  0.854025  1
  O  O23  1  0.783365  0.669300  0.645975  1
  O  O24  1  0.128209  0.594878  0.161331  1
  O  O25  1  0.871791  0.094878  0.338669  1
  O  O26  1  0.871791  0.405122  0.838669  1
  O  O27  1  0.128209  0.905122  0.661331  1
  O  O28  1  0.801449  0.981311  0.787615  1
  O  O29  1  0.198551  0.481311  0.712385  1
  O  O30  1  0.198551  0.018689  0.212385  1
  O  O31  1  0.801449  0.518689  0.287615  1
  O  O32  1  0.907597  0.722245  0.468496  1
  O  O33  1  0.092403  0.222245  0.031504  1
  O  O34  1  0.092403  0.277755  0.531504  1
  O  O35  1  0.907597  0.777755  0.968496  1
  O  O36  1  0.724790  0.015096  0.549707  1
  O  O37  1  0.275210  0.515096  0.950293  1
  O  O38  1  0.275210  0.984904  0.450293  1
  O  O39  1  0.724790  0.484904  0.049707  1
  O  O40  1  0.502140  0.723658  0.331767  1
  O  O41  1  0.497860  0.223658  0.168233  1
  O  O42  1  0.497860  0.276342  0.668233  1
  O  O43  1  0.502140  0.776342  0.831767  1
