# generated using pymatgen
data_Cu(IrS2)2
_symmetry_space_group_name_H-M   'P 1'
_cell_length_a   7.01464152
_cell_length_b   7.01464152
_cell_length_c   7.01464152
_cell_angle_alpha   60.00000000
_cell_angle_beta   60.00000000
_cell_angle_gamma   60.00000000
_symmetry_Int_Tables_number   1
_chemical_formula_structural   Cu(IrS2)2
_chemical_formula_sum   'Cu2 Ir4 S8'
_cell_volume   244.06272030
_cell_formula_units_Z   2
loop_
 _symmetry_equiv_pos_site_id
 _symmetry_equiv_pos_as_xyz
  1  'x, y, z'
loop_
 _atom_site_type_symbol
 _atom_site_label
 _atom_site_symmetry_multiplicity
 _atom_site_fract_x
 _atom_site_fract_y
 _atom_site_fract_z
 _atom_site_occupancy
  Cu  Cu0  1  0.250000  0.250000  0.250000  1
  Cu  Cu1  1  0.000000  0.000000  0.000000  1
  Ir  Ir2  1  0.625000  0.625000  0.625000  1
  Ir  Ir3  1  0.625000  0.125000  0.625000  1
  Ir  Ir4  1  0.125000  0.625000  0.625000  1
  Ir  Ir5  1  0.625000  0.625000  0.125000  1
  S  S6  1  0.864567  0.406298  0.864567  1
  S  S7  1  0.864567  0.864567  0.864567  1
  S  S8  1  0.385433  0.385433  0.385433  1
  S  S9  1  0.385433  0.843702  0.385433  1
  S  S10  1  0.864567  0.864567  0.406298  1
  S  S11  1  0.406298  0.864567  0.864567  1
  S  S12  1  0.843702  0.385433  0.385433  1
  S  S13  1  0.385433  0.385433  0.843702  1
