# generated using pymatgen
data_SmAu6
_symmetry_space_group_name_H-M   'P 1'
_cell_length_a   10.58958415
_cell_length_b   10.58958415
_cell_length_c   9.95138199
_cell_angle_alpha   90.00000000
_cell_angle_beta   90.00000000
_cell_angle_gamma   90.00000000
_symmetry_Int_Tables_number   1
_chemical_formula_structural   SmAu6
_chemical_formula_sum   'Sm8 Au48'
_cell_volume   1115.94093546
_cell_formula_units_Z   8
loop_
 _symmetry_equiv_pos_site_id
 _symmetry_equiv_pos_as_xyz
  1  'x, y, z'
loop_
 _atom_site_type_symbol
 _atom_site_label
 _atom_site_symmetry_multiplicity
 _atom_site_fract_x
 _atom_site_fract_y
 _atom_site_fract_z
 _atom_site_occupancy
  Sm  Sm0  1  0.675334  0.175334  0.039551  1
  Sm  Sm1  1  0.324666  0.824666  0.039551  1
  Sm  Sm2  1  0.324666  0.175334  0.539551  1
  Sm  Sm3  1  0.675334  0.824666  0.539551  1
  Sm  Sm4  1  0.175334  0.675334  0.460449  1
  Sm  Sm5  1  0.175334  0.324666  0.960449  1
  Sm  Sm6  1  0.824666  0.675334  0.960449  1
  Sm  Sm7  1  0.824666  0.324666  0.460449  1
  Au  Au8  1  0.896458  0.396458  0.930996  1
  Au  Au9  1  0.896458  0.603542  0.430996  1
  Au  Au10  1  0.103542  0.396458  0.430996  1
  Au  Au11  1  0.103542  0.603542  0.930996  1
  Au  Au12  1  0.603542  0.896458  0.069004  1
  Au  Au13  1  0.396458  0.103542  0.069004  1
  Au  Au14  1  0.396458  0.896458  0.569004  1
  Au  Au15  1  0.603542  0.103542  0.569004  1
  Au  Au16  1  0.051396  0.873573  0.894693  1
  Au  Au17  1  0.373573  0.448604  0.394693  1
  Au  Au18  1  0.626427  0.551396  0.394693  1
  Au  Au19  1  0.948604  0.126427  0.894693  1
  Au  Au20  1  0.448604  0.373573  0.105307  1
  Au  Au21  1  0.551396  0.626427  0.105307  1
  Au  Au22  1  0.873573  0.051396  0.605307  1
  Au  Au23  1  0.126427  0.948604  0.605307  1
  Au  Au24  1  0.448604  0.626427  0.605307  1
  Au  Au25  1  0.126427  0.051396  0.105307  1
  Au  Au26  1  0.873573  0.948604  0.105307  1
  Au  Au27  1  0.551396  0.373573  0.605307  1
  Au  Au28  1  0.051396  0.126427  0.394693  1
  Au  Au29  1  0.948604  0.873573  0.394693  1
  Au  Au30  1  0.626427  0.448604  0.894693  1
  Au  Au31  1  0.373573  0.551396  0.894693  1
  Au  Au32  1  0.763507  0.931117  0.828723  1
  Au  Au33  1  0.431117  0.736493  0.328723  1
  Au  Au34  1  0.568883  0.263507  0.328723  1
  Au  Au35  1  0.236493  0.068883  0.828723  1
  Au  Au36  1  0.736493  0.431117  0.171277  1
  Au  Au37  1  0.263507  0.568883  0.171277  1
  Au  Au38  1  0.931117  0.763507  0.671277  1
  Au  Au39  1  0.068883  0.236493  0.671277  1
  Au  Au40  1  0.736493  0.568883  0.671277  1
  Au  Au41  1  0.068883  0.763507  0.171277  1
  Au  Au42  1  0.931117  0.236493  0.171277  1
  Au  Au43  1  0.263507  0.431117  0.671277  1
  Au  Au44  1  0.763507  0.068883  0.328723  1
  Au  Au45  1  0.236493  0.931117  0.328723  1
  Au  Au46  1  0.568883  0.736493  0.828723  1
  Au  Au47  1  0.431117  0.263507  0.828723  1
  Au  Au48  1  0.500000  0.000000  0.313262  1
  Au  Au49  1  0.500000  0.000000  0.813262  1
  Au  Au50  1  0.000000  0.500000  0.686738  1
  Au  Au51  1  0.000000  0.500000  0.186738  1
  Au  Au52  1  0.250000  0.750000  0.750000  1
  Au  Au53  1  0.250000  0.250000  0.250000  1
  Au  Au54  1  0.750000  0.750000  0.250000  1
  Au  Au55  1  0.750000  0.250000  0.750000  1
