# generated using pymatgen
data_BaCr10O15
_symmetry_space_group_name_H-M   'P 1'
_cell_length_a   7.85596606
_cell_length_b   7.85596606
_cell_length_c   9.62839243
_cell_angle_alpha   90.00000000
_cell_angle_beta   90.00000000
_cell_angle_gamma   96.60184395
_symmetry_Int_Tables_number   1
_chemical_formula_structural   BaCr10O15
_chemical_formula_sum   'Ba2 Cr20 O30'
_cell_volume   590.28753432
_cell_formula_units_Z   2
loop_
 _symmetry_equiv_pos_site_id
 _symmetry_equiv_pos_as_xyz
  1  'x, y, z'
loop_
 _atom_site_type_symbol
 _atom_site_label
 _atom_site_symmetry_multiplicity
 _atom_site_fract_x
 _atom_site_fract_y
 _atom_site_fract_z
 _atom_site_occupancy
  Ba  Ba0  1  0.500000  0.500000  0.500000  1
  Ba  Ba1  1  0.000000  0.000000  0.000000  1
  Cr  Cr2  1  0.918207  0.406617  0.114744  1
  Cr  Cr3  1  0.581793  0.093383  0.614744  1
  Cr  Cr4  1  0.906617  0.418207  0.385256  1
  Cr  Cr5  1  0.593383  0.081793  0.885256  1
  Cr  Cr6  1  0.081793  0.593383  0.885256  1
  Cr  Cr7  1  0.418207  0.906617  0.385256  1
  Cr  Cr8  1  0.093383  0.581793  0.614744  1
  Cr  Cr9  1  0.406617  0.918207  0.114744  1
  Cr  Cr10  1  0.288500  0.542881  0.143291  1
  Cr  Cr11  1  0.211500  0.957119  0.643291  1
  Cr  Cr12  1  0.042881  0.788500  0.356709  1
  Cr  Cr13  1  0.457119  0.711500  0.856709  1
  Cr  Cr14  1  0.711500  0.457119  0.856709  1
  Cr  Cr15  1  0.788500  0.042881  0.356709  1
  Cr  Cr16  1  0.957119  0.211500  0.643291  1
  Cr  Cr17  1  0.542881  0.288500  0.143291  1
  Cr  Cr18  1  0.316692  0.316692  0.865262  1
  Cr  Cr19  1  0.183308  0.183308  0.365262  1
  Cr  Cr20  1  0.816692  0.816692  0.634738  1
  Cr  Cr21  1  0.683308  0.683308  0.134738  1
  O  O22  1  0.000000  0.000000  0.500000  1
  O  O23  1  0.500000  0.500000  0.000000  1
  O  O24  1  0.644904  0.644904  0.739793  1
  O  O25  1  0.855096  0.855096  0.239793  1
  O  O26  1  0.144904  0.144904  0.760207  1
  O  O27  1  0.355096  0.355096  0.260207  1
  O  O28  1  0.722507  0.458740  0.240321  1
  O  O29  1  0.777493  0.041260  0.740321  1
  O  O30  1  0.958740  0.222507  0.259679  1
  O  O31  1  0.541260  0.277493  0.759679  1
  O  O32  1  0.277493  0.541260  0.759679  1
  O  O33  1  0.222507  0.958740  0.259679  1
  O  O34  1  0.041260  0.777493  0.740321  1
  O  O35  1  0.458740  0.722507  0.240321  1
  O  O36  1  0.064690  0.564690  0.250000  1
  O  O37  1  0.435310  0.935310  0.750000  1
  O  O38  1  0.935310  0.435310  0.750000  1
  O  O39  1  0.564690  0.064690  0.250000  1
  O  O40  1  0.864741  0.603644  0.994563  1
  O  O41  1  0.635259  0.896356  0.494563  1
  O  O42  1  0.103644  0.364741  0.505437  1
  O  O43  1  0.396356  0.135259  0.005437  1
  O  O44  1  0.256198  0.743802  1.000000  1
  O  O45  1  0.243802  0.756198  0.500000  1
  O  O46  1  0.743802  0.256198  1.000000  1
  O  O47  1  0.756198  0.243802  0.500000  1
  O  O48  1  0.603644  0.864741  0.994563  1
  O  O49  1  0.896356  0.635259  0.494563  1
  O  O50  1  0.364741  0.103644  0.505437  1
  O  O51  1  0.135259  0.396356  0.005437  1
