# generated using pymatgen
data_Cs2As3
_symmetry_space_group_name_H-M   'P 1'
_cell_length_a   9.63025517
_cell_length_b   9.42025739
_cell_length_c   7.26020350
_cell_angle_alpha   69.13889767
_cell_angle_beta   66.07397891
_cell_angle_gamma   44.78712342
_symmetry_Int_Tables_number   1
_chemical_formula_structural   Cs2As3
_chemical_formula_sum   'Cs4 As6'
_cell_volume   421.73506502
_cell_formula_units_Z   2
loop_
 _symmetry_equiv_pos_site_id
 _symmetry_equiv_pos_as_xyz
  1  'x, y, z'
loop_
 _atom_site_type_symbol
 _atom_site_label
 _atom_site_symmetry_multiplicity
 _atom_site_fract_x
 _atom_site_fract_y
 _atom_site_fract_z
 _atom_site_occupancy
  Cs  Cs0  1  0.750000  0.750000  0.750000  1
  Cs  Cs1  1  0.250000  0.250000  0.250000  1
  Cs  Cs2  1  0.731619  0.268381  0.731619  1
  Cs  Cs3  1  0.268381  0.731619  0.268381  1
  As  As4  1  0.136693  0.712532  0.863307  1
  As  As5  1  0.287468  0.863307  0.712532  1
  As  As6  1  0.863307  0.287468  0.136693  1
  As  As7  1  0.712532  0.136693  0.287468  1
  As  As8  1  0.848325  0.848325  0.151675  1
  As  As9  1  0.151675  0.151675  0.848325  1
