# generated using pymatgen
data_K5CuAs2
_symmetry_space_group_name_H-M   'P 1'
_cell_length_a   5.78705769
_cell_length_b   5.78705769
_cell_length_c   18.95008047
_cell_angle_alpha   90.00000000
_cell_angle_beta   90.00000000
_cell_angle_gamma   120.00000000
_symmetry_Int_Tables_number   1
_chemical_formula_structural   K5CuAs2
_chemical_formula_sum   'K10 Cu2 As4'
_cell_volume   549.61340228
_cell_formula_units_Z   2
loop_
 _symmetry_equiv_pos_site_id
 _symmetry_equiv_pos_as_xyz
  1  'x, y, z'
loop_
 _atom_site_type_symbol
 _atom_site_label
 _atom_site_symmetry_multiplicity
 _atom_site_fract_x
 _atom_site_fract_y
 _atom_site_fract_z
 _atom_site_occupancy
  K  K0  1  0.333333  0.666667  0.549251  1
  K  K1  1  0.666667  0.333333  0.049251  1
  K  K2  1  0.666667  0.333333  0.450749  1
  K  K3  1  0.333333  0.666667  0.950749  1
  K  K4  1  0.000000  0.000000  0.145243  1
  K  K5  1  0.000000  0.000000  0.645243  1
  K  K6  1  0.000000  0.000000  0.854757  1
  K  K7  1  0.000000  0.000000  0.354757  1
  K  K8  1  0.333333  0.666667  0.750000  1
  K  K9  1  0.666667  0.333333  0.250000  1
  Cu  Cu10  1  0.333333  0.666667  0.250000  1
  Cu  Cu11  1  0.666667  0.333333  0.750000  1
  As  As12  1  0.333333  0.666667  0.373281  1
  As  As13  1  0.666667  0.333333  0.873281  1
  As  As14  1  0.666667  0.333333  0.626719  1
  As  As15  1  0.333333  0.666667  0.126719  1
