# generated using pymatgen
data_CsCa2Ta3O10
_symmetry_space_group_name_H-M   'P 1'
_cell_length_a   3.95063400
_cell_length_b   3.95063400
_cell_length_c   15.51355158
_cell_angle_alpha   90.00000000
_cell_angle_beta   90.00000000
_cell_angle_gamma   90.00000000
_symmetry_Int_Tables_number   1
_chemical_formula_structural   CsCa2Ta3O10
_chemical_formula_sum   'Cs1 Ca2 Ta3 O10'
_cell_volume   242.12789594
_cell_formula_units_Z   1
loop_
 _symmetry_equiv_pos_site_id
 _symmetry_equiv_pos_as_xyz
  1  'x, y, z'
loop_
 _atom_site_type_symbol
 _atom_site_label
 _atom_site_symmetry_multiplicity
 _atom_site_fract_x
 _atom_site_fract_y
 _atom_site_fract_z
 _atom_site_occupancy
  Cs  Cs0  1  0.000000  0.000000  0.500000  1
  Ca  Ca1  1  0.000000  0.000000  0.851893  1
  Ca  Ca2  1  0.000000  0.000000  0.148107  1
  Ta  Ta3  1  0.500000  0.500000  0.000000  1
  Ta  Ta4  1  0.500000  0.500000  0.275438  1
  Ta  Ta5  1  0.500000  0.500000  0.724562  1
  O  O6  1  0.500000  0.500000  0.608635  1
  O  O7  1  0.500000  0.500000  0.391365  1
  O  O8  1  0.000000  0.500000  0.751248  1
  O  O9  1  0.500000  0.000000  0.751248  1
  O  O10  1  0.000000  0.500000  0.248752  1
  O  O11  1  0.500000  0.000000  0.248752  1
  O  O12  1  0.500000  0.000000  0.000000  1
  O  O13  1  0.000000  0.500000  0.000000  1
  O  O14  1  0.500000  0.500000  0.126958  1
  O  O15  1  0.500000  0.500000  0.873042  1
