# generated using pymatgen
data_Ag2SnHgSe4
_symmetry_space_group_name_H-M   'P 1'
_cell_length_a   7.17152816
_cell_length_b   7.57491973
_cell_length_c   8.62466954
_cell_angle_alpha   90.00000000
_cell_angle_beta   90.00000000
_cell_angle_gamma   90.00000000
_symmetry_Int_Tables_number   1
_chemical_formula_structural   Ag2SnHgSe4
_chemical_formula_sum   'Ag4 Sn2 Hg2 Se8'
_cell_volume   468.52439325
_cell_formula_units_Z   2
loop_
 _symmetry_equiv_pos_site_id
 _symmetry_equiv_pos_as_xyz
  1  'x, y, z'
loop_
 _atom_site_type_symbol
 _atom_site_label
 _atom_site_symmetry_multiplicity
 _atom_site_fract_x
 _atom_site_fract_y
 _atom_site_fract_z
 _atom_site_occupancy
  Ag  Ag0  1  0.491689  0.825600  0.747180  1
  Ag  Ag1  1  0.991689  0.174400  0.247180  1
  Ag  Ag2  1  0.991689  0.174400  0.752820  1
  Ag  Ag3  1  0.491689  0.825600  0.252820  1
  Sn  Sn4  1  0.478853  0.332482  0.500000  1
  Sn  Sn5  1  0.978853  0.667518  0.000000  1
  Hg  Hg6  1  0.976489  0.650300  0.500000  1
  Hg  Hg7  1  0.476489  0.349700  0.000000  1
  Se  Se8  1  0.359523  0.654809  0.500000  1
  Se  Se9  1  0.859523  0.345191  0.000000  1
  Se  Se10  1  0.841795  0.318536  0.500000  1
  Se  Se11  1  0.341795  0.681464  0.000000  1
  Se  Se12  1  0.862482  0.839004  0.756576  1
  Se  Se13  1  0.862482  0.839004  0.243424  1
  Se  Se14  1  0.362482  0.160996  0.256576  1
  Se  Se15  1  0.362482  0.160996  0.743424  1
