# generated using pymatgen
data_Rh2S3
_symmetry_space_group_name_H-M   'P 1'
_cell_length_a   6.05461252
_cell_length_b   6.20018762
_cell_length_c   8.56173983
_cell_angle_alpha   90.00000000
_cell_angle_beta   90.00000000
_cell_angle_gamma   90.00000000
_symmetry_Int_Tables_number   1
_chemical_formula_structural   Rh2S3
_chemical_formula_sum   'Rh8 S12'
_cell_volume   321.40543229
_cell_formula_units_Z   4
loop_
 _symmetry_equiv_pos_site_id
 _symmetry_equiv_pos_as_xyz
  1  'x, y, z'
loop_
 _atom_site_type_symbol
 _atom_site_label
 _atom_site_symmetry_multiplicity
 _atom_site_fract_x
 _atom_site_fract_y
 _atom_site_fract_z
 _atom_site_occupancy
  Rh  Rh0  1  0.751483  0.032120  0.392872  1
  Rh  Rh1  1  0.751483  0.467880  0.607128  1
  Rh  Rh2  1  0.748517  0.532120  0.107128  1
  Rh  Rh3  1  0.748517  0.967880  0.892872  1
  Rh  Rh4  1  0.248517  0.967880  0.607128  1
  Rh  Rh5  1  0.248517  0.532120  0.392872  1
  Rh  Rh6  1  0.251483  0.467880  0.892872  1
  Rh  Rh7  1  0.251483  0.032120  0.107128  1
  S  S8  1  0.453512  0.250000  0.500000  1
  S  S9  1  0.046488  0.750000  0.000000  1
  S  S10  1  0.546488  0.750000  0.500000  1
  S  S11  1  0.953512  0.250000  0.000000  1
  S  S12  1  0.890380  0.393290  0.348860  1
  S  S13  1  0.890380  0.106710  0.651140  1
  S  S14  1  0.609620  0.893290  0.151140  1
  S  S15  1  0.609620  0.606710  0.848860  1
  S  S16  1  0.390380  0.393290  0.151140  1
  S  S17  1  0.390380  0.106710  0.848860  1
  S  S18  1  0.109620  0.893290  0.348860  1
  S  S19  1  0.109620  0.606710  0.651140  1
