# generated using pymatgen
data_Cs2RuO4
_symmetry_space_group_name_H-M   'P 1'
_cell_length_a   6.61790067
_cell_length_b   8.66416407
_cell_length_c   11.76094988
_cell_angle_alpha   90.00000000
_cell_angle_beta   90.00000000
_cell_angle_gamma   90.00000000
_symmetry_Int_Tables_number   1
_chemical_formula_structural   Cs2RuO4
_chemical_formula_sum   'Cs8 Ru4 O16'
_cell_volume   674.35613268
_cell_formula_units_Z   4
loop_
 _symmetry_equiv_pos_site_id
 _symmetry_equiv_pos_as_xyz
  1  'x, y, z'
loop_
 _atom_site_type_symbol
 _atom_site_label
 _atom_site_symmetry_multiplicity
 _atom_site_fract_x
 _atom_site_fract_y
 _atom_site_fract_z
 _atom_site_occupancy
  Cs  Cs0  1  0.250000  0.168830  0.919275  1
  Cs  Cs1  1  0.750000  0.831170  0.080725  1
  Cs  Cs2  1  0.250000  0.668830  0.580725  1
  Cs  Cs3  1  0.750000  0.331170  0.419275  1
  Cs  Cs4  1  0.750000  0.506911  0.795849  1
  Cs  Cs5  1  0.250000  0.493089  0.204151  1
  Cs  Cs6  1  0.750000  0.006911  0.704151  1
  Cs  Cs7  1  0.250000  0.993089  0.295849  1
  Ru  Ru8  1  0.750000  0.776198  0.420939  1
  Ru  Ru9  1  0.250000  0.223802  0.579061  1
  Ru  Ru10  1  0.750000  0.276198  0.079061  1
  Ru  Ru11  1  0.250000  0.723802  0.920939  1
  O  O12  1  0.526898  0.202486  0.148086  1
  O  O13  1  0.026898  0.797514  0.851914  1
  O  O14  1  0.973102  0.702486  0.351914  1
  O  O15  1  0.473102  0.297514  0.648086  1
  O  O16  1  0.473102  0.797514  0.851914  1
  O  O17  1  0.973102  0.202486  0.148086  1
  O  O18  1  0.026898  0.297514  0.648086  1
  O  O19  1  0.526898  0.702486  0.351914  1
  O  O20  1  0.250000  0.517189  0.920478  1
  O  O21  1  0.750000  0.482811  0.079522  1
  O  O22  1  0.250000  0.017189  0.579522  1
  O  O23  1  0.750000  0.982811  0.420478  1
  O  O24  1  0.750000  0.702867  0.565067  1
  O  O25  1  0.250000  0.297133  0.434933  1
  O  O26  1  0.750000  0.202867  0.934933  1
  O  O27  1  0.250000  0.797133  0.065067  1
