# generated using pymatgen
data_Ba(FeO2)2
_symmetry_space_group_name_H-M   'P 1'
_cell_length_a   5.50470346
_cell_length_b   5.50470346
_cell_length_c   9.24476133
_cell_angle_alpha   90.00000000
_cell_angle_beta   90.00000000
_cell_angle_gamma   120.00000000
_symmetry_Int_Tables_number   1
_chemical_formula_structural   Ba(FeO2)2
_chemical_formula_sum   'Ba2 Fe4 O8'
_cell_volume   242.60189686
_cell_formula_units_Z   2
loop_
 _symmetry_equiv_pos_site_id
 _symmetry_equiv_pos_as_xyz
  1  'x, y, z'
loop_
 _atom_site_type_symbol
 _atom_site_label
 _atom_site_symmetry_multiplicity
 _atom_site_fract_x
 _atom_site_fract_y
 _atom_site_fract_z
 _atom_site_occupancy
  Ba  Ba0  1  0.000000  0.000000  0.750000  1
  Ba  Ba1  1  0.000000  0.000000  0.250000  1
  Fe  Fe2  1  0.333333  0.666667  0.452280  1
  Fe  Fe3  1  0.666667  0.333333  0.952280  1
  Fe  Fe4  1  0.666667  0.333333  0.547720  1
  Fe  Fe5  1  0.333333  0.666667  0.047720  1
  O  O6  1  0.672216  0.000000  0.500000  1
  O  O7  1  0.672216  0.672216  0.000000  1
  O  O8  1  0.000000  0.327784  0.000000  1
  O  O9  1  0.000000  0.672216  0.500000  1
  O  O10  1  0.327784  0.327784  0.500000  1
  O  O11  1  0.327784  0.000000  0.000000  1
  O  O12  1  0.333333  0.666667  0.250000  1
  O  O13  1  0.666667  0.333333  0.750000  1
