# generated using pymatgen
data_Sr8Al7
_symmetry_space_group_name_H-M   'P 1'
_cell_length_a   12.76189535
_cell_length_b   12.76189535
_cell_length_c   12.76189535
_cell_angle_alpha   90.00000000
_cell_angle_beta   90.00000000
_cell_angle_gamma   90.00000000
_symmetry_Int_Tables_number   1
_chemical_formula_structural   Sr8Al7
_chemical_formula_sum   'Sr32 Al28'
_cell_volume   2078.47850254
_cell_formula_units_Z   4
loop_
 _symmetry_equiv_pos_site_id
 _symmetry_equiv_pos_as_xyz
  1  'x, y, z'
loop_
 _atom_site_type_symbol
 _atom_site_label
 _atom_site_symmetry_multiplicity
 _atom_site_fract_x
 _atom_site_fract_y
 _atom_site_fract_z
 _atom_site_occupancy
  Sr  Sr0  1  0.813125  0.813125  0.813125  1
  Sr  Sr1  1  0.686875  0.186875  0.313125  1
  Sr  Sr2  1  0.313125  0.686875  0.186875  1
  Sr  Sr3  1  0.186875  0.313125  0.686875  1
  Sr  Sr4  1  0.184624  0.184624  0.184624  1
  Sr  Sr5  1  0.315376  0.815376  0.684624  1
  Sr  Sr6  1  0.684624  0.315376  0.815376  1
  Sr  Sr7  1  0.815376  0.684624  0.315376  1
  Sr  Sr8  1  0.803486  0.559661  0.005915  1
  Sr  Sr9  1  0.005915  0.803486  0.559661  1
  Sr  Sr10  1  0.559661  0.005915  0.803486  1
  Sr  Sr11  1  0.940339  0.994085  0.303486  1
  Sr  Sr12  1  0.505915  0.696514  0.440339  1
  Sr  Sr13  1  0.440339  0.505915  0.696514  1
  Sr  Sr14  1  0.494085  0.196514  0.059661  1
  Sr  Sr15  1  0.994085  0.303486  0.940339  1
  Sr  Sr16  1  0.059661  0.494085  0.196514  1
  Sr  Sr17  1  0.303486  0.940339  0.994085  1
  Sr  Sr18  1  0.196514  0.059661  0.494085  1
  Sr  Sr19  1  0.696514  0.440339  0.505915  1
  Sr  Sr20  1  0.522733  0.705018  0.935976  1
  Sr  Sr21  1  0.935976  0.522733  0.705018  1
  Sr  Sr22  1  0.705018  0.935976  0.522733  1
  Sr  Sr23  1  0.794982  0.064024  0.022733  1
  Sr  Sr24  1  0.435976  0.977267  0.294982  1
  Sr  Sr25  1  0.294982  0.435976  0.977267  1
  Sr  Sr26  1  0.564024  0.477267  0.205018  1
  Sr  Sr27  1  0.064024  0.022733  0.794982  1
  Sr  Sr28  1  0.205018  0.564024  0.477267  1
  Sr  Sr29  1  0.022733  0.794982  0.064024  1
  Sr  Sr30  1  0.477267  0.205018  0.564024  1
  Sr  Sr31  1  0.977267  0.294982  0.435976  1
  Al  Al32  1  0.430816  0.430816  0.430816  1
  Al  Al33  1  0.069184  0.569184  0.930816  1
  Al  Al34  1  0.930816  0.069184  0.569184  1
  Al  Al35  1  0.569184  0.930816  0.069184  1
  Al  Al36  1  0.753113  0.190418  0.576451  1
  Al  Al37  1  0.576451  0.753113  0.190418  1
  Al  Al38  1  0.190418  0.576451  0.753113  1
  Al  Al39  1  0.309582  0.423549  0.253113  1
  Al  Al40  1  0.076451  0.746887  0.809582  1
  Al  Al41  1  0.809582  0.076451  0.746887  1
  Al  Al42  1  0.923549  0.246887  0.690418  1
  Al  Al43  1  0.423549  0.253113  0.309582  1
  Al  Al44  1  0.690418  0.923549  0.246887  1
  Al  Al45  1  0.253113  0.309582  0.423549  1
  Al  Al46  1  0.246887  0.690418  0.923549  1
  Al  Al47  1  0.746887  0.809582  0.076451  1
  Al  Al48  1  0.752320  0.684929  0.580688  1
  Al  Al49  1  0.580688  0.752320  0.684929  1
  Al  Al50  1  0.684929  0.580688  0.752320  1
  Al  Al51  1  0.815071  0.419312  0.252320  1
  Al  Al52  1  0.080688  0.747680  0.315071  1
  Al  Al53  1  0.315071  0.080688  0.747680  1
  Al  Al54  1  0.919312  0.247680  0.184929  1
  Al  Al55  1  0.419312  0.252320  0.815071  1
  Al  Al56  1  0.184929  0.919312  0.247680  1
  Al  Al57  1  0.252320  0.815071  0.419312  1
  Al  Al58  1  0.247680  0.184929  0.919312  1
  Al  Al59  1  0.747680  0.315071  0.080688  1
