# generated using pymatgen
data_Eu(Cu2As)2
_symmetry_space_group_name_H-M   'P 1'
_cell_length_a   8.03743036
_cell_length_b   8.03743036
_cell_length_c   8.03743036
_cell_angle_alpha   30.06290804
_cell_angle_beta   30.06290804
_cell_angle_gamma   30.06290804
_symmetry_Int_Tables_number   1
_chemical_formula_structural   Eu(Cu2As)2
_chemical_formula_sum   'Eu1 Cu4 As2'
_cell_volume   115.42736038
_cell_formula_units_Z   1
loop_
 _symmetry_equiv_pos_site_id
 _symmetry_equiv_pos_as_xyz
  1  'x, y, z'
loop_
 _atom_site_type_symbol
 _atom_site_label
 _atom_site_symmetry_multiplicity
 _atom_site_fract_x
 _atom_site_fract_y
 _atom_site_fract_z
 _atom_site_occupancy
  Eu  Eu0  1  0.000000  0.000000  0.000000  1
  Cu  Cu1  1  0.561006  0.561006  0.561006  1
  Cu  Cu2  1  0.854304  0.854304  0.854304  1
  Cu  Cu3  1  0.438994  0.438994  0.438994  1
  Cu  Cu4  1  0.145696  0.145696  0.145696  1
  As  As5  1  0.747672  0.747672  0.747672  1
  As  As6  1  0.252328  0.252328  0.252328  1
