# generated using pymatgen
data_Sr2NbN3
_symmetry_space_group_name_H-M   'P 1'
_cell_length_a   6.42264710
_cell_length_b   6.42264710
_cell_length_c   12.65584529
_cell_angle_alpha   88.81984765
_cell_angle_beta   91.18015235
_cell_angle_gamma   56.64169069
_symmetry_Int_Tables_number   1
_chemical_formula_structural   Sr2NbN3
_chemical_formula_sum   'Sr8 Nb4 N12'
_cell_volume   435.63740007
_cell_formula_units_Z   4
loop_
 _symmetry_equiv_pos_site_id
 _symmetry_equiv_pos_as_xyz
  1  'x, y, z'
loop_
 _atom_site_type_symbol
 _atom_site_label
 _atom_site_symmetry_multiplicity
 _atom_site_fract_x
 _atom_site_fract_y
 _atom_site_fract_z
 _atom_site_occupancy
  Sr  Sr0  1  0.611372  0.157584  0.922537  1
  Sr  Sr1  1  0.055853  0.541296  0.141129  1
  Sr  Sr2  1  0.458704  0.944147  0.641129  1
  Sr  Sr3  1  0.944147  0.458704  0.858871  1
  Sr  Sr4  1  0.388628  0.842416  0.077463  1
  Sr  Sr5  1  0.842416  0.388628  0.422537  1
  Sr  Sr6  1  0.157584  0.611372  0.577463  1
  Sr  Sr7  1  0.541296  0.055853  0.358871  1
  Nb  Nb8  1  0.231042  0.765984  0.336528  1
  Nb  Nb9  1  0.765984  0.231042  0.163472  1
  Nb  Nb10  1  0.768958  0.234016  0.663472  1
  Nb  Nb11  1  0.234016  0.768958  0.836528  1
  N  N12  1  0.495584  0.495584  0.250000  1
  N  N13  1  0.504416  0.504416  0.750000  1
  N  N14  1  0.088934  0.088934  0.250000  1
  N  N15  1  0.911066  0.911066  0.750000  1
  N  N16  1  0.675182  0.000583  0.123173  1
  N  N17  1  0.000583  0.675182  0.376827  1
  N  N18  1  0.324818  0.999417  0.876827  1
  N  N19  1  0.999417  0.324818  0.623173  1
  N  N20  1  0.387134  0.799942  0.459404  1
  N  N21  1  0.200058  0.612866  0.959404  1
  N  N22  1  0.612866  0.200058  0.540596  1
  N  N23  1  0.799942  0.387134  0.040596  1
