# generated using pymatgen
data_RbLi2Ga2(BO3)3
_symmetry_space_group_name_H-M   'P 1'
_cell_length_a   6.50329588
_cell_length_b   5.01098464
_cell_length_c   12.96151192
_cell_angle_alpha   90.00000000
_cell_angle_beta   92.91509665
_cell_angle_gamma   90.00000000
_symmetry_Int_Tables_number   1
_chemical_formula_structural   RbLi2Ga2(BO3)3
_chemical_formula_sum   'Rb2 Li4 Ga4 B6 O18'
_cell_volume   421.84208420
_cell_formula_units_Z   2
loop_
 _symmetry_equiv_pos_site_id
 _symmetry_equiv_pos_as_xyz
  1  'x, y, z'
loop_
 _atom_site_type_symbol
 _atom_site_label
 _atom_site_symmetry_multiplicity
 _atom_site_fract_x
 _atom_site_fract_y
 _atom_site_fract_z
 _atom_site_occupancy
  Rb  Rb0  1  0.000000  0.211642  0.250000  1
  Rb  Rb1  1  0.000000  0.788358  0.750000  1
  Li  Li2  1  0.503168  0.170193  0.133157  1
  Li  Li3  1  0.496832  0.170193  0.366843  1
  Li  Li4  1  0.496832  0.829807  0.866843  1
  Li  Li5  1  0.503168  0.829807  0.633157  1
  Ga  Ga6  1  0.234244  0.685739  0.063872  1
  Ga  Ga7  1  0.765756  0.685739  0.436128  1
  Ga  Ga8  1  0.765756  0.314261  0.936128  1
  Ga  Ga9  1  0.234244  0.314261  0.563872  1
  B  B10  1  0.500000  0.336376  0.750000  1
  B  B11  1  0.500000  0.663624  0.250000  1
  B  B12  1  0.809211  0.817316  0.040829  1
  B  B13  1  0.190789  0.817316  0.459171  1
  B  B14  1  0.190789  0.182684  0.959171  1
  B  B15  1  0.809211  0.182684  0.540829  1
  O  O16  1  0.754855  0.086425  0.050571  1
  O  O17  1  0.245145  0.913575  0.949429  1
  O  O18  1  0.401400  0.180582  0.671228  1
  O  O19  1  0.754855  0.913575  0.550571  1
  O  O20  1  0.598600  0.819418  0.328772  1
  O  O21  1  0.401400  0.819418  0.171228  1
  O  O22  1  0.963678  0.290616  0.604638  1
  O  O23  1  0.036322  0.290616  0.895362  1
  O  O24  1  0.036322  0.709384  0.395362  1
  O  O25  1  0.963678  0.709384  0.104638  1
  O  O26  1  0.297523  0.666586  0.533973  1
  O  O27  1  0.702477  0.666586  0.966027  1
  O  O28  1  0.702477  0.333414  0.466027  1
  O  O29  1  0.297523  0.333414  0.033973  1
  O  O30  1  0.500000  0.396205  0.250000  1
  O  O31  1  0.500000  0.603795  0.750000  1
  O  O32  1  0.598600  0.180582  0.828772  1
  O  O33  1  0.245145  0.086425  0.449429  1
