# generated using pymatgen
data_Mg(PO3)2
_symmetry_space_group_name_H-M   'P 1'
_cell_length_a   7.29015567
_cell_length_b   7.29015567
_cell_length_c   10.10147722
_cell_angle_alpha   66.69766784
_cell_angle_beta   113.30233216
_cell_angle_gamma   109.93670330
_symmetry_Int_Tables_number   1
_chemical_formula_structural   Mg(PO3)2
_chemical_formula_sum   'Mg4 P8 O24'
_cell_volume   441.88157950
_cell_formula_units_Z   4
loop_
 _symmetry_equiv_pos_site_id
 _symmetry_equiv_pos_as_xyz
  1  'x, y, z'
loop_
 _atom_site_type_symbol
 _atom_site_label
 _atom_site_symmetry_multiplicity
 _atom_site_fract_x
 _atom_site_fract_y
 _atom_site_fract_z
 _atom_site_occupancy
  Mg  Mg0  1  0.950051  0.950051  0.250000  1
  Mg  Mg1  1  0.049949  0.049949  0.750000  1
  Mg  Mg2  1  0.000000  0.500000  0.500000  1
  Mg  Mg3  1  0.500000  0.000000  0.000000  1
  P  P4  1  0.268334  0.255096  0.475690  1
  P  P5  1  0.255096  0.268334  0.024310  1
  P  P6  1  0.731666  0.744904  0.524310  1
  P  P7  1  0.744904  0.731666  0.975690  1
  P  P8  1  0.707142  0.314652  0.194412  1
  P  P9  1  0.314652  0.707142  0.305588  1
  P  P10  1  0.292858  0.685348  0.805588  1
  P  P11  1  0.685348  0.292858  0.694412  1
  O  O12  1  0.148638  0.092937  0.402646  1
  O  O13  1  0.092937  0.148638  0.097354  1
  O  O14  1  0.851362  0.907063  0.597354  1
  O  O15  1  0.907063  0.851362  0.902646  1
  O  O16  1  0.188838  0.289325  0.580730  1
  O  O17  1  0.289325  0.188838  0.919270  1
  O  O18  1  0.811162  0.710675  0.419270  1
  O  O19  1  0.710675  0.811162  0.080730  1
  O  O20  1  0.495611  0.214728  0.563092  1
  O  O21  1  0.214728  0.495611  0.936908  1
  O  O22  1  0.504389  0.785272  0.436908  1
  O  O23  1  0.785272  0.504389  0.063092  1
  O  O24  1  0.813508  0.350452  0.343663  1
  O  O25  1  0.350452  0.813508  0.156337  1
  O  O26  1  0.186492  0.649548  0.656337  1
  O  O27  1  0.649548  0.186492  0.843663  1
  O  O28  1  0.720808  0.126042  0.172314  1
  O  O29  1  0.126042  0.720808  0.327686  1
  O  O30  1  0.279192  0.873958  0.827686  1
  O  O31  1  0.873958  0.279192  0.672314  1
  O  O32  1  0.469480  0.312311  0.152807  1
  O  O33  1  0.312311  0.469480  0.347193  1
  O  O34  1  0.530520  0.687689  0.847193  1
  O  O35  1  0.687689  0.530520  0.652807  1
