# generated using pymatgen
data_Sm2TeO2
_symmetry_space_group_name_H-M   'P 1'
_cell_length_a   7.01616622
_cell_length_b   7.01616622
_cell_length_c   7.01616622
_cell_angle_alpha   146.67864445
_cell_angle_beta   146.67864445
_cell_angle_gamma   47.83983834
_symmetry_Int_Tables_number   1
_chemical_formula_structural   Sm2TeO2
_chemical_formula_sum   'Sm2 Te1 O2'
_cell_volume   103.80643481
_cell_formula_units_Z   1
loop_
 _symmetry_equiv_pos_site_id
 _symmetry_equiv_pos_as_xyz
  1  'x, y, z'
loop_
 _atom_site_type_symbol
 _atom_site_label
 _atom_site_symmetry_multiplicity
 _atom_site_fract_x
 _atom_site_fract_y
 _atom_site_fract_z
 _atom_site_occupancy
  Sm  Sm0  1  0.661002  0.661002  0.000000  1
  Sm  Sm1  1  0.338998  0.338998  0.000000  1
  Te  Te2  1  0.000000  0.000000  0.000000  1
  O  O3  1  0.750000  0.250000  0.500000  1
  O  O4  1  0.250000  0.750000  0.500000  1
