# generated using pymatgen
data_Mg(NO3)2
_symmetry_space_group_name_H-M   'P 1'
_cell_length_a   14.55933119
_cell_length_b   14.55933119
_cell_length_c   14.55933119
_cell_angle_alpha   43.13308719
_cell_angle_beta   43.13308719
_cell_angle_gamma   43.13308719
_symmetry_Int_Tables_number   1
_chemical_formula_structural   Mg(NO3)2
_chemical_formula_sum   'Mg12 N24 O72'
_cell_volume   1307.94128117
_cell_formula_units_Z   12
loop_
 _symmetry_equiv_pos_site_id
 _symmetry_equiv_pos_as_xyz
  1  'x, y, z'
loop_
 _atom_site_type_symbol
 _atom_site_label
 _atom_site_symmetry_multiplicity
 _atom_site_fract_x
 _atom_site_fract_y
 _atom_site_fract_z
 _atom_site_occupancy
  Mg  Mg0  1  0.500000  0.500000  0.000000  1
  Mg  Mg1  1  0.500000  1.000000  0.500000  1
  Mg  Mg2  1  0.000000  0.500000  0.500000  1
  Mg  Mg3  1  0.000000  0.000000  0.000000  1
  Mg  Mg4  1  0.777818  0.271954  0.276393  1
  Mg  Mg5  1  0.271954  0.276393  0.777818  1
  Mg  Mg6  1  0.276393  0.777818  0.271954  1
  Mg  Mg7  1  0.222182  0.728046  0.723607  1
  Mg  Mg8  1  0.728046  0.723607  0.222182  1
  Mg  Mg9  1  0.723607  0.222182  0.728046  1
  Mg  Mg10  1  0.787573  0.787573  0.787573  1
  Mg  Mg11  1  0.212427  0.212427  0.212427  1
  N  N12  1  0.348406  0.348406  0.348406  1
  N  N13  1  0.651594  0.651594  0.651594  1
  N  N14  1  0.758315  0.265539  0.083731  1
  N  N15  1  0.265539  0.083731  0.758315  1
  N  N16  1  0.083731  0.758315  0.265539  1
  N  N17  1  0.241685  0.734461  0.916269  1
  N  N18  1  0.734461  0.916269  0.241685  1
  N  N19  1  0.916269  0.241685  0.734461  1
  N  N20  1  0.104909  0.104909  0.104909  1
  N  N21  1  0.895091  0.895091  0.895091  1
  N  N22  1  0.446023  0.446023  0.446023  1
  N  N23  1  0.553977  0.553977  0.553977  1
  N  N24  1  0.524848  0.698909  0.995008  1
  N  N25  1  0.698909  0.995008  0.524848  1
  N  N26  1  0.995008  0.524848  0.698909  1
  N  N27  1  0.475152  0.301091  0.004992  1
  N  N28  1  0.301091  0.004992  0.475152  1
  N  N29  1  0.004992  0.475152  0.301091  1
  N  N30  1  0.799616  0.567649  0.100422  1
  N  N31  1  0.567649  0.100422  0.799616  1
  N  N32  1  0.100422  0.799616  0.567649  1
  N  N33  1  0.200384  0.432351  0.899578  1
  N  N34  1  0.432351  0.899578  0.200384  1
  N  N35  1  0.899578  0.200384  0.432351  1
  O  O36  1  0.354601  0.463729  0.227835  1
  O  O37  1  0.463729  0.227835  0.354601  1
  O  O38  1  0.227835  0.354601  0.463729  1
  O  O39  1  0.645399  0.536271  0.772165  1
  O  O40  1  0.536271  0.772165  0.645399  1
  O  O41  1  0.772165  0.645399  0.536271  1
  O  O42  1  0.714421  0.341807  0.132270  1
  O  O43  1  0.341807  0.132270  0.714421  1
  O  O44  1  0.132270  0.714421  0.341807  1
  O  O45  1  0.285579  0.658193  0.867730  1
  O  O46  1  0.658193  0.867730  0.285579  1
  O  O47  1  0.867730  0.285579  0.658193  1
  O  O48  1  0.871559  0.144078  0.091861  1
  O  O49  1  0.144078  0.091861  0.871559  1
  O  O50  1  0.091861  0.871559  0.144078  1
  O  O51  1  0.128441  0.855922  0.908139  1
  O  O52  1  0.855922  0.908139  0.128441  1
  O  O53  1  0.908139  0.128441  0.855922  1
  O  O54  1  0.689499  0.310438  0.026429  1
  O  O55  1  0.310438  0.026429  0.689499  1
  O  O56  1  0.026429  0.689499  0.310438  1
  O  O57  1  0.310501  0.689562  0.973571  1
  O  O58  1  0.689562  0.973571  0.310501  1
  O  O59  1  0.973571  0.310501  0.689562  1
  O  O60  1  0.100753  0.224777  0.988986  1
  O  O61  1  0.224777  0.988986  0.100753  1
  O  O62  1  0.988986  0.100753  0.224777  1
  O  O63  1  0.899247  0.775223  0.011014  1
  O  O64  1  0.775223  0.011014  0.899247  1
  O  O65  1  0.011014  0.899247  0.775223  1
  O  O66  1  0.563877  0.446252  0.328014  1
  O  O67  1  0.446252  0.328014  0.563877  1
  O  O68  1  0.328014  0.563877  0.446252  1
  O  O69  1  0.436123  0.553748  0.671986  1
  O  O70  1  0.553748  0.671986  0.436123  1
  O  O71  1  0.671986  0.436123  0.553748  1
  O  O72  1  0.411221  0.693123  0.116950  1
  O  O73  1  0.693123  0.116950  0.411221  1
  O  O74  1  0.116950  0.411221  0.693123  1
  O  O75  1  0.588779  0.306877  0.883050  1
  O  O76  1  0.306877  0.883050  0.588779  1
  O  O77  1  0.883050  0.588779  0.306877  1
  O  O78  1  0.587027  0.769546  0.938642  1
  O  O79  1  0.769546  0.938642  0.587027  1
  O  O80  1  0.938642  0.587027  0.769546  1
  O  O81  1  0.412973  0.230454  0.061358  1
  O  O82  1  0.230454  0.061358  0.412973  1
  O  O83  1  0.061358  0.412973  0.230454  1
  O  O84  1  0.574883  0.634835  0.929745  1
  O  O85  1  0.634835  0.929745  0.574883  1
  O  O86  1  0.929745  0.574883  0.634835  1
  O  O87  1  0.425117  0.365165  0.070255  1
  O  O88  1  0.365165  0.070255  0.425117  1
  O  O89  1  0.070255  0.425117  0.365165  1
  O  O90  1  0.828416  0.460182  0.103657  1
  O  O91  1  0.460182  0.103657  0.828416  1
  O  O92  1  0.103657  0.828416  0.460182  1
  O  O93  1  0.171584  0.539818  0.896343  1
  O  O94  1  0.539818  0.896343  0.171584  1
  O  O95  1  0.896343  0.171584  0.539818  1
  O  O96  1  0.796210  0.688591  0.985613  1
  O  O97  1  0.688591  0.985613  0.796210  1
  O  O98  1  0.985613  0.796210  0.688591  1
  O  O99  1  0.203790  0.311409  0.014387  1
  O  O100  1  0.311409  0.014387  0.203790  1
  O  O101  1  0.014387  0.203790  0.311409  1
  O  O102  1  0.775699  0.554677  0.211721  1
  O  O103  1  0.554677  0.211721  0.775699  1
  O  O104  1  0.211721  0.775699  0.554677  1
  O  O105  1  0.224301  0.445323  0.788279  1
  O  O106  1  0.445323  0.788279  0.224301  1
  O  O107  1  0.788279  0.224301  0.445323  1
