# generated using pymatgen
data_NaTiP2O7
_symmetry_space_group_name_H-M   'P 1'
_cell_length_a   7.47974890
_cell_length_b   8.03656930
_cell_length_c   9.84832129
_cell_angle_alpha   90.00000000
_cell_angle_beta   111.67182548
_cell_angle_gamma   90.00000000
_symmetry_Int_Tables_number   1
_chemical_formula_structural   NaTiP2O7
_chemical_formula_sum   'Na4 Ti4 P8 O28'
_cell_volume   550.15179053
_cell_formula_units_Z   4
loop_
 _symmetry_equiv_pos_site_id
 _symmetry_equiv_pos_as_xyz
  1  'x, y, z'
loop_
 _atom_site_type_symbol
 _atom_site_label
 _atom_site_symmetry_multiplicity
 _atom_site_fract_x
 _atom_site_fract_y
 _atom_site_fract_z
 _atom_site_occupancy
  Na  Na0  1  0.715586  0.977560  0.209968  1
  Na  Na1  1  0.284414  0.477560  0.290032  1
  Na  Na2  1  0.284414  0.022440  0.790032  1
  Na  Na3  1  0.715586  0.522440  0.709968  1
  Ti  Ti4  1  0.739034  0.509413  0.250496  1
  Ti  Ti5  1  0.260966  0.009413  0.249504  1
  Ti  Ti6  1  0.260966  0.490587  0.749504  1
  Ti  Ti7  1  0.739034  0.990587  0.750496  1
  P  P8  1  0.327873  0.713089  0.046504  1
  P  P9  1  0.672127  0.213089  0.453496  1
  P  P10  1  0.672127  0.286911  0.953496  1
  P  P11  1  0.327873  0.786911  0.546504  1
  P  P12  1  0.929395  0.756158  0.045652  1
  P  P13  1  0.070605  0.256158  0.454348  1
  P  P14  1  0.070605  0.243842  0.954348  1
  P  P15  1  0.929395  0.743842  0.545652  1
  O  O16  1  0.126480  0.657381  0.062234  1
  O  O17  1  0.873520  0.157381  0.437766  1
  O  O18  1  0.873520  0.342619  0.937766  1
  O  O19  1  0.126480  0.842619  0.562234  1
  O  O20  1  0.630534  0.393114  0.397457  1
  O  O21  1  0.369466  0.893114  0.102543  1
  O  O22  1  0.369466  0.606886  0.602543  1
  O  O23  1  0.630534  0.106886  0.897457  1
  O  O24  1  0.818072  0.714628  0.382435  1
  O  O25  1  0.181928  0.214628  0.117565  1
  O  O26  1  0.181928  0.285372  0.617565  1
  O  O27  1  0.818072  0.785372  0.882435  1
  O  O28  1  0.011550  0.417503  0.364569  1
  O  O29  1  0.988450  0.917503  0.135431  1
  O  O30  1  0.988450  0.582497  0.635431  1
  O  O31  1  0.011550  0.082497  0.864569  1
  O  O32  1  0.466054  0.913261  0.648837  1
  O  O33  1  0.533946  0.413261  0.851163  1
  O  O34  1  0.533946  0.086739  0.351163  1
  O  O35  1  0.466054  0.586739  0.148837  1
  O  O36  1  0.692695  0.200255  0.613331  1
  O  O37  1  0.307305  0.700255  0.886669  1
  O  O38  1  0.307305  0.799745  0.386669  1
  O  O39  1  0.692695  0.299745  0.113331  1
  O  O40  1  0.824167  0.862865  0.608811  1
  O  O41  1  0.175833  0.362865  0.891189  1
  O  O42  1  0.175833  0.137135  0.391189  1
  O  O43  1  0.824167  0.637135  0.108811  1
