# generated using pymatgen
data_Ba3MgGeN4
_symmetry_space_group_name_H-M   'P 1'
_cell_length_a   6.29723469
_cell_length_b   10.25436307
_cell_length_c   10.70242683
_cell_angle_alpha   90.00000000
_cell_angle_beta   90.00000000
_cell_angle_gamma   90.00000000
_symmetry_Int_Tables_number   1
_chemical_formula_structural   Ba3MgGeN4
_chemical_formula_sum   'Ba12 Mg4 Ge4 N16'
_cell_volume   691.09991051
_cell_formula_units_Z   4
loop_
 _symmetry_equiv_pos_site_id
 _symmetry_equiv_pos_as_xyz
  1  'x, y, z'
loop_
 _atom_site_type_symbol
 _atom_site_label
 _atom_site_symmetry_multiplicity
 _atom_site_fract_x
 _atom_site_fract_y
 _atom_site_fract_z
 _atom_site_occupancy
  Ba  Ba0  1  0.885497  0.410260  0.344417  1
  Ba  Ba1  1  0.614503  0.410260  0.655583  1
  Ba  Ba2  1  0.885497  0.089740  0.155583  1
  Ba  Ba3  1  0.614503  0.089740  0.844417  1
  Ba  Ba4  1  0.114503  0.589740  0.655583  1
  Ba  Ba5  1  0.385497  0.589740  0.344417  1
  Ba  Ba6  1  0.114503  0.910260  0.844417  1
  Ba  Ba7  1  0.385497  0.910260  0.155583  1
  Ba  Ba8  1  0.250000  0.908855  0.500000  1
  Ba  Ba9  1  0.250000  0.591145  0.000000  1
  Ba  Ba10  1  0.750000  0.091145  0.500000  1
  Ba  Ba11  1  0.750000  0.408855  0.000000  1
  Mg  Mg12  1  0.338128  0.250000  0.250000  1
  Mg  Mg13  1  0.161872  0.250000  0.750000  1
  Mg  Mg14  1  0.661872  0.750000  0.750000  1
  Mg  Mg15  1  0.838128  0.750000  0.250000  1
  Ge  Ge16  1  0.250000  0.232732  0.500000  1
  Ge  Ge17  1  0.250000  0.267268  0.000000  1
  Ge  Ge18  1  0.750000  0.767268  0.500000  1
  Ge  Ge19  1  0.750000  0.732732  0.000000  1
  N  N20  1  0.472759  0.332939  0.416393  1
  N  N21  1  0.027241  0.332939  0.583607  1
  N  N22  1  0.472759  0.167061  0.083607  1
  N  N23  1  0.027241  0.167061  0.916393  1
  N  N24  1  0.527241  0.667061  0.583607  1
  N  N25  1  0.972759  0.667061  0.416393  1
  N  N26  1  0.527241  0.832939  0.916393  1
  N  N27  1  0.972759  0.832939  0.083607  1
  N  N28  1  0.131762  0.366717  0.135272  1
  N  N29  1  0.368238  0.366717  0.864728  1
  N  N30  1  0.131762  0.133283  0.364728  1
  N  N31  1  0.368238  0.133283  0.635272  1
  N  N32  1  0.868238  0.633283  0.864728  1
  N  N33  1  0.631762  0.633283  0.135272  1
  N  N34  1  0.868238  0.866717  0.635272  1
  N  N35  1  0.631762  0.866717  0.364728  1
