# generated using pymatgen
data_BaPr2CoS5
_symmetry_space_group_name_H-M   'P 1'
_cell_length_a   8.78495289
_cell_length_b   8.78495289
_cell_length_c   8.78495289
_cell_angle_alpha   126.36457246
_cell_angle_beta   126.36457246
_cell_angle_gamma   79.28976325
_symmetry_Int_Tables_number   1
_chemical_formula_structural   BaPr2CoS5
_chemical_formula_sum   'Ba2 Pr4 Co2 S10'
_cell_volume   425.03565353
_cell_formula_units_Z   2
loop_
 _symmetry_equiv_pos_site_id
 _symmetry_equiv_pos_as_xyz
  1  'x, y, z'
loop_
 _atom_site_type_symbol
 _atom_site_label
 _atom_site_symmetry_multiplicity
 _atom_site_fract_x
 _atom_site_fract_y
 _atom_site_fract_z
 _atom_site_occupancy
  Ba  Ba0  1  0.750000  0.750000  0.000000  1
  Ba  Ba1  1  0.250000  0.250000  0.000000  1
  Pr  Pr2  1  0.836784  0.663216  0.500000  1
  Pr  Pr3  1  0.663216  0.163216  0.826432  1
  Pr  Pr4  1  0.336784  0.836784  0.173568  1
  Pr  Pr5  1  0.163216  0.336784  0.500000  1
  Co  Co6  1  0.250000  0.750000  0.500000  1
  Co  Co7  1  0.750000  0.250000  0.500000  1
  S  S8  1  0.990928  0.490928  0.209267  1
  S  S9  1  0.718338  0.218338  0.209267  1
  S  S10  1  0.009072  0.509072  0.790733  1
  S  S11  1  0.509072  0.718338  0.500000  1
  S  S12  1  0.218338  0.009072  0.500000  1
  S  S13  1  0.490928  0.281662  0.500000  1
  S  S14  1  0.781662  0.990928  0.500000  1
  S  S15  1  0.281662  0.781662  0.790733  1
  S  S16  1  0.000000  0.000000  0.000000  1
  S  S17  1  0.500000  0.500000  0.000000  1
