# generated using pymatgen
data_Zn2SiO4
_symmetry_space_group_name_H-M   'P 1'
_cell_length_a   4.84969667
_cell_length_b   6.09910564
_cell_length_c   10.43784657
_cell_angle_alpha   90.00000000
_cell_angle_beta   90.00000000
_cell_angle_gamma   90.00000000
_symmetry_Int_Tables_number   1
_chemical_formula_structural   Zn2SiO4
_chemical_formula_sum   'Zn8 Si4 O16'
_cell_volume   308.73910464
_cell_formula_units_Z   4
loop_
 _symmetry_equiv_pos_site_id
 _symmetry_equiv_pos_as_xyz
  1  'x, y, z'
loop_
 _atom_site_type_symbol
 _atom_site_label
 _atom_site_symmetry_multiplicity
 _atom_site_fract_x
 _atom_site_fract_y
 _atom_site_fract_z
 _atom_site_occupancy
  Zn  Zn0  1  0.500000  0.000000  0.000000  1
  Zn  Zn1  1  0.000000  0.500000  0.500000  1
  Zn  Zn2  1  0.500000  0.500000  0.000000  1
  Zn  Zn3  1  0.000000  0.000000  0.500000  1
  Zn  Zn4  1  0.485002  0.750000  0.279961  1
  Zn  Zn5  1  0.014998  0.750000  0.779961  1
  Zn  Zn6  1  0.514998  0.250000  0.720039  1
  Zn  Zn7  1  0.985002  0.250000  0.220039  1
  Si  Si8  1  0.926001  0.750000  0.096060  1
  Si  Si9  1  0.573999  0.750000  0.596060  1
  Si  Si10  1  0.073999  0.250000  0.903940  1
  Si  Si11  1  0.426001  0.250000  0.403940  1
  O  O12  1  0.263886  0.750000  0.093675  1
  O  O13  1  0.236114  0.750000  0.593675  1
  O  O14  1  0.736114  0.250000  0.906325  1
  O  O15  1  0.763886  0.250000  0.406325  1
  O  O16  1  0.716133  0.750000  0.448985  1
  O  O17  1  0.783867  0.750000  0.948985  1
  O  O18  1  0.283867  0.250000  0.551015  1
  O  O19  1  0.216133  0.250000  0.051015  1
  O  O20  1  0.779833  0.966264  0.164394  1
  O  O21  1  0.720167  0.533736  0.664394  1
  O  O22  1  0.220167  0.466264  0.835606  1
  O  O23  1  0.279833  0.033736  0.335606  1
  O  O24  1  0.220167  0.033736  0.835606  1
  O  O25  1  0.279833  0.466264  0.335606  1
  O  O26  1  0.779833  0.533736  0.164394  1
  O  O27  1  0.720167  0.966264  0.664394  1
