# generated using pymatgen
data_B3Ru7
_symmetry_space_group_name_H-M   'P 1'
_cell_length_a   7.51940842
_cell_length_b   7.51940842
_cell_length_c   4.75556989
_cell_angle_alpha   90.00000000
_cell_angle_beta   90.00000000
_cell_angle_gamma   120.00000000
_symmetry_Int_Tables_number   1
_chemical_formula_structural   B3Ru7
_chemical_formula_sum   'B6 Ru14'
_cell_volume   232.86303254
_cell_formula_units_Z   2
loop_
 _symmetry_equiv_pos_site_id
 _symmetry_equiv_pos_as_xyz
  1  'x, y, z'
loop_
 _atom_site_type_symbol
 _atom_site_label
 _atom_site_symmetry_multiplicity
 _atom_site_fract_x
 _atom_site_fract_y
 _atom_site_fract_z
 _atom_site_occupancy
  B  B0  1  0.189381  0.810619  0.833034  1
  B  B1  1  0.378762  0.189381  0.333034  1
  B  B2  1  0.810619  0.621238  0.333034  1
  B  B3  1  0.189381  0.378762  0.833034  1
  B  B4  1  0.621238  0.810619  0.833034  1
  B  B5  1  0.810619  0.189381  0.333034  1
  Ru  Ru6  1  0.121852  0.878148  0.242586  1
  Ru  Ru7  1  0.243703  0.121852  0.742586  1
  Ru  Ru8  1  0.878148  0.756297  0.742586  1
  Ru  Ru9  1  0.121852  0.243703  0.242586  1
  Ru  Ru10  1  0.756297  0.878148  0.242586  1
  Ru  Ru11  1  0.878148  0.121852  0.742586  1
  Ru  Ru12  1  0.333333  0.666667  0.072212  1
  Ru  Ru13  1  0.666667  0.333333  0.572212  1
  Ru  Ru14  1  0.456681  0.543319  0.570975  1
  Ru  Ru15  1  0.913362  0.456681  0.070975  1
  Ru  Ru16  1  0.543319  0.086638  0.070975  1
  Ru  Ru17  1  0.456681  0.913362  0.570975  1
  Ru  Ru18  1  0.086638  0.543319  0.570975  1
  Ru  Ru19  1  0.543319  0.456681  0.070975  1
