# generated using pymatgen
data_Ba(ZnSb)2
_symmetry_space_group_name_H-M   'P 1'
_cell_length_a   4.56016695
_cell_length_b   10.71026479
_cell_length_c   11.76650458
_cell_angle_alpha   90.00000000
_cell_angle_beta   90.00000000
_cell_angle_gamma   90.00000000
_symmetry_Int_Tables_number   1
_chemical_formula_structural   Ba(ZnSb)2
_chemical_formula_sum   'Ba4 Zn8 Sb8'
_cell_volume   574.68309089
_cell_formula_units_Z   4
loop_
 _symmetry_equiv_pos_site_id
 _symmetry_equiv_pos_as_xyz
  1  'x, y, z'
loop_
 _atom_site_type_symbol
 _atom_site_label
 _atom_site_symmetry_multiplicity
 _atom_site_fract_x
 _atom_site_fract_y
 _atom_site_fract_z
 _atom_site_occupancy
  Ba  Ba0  1  0.250000  0.747076  0.320072  1
  Ba  Ba1  1  0.750000  0.252924  0.679928  1
  Ba  Ba2  1  0.250000  0.247076  0.179928  1
  Ba  Ba3  1  0.750000  0.752924  0.820072  1
  Zn  Zn4  1  0.750000  0.402773  0.952601  1
  Zn  Zn5  1  0.250000  0.597227  0.047399  1
  Zn  Zn6  1  0.250000  0.097227  0.452601  1
  Zn  Zn7  1  0.750000  0.902773  0.547399  1
  Zn  Zn8  1  0.750000  0.945765  0.120021  1
  Zn  Zn9  1  0.250000  0.054235  0.879979  1
  Zn  Zn10  1  0.750000  0.445765  0.379979  1
  Zn  Zn11  1  0.250000  0.554235  0.620021  1
  Sb  Sb12  1  0.750000  0.650177  0.534814  1
  Sb  Sb13  1  0.250000  0.349823  0.465186  1
  Sb  Sb14  1  0.250000  0.849823  0.034814  1
  Sb  Sb15  1  0.750000  0.150177  0.965186  1
  Sb  Sb16  1  0.750000  0.525622  0.162233  1
  Sb  Sb17  1  0.250000  0.474378  0.837767  1
  Sb  Sb18  1  0.750000  0.025622  0.337767  1
  Sb  Sb19  1  0.250000  0.974378  0.662233  1
