# generated using pymatgen
data_SbAsO5
_symmetry_space_group_name_H-M   'P 1'
_cell_length_a   4.99108531
_cell_length_b   8.96461706
_cell_length_c   9.31589481
_cell_angle_alpha   90.00000000
_cell_angle_beta   90.00000000
_cell_angle_gamma   90.00000000
_symmetry_Int_Tables_number   1
_chemical_formula_structural   SbAsO5
_chemical_formula_sum   'Sb4 As4 O20'
_cell_volume   416.82265138
_cell_formula_units_Z   4
loop_
 _symmetry_equiv_pos_site_id
 _symmetry_equiv_pos_as_xyz
  1  'x, y, z'
loop_
 _atom_site_type_symbol
 _atom_site_label
 _atom_site_symmetry_multiplicity
 _atom_site_fract_x
 _atom_site_fract_y
 _atom_site_fract_z
 _atom_site_occupancy
  Sb  Sb0  1  0.881476  0.652919  0.102672  1
  Sb  Sb1  1  0.381476  0.847081  0.897328  1
  Sb  Sb2  1  0.118524  0.152919  0.397328  1
  Sb  Sb3  1  0.618524  0.347081  0.602672  1
  As  As4  1  0.890340  0.028637  0.711522  1
  As  As5  1  0.390340  0.471363  0.288478  1
  As  As6  1  0.109660  0.528637  0.788478  1
  As  As7  1  0.609660  0.971363  0.211522  1
  O  O8  1  0.051563  0.500451  0.969798  1
  O  O9  1  0.551563  0.999549  0.030202  1
  O  O10  1  0.948437  0.000451  0.530202  1
  O  O11  1  0.448437  0.499549  0.469798  1
  O  O12  1  0.220992  0.706536  0.748107  1
  O  O13  1  0.720992  0.793464  0.251893  1
  O  O14  1  0.779008  0.206536  0.751893  1
  O  O15  1  0.279008  0.293464  0.248107  1
  O  O16  1  0.920447  0.325200  0.469621  1
  O  O17  1  0.420447  0.174800  0.530379  1
  O  O18  1  0.079553  0.825200  0.030379  1
  O  O19  1  0.579553  0.674800  0.969621  1
  O  O20  1  0.172774  0.613743  0.249144  1
  O  O21  1  0.672774  0.886257  0.750856  1
  O  O22  1  0.827226  0.113743  0.250856  1
  O  O23  1  0.327226  0.386257  0.749144  1
  O  O24  1  0.684932  0.480207  0.192255  1
  O  O25  1  0.184932  0.019793  0.807745  1
  O  O26  1  0.315068  0.980207  0.307745  1
  O  O27  1  0.815068  0.519793  0.692255  1
