# generated using pymatgen
data_Cs6Si2O7
_symmetry_space_group_name_H-M   'P 1'
_cell_length_a   7.28968368
_cell_length_b   9.64442715
_cell_length_c   12.23294031
_cell_angle_alpha   90.00000000
_cell_angle_beta   126.56607591
_cell_angle_gamma   90.00000000
_symmetry_Int_Tables_number   1
_chemical_formula_structural   Cs6Si2O7
_chemical_formula_sum   'Cs12 Si4 O14'
_cell_volume   690.75437644
_cell_formula_units_Z   2
loop_
 _symmetry_equiv_pos_site_id
 _symmetry_equiv_pos_as_xyz
  1  'x, y, z'
loop_
 _atom_site_type_symbol
 _atom_site_label
 _atom_site_symmetry_multiplicity
 _atom_site_fract_x
 _atom_site_fract_y
 _atom_site_fract_z
 _atom_site_occupancy
  Cs  Cs0  1  0.520916  0.355855  0.403100  1
  Cs  Cs1  1  0.520916  0.144145  0.903100  1
  Cs  Cs2  1  0.479084  0.644145  0.596900  1
  Cs  Cs3  1  0.705815  0.972776  0.455166  1
  Cs  Cs4  1  0.294185  0.472776  0.044834  1
  Cs  Cs5  1  0.294185  0.027224  0.544834  1
  Cs  Cs6  1  0.705815  0.527224  0.955166  1
  Cs  Cs7  1  0.888782  0.275999  0.272785  1
  Cs  Cs8  1  0.111218  0.775999  0.227215  1
  Cs  Cs9  1  0.111218  0.724001  0.727215  1
  Cs  Cs10  1  0.888782  0.224001  0.772785  1
  Cs  Cs11  1  0.479084  0.855855  0.096900  1
  Si  Si12  1  0.841480  0.628472  0.382190  1
  Si  Si13  1  0.841480  0.871528  0.882190  1
  Si  Si14  1  0.158520  0.371528  0.617810  1
  Si  Si15  1  0.158520  0.128472  0.117810  1
  O  O16  1  0.995314  0.268626  0.062224  1
  O  O17  1  0.000000  0.000000  0.000000  1
  O  O18  1  0.000000  0.500000  0.500000  1
  O  O19  1  0.777280  0.924469  0.734715  1
  O  O20  1  0.004686  0.768626  0.437776  1
  O  O21  1  0.004686  0.731374  0.937776  1
  O  O22  1  0.995314  0.231374  0.562224  1
  O  O23  1  0.610460  0.653990  0.375545  1
  O  O24  1  0.389540  0.153990  0.124455  1
  O  O25  1  0.389540  0.346010  0.624455  1
  O  O26  1  0.610460  0.846010  0.875545  1
  O  O27  1  0.777280  0.575531  0.234715  1
  O  O28  1  0.222720  0.075531  0.265285  1
  O  O29  1  0.222720  0.424469  0.765285  1
