# generated using pymatgen
data_Y3(Si3Os)4
_symmetry_space_group_name_H-M   'P 1'
_cell_length_a   10.14854417
_cell_length_b   10.14854417
_cell_length_c   8.17866232
_cell_angle_alpha   90.00000000
_cell_angle_beta   90.00000000
_cell_angle_gamma   132.49879842
_symmetry_Int_Tables_number   1
_chemical_formula_structural   Y3(Si3Os)4
_chemical_formula_sum   'Y6 Si24 Os8'
_cell_volume   621.05348008
_cell_formula_units_Z   2
loop_
 _symmetry_equiv_pos_site_id
 _symmetry_equiv_pos_as_xyz
  1  'x, y, z'
loop_
 _atom_site_type_symbol
 _atom_site_label
 _atom_site_symmetry_multiplicity
 _atom_site_fract_x
 _atom_site_fract_y
 _atom_site_fract_z
 _atom_site_occupancy
  Y  Y0  1  0.501548  0.001548  0.750000  1
  Y  Y1  1  0.998452  0.498452  0.250000  1
  Y  Y2  1  0.498452  0.998452  0.250000  1
  Y  Y3  1  0.001548  0.501548  0.750000  1
  Y  Y4  1  0.000000  0.000000  0.000000  1
  Y  Y5  1  0.500000  0.500000  0.500000  1
  Si  Si6  1  0.795122  0.204878  0.500000  1
  Si  Si7  1  0.704878  0.295122  0.000000  1
  Si  Si8  1  0.204878  0.795122  0.500000  1
  Si  Si9  1  0.295122  0.704878  0.000000  1
  Si  Si10  1  0.667322  0.667322  0.166966  1
  Si  Si11  1  0.167322  0.167322  0.333034  1
  Si  Si12  1  0.832678  0.832678  0.666966  1
  Si  Si13  1  0.332678  0.332678  0.833034  1
  Si  Si14  1  0.845120  0.610664  0.994948  1
  Si  Si15  1  0.110664  0.345120  0.505052  1
  Si  Si16  1  0.654880  0.889336  0.494948  1
  Si  Si17  1  0.389336  0.154880  0.005052  1
  Si  Si18  1  0.154880  0.389336  0.005052  1
  Si  Si19  1  0.889336  0.654880  0.494948  1
  Si  Si20  1  0.120743  0.886397  0.727826  1
  Si  Si21  1  0.386397  0.620743  0.772174  1
  Si  Si22  1  0.379257  0.613603  0.227826  1
  Si  Si23  1  0.113603  0.879257  0.272174  1
  Si  Si24  1  0.879257  0.113603  0.272174  1
  Si  Si25  1  0.613603  0.379257  0.227826  1
  Si  Si26  1  0.620743  0.386397  0.772174  1
  Si  Si27  1  0.886397  0.120743  0.727826  1
  Si  Si28  1  0.610664  0.845120  0.994948  1
  Si  Si29  1  0.345120  0.110664  0.505052  1
  Os  Os30  1  0.627144  0.627144  0.872615  1
  Os  Os31  1  0.127144  0.127144  0.627385  1
  Os  Os32  1  0.372856  0.372856  0.127385  1
  Os  Os33  1  0.872856  0.872856  0.372615  1
  Os  Os34  1  0.168925  0.831075  0.000000  1
  Os  Os35  1  0.331075  0.668925  0.500000  1
  Os  Os36  1  0.831075  0.168925  0.000000  1
  Os  Os37  1  0.668925  0.331075  0.500000  1
