# generated using pymatgen
data_BaCrO3
_symmetry_space_group_name_H-M   'P 1'
_cell_length_a   5.75035292
_cell_length_b   5.75035292
_cell_length_c   9.45207373
_cell_angle_alpha   90.00000000
_cell_angle_beta   90.00000000
_cell_angle_gamma   120.00000000
_symmetry_Int_Tables_number   1
_chemical_formula_structural   BaCrO3
_chemical_formula_sum   'Ba4 Cr4 O12'
_cell_volume   270.67411897
_cell_formula_units_Z   4
loop_
 _symmetry_equiv_pos_site_id
 _symmetry_equiv_pos_as_xyz
  1  'x, y, z'
loop_
 _atom_site_type_symbol
 _atom_site_label
 _atom_site_symmetry_multiplicity
 _atom_site_fract_x
 _atom_site_fract_y
 _atom_site_fract_z
 _atom_site_occupancy
  Ba  Ba0  1  0.666667  0.333333  0.750000  1
  Ba  Ba1  1  0.333333  0.666667  0.250000  1
  Ba  Ba2  1  0.000000  0.000000  0.500000  1
  Ba  Ba3  1  0.000000  0.000000  0.000000  1
  Cr  Cr4  1  0.333333  0.666667  0.889940  1
  Cr  Cr5  1  0.666667  0.333333  0.389940  1
  Cr  Cr6  1  0.666667  0.333333  0.110060  1
  Cr  Cr7  1  0.333333  0.666667  0.610060  1
  O  O8  1  0.626576  0.813288  0.750000  1
  O  O9  1  0.813288  0.626576  0.250000  1
  O  O10  1  0.813288  0.186712  0.250000  1
  O  O11  1  0.186712  0.813288  0.750000  1
  O  O12  1  0.186712  0.373424  0.750000  1
  O  O13  1  0.373424  0.186712  0.250000  1
  O  O14  1  0.500000  0.000000  0.500000  1
  O  O15  1  0.500000  0.500000  0.000000  1
  O  O16  1  0.500000  0.000000  0.000000  1
  O  O17  1  0.500000  0.500000  0.500000  1
  O  O18  1  0.000000  0.500000  0.500000  1
  O  O19  1  0.000000  0.500000  0.000000  1
