# generated using pymatgen
data_Ba4LiNb3O12
_symmetry_space_group_name_H-M   'P 1'
_cell_length_a   5.88723546
_cell_length_b   5.88723546
_cell_length_c   19.40103010
_cell_angle_alpha   90.00000000
_cell_angle_beta   90.00000000
_cell_angle_gamma   120.00000000
_symmetry_Int_Tables_number   1
_chemical_formula_structural   Ba4LiNb3O12
_chemical_formula_sum   'Ba8 Li2 Nb6 O24'
_cell_volume   582.34215905
_cell_formula_units_Z   2
loop_
 _symmetry_equiv_pos_site_id
 _symmetry_equiv_pos_as_xyz
  1  'x, y, z'
loop_
 _atom_site_type_symbol
 _atom_site_label
 _atom_site_symmetry_multiplicity
 _atom_site_fract_x
 _atom_site_fract_y
 _atom_site_fract_z
 _atom_site_occupancy
  Ba  Ba0  1  0.666667  0.333333  0.250952  1
  Ba  Ba1  1  0.333333  0.666667  0.750952  1
  Ba  Ba2  1  0.666667  0.333333  0.871044  1
  Ba  Ba3  1  0.333333  0.666667  0.371044  1
  Ba  Ba4  1  0.666667  0.333333  0.644097  1
  Ba  Ba5  1  0.333333  0.666667  0.144097  1
  Ba  Ba6  1  0.000000  0.000000  0.501117  1
  Ba  Ba7  1  0.000000  0.000000  0.001117  1
  Li  Li8  1  0.000000  0.000000  0.166027  1
  Li  Li9  1  0.000000  0.000000  0.666027  1
  Nb  Nb10  1  0.666667  0.333333  0.439963  1
  Nb  Nb11  1  0.333333  0.666667  0.939963  1
  Nb  Nb12  1  0.666667  0.333333  0.067703  1
  Nb  Nb13  1  0.333333  0.666667  0.567703  1
  Nb  Nb14  1  0.000000  0.000000  0.808365  1
  Nb  Nb15  1  0.000000  0.000000  0.308365  1
  O  O16  1  0.840684  0.681368  0.756714  1
  O  O17  1  0.159316  0.318632  0.256714  1
  O  O18  1  0.681368  0.840684  0.256714  1
  O  O19  1  0.840684  0.159316  0.756714  1
  O  O20  1  0.169557  0.830443  0.878325  1
  O  O21  1  0.339115  0.169557  0.378325  1
  O  O22  1  0.830443  0.660885  0.378325  1
  O  O23  1  0.169557  0.339115  0.878325  1
  O  O24  1  0.660885  0.830443  0.878325  1
  O  O25  1  0.830443  0.169557  0.378325  1
  O  O26  1  0.172943  0.827057  0.618406  1
  O  O27  1  0.345886  0.172943  0.118406  1
  O  O28  1  0.159316  0.840684  0.256714  1
  O  O29  1  0.318632  0.159316  0.756714  1
  O  O30  1  0.498636  0.501364  0.996800  1
  O  O31  1  0.997272  0.498636  0.496800  1
  O  O32  1  0.501364  0.002728  0.496800  1
  O  O33  1  0.498636  0.997272  0.996800  1
  O  O34  1  0.002728  0.501364  0.996800  1
  O  O35  1  0.501364  0.498636  0.496800  1
  O  O36  1  0.827057  0.172943  0.118406  1
  O  O37  1  0.654114  0.827057  0.618406  1
  O  O38  1  0.172943  0.345886  0.618406  1
  O  O39  1  0.827057  0.654114  0.118406  1
