# generated using pymatgen
data_Tb2Si5Ni3
_symmetry_space_group_name_H-M   'P 1'
_cell_length_a   7.88197310
_cell_length_b   7.88197310
_cell_length_c   7.88197310
_cell_angle_alpha   137.91291144
_cell_angle_beta   105.14420846
_cell_angle_gamma   89.80655337
_symmetry_Int_Tables_number   1
_chemical_formula_structural   Tb2Si5Ni3
_chemical_formula_sum   'Tb4 Si10 Ni6'
_cell_volume   302.76363239
_cell_formula_units_Z   2
loop_
 _symmetry_equiv_pos_site_id
 _symmetry_equiv_pos_as_xyz
  1  'x, y, z'
loop_
 _atom_site_type_symbol
 _atom_site_label
 _atom_site_symmetry_multiplicity
 _atom_site_fract_x
 _atom_site_fract_y
 _atom_site_fract_z
 _atom_site_occupancy
  Tb  Tb0  1  0.367968  0.131180  0.236788  1
  Tb  Tb1  1  0.632032  0.868820  0.763212  1
  Tb  Tb2  1  0.105608  0.368820  0.736788  1
  Tb  Tb3  1  0.894392  0.631180  0.263212  1
  Si  Si4  1  1.000000  0.250000  0.250000  1
  Si  Si5  1  1.000000  0.750000  0.750000  1
  Si  Si6  1  0.733400  0.983400  0.250000  1
  Si  Si7  1  0.266600  0.516600  0.250000  1
  Si  Si8  1  0.266600  0.016600  0.750000  1
  Si  Si9  1  0.733400  0.483400  0.750000  1
  Si  Si10  1  0.544851  0.392585  0.152266  1
  Si  Si11  1  0.240318  0.892585  0.347734  1
  Si  Si12  1  0.759682  0.107415  0.652266  1
  Si  Si13  1  0.455149  0.607415  0.847734  1
  Ni  Ni14  1  0.977497  0.865762  0.111735  1
  Ni  Ni15  1  0.500000  0.750000  0.250000  1
  Ni  Ni16  1  0.754027  0.365762  0.388265  1
  Ni  Ni17  1  0.245973  0.634238  0.611735  1
  Ni  Ni18  1  0.022503  0.134238  0.888265  1
  Ni  Ni19  1  0.500000  0.250000  0.750000  1
