# generated using pymatgen
data_ErVB4
_symmetry_space_group_name_H-M   'P 1'
_cell_length_a   3.41276025
_cell_length_b   5.99167948
_cell_length_c   11.59319054
_cell_angle_alpha   90.00000000
_cell_angle_beta   90.00000000
_cell_angle_gamma   90.00000000
_symmetry_Int_Tables_number   1
_chemical_formula_structural   ErVB4
_chemical_formula_sum   'Er4 V4 B16'
_cell_volume   237.05947953
_cell_formula_units_Z   4
loop_
 _symmetry_equiv_pos_site_id
 _symmetry_equiv_pos_as_xyz
  1  'x, y, z'
loop_
 _atom_site_type_symbol
 _atom_site_label
 _atom_site_symmetry_multiplicity
 _atom_site_fract_x
 _atom_site_fract_y
 _atom_site_fract_z
 _atom_site_occupancy
  Er  Er0  1  0.500000  0.124347  0.848663  1
  Er  Er1  1  0.500000  0.875653  0.151337  1
  Er  Er2  1  0.500000  0.624347  0.651337  1
  Er  Er3  1  0.500000  0.375653  0.348663  1
  V  V4  1  0.500000  0.128017  0.583469  1
  V  V5  1  0.500000  0.871983  0.416531  1
  V  V6  1  0.500000  0.628017  0.916531  1
  V  V7  1  0.500000  0.371983  0.083469  1
  B  B8  1  0.000000  0.287133  0.685874  1
  B  B9  1  0.000000  0.712867  0.314126  1
  B  B10  1  0.000000  0.787133  0.814126  1
  B  B11  1  0.000000  0.212867  0.185874  1
  B  B12  1  0.000000  0.365083  0.532337  1
  B  B13  1  0.000000  0.634917  0.467663  1
  B  B14  1  0.000000  0.865083  0.967663  1
  B  B15  1  0.000000  0.134917  0.032337  1
  B  B16  1  0.000000  0.022759  0.307366  1
  B  B17  1  0.000000  0.977241  0.692634  1
  B  B18  1  0.000000  0.522759  0.192634  1
  B  B19  1  0.000000  0.477241  0.807366  1
  B  B20  1  0.000000  0.115048  0.452327  1
  B  B21  1  0.000000  0.884952  0.547673  1
  B  B22  1  0.000000  0.615048  0.047673  1
  B  B23  1  0.000000  0.384952  0.952327  1
