# generated using pymatgen
data_Rb2VAgSe4
_symmetry_space_group_name_H-M   'P 1'
_cell_length_a   14.16300225
_cell_length_b   12.63641361
_cell_length_c   7.69558391
_cell_angle_alpha   84.59784557
_cell_angle_beta   62.65417107
_cell_angle_gamma   32.74798336
_symmetry_Int_Tables_number   1
_chemical_formula_structural   Rb2VAgSe4
_chemical_formula_sum   'Rb4 V2 Ag2 Se8'
_cell_volume   525.34033471
_cell_formula_units_Z   2
loop_
 _symmetry_equiv_pos_site_id
 _symmetry_equiv_pos_as_xyz
  1  'x, y, z'
loop_
 _atom_site_type_symbol
 _atom_site_label
 _atom_site_symmetry_multiplicity
 _atom_site_fract_x
 _atom_site_fract_y
 _atom_site_fract_z
 _atom_site_occupancy
  Rb  Rb0  1  0.319086  0.319086  0.680914  1
  Rb  Rb1  1  0.680914  0.680914  0.319086  1
  Rb  Rb2  1  0.569086  0.569086  0.930914  1
  Rb  Rb3  1  0.930914  0.930914  0.569086  1
  V  V4  1  0.750000  0.750000  0.750000  1
  V  V5  1  0.500000  0.500000  0.500000  1
  Ag  Ag6  1  0.250000  0.250000  0.250000  1
  Ag  Ag7  1  0.000000  0.000000  1.000000  1
  Se  Se8  1  0.861887  0.250368  0.334382  1
  Se  Se9  1  0.553363  0.334382  0.250368  1
  Se  Se10  1  0.915618  0.696637  0.388113  1
  Se  Se11  1  0.999632  0.388113  0.696637  1
  Se  Se12  1  0.334382  0.553363  0.861887  1
  Se  Se13  1  0.250368  0.861887  0.553363  1
  Se  Se14  1  0.696637  0.915618  0.999632  1
  Se  Se15  1  0.388113  0.999632  0.915618  1
