# generated using pymatgen
data_PrAl5Ni2
_symmetry_space_group_name_H-M   'P 1'
_cell_length_a   6.29800969
_cell_length_b   6.29800969
_cell_length_c   6.29800969
_cell_angle_alpha   142.99556473
_cell_angle_beta   111.90841945
_cell_angle_gamma   80.11256608
_symmetry_Int_Tables_number   1
_chemical_formula_structural   PrAl5Ni2
_chemical_formula_sum   'Pr1 Al5 Ni2'
_cell_volume   135.88391782
_cell_formula_units_Z   1
loop_
 _symmetry_equiv_pos_site_id
 _symmetry_equiv_pos_as_xyz
  1  'x, y, z'
loop_
 _atom_site_type_symbol
 _atom_site_label
 _atom_site_symmetry_multiplicity
 _atom_site_fract_x
 _atom_site_fract_y
 _atom_site_fract_z
 _atom_site_occupancy
  Pr  Pr0  1  0.000000  0.000000  0.000000  1
  Al  Al1  1  0.500000  1.000000  0.500000  1
  Al  Al2  1  0.468749  0.658630  0.810119  1
  Al  Al3  1  0.531251  0.341370  0.189881  1
  Al  Al4  1  0.151488  0.341370  0.810119  1
  Al  Al5  1  0.848512  0.658630  0.189881  1
  Ni  Ni6  1  0.262386  0.762386  0.500000  1
  Ni  Ni7  1  0.737614  0.237614  0.500000  1
