# generated using pymatgen
data_HfNi3
_symmetry_space_group_name_H-M   'P 1'
_cell_length_a   5.26660196
_cell_length_b   5.26660196
_cell_length_c   21.41055273
_cell_angle_alpha   90.00000000
_cell_angle_beta   90.00000000
_cell_angle_gamma   120.00000000
_symmetry_Int_Tables_number   1
_chemical_formula_structural   HfNi3
_chemical_formula_sum   'Hf10 Ni30'
_cell_volume   514.30352826
_cell_formula_units_Z   10
loop_
 _symmetry_equiv_pos_site_id
 _symmetry_equiv_pos_as_xyz
  1  'x, y, z'
loop_
 _atom_site_type_symbol
 _atom_site_label
 _atom_site_symmetry_multiplicity
 _atom_site_fract_x
 _atom_site_fract_y
 _atom_site_fract_z
 _atom_site_occupancy
  Hf  Hf0  1  0.333333  0.666667  0.953853  1
  Hf  Hf1  1  0.666667  0.333333  0.453853  1
  Hf  Hf2  1  0.666667  0.333333  0.046147  1
  Hf  Hf3  1  0.333333  0.666667  0.546147  1
  Hf  Hf4  1  0.333333  0.666667  0.151067  1
  Hf  Hf5  1  0.666667  0.333333  0.651067  1
  Hf  Hf6  1  0.666667  0.333333  0.848933  1
  Hf  Hf7  1  0.333333  0.666667  0.348933  1
  Hf  Hf8  1  0.000000  0.000000  0.750000  1
  Hf  Hf9  1  0.000000  0.000000  0.250000  1
  Ni  Ni10  1  0.832232  0.167768  0.350418  1
  Ni  Ni11  1  0.832232  0.664465  0.350418  1
  Ni  Ni12  1  0.335535  0.167768  0.350418  1
  Ni  Ni13  1  0.664465  0.832232  0.850418  1
  Ni  Ni14  1  0.167768  0.335535  0.649582  1
  Ni  Ni15  1  0.167768  0.832232  0.850418  1
  Ni  Ni16  1  0.167768  0.335535  0.850418  1
  Ni  Ni17  1  0.832232  0.167768  0.149582  1
  Ni  Ni18  1  0.335535  0.167768  0.149582  1
  Ni  Ni19  1  0.664465  0.832232  0.649582  1
  Ni  Ni20  1  0.510653  0.021306  0.250000  1
  Ni  Ni21  1  0.489347  0.510653  0.750000  1
  Ni  Ni22  1  0.021306  0.510653  0.750000  1
  Ni  Ni23  1  0.978694  0.489347  0.250000  1
  Ni  Ni24  1  0.510653  0.489347  0.250000  1
  Ni  Ni25  1  0.489347  0.978694  0.750000  1
  Ni  Ni26  1  0.156295  0.312590  0.051193  1
  Ni  Ni27  1  0.843705  0.156295  0.551193  1
  Ni  Ni28  1  0.312590  0.156295  0.551193  1
  Ni  Ni29  1  0.687410  0.843705  0.051193  1
  Ni  Ni30  1  0.156295  0.843705  0.051193  1
  Ni  Ni31  1  0.843705  0.687410  0.948807  1
  Ni  Ni32  1  0.843705  0.156295  0.948807  1
  Ni  Ni33  1  0.843705  0.687410  0.551193  1
  Ni  Ni34  1  0.312590  0.156295  0.948807  1
  Ni  Ni35  1  0.687410  0.843705  0.448807  1
  Ni  Ni36  1  0.156295  0.312590  0.448807  1
  Ni  Ni37  1  0.156295  0.843705  0.448807  1
  Ni  Ni38  1  0.832232  0.664465  0.149582  1
  Ni  Ni39  1  0.167768  0.832232  0.649582  1
