# generated using pymatgen
data_SrIn4Pd
_symmetry_space_group_name_H-M   'P 1'
_cell_length_a   8.96776455
_cell_length_b   8.96776455
_cell_length_c   7.62262861
_cell_angle_alpha   90.00000000
_cell_angle_beta   90.00000000
_cell_angle_gamma   149.98359770
_symmetry_Int_Tables_number   1
_chemical_formula_structural   SrIn4Pd
_chemical_formula_sum   'Sr2 In8 Pd2'
_cell_volume   306.66091654
_cell_formula_units_Z   2
loop_
 _symmetry_equiv_pos_site_id
 _symmetry_equiv_pos_as_xyz
  1  'x, y, z'
loop_
 _atom_site_type_symbol
 _atom_site_label
 _atom_site_symmetry_multiplicity
 _atom_site_fract_x
 _atom_site_fract_y
 _atom_site_fract_z
 _atom_site_occupancy
  Sr  Sr0  1  0.124065  0.875935  0.750000  1
  Sr  Sr1  1  0.875935  0.124065  0.250000  1
  In  In2  1  0.314670  0.685330  0.948416  1
  In  In3  1  0.685330  0.314670  0.051584  1
  In  In4  1  0.314670  0.685330  0.551584  1
  In  In5  1  0.500000  0.500000  1.000000  1
  In  In6  1  0.685330  0.314670  0.448416  1
  In  In7  1  0.500000  0.500000  0.500000  1
  In  In8  1  0.069764  0.930236  0.250000  1
  In  In9  1  0.930236  0.069764  0.750000  1
  Pd  Pd10  1  0.774388  0.225612  0.750000  1
  Pd  Pd11  1  0.225612  0.774388  0.250000  1
