# generated using pymatgen
data_LiAg
_symmetry_space_group_name_H-M   'P 1'
_cell_length_a   5.02854497
_cell_length_b   5.02854497
_cell_length_c   5.02854497
_cell_angle_alpha   133.09682581
_cell_angle_beta   133.09682581
_cell_angle_gamma   68.50212966
_symmetry_Int_Tables_number   1
_chemical_formula_structural   LiAg
_chemical_formula_sum   'Li2 Ag2'
_cell_volume   66.58570793
_cell_formula_units_Z   2
loop_
 _symmetry_equiv_pos_site_id
 _symmetry_equiv_pos_as_xyz
  1  'x, y, z'
loop_
 _atom_site_type_symbol
 _atom_site_label
 _atom_site_symmetry_multiplicity
 _atom_site_fract_x
 _atom_site_fract_y
 _atom_site_fract_z
 _atom_site_occupancy
  Li  Li0  1  0.250000  0.750000  0.500000  1
  Li  Li1  1  0.500000  0.500000  0.000000  1
  Ag  Ag2  1  0.750000  0.250000  0.500000  1
  Ag  Ag3  1  0.000000  0.000000  0.000000  1
