# generated using pymatgen
data_Ba2Mg(BO2)6
_symmetry_space_group_name_H-M   'P 1'
_cell_length_a   7.02751811
_cell_length_b   7.02751811
_cell_length_c   7.02751811
_cell_angle_alpha   61.15120639
_cell_angle_beta   61.15120639
_cell_angle_gamma   61.15120639
_symmetry_Int_Tables_number   1
_chemical_formula_structural   Ba2Mg(BO2)6
_chemical_formula_sum   'Ba2 Mg1 B6 O12'
_cell_volume   251.76635547
_cell_formula_units_Z   1
loop_
 _symmetry_equiv_pos_site_id
 _symmetry_equiv_pos_as_xyz
  1  'x, y, z'
loop_
 _atom_site_type_symbol
 _atom_site_label
 _atom_site_symmetry_multiplicity
 _atom_site_fract_x
 _atom_site_fract_y
 _atom_site_fract_z
 _atom_site_occupancy
  Ba  Ba0  1  0.790957  0.790957  0.790957  1
  Ba  Ba1  1  0.209043  0.209043  0.209043  1
  Mg  Mg2  1  0.000000  0.000000  0.000000  1
  B  B3  1  0.244198  0.635424  0.354991  1
  B  B4  1  0.635424  0.354991  0.244198  1
  B  B5  1  0.354991  0.244198  0.635424  1
  B  B6  1  0.755802  0.364576  0.645009  1
  B  B7  1  0.364576  0.645009  0.755802  1
  B  B8  1  0.645009  0.755802  0.364576  1
  O  O9  1  0.310436  0.086159  0.840818  1
  O  O10  1  0.086159  0.840818  0.310436  1
  O  O11  1  0.840818  0.310436  0.086159  1
  O  O12  1  0.689564  0.913841  0.159182  1
  O  O13  1  0.913841  0.159182  0.689564  1
  O  O14  1  0.159182  0.689564  0.913841  1
  O  O15  1  0.196500  0.465523  0.572864  1
  O  O16  1  0.465523  0.572864  0.196500  1
  O  O17  1  0.572864  0.196500  0.465523  1
  O  O18  1  0.803500  0.534477  0.427136  1
  O  O19  1  0.534477  0.427136  0.803500  1
  O  O20  1  0.427136  0.803500  0.534477  1
