# generated using pymatgen
data_SrMgP2O7
_symmetry_space_group_name_H-M   'P 1'
_cell_length_a   5.37309628
_cell_length_b   8.39069214
_cell_length_c   13.94551496
_cell_angle_alpha   90.00000000
_cell_angle_beta   111.90789862
_cell_angle_gamma   90.00000000
_symmetry_Int_Tables_number   1
_chemical_formula_structural   SrMgP2O7
_chemical_formula_sum   'Sr4 Mg4 P8 O28'
_cell_volume   583.31645870
_cell_formula_units_Z   4
loop_
 _symmetry_equiv_pos_site_id
 _symmetry_equiv_pos_as_xyz
  1  'x, y, z'
loop_
 _atom_site_type_symbol
 _atom_site_label
 _atom_site_symmetry_multiplicity
 _atom_site_fract_x
 _atom_site_fract_y
 _atom_site_fract_z
 _atom_site_occupancy
  Sr  Sr0  1  0.509661  0.164301  0.222076  1
  Sr  Sr1  1  0.490339  0.664301  0.277924  1
  Sr  Sr2  1  0.490339  0.835699  0.777924  1
  Sr  Sr3  1  0.509661  0.335699  0.722076  1
  Mg  Mg4  1  0.214801  0.349500  0.392662  1
  Mg  Mg5  1  0.214801  0.150500  0.892662  1
  Mg  Mg6  1  0.785199  0.650500  0.607338  1
  Mg  Mg7  1  0.785199  0.849500  0.107338  1
  P  P8  1  0.075833  0.965458  0.330199  1
  P  P9  1  0.832583  0.201578  0.020988  1
  P  P10  1  0.075833  0.534542  0.830199  1
  P  P11  1  0.924167  0.034542  0.669801  1
  P  P12  1  0.167417  0.798422  0.979012  1
  P  P13  1  0.832583  0.298422  0.520988  1
  P  P14  1  0.167417  0.701578  0.479012  1
  P  P15  1  0.924167  0.465458  0.169801  1
  O  O16  1  0.769495  0.095632  0.099481  1
  O  O17  1  0.230505  0.595632  0.400519  1
  O  O18  1  0.230505  0.904368  0.900519  1
  O  O19  1  0.769495  0.404368  0.599481  1
  O  O20  1  0.115537  0.170088  0.022643  1
  O  O21  1  0.884463  0.670088  0.477357  1
  O  O22  1  0.884463  0.829912  0.977357  1
  O  O23  1  0.115537  0.329912  0.522643  1
  O  O24  1  0.605982  0.195262  0.914198  1
  O  O25  1  0.394018  0.695262  0.585802  1
  O  O26  1  0.394018  0.804738  0.085802  1
  O  O27  1  0.605982  0.304738  0.414198  1
  O  O28  1  0.189529  0.384561  0.237675  1
  O  O29  1  0.810471  0.884561  0.262325  1
  O  O30  1  0.810471  0.615439  0.762325  1
  O  O31  1  0.189529  0.115439  0.737675  1
  O  O32  1  0.824154  0.114283  0.556293  1
  O  O33  1  0.175846  0.614283  0.943707  1
  O  O34  1  0.175846  0.885717  0.443707  1
  O  O35  1  0.824154  0.385717  0.056293  1
  O  O36  1  0.975643  0.859532  0.654719  1
  O  O37  1  0.024357  0.359532  0.845281  1
  O  O38  1  0.024357  0.140468  0.345281  1
  O  O39  1  0.975643  0.640468  0.154719  1
  O  O40  1  0.706718  0.061185  0.714112  1
  O  O41  1  0.293282  0.561185  0.785888  1
  O  O42  1  0.293282  0.938815  0.285888  1
  O  O43  1  0.706718  0.438815  0.214112  1
