# generated using pymatgen
data_Ho2Ge2Os
_symmetry_space_group_name_H-M   'P 1'
_cell_length_a   5.79712419
_cell_length_b   5.79712419
_cell_length_c   10.10649588
_cell_angle_alpha   64.04982915
_cell_angle_beta   115.95017085
_cell_angle_gamma   136.48241813
_symmetry_Int_Tables_number   1
_chemical_formula_structural   Ho2Ge2Os
_chemical_formula_sum   'Ho4 Ge4 Os2'
_cell_volume   206.28660071
_cell_formula_units_Z   2
loop_
 _symmetry_equiv_pos_site_id
 _symmetry_equiv_pos_as_xyz
  1  'x, y, z'
loop_
 _atom_site_type_symbol
 _atom_site_label
 _atom_site_symmetry_multiplicity
 _atom_site_fract_x
 _atom_site_fract_y
 _atom_site_fract_z
 _atom_site_occupancy
  Ho  Ho0  1  0.183649  0.816351  0.115056  1
  Ho  Ho1  1  0.995903  0.004097  0.325216  1
  Ho  Ho2  1  0.816351  0.183649  0.884944  1
  Ho  Ho3  1  0.004097  0.995903  0.674784  1
  Ge  Ge4  1  0.512773  0.487227  0.875315  1
  Ge  Ge5  1  0.642441  0.357559  0.561706  1
  Ge  Ge6  1  0.487227  0.512773  0.124685  1
  Ge  Ge7  1  0.357559  0.642441  0.438294  1
  Os  Os8  1  0.270053  0.729947  0.632027  1
  Os  Os9  1  0.729947  0.270053  0.367973  1
