# generated using pymatgen
data_Al9Rh2
_symmetry_space_group_name_H-M   'P 1'
_cell_length_a   6.36952793
_cell_length_b   6.45469437
_cell_length_c   8.76594650
_cell_angle_alpha   90.00000000
_cell_angle_beta   94.95387319
_cell_angle_gamma   90.00000000
_symmetry_Int_Tables_number   1
_chemical_formula_structural   Al9Rh2
_chemical_formula_sum   'Al18 Rh4'
_cell_volume   359.05122967
_cell_formula_units_Z   2
loop_
 _symmetry_equiv_pos_site_id
 _symmetry_equiv_pos_as_xyz
  1  'x, y, z'
loop_
 _atom_site_type_symbol
 _atom_site_label
 _atom_site_symmetry_multiplicity
 _atom_site_fract_x
 _atom_site_fract_y
 _atom_site_fract_z
 _atom_site_occupancy
  Al  Al0  1  0.000000  0.500000  0.500000  1
  Al  Al1  1  0.000000  0.000000  0.000000  1
  Al  Al2  1  0.212179  0.605678  0.040009  1
  Al  Al3  1  0.787821  0.105678  0.459991  1
  Al  Al4  1  0.400097  0.521268  0.769253  1
  Al  Al5  1  0.599903  0.021268  0.730747  1
  Al  Al6  1  0.599903  0.478732  0.230747  1
  Al  Al7  1  0.400097  0.978732  0.269253  1
  Al  Al8  1  0.388245  0.303687  0.497166  1
  Al  Al9  1  0.611755  0.803687  0.002834  1
  Al  Al10  1  0.611755  0.696313  0.502834  1
  Al  Al11  1  0.388245  0.196313  0.997166  1
  Al  Al12  1  0.096358  0.213260  0.727237  1
  Al  Al13  1  0.903642  0.713260  0.772763  1
  Al  Al14  1  0.903642  0.786740  0.272763  1
  Al  Al15  1  0.096358  0.286740  0.227237  1
  Al  Al16  1  0.212179  0.894322  0.540009  1
  Al  Al17  1  0.787821  0.394322  0.959991  1
  Rh  Rh18  1  0.264237  0.622867  0.331698  1
  Rh  Rh19  1  0.735763  0.122867  0.168302  1
  Rh  Rh20  1  0.735763  0.377133  0.668302  1
  Rh  Rh21  1  0.264237  0.877133  0.831698  1
