# generated using pymatgen
data_Ca7Ge6
_symmetry_space_group_name_H-M   'P 1'
_cell_length_a   7.44057827
_cell_length_b   8.11037253
_cell_length_c   22.45828905
_cell_angle_alpha   90.00000000
_cell_angle_beta   90.00000000
_cell_angle_gamma   90.00000000
_symmetry_Int_Tables_number   1
_chemical_formula_structural   Ca7Ge6
_chemical_formula_sum   'Ca28 Ge24'
_cell_volume   1355.26480297
_cell_formula_units_Z   4
loop_
 _symmetry_equiv_pos_site_id
 _symmetry_equiv_pos_as_xyz
  1  'x, y, z'
loop_
 _atom_site_type_symbol
 _atom_site_label
 _atom_site_symmetry_multiplicity
 _atom_site_fract_x
 _atom_site_fract_y
 _atom_site_fract_z
 _atom_site_occupancy
  Ca  Ca0  1  0.016038  0.178629  0.162787  1
  Ca  Ca1  1  0.516038  0.321371  0.337213  1
  Ca  Ca2  1  0.483962  0.678629  0.837213  1
  Ca  Ca3  1  0.983962  0.821371  0.662787  1
  Ca  Ca4  1  0.983962  0.821371  0.837213  1
  Ca  Ca5  1  0.483962  0.678629  0.662787  1
  Ca  Ca6  1  0.516038  0.321371  0.162787  1
  Ca  Ca7  1  0.016038  0.178629  0.337213  1
  Ca  Ca8  1  0.852258  0.682158  0.143734  1
  Ca  Ca9  1  0.352258  0.817842  0.356266  1
  Ca  Ca10  1  0.647742  0.182158  0.856266  1
  Ca  Ca11  1  0.147742  0.317842  0.643734  1
  Ca  Ca12  1  0.147742  0.317842  0.856266  1
  Ca  Ca13  1  0.647742  0.182158  0.643734  1
  Ca  Ca14  1  0.352258  0.817842  0.143734  1
  Ca  Ca15  1  0.852258  0.682158  0.356266  1
  Ca  Ca16  1  0.665712  0.821818  0.518729  1
  Ca  Ca17  1  0.165712  0.678182  0.981271  1
  Ca  Ca18  1  0.834288  0.321818  0.481271  1
  Ca  Ca19  1  0.334288  0.178182  0.018729  1
  Ca  Ca20  1  0.334288  0.178182  0.481271  1
  Ca  Ca21  1  0.834288  0.321818  0.018729  1
  Ca  Ca22  1  0.165712  0.678182  0.518729  1
  Ca  Ca23  1  0.665712  0.821818  0.981271  1
  Ca  Ca24  1  0.684526  0.982863  0.250000  1
  Ca  Ca25  1  0.184526  0.517137  0.250000  1
  Ca  Ca26  1  0.815474  0.482863  0.750000  1
  Ca  Ca27  1  0.315474  0.017137  0.750000  1
  Ge  Ge28  1  0.996894  0.958052  0.054804  1
  Ge  Ge29  1  0.496894  0.541948  0.445196  1
  Ge  Ge30  1  0.503106  0.458052  0.945196  1
  Ge  Ge31  1  0.003106  0.041948  0.554804  1
  Ge  Ge32  1  0.003106  0.041948  0.945196  1
  Ge  Ge33  1  0.503106  0.458052  0.554804  1
  Ge  Ge34  1  0.496894  0.541948  0.054804  1
  Ge  Ge35  1  0.996894  0.958052  0.445196  1
  Ge  Ge36  1  0.817181  0.526895  0.597876  1
  Ge  Ge37  1  0.317181  0.973105  0.902124  1
  Ge  Ge38  1  0.682819  0.026895  0.402124  1
  Ge  Ge39  1  0.182819  0.473105  0.097876  1
  Ge  Ge40  1  0.182819  0.473105  0.402124  1
  Ge  Ge41  1  0.682819  0.026895  0.097876  1
  Ge  Ge42  1  0.317181  0.973105  0.597876  1
  Ge  Ge43  1  0.817181  0.526895  0.902124  1
  Ge  Ge44  1  0.809307  0.395309  0.250000  1
  Ge  Ge45  1  0.309307  0.104691  0.250000  1
  Ge  Ge46  1  0.690693  0.895309  0.750000  1
  Ge  Ge47  1  0.190693  0.604691  0.750000  1
  Ge  Ge48  1  0.575004  0.624217  0.250000  1
  Ge  Ge49  1  0.075004  0.875783  0.250000  1
  Ge  Ge50  1  0.924996  0.124217  0.750000  1
  Ge  Ge51  1  0.424996  0.375783  0.750000  1
