# generated using pymatgen
data_Th3P4
_symmetry_space_group_name_H-M   'P 1'
_cell_length_a   7.48797771
_cell_length_b   7.48797771
_cell_length_c   7.48797771
_cell_angle_alpha   109.47122063
_cell_angle_beta   109.47122063
_cell_angle_gamma   109.47122063
_symmetry_Int_Tables_number   1
_chemical_formula_structural   Th3P4
_chemical_formula_sum   'Th6 P8'
_cell_volume   323.20028740
_cell_formula_units_Z   2
loop_
 _symmetry_equiv_pos_site_id
 _symmetry_equiv_pos_as_xyz
  1  'x, y, z'
loop_
 _atom_site_type_symbol
 _atom_site_label
 _atom_site_symmetry_multiplicity
 _atom_site_fract_x
 _atom_site_fract_y
 _atom_site_fract_z
 _atom_site_occupancy
  Th  Th0  1  0.250000  0.625000  0.375000  1
  Th  Th1  1  0.375000  0.250000  0.625000  1
  Th  Th2  1  0.125000  0.750000  0.875000  1
  Th  Th3  1  0.875000  0.125000  0.750000  1
  Th  Th4  1  0.625000  0.375000  0.250000  1
  Th  Th5  1  0.750000  0.875000  0.125000  1
  P  P6  1  0.158445  0.158445  0.158445  1
  P  P7  1  0.841555  0.500000  0.000000  1
  P  P8  1  0.000000  0.841555  0.500000  1
  P  P9  1  0.500000  0.000000  0.841555  1
  P  P10  1  0.000000  0.341555  0.500000  1
  P  P11  1  0.500000  0.000000  0.341555  1
  P  P12  1  0.341555  0.500000  0.000000  1
  P  P13  1  0.658445  0.658445  0.658445  1
