# generated using pymatgen
data_Li2Ca2Si2O7
_symmetry_space_group_name_H-M   'P 1'
_cell_length_a   5.14711739
_cell_length_b   5.14711739
_cell_length_c   41.62912628
_cell_angle_alpha   90.00000000
_cell_angle_beta   90.00000000
_cell_angle_gamma   120.00000000
_symmetry_Int_Tables_number   1
_chemical_formula_structural   Li2Ca2Si2O7
_chemical_formula_sum   'Li12 Ca12 Si12 O42'
_cell_volume   955.11589756
_cell_formula_units_Z   6
loop_
 _symmetry_equiv_pos_site_id
 _symmetry_equiv_pos_as_xyz
  1  'x, y, z'
loop_
 _atom_site_type_symbol
 _atom_site_label
 _atom_site_symmetry_multiplicity
 _atom_site_fract_x
 _atom_site_fract_y
 _atom_site_fract_z
 _atom_site_occupancy
  Li  Li0  1  0.698108  0.286621  0.693122  1
  Li  Li1  1  0.713379  0.411487  0.026456  1
  Li  Li2  1  0.588513  0.301892  0.359789  1
  Li  Li3  1  0.301892  0.713379  0.193122  1
  Li  Li4  1  0.286621  0.588513  0.526456  1
  Li  Li5  1  0.411487  0.698108  0.859789  1
  Li  Li6  1  0.286621  0.698108  0.640211  1
  Li  Li7  1  0.411487  0.713379  0.306878  1
  Li  Li8  1  0.301892  0.588513  0.973544  1
  Li  Li9  1  0.713379  0.301892  0.140211  1
  Li  Li10  1  0.588513  0.286621  0.806878  1
  Li  Li11  1  0.698108  0.411487  0.473544  1
  Ca  Ca12  1  0.961171  0.961171  0.666667  1
  Ca  Ca13  1  0.038829  0.000000  0.000000  1
  Ca  Ca14  1  0.000000  0.038829  0.333333  1
  Ca  Ca15  1  0.038829  0.038829  0.166667  1
  Ca  Ca16  1  0.961171  0.000000  0.500000  1
  Ca  Ca17  1  0.000000  0.961171  0.833333  1
  Ca  Ca18  1  0.963859  0.927718  0.750000  1
  Ca  Ca19  1  0.072282  0.036141  0.083333  1
  Ca  Ca20  1  0.963859  0.036141  0.416667  1
  Ca  Ca21  1  0.036141  0.072282  0.250000  1
  Ca  Ca22  1  0.927718  0.963859  0.583333  1
  Ca  Ca23  1  0.036141  0.963859  0.916667  1
  Si  Si24  1  0.353677  0.626643  0.712490  1
  Si  Si25  1  0.373357  0.727034  0.045823  1
  Si  Si26  1  0.272966  0.646323  0.379156  1
  Si  Si27  1  0.646323  0.373357  0.212490  1
  Si  Si28  1  0.626643  0.272966  0.545823  1
  Si  Si29  1  0.727034  0.353677  0.879156  1
  Si  Si30  1  0.626643  0.353677  0.620844  1
  Si  Si31  1  0.727034  0.373357  0.287510  1
  Si  Si32  1  0.646323  0.272966  0.954177  1
  Si  Si33  1  0.373357  0.646323  0.120844  1
  Si  Si34  1  0.272966  0.626643  0.787510  1
  Si  Si35  1  0.353677  0.727034  0.454177  1
  O  O36  1  0.388185  0.776371  0.750000  1
  O  O37  1  0.223629  0.611815  0.083333  1
  O  O38  1  0.388185  0.611815  0.416667  1
  O  O39  1  0.611815  0.223629  0.250000  1
  O  O40  1  0.776371  0.388185  0.583333  1
  O  O41  1  0.611815  0.388185  0.916667  1
  O  O42  1  0.666253  0.619283  0.707713  1
  O  O43  1  0.380717  0.046971  0.041046  1
  O  O44  1  0.953029  0.333747  0.374379  1
  O  O45  1  0.333747  0.380717  0.207713  1
  O  O46  1  0.619283  0.953029  0.541046  1
  O  O47  1  0.046971  0.666253  0.874379  1
  O  O48  1  0.619283  0.666253  0.625621  1
  O  O49  1  0.046971  0.380717  0.292287  1
  O  O50  1  0.333747  0.953029  0.958954  1
  O  O51  1  0.380717  0.333747  0.125621  1
  O  O52  1  0.953029  0.619283  0.792287  1
  O  O53  1  0.666253  0.046971  0.458954  1
  O  O54  1  0.058523  0.291538  0.711453  1
  O  O55  1  0.708462  0.766985  0.044786  1
  O  O56  1  0.233015  0.941477  0.378120  1
  O  O57  1  0.941477  0.708462  0.211453  1
  O  O58  1  0.291538  0.233015  0.544786  1
  O  O59  1  0.766985  0.058523  0.878120  1
  O  O60  1  0.291538  0.058523  0.621880  1
  O  O61  1  0.766985  0.708462  0.288547  1
  O  O62  1  0.941477  0.233015  0.955214  1
  O  O63  1  0.708462  0.941477  0.121880  1
  O  O64  1  0.233015  0.291538  0.788547  1
  O  O65  1  0.058523  0.766985  0.455214  1
  O  O66  1  0.867951  0.344634  0.645531  1
  O  O67  1  0.655366  0.523316  0.978865  1
  O  O68  1  0.476684  0.132049  0.312198  1
  O  O69  1  0.132049  0.655366  0.145531  1
  O  O70  1  0.344634  0.476684  0.478865  1
  O  O71  1  0.523316  0.867951  0.812198  1
  O  O72  1  0.344634  0.867951  0.687802  1
  O  O73  1  0.523316  0.655366  0.354469  1
  O  O74  1  0.132049  0.476684  0.021135  1
  O  O75  1  0.655366  0.132049  0.187802  1
  O  O76  1  0.476684  0.344634  0.854469  1
  O  O77  1  0.867951  0.523316  0.521135  1
