# generated using pymatgen
data_Y3Ge4
_symmetry_space_group_name_H-M   'P 1'
_cell_length_a   5.73906802
_cell_length_b   5.73906802
_cell_length_c   14.34506422
_cell_angle_alpha   90.00000000
_cell_angle_beta   90.00000000
_cell_angle_gamma   138.32391713
_symmetry_Int_Tables_number   1
_chemical_formula_structural   Y3Ge4
_chemical_formula_sum   'Y6 Ge8'
_cell_volume   314.16206299
_cell_formula_units_Z   2
loop_
 _symmetry_equiv_pos_site_id
 _symmetry_equiv_pos_as_xyz
  1  'x, y, z'
loop_
 _atom_site_type_symbol
 _atom_site_label
 _atom_site_symmetry_multiplicity
 _atom_site_fract_x
 _atom_site_fract_y
 _atom_site_fract_z
 _atom_site_occupancy
  Y  Y0  1  0.045066  0.954934  0.250000  1
  Y  Y1  1  0.954934  0.045066  0.750000  1
  Y  Y2  1  0.670482  0.329518  0.596798  1
  Y  Y3  1  0.329518  0.670482  0.403202  1
  Y  Y4  1  0.329518  0.670482  0.096798  1
  Y  Y5  1  0.670482  0.329518  0.903202  1
  Ge  Ge6  1  0.773049  0.226951  0.250000  1
  Ge  Ge7  1  0.226951  0.773049  0.750000  1
  Ge  Ge8  1  0.000000  0.000000  0.500000  1
  Ge  Ge9  1  0.000000  0.000000  0.000000  1
  Ge  Ge10  1  0.618982  0.381018  0.391478  1
  Ge  Ge11  1  0.381018  0.618982  0.608522  1
  Ge  Ge12  1  0.618982  0.381018  0.108522  1
  Ge  Ge13  1  0.381018  0.618982  0.891478  1
