# generated using pymatgen
data_Cd4SiS6
_symmetry_space_group_name_H-M   'P 1'
_cell_length_a   7.24483705
_cell_length_b   7.24483705
_cell_length_c   12.61519458
_cell_angle_alpha   72.21117346
_cell_angle_beta   107.78882654
_cell_angle_gamma   120.53101358
_symmetry_Int_Tables_number   1
_chemical_formula_structural   Cd4SiS6
_chemical_formula_sum   'Cd8 Si2 S12'
_cell_volume   533.87272016
_cell_formula_units_Z   2
loop_
 _symmetry_equiv_pos_site_id
 _symmetry_equiv_pos_as_xyz
  1  'x, y, z'
loop_
 _atom_site_type_symbol
 _atom_site_label
 _atom_site_symmetry_multiplicity
 _atom_site_fract_x
 _atom_site_fract_y
 _atom_site_fract_z
 _atom_site_occupancy
  Cd  Cd0  1  0.632905  0.578003  0.311067  1
  Cd  Cd1  1  0.421997  0.367095  0.811067  1
  Cd  Cd2  1  0.258118  0.891319  0.307578  1
  Cd  Cd3  1  0.108681  0.741882  0.807578  1
  Cd  Cd4  1  0.014590  0.381869  0.152286  1
  Cd  Cd5  1  0.618131  0.985410  0.652286  1
  Cd  Cd6  1  0.113075  0.108012  0.500702  1
  Cd  Cd7  1  0.891988  0.886925  0.000702  1
  Si  Si8  1  0.025035  0.520608  0.562718  1
  Si  Si9  1  0.479392  0.974965  0.062718  1
  S  S10  1  0.305648  0.664413  0.014151  1
  S  S11  1  0.335587  0.694352  0.514151  1
  S  S12  1  0.833673  0.690076  0.509030  1
  S  S13  1  0.309924  0.166327  0.009030  1
  S  S14  1  0.902821  0.637069  0.193793  1
  S  S15  1  0.362931  0.097179  0.693793  1
  S  S16  1  0.588549  0.941745  0.242347  1
  S  S17  1  0.058255  0.411451  0.742347  1
  S  S18  1  0.767053  0.170463  0.987719  1
  S  S19  1  0.829537  0.232947  0.487719  1
  S  S20  1  0.755309  0.741999  0.814909  1
  S  S21  1  0.258001  0.244691  0.314909  1
