# generated using pymatgen
data_ScVO4
_symmetry_space_group_name_H-M   'P 1'
_cell_length_a   5.75093934
_cell_length_b   5.75093934
_cell_length_c   5.75093934
_cell_angle_alpha   106.72124048
_cell_angle_beta   106.72124048
_cell_angle_gamma   115.12337537
_symmetry_Int_Tables_number   1
_chemical_formula_structural   ScVO4
_chemical_formula_sum   'Sc2 V2 O8'
_cell_volume   145.33877332
_cell_formula_units_Z   2
loop_
 _symmetry_equiv_pos_site_id
 _symmetry_equiv_pos_as_xyz
  1  'x, y, z'
loop_
 _atom_site_type_symbol
 _atom_site_label
 _atom_site_symmetry_multiplicity
 _atom_site_fract_x
 _atom_site_fract_y
 _atom_site_fract_z
 _atom_site_occupancy
  Sc  Sc0  1  0.250000  0.750000  0.500000  1
  Sc  Sc1  1  1.000000  0.000000  0.000000  1
  V  V2  1  0.500000  0.500000  0.000000  1
  V  V3  1  0.750000  0.250000  0.500000  1
  O  O4  1  0.319564  0.126161  0.806597  1
  O  O5  1  0.376161  0.069564  0.306597  1
  O  O6  1  0.762967  0.069564  0.693403  1
  O  O7  1  0.319564  0.512967  0.193403  1
  O  O8  1  0.930436  0.623839  0.693403  1
  O  O9  1  0.873839  0.680436  0.193403  1
  O  O10  1  0.487033  0.680436  0.806597  1
  O  O11  1  0.930436  0.237033  0.306597  1
