# generated using pymatgen
data_LiCr2P2O9
_symmetry_space_group_name_H-M   'P 1'
_cell_length_a   6.32555012
_cell_length_b   7.60937115
_cell_length_c   13.89254420
_cell_angle_alpha   90.00000000
_cell_angle_beta   90.00000000
_cell_angle_gamma   90.00000000
_symmetry_Int_Tables_number   1
_chemical_formula_structural   LiCr2P2O9
_chemical_formula_sum   'Li4 Cr8 P8 O36'
_cell_volume   668.69620097
_cell_formula_units_Z   4
loop_
 _symmetry_equiv_pos_site_id
 _symmetry_equiv_pos_as_xyz
  1  'x, y, z'
loop_
 _atom_site_type_symbol
 _atom_site_label
 _atom_site_symmetry_multiplicity
 _atom_site_fract_x
 _atom_site_fract_y
 _atom_site_fract_z
 _atom_site_occupancy
  Li  Li0  1  0.750000  0.946516  0.770647  1
  Li  Li1  1  0.750000  0.553484  0.270647  1
  Li  Li2  1  0.250000  0.446516  0.729353  1
  Li  Li3  1  0.250000  0.053484  0.229353  1
  Cr  Cr4  1  0.750000  0.351361  0.881553  1
  Cr  Cr5  1  0.250000  0.648639  0.118447  1
  Cr  Cr6  1  0.250000  0.851361  0.618447  1
  Cr  Cr7  1  0.750000  0.148639  0.381553  1
  Cr  Cr8  1  0.500000  0.000000  0.000000  1
  Cr  Cr9  1  0.500000  0.500000  0.500000  1
  Cr  Cr10  1  0.000000  0.500000  0.500000  1
  Cr  Cr11  1  0.000000  0.000000  0.000000  1
  P  P12  1  0.250000  0.351402  0.935321  1
  P  P13  1  0.750000  0.648598  0.064679  1
  P  P14  1  0.750000  0.851402  0.564679  1
  P  P15  1  0.250000  0.148598  0.435321  1
  P  P16  1  0.750000  0.390717  0.693974  1
  P  P17  1  0.750000  0.109283  0.193974  1
  P  P18  1  0.250000  0.890717  0.806026  1
  P  P19  1  0.250000  0.609283  0.306026  1
  O  O20  1  0.045660  0.593882  0.366991  1
  O  O21  1  0.545660  0.406118  0.633009  1
  O  O22  1  0.954340  0.093882  0.133009  1
  O  O23  1  0.454340  0.906118  0.866991  1
  O  O24  1  0.954340  0.406118  0.633009  1
  O  O25  1  0.454340  0.593882  0.366991  1
  O  O26  1  0.045660  0.906118  0.866991  1
  O  O27  1  0.545660  0.093882  0.133009  1
  O  O28  1  0.250000  0.334898  0.485120  1
  O  O29  1  0.750000  0.665102  0.514880  1
  O  O30  1  0.750000  0.834898  0.014880  1
  O  O31  1  0.250000  0.165102  0.985120  1
  O  O32  1  0.750000  0.144179  0.951406  1
  O  O33  1  0.250000  0.855821  0.048594  1
  O  O34  1  0.250000  0.644179  0.548594  1
  O  O35  1  0.750000  0.355821  0.451406  1
  O  O36  1  0.750000  0.217011  0.755224  1
  O  O37  1  0.250000  0.782989  0.244776  1
  O  O38  1  0.250000  0.717011  0.744776  1
  O  O39  1  0.750000  0.282989  0.255224  1
  O  O40  1  0.440648  0.135882  0.368148  1
  O  O41  1  0.940648  0.864118  0.631852  1
  O  O42  1  0.559352  0.635882  0.131852  1
  O  O43  1  0.059352  0.364118  0.868148  1
  O  O44  1  0.559352  0.864118  0.631852  1
  O  O45  1  0.059352  0.135882  0.368148  1
  O  O46  1  0.440648  0.364118  0.868148  1
  O  O47  1  0.940648  0.635882  0.131852  1
  O  O48  1  0.750000  0.511412  0.984802  1
  O  O49  1  0.250000  0.028362  0.722859  1
  O  O50  1  0.250000  0.471638  0.222859  1
  O  O51  1  0.750000  0.528362  0.777141  1
  O  O52  1  0.750000  0.988588  0.484802  1
  O  O53  1  0.250000  0.011412  0.515198  1
  O  O54  1  0.250000  0.488588  0.015198  1
  O  O55  1  0.750000  0.971638  0.277141  1
