# generated using pymatgen
data_NaFe2O3
_symmetry_space_group_name_H-M   'P 1'
_cell_length_a   3.11221161
_cell_length_b   3.11221161
_cell_length_c   7.84704248
_cell_angle_alpha   90.00000000
_cell_angle_beta   90.00000000
_cell_angle_gamma   120.00000000
_symmetry_Int_Tables_number   1
_chemical_formula_structural   NaFe2O3
_chemical_formula_sum   'Na1 Fe2 O3'
_cell_volume   65.82257554
_cell_formula_units_Z   1
loop_
 _symmetry_equiv_pos_site_id
 _symmetry_equiv_pos_as_xyz
  1  'x, y, z'
loop_
 _atom_site_type_symbol
 _atom_site_label
 _atom_site_symmetry_multiplicity
 _atom_site_fract_x
 _atom_site_fract_y
 _atom_site_fract_z
 _atom_site_occupancy
  Na  Na0  1  0.000000  0.000000  0.500000  1
  Fe  Fe1  1  0.333333  0.666667  0.166628  1
  Fe  Fe2  1  0.666667  0.333333  0.833372  1
  O  O3  1  0.000000  0.000000  0.000000  1
  O  O4  1  0.333333  0.666667  0.707198  1
  O  O5  1  0.666667  0.333333  0.292802  1
