# generated using pymatgen
data_Ho2C
_symmetry_space_group_name_H-M   'P 1'
_cell_length_a   6.43413298
_cell_length_b   6.43413298
_cell_length_c   6.43413298
_cell_angle_alpha   32.26692402
_cell_angle_beta   32.26692402
_cell_angle_gamma   32.26692402
_symmetry_Int_Tables_number   1
_chemical_formula_structural   Ho2C
_chemical_formula_sum   'Ho2 C1'
_cell_volume   67.47913022
_cell_formula_units_Z   1
loop_
 _symmetry_equiv_pos_site_id
 _symmetry_equiv_pos_as_xyz
  1  'x, y, z'
loop_
 _atom_site_type_symbol
 _atom_site_label
 _atom_site_symmetry_multiplicity
 _atom_site_fract_x
 _atom_site_fract_y
 _atom_site_fract_z
 _atom_site_occupancy
  Ho  Ho0  1  0.260028  0.260028  0.260028  1
  Ho  Ho1  1  0.739972  0.739972  0.739972  1
  C  C2  1  0.000000  0.000000  0.000000  1
