# generated using pymatgen
data_Cu(PO3)2
_symmetry_space_group_name_H-M   'P 1'
_cell_length_a   7.72405924
_cell_length_b   7.72405924
_cell_length_c   9.63970394
_cell_angle_alpha   66.07715031
_cell_angle_beta   113.92284969
_cell_angle_gamma   116.55124358
_symmetry_Int_Tables_number   1
_chemical_formula_structural   Cu(PO3)2
_chemical_formula_sum   'Cu4 P8 O24'
_cell_volume   452.23471492
_cell_formula_units_Z   4
loop_
 _symmetry_equiv_pos_site_id
 _symmetry_equiv_pos_as_xyz
  1  'x, y, z'
loop_
 _atom_site_type_symbol
 _atom_site_label
 _atom_site_symmetry_multiplicity
 _atom_site_fract_x
 _atom_site_fract_y
 _atom_site_fract_z
 _atom_site_occupancy
  Cu  Cu0  1  0.446823  0.446823  0.250000  1
  Cu  Cu1  1  0.553177  0.553177  0.750000  1
  Cu  Cu2  1  0.500000  0.000000  0.500000  1
  Cu  Cu3  1  1.000000  0.500000  0.000000  1
  P  P4  1  0.232721  0.254122  0.522709  1
  P  P5  1  0.179777  0.812424  0.193130  1
  P  P6  1  0.767279  0.745878  0.477291  1
  P  P7  1  0.820223  0.187576  0.806870  1
  P  P8  1  0.254122  0.232721  0.977291  1
  P  P9  1  0.812424  0.179777  0.306870  1
  P  P10  1  0.187576  0.820223  0.693130  1
  P  P11  1  0.745878  0.767279  0.022709  1
  O  O12  1  0.634268  0.184285  0.332852  1
  O  O13  1  0.304303  0.232934  0.407188  1
  O  O14  1  0.789632  0.950353  0.334989  1
  O  O15  1  0.232934  0.304303  0.092812  1
  O  O16  1  0.430389  0.344385  0.911292  1
  O  O17  1  0.049647  0.210368  0.834989  1
  O  O18  1  0.252105  0.004362  0.052841  1
  O  O19  1  0.210368  0.049647  0.665011  1
  O  O20  1  0.815715  0.365732  0.832852  1
  O  O21  1  0.995638  0.747895  0.552841  1
  O  O22  1  0.655615  0.569611  0.411292  1
  O  O23  1  0.004362  0.252105  0.447159  1
  O  O24  1  0.695697  0.767066  0.592812  1
  O  O25  1  0.569611  0.655615  0.088708  1
  O  O26  1  0.767066  0.695697  0.907188  1
  O  O27  1  0.365732  0.815715  0.667148  1
  O  O28  1  0.155395  0.706270  0.852222  1
  O  O29  1  0.747895  0.995638  0.947159  1
  O  O30  1  0.844605  0.293730  0.147778  1
  O  O31  1  0.344385  0.430389  0.588708  1
  O  O32  1  0.706270  0.155395  0.647778  1
  O  O33  1  0.950353  0.789632  0.165011  1
  O  O34  1  0.293730  0.844605  0.352222  1
  O  O35  1  0.184285  0.634268  0.167148  1
