# generated using pymatgen
data_TbGa
_symmetry_space_group_name_H-M   'P 1'
_cell_length_a   5.89803636
_cell_length_b   5.89803636
_cell_length_c   4.09467197
_cell_angle_alpha   90.00000000
_cell_angle_beta   90.00000000
_cell_angle_gamma   136.66057102
_symmetry_Int_Tables_number   1
_chemical_formula_structural   TbGa
_chemical_formula_sum   'Tb2 Ga2'
_cell_volume   97.75974044
_cell_formula_units_Z   2
loop_
 _symmetry_equiv_pos_site_id
 _symmetry_equiv_pos_as_xyz
  1  'x, y, z'
loop_
 _atom_site_type_symbol
 _atom_site_label
 _atom_site_symmetry_multiplicity
 _atom_site_fract_x
 _atom_site_fract_y
 _atom_site_fract_z
 _atom_site_occupancy
  Tb  Tb0  1  0.860627  0.139373  0.750000  1
  Tb  Tb1  1  0.139373  0.860627  0.250000  1
  Ga  Ga2  1  0.575629  0.424371  0.750000  1
  Ga  Ga3  1  0.424371  0.575629  0.250000  1
