# generated using pymatgen
data_YbAgSn
_symmetry_space_group_name_H-M   'P 1'
_cell_length_a   4.82074147
_cell_length_b   4.82074147
_cell_length_c   10.88897051
_cell_angle_alpha   90.00000000
_cell_angle_beta   90.00000000
_cell_angle_gamma   120.00000000
_symmetry_Int_Tables_number   1
_chemical_formula_structural   YbAgSn
_chemical_formula_sum   'Yb3 Ag3 Sn3'
_cell_volume   219.15184772
_cell_formula_units_Z   3
loop_
 _symmetry_equiv_pos_site_id
 _symmetry_equiv_pos_as_xyz
  1  'x, y, z'
loop_
 _atom_site_type_symbol
 _atom_site_label
 _atom_site_symmetry_multiplicity
 _atom_site_fract_x
 _atom_site_fract_y
 _atom_site_fract_z
 _atom_site_occupancy
  Yb  Yb0  1  0.666667  0.333333  0.000000  1
  Yb  Yb1  1  0.666667  0.333333  0.667796  1
  Yb  Yb2  1  0.666667  0.333333  0.332204  1
  Ag  Ag3  1  0.000000  0.000000  0.806047  1
  Ag  Ag4  1  0.000000  0.000000  0.193953  1
  Ag  Ag5  1  0.333333  0.666667  0.500000  1
  Sn  Sn6  1  0.333333  0.666667  0.854637  1
  Sn  Sn7  1  0.000000  0.000000  0.500000  1
  Sn  Sn8  1  0.333333  0.666667  0.145363  1
