# generated using pymatgen
data_TaNiTe2
_symmetry_space_group_name_H-M   'P 1'
_cell_length_a   6.26406038
_cell_length_b   7.53305990
_cell_length_c   7.97655577
_cell_angle_alpha   90.00000000
_cell_angle_beta   90.00000000
_cell_angle_gamma   90.00000000
_symmetry_Int_Tables_number   1
_chemical_formula_structural   TaNiTe2
_chemical_formula_sum   'Ta4 Ni4 Te8'
_cell_volume   376.39406089
_cell_formula_units_Z   4
loop_
 _symmetry_equiv_pos_site_id
 _symmetry_equiv_pos_as_xyz
  1  'x, y, z'
loop_
 _atom_site_type_symbol
 _atom_site_label
 _atom_site_symmetry_multiplicity
 _atom_site_fract_x
 _atom_site_fract_y
 _atom_site_fract_z
 _atom_site_occupancy
  Ta  Ta0  1  0.500000  0.000000  0.793843  1
  Ta  Ta1  1  0.000000  0.000000  0.706157  1
  Ta  Ta2  1  0.000000  0.000000  0.293843  1
  Ta  Ta3  1  0.500000  0.000000  0.206157  1
  Ni  Ni4  1  0.855449  0.885380  0.000000  1
  Ni  Ni5  1  0.644551  0.885380  0.500000  1
  Ni  Ni6  1  0.355449  0.114620  0.500000  1
  Ni  Ni7  1  0.144551  0.114620  0.000000  1
  Te  Te8  1  0.252936  0.780165  0.000000  1
  Te  Te9  1  0.750000  0.688530  0.250000  1
  Te  Te10  1  0.752936  0.219835  0.500000  1
  Te  Te11  1  0.747064  0.219835  0.000000  1
  Te  Te12  1  0.250000  0.311470  0.250000  1
  Te  Te13  1  0.250000  0.311470  0.750000  1
  Te  Te14  1  0.750000  0.688530  0.750000  1
  Te  Te15  1  0.247064  0.780165  0.500000  1
