# generated using pymatgen
data_BeSnP2
_symmetry_space_group_name_H-M   'P 1'
_cell_length_a   6.66257553
_cell_length_b   6.66257553
_cell_length_c   6.66257553
_cell_angle_alpha   131.78805177
_cell_angle_beta   131.78805177
_cell_angle_gamma   70.56398275
_symmetry_Int_Tables_number   1
_chemical_formula_structural   BeSnP2
_chemical_formula_sum   'Be2 Sn2 P4'
_cell_volume   161.09142311
_cell_formula_units_Z   2
loop_
 _symmetry_equiv_pos_site_id
 _symmetry_equiv_pos_as_xyz
  1  'x, y, z'
loop_
 _atom_site_type_symbol
 _atom_site_label
 _atom_site_symmetry_multiplicity
 _atom_site_fract_x
 _atom_site_fract_y
 _atom_site_fract_z
 _atom_site_occupancy
  Be  Be0  1  0.250000  0.750000  0.500000  1
  Be  Be1  1  0.500000  0.500000  0.000000  1
  Sn  Sn2  1  0.750000  0.250000  0.500000  1
  Sn  Sn3  1  0.000000  0.000000  0.000000  1
  P  P4  1  0.570757  0.625000  0.445757  1
  P  P5  1  0.875000  0.429243  0.054243  1
  P  P6  1  0.375000  0.820757  0.945757  1
  P  P7  1  0.179243  0.125000  0.554243  1
