# generated using pymatgen
data_Hf2Si4Ni3
_symmetry_space_group_name_H-M   'P 1'
_cell_length_a   7.31115470
_cell_length_b   7.31115470
_cell_length_c   6.87986503
_cell_angle_alpha   90.00000000
_cell_angle_beta   90.00000000
_cell_angle_gamma   138.46501001
_symmetry_Int_Tables_number   1
_chemical_formula_structural   Hf2Si4Ni3
_chemical_formula_sum   'Hf4 Si8 Ni6'
_cell_volume   243.84622045
_cell_formula_units_Z   2
loop_
 _symmetry_equiv_pos_site_id
 _symmetry_equiv_pos_as_xyz
  1  'x, y, z'
loop_
 _atom_site_type_symbol
 _atom_site_label
 _atom_site_symmetry_multiplicity
 _atom_site_fract_x
 _atom_site_fract_y
 _atom_site_fract_z
 _atom_site_occupancy
  Hf  Hf0  1  0.603900  0.396100  0.097647  1
  Hf  Hf1  1  0.396100  0.603900  0.902353  1
  Hf  Hf2  1  0.896100  0.103900  0.597647  1
  Hf  Hf3  1  0.103900  0.896100  0.402353  1
  Si  Si4  1  0.681233  0.318767  0.477218  1
  Si  Si5  1  0.318767  0.681233  0.522782  1
  Si  Si6  1  0.818767  0.181233  0.977218  1
  Si  Si7  1  0.181233  0.818767  0.022782  1
  Si  Si8  1  0.188554  0.311446  0.250000  1
  Si  Si9  1  0.311446  0.188554  0.750000  1
  Si  Si10  1  0.688554  0.811446  0.250000  1
  Si  Si11  1  0.811446  0.688554  0.750000  1
  Ni  Ni12  1  0.520838  0.979162  0.250000  1
  Ni  Ni13  1  0.979162  0.520838  0.750000  1
  Ni  Ni14  1  0.500000  0.500000  0.500000  1
  Ni  Ni15  1  0.000000  0.000000  0.000000  1
  Ni  Ni16  1  0.479162  0.020838  0.750000  1
  Ni  Ni17  1  0.020838  0.479162  0.250000  1
