# generated using pymatgen
data_Co(PtO2)3
_symmetry_space_group_name_H-M   'P 1'
_cell_length_a   6.15483818
_cell_length_b   6.15483818
_cell_length_c   3.23971121
_cell_angle_alpha   90.00000000
_cell_angle_beta   90.00000000
_cell_angle_gamma   109.12179874
_symmetry_Int_Tables_number   1
_chemical_formula_structural   Co(PtO2)3
_chemical_formula_sum   'Co1 Pt3 O6'
_cell_volume   115.95531339
_cell_formula_units_Z   1
loop_
 _symmetry_equiv_pos_site_id
 _symmetry_equiv_pos_as_xyz
  1  'x, y, z'
loop_
 _atom_site_type_symbol
 _atom_site_label
 _atom_site_symmetry_multiplicity
 _atom_site_fract_x
 _atom_site_fract_y
 _atom_site_fract_z
 _atom_site_occupancy
  Co  Co0  1  0.000000  0.000000  0.000000  1
  Pt  Pt1  1  1.000000  0.500000  0.500000  1
  Pt  Pt2  1  0.500000  1.000000  0.500000  1
  Pt  Pt3  1  0.500000  0.500000  0.000000  1
  O  O4  1  0.841133  0.587305  0.000000  1
  O  O5  1  0.158867  0.412695  1.000000  1
  O  O6  1  0.587305  0.841133  1.000000  1
  O  O7  1  0.146271  0.853729  0.500000  1
  O  O8  1  0.853729  0.146271  0.500000  1
  O  O9  1  0.412695  0.158867  1.000000  1
