# generated using pymatgen
data_Ba2Mg17
_symmetry_space_group_name_H-M   'P 1'
_cell_length_a   8.04690870
_cell_length_b   8.04690870
_cell_length_c   8.04690870
_cell_angle_alpha   83.01232570
_cell_angle_beta   83.01232570
_cell_angle_gamma   83.01232570
_symmetry_Int_Tables_number   1
_chemical_formula_structural   Ba2Mg17
_chemical_formula_sum   'Ba2 Mg17'
_cell_volume   510.31924807
_cell_formula_units_Z   1
loop_
 _symmetry_equiv_pos_site_id
 _symmetry_equiv_pos_as_xyz
  1  'x, y, z'
loop_
 _atom_site_type_symbol
 _atom_site_label
 _atom_site_symmetry_multiplicity
 _atom_site_fract_x
 _atom_site_fract_y
 _atom_site_fract_z
 _atom_site_occupancy
  Ba  Ba0  1  0.662120  0.662120  0.662120  1
  Ba  Ba1  1  0.337880  0.337880  0.337880  1
  Mg  Mg2  1  0.000000  0.297662  0.702338  1
  Mg  Mg3  1  0.658967  0.658967  0.159964  1
  Mg  Mg4  1  0.341033  0.840036  0.341033  1
  Mg  Mg5  1  0.899380  0.899380  0.899380  1
  Mg  Mg6  1  0.297662  1.000000  0.702338  1
  Mg  Mg7  1  1.000000  0.702338  0.297662  1
  Mg  Mg8  1  0.159964  0.658967  0.658967  1
  Mg  Mg9  1  0.100620  0.100620  0.100620  1
  Mg  Mg10  1  0.702338  0.297662  0.000000  1
  Mg  Mg11  1  0.500000  1.000000  0.000000  1
  Mg  Mg12  1  0.702338  0.000000  0.297662  1
  Mg  Mg13  1  0.658967  0.159964  0.658967  1
  Mg  Mg14  1  0.341033  0.341033  0.840036  1
  Mg  Mg15  1  0.840036  0.341033  0.341033  1
  Mg  Mg16  1  1.000000  1.000000  0.500000  1
  Mg  Mg17  1  0.297662  0.702338  0.000000  1
  Mg  Mg18  1  0.000000  0.500000  0.000000  1
