# generated using pymatgen
data_La4Si2S3O7
_symmetry_space_group_name_H-M   'P 1'
_cell_length_a   11.26289336
_cell_length_b   11.26289336
_cell_length_c   11.26289336
_cell_angle_alpha   114.37100145
_cell_angle_beta   114.37100145
_cell_angle_gamma   100.06196138
_symmetry_Int_Tables_number   1
_chemical_formula_structural   La4Si2S3O7
_chemical_formula_sum   'La16 Si8 S12 O28'
_cell_volume   1078.12521632
_cell_formula_units_Z   4
loop_
 _symmetry_equiv_pos_site_id
 _symmetry_equiv_pos_as_xyz
  1  'x, y, z'
loop_
 _atom_site_type_symbol
 _atom_site_label
 _atom_site_symmetry_multiplicity
 _atom_site_fract_x
 _atom_site_fract_y
 _atom_site_fract_z
 _atom_site_occupancy
  La  La0  1  0.171011  0.828989  0.000000  1
  La  La1  1  0.578989  0.078989  0.157979  1
  La  La2  1  0.921011  0.421011  0.842021  1
  La  La3  1  0.828989  0.171011  0.000000  1
  La  La4  1  0.578989  0.421011  0.500000  1
  La  La5  1  0.171011  0.171011  0.342021  1
  La  La6  1  0.828989  0.828989  0.657979  1
  La  La7  1  0.921011  0.078989  0.500000  1
  La  La8  1  0.231148  0.468105  0.763043  1
  La  La9  1  0.705062  0.468105  0.236957  1
  La  La10  1  0.531895  0.294938  0.763043  1
  La  La11  1  0.218105  0.481148  0.263043  1
  La  La12  1  0.218105  0.955062  0.736957  1
  La  La13  1  0.044938  0.781895  0.263043  1
  La  La14  1  0.518852  0.781895  0.736957  1
  La  La15  1  0.531895  0.768852  0.236957  1
  Si  Si16  1  0.099353  0.222809  0.876544  1
  Si  Si17  1  0.346264  0.222809  0.123456  1
  Si  Si18  1  0.777191  0.653736  0.876544  1
  Si  Si19  1  0.972809  0.349353  0.376544  1
  Si  Si20  1  0.972809  0.596264  0.623456  1
  Si  Si21  1  0.403736  0.027191  0.376544  1
  Si  Si22  1  0.650647  0.027191  0.623456  1
  Si  Si23  1  0.777191  0.900647  0.123456  1
  S  S24  1  0.225916  0.625000  0.100916  1
  S  S25  1  0.375000  0.774084  0.899084  1
  S  S26  1  0.875000  0.475916  0.100916  1
  S  S27  1  0.524084  0.125000  0.899084  1
  S  S28  1  0.524084  0.625000  0.399084  1
  S  S29  1  0.375000  0.475916  0.600916  1
  S  S30  1  0.875000  0.774084  0.399084  1
  S  S31  1  0.225916  0.125000  0.600916  1
  S  S32  1  0.250000  0.750000  0.500000  1
  S  S33  1  0.500000  0.500000  0.000000  1
  S  S34  1  1.000000  1.000000  0.000000  1
  S  S35  1  0.750000  0.250000  0.500000  1
  O  O36  1  0.075351  0.299771  0.775580  1
  O  O37  1  0.524190  0.299771  0.224420  1
  O  O38  1  0.700229  0.475810  0.775580  1
  O  O39  1  0.049771  0.325351  0.275580  1
  O  O40  1  0.049771  0.774190  0.724420  1
  O  O41  1  0.225810  0.950229  0.275580  1
  O  O42  1  0.674649  0.950229  0.724420  1
  O  O43  1  0.700229  0.924649  0.224420  1
  O  O44  1  0.269876  0.269876  0.000000  1
  O  O45  1  0.019876  0.519876  0.500000  1
  O  O46  1  0.480124  0.980124  0.500000  1
  O  O47  1  0.730124  0.730124  0.000000  1
  O  O48  1  0.721013  0.198334  0.757365  1
  O  O49  1  0.440969  0.963648  0.242635  1
  O  O50  1  0.036352  0.559031  0.757365  1
  O  O51  1  0.713648  0.971013  0.022679  1
  O  O52  1  0.948334  0.690969  0.977321  1
  O  O53  1  0.309031  0.051666  0.022679  1
  O  O54  1  0.028987  0.286352  0.977321  1
  O  O55  1  0.801666  0.278987  0.242635  1
  O  O56  1  0.028987  0.051666  0.742635  1
  O  O57  1  0.309031  0.286352  0.257365  1
  O  O58  1  0.713648  0.690969  0.742635  1
  O  O59  1  0.036352  0.278987  0.477321  1
  O  O60  1  0.801666  0.559031  0.522679  1
  O  O61  1  0.440969  0.198334  0.477321  1
  O  O62  1  0.721013  0.963648  0.522679  1
  O  O63  1  0.948334  0.971013  0.257365  1
