# generated using pymatgen
data_Lu2ZnS4
_symmetry_space_group_name_H-M   'P 1'
_cell_length_a   6.26795112
_cell_length_b   7.72716023
_cell_length_c   13.29924549
_cell_angle_alpha   90.00000000
_cell_angle_beta   90.00000000
_cell_angle_gamma   90.00000000
_symmetry_Int_Tables_number   1
_chemical_formula_structural   Lu2ZnS4
_chemical_formula_sum   'Lu8 Zn4 S16'
_cell_volume   644.12850929
_cell_formula_units_Z   4
loop_
 _symmetry_equiv_pos_site_id
 _symmetry_equiv_pos_as_xyz
  1  'x, y, z'
loop_
 _atom_site_type_symbol
 _atom_site_label
 _atom_site_symmetry_multiplicity
 _atom_site_fract_x
 _atom_site_fract_y
 _atom_site_fract_z
 _atom_site_occupancy
  Lu  Lu0  1  0.500000  0.500000  0.500000  1
  Lu  Lu1  1  0.000000  0.500000  0.000000  1
  Lu  Lu2  1  0.500000  0.000000  0.500000  1
  Lu  Lu3  1  0.000000  0.000000  0.000000  1
  Lu  Lu4  1  0.001727  0.750000  0.264859  1
  Lu  Lu5  1  0.501727  0.250000  0.235141  1
  Lu  Lu6  1  0.998273  0.250000  0.735141  1
  Lu  Lu7  1  0.498273  0.750000  0.764859  1
  Zn  Zn8  1  0.587742  0.750000  0.091798  1
  Zn  Zn9  1  0.087742  0.250000  0.408202  1
  Zn  Zn10  1  0.412258  0.250000  0.908202  1
  Zn  Zn11  1  0.912258  0.750000  0.591798  1
  S  S12  1  0.258442  0.490146  0.331557  1
  S  S13  1  0.758442  0.509854  0.168443  1
  S  S14  1  0.741558  0.990146  0.668443  1
  S  S15  1  0.241558  0.009854  0.831557  1
  S  S16  1  0.741558  0.509854  0.668443  1
  S  S17  1  0.241558  0.490146  0.831557  1
  S  S18  1  0.258442  0.009854  0.331557  1
  S  S19  1  0.758442  0.990146  0.168443  1
  S  S20  1  0.746166  0.750000  0.928389  1
  S  S21  1  0.246166  0.250000  0.571611  1
  S  S22  1  0.253834  0.250000  0.071611  1
  S  S23  1  0.753834  0.750000  0.428389  1
  S  S24  1  0.220867  0.750000  0.090377  1
  S  S25  1  0.720867  0.250000  0.409623  1
  S  S26  1  0.779133  0.250000  0.909623  1
  S  S27  1  0.279133  0.750000  0.590377  1
