# generated using pymatgen
data_ErSiPd
_symmetry_space_group_name_H-M   'P 1'
_cell_length_a   4.31588685
_cell_length_b   7.44681296
_cell_length_c   13.85322243
_cell_angle_alpha   90.00000000
_cell_angle_beta   90.00000000
_cell_angle_gamma   90.00000000
_symmetry_Int_Tables_number   1
_chemical_formula_structural   ErSiPd
_chemical_formula_sum   'Er8 Si8 Pd8'
_cell_volume   445.23705710
_cell_formula_units_Z   8
loop_
 _symmetry_equiv_pos_site_id
 _symmetry_equiv_pos_as_xyz
  1  'x, y, z'
loop_
 _atom_site_type_symbol
 _atom_site_label
 _atom_site_symmetry_multiplicity
 _atom_site_fract_x
 _atom_site_fract_y
 _atom_site_fract_z
 _atom_site_occupancy
  Er  Er0  1  0.000000  0.300246  0.000000  1
  Er  Er1  1  0.500000  0.699754  0.500000  1
  Er  Er2  1  0.000000  0.293068  0.500000  1
  Er  Er3  1  0.500000  0.706932  0.000000  1
  Er  Er4  1  0.000000  0.209549  0.248706  1
  Er  Er5  1  0.500000  0.790451  0.251294  1
  Er  Er6  1  0.000000  0.209549  0.751294  1
  Er  Er7  1  0.500000  0.790451  0.748706  1
  Si  Si8  1  0.000000  0.908426  0.592894  1
  Si  Si9  1  0.500000  0.091574  0.907106  1
  Si  Si10  1  0.000000  0.908426  0.407106  1
  Si  Si11  1  0.500000  0.091574  0.092894  1
  Si  Si12  1  0.000000  0.592519  0.144896  1
  Si  Si13  1  0.500000  0.407481  0.355104  1
  Si  Si14  1  0.000000  0.592519  0.855104  1
  Si  Si15  1  0.500000  0.407481  0.644896  1
  Pd  Pd16  1  0.500000  0.076032  0.608515  1
  Pd  Pd17  1  0.000000  0.923968  0.891485  1
  Pd  Pd18  1  0.500000  0.076032  0.391485  1
  Pd  Pd19  1  0.000000  0.923968  0.108515  1
  Pd  Pd20  1  0.500000  0.418211  0.156566  1
  Pd  Pd21  1  0.000000  0.581789  0.343434  1
  Pd  Pd22  1  0.500000  0.418211  0.843434  1
  Pd  Pd23  1  0.000000  0.581789  0.656566  1
