# generated using pymatgen
data_Ba2PrNbO6
_symmetry_space_group_name_H-M   'P 1'
_cell_length_a   6.18161663
_cell_length_b   6.15465426
_cell_length_c   10.63137474
_cell_angle_alpha   90.00000000
_cell_angle_beta   125.15587445
_cell_angle_gamma   90.00000000
_symmetry_Int_Tables_number   1
_chemical_formula_structural   Ba2PrNbO6
_chemical_formula_sum   'Ba4 Pr2 Nb2 O12'
_cell_volume   330.69678735
_cell_formula_units_Z   2
loop_
 _symmetry_equiv_pos_site_id
 _symmetry_equiv_pos_as_xyz
  1  'x, y, z'
loop_
 _atom_site_type_symbol
 _atom_site_label
 _atom_site_symmetry_multiplicity
 _atom_site_fract_x
 _atom_site_fract_y
 _atom_site_fract_z
 _atom_site_occupancy
  Ba  Ba0  1  0.756672  0.515128  0.251126  1
  Ba  Ba1  1  0.756672  0.984872  0.751126  1
  Ba  Ba2  1  0.243328  0.015128  0.248874  1
  Ba  Ba3  1  0.243328  0.484872  0.748874  1
  Pr  Pr4  1  0.500000  0.500000  0.500000  1
  Pr  Pr5  1  0.500000  0.000000  0.000000  1
  Nb  Nb6  1  0.000000  0.500000  0.000000  1
  Nb  Nb7  1  0.000000  0.000000  0.500000  1
  O  O8  1  0.705599  0.990440  0.270670  1
  O  O9  1  0.294401  0.490440  0.229330  1
  O  O10  1  0.294401  0.009560  0.729330  1
  O  O11  1  0.705599  0.509560  0.770670  1
  O  O12  1  0.213180  0.787278  0.465584  1
  O  O13  1  0.786820  0.287278  0.034416  1
  O  O14  1  0.786820  0.212722  0.534416  1
  O  O15  1  0.213180  0.712722  0.965584  1
  O  O16  1  0.173711  0.248575  0.964376  1
  O  O17  1  0.826289  0.748575  0.535624  1
  O  O18  1  0.826289  0.751425  0.035624  1
  O  O19  1  0.173711  0.251425  0.464376  1
