# generated using pymatgen
data_SrZnSb2
_symmetry_space_group_name_H-M   'P 1'
_cell_length_a   4.43220923
_cell_length_b   4.46812530
_cell_length_c   23.06083711
_cell_angle_alpha   90.00000000
_cell_angle_beta   90.00000000
_cell_angle_gamma   90.00000000
_symmetry_Int_Tables_number   1
_chemical_formula_structural   SrZnSb2
_chemical_formula_sum   'Sr4 Zn4 Sb8'
_cell_volume   456.68912031
_cell_formula_units_Z   4
loop_
 _symmetry_equiv_pos_site_id
 _symmetry_equiv_pos_as_xyz
  1  'x, y, z'
loop_
 _atom_site_type_symbol
 _atom_site_label
 _atom_site_symmetry_multiplicity
 _atom_site_fract_x
 _atom_site_fract_y
 _atom_site_fract_z
 _atom_site_occupancy
  Sr  Sr0  1  0.250000  0.771880  0.615972  1
  Sr  Sr1  1  0.750000  0.228120  0.384028  1
  Sr  Sr2  1  0.750000  0.271880  0.884028  1
  Sr  Sr3  1  0.250000  0.728120  0.115972  1
  Zn  Zn4  1  0.250000  0.275306  0.750023  1
  Zn  Zn5  1  0.750000  0.724694  0.249977  1
  Zn  Zn6  1  0.750000  0.775306  0.749977  1
  Zn  Zn7  1  0.250000  0.224694  0.250023  1
  Sb  Sb8  1  0.250000  0.224255  0.001128  1
  Sb  Sb9  1  0.750000  0.775745  0.998872  1
  Sb  Sb10  1  0.750000  0.724255  0.498872  1
  Sb  Sb11  1  0.250000  0.275745  0.501128  1
  Sb  Sb12  1  0.250000  0.725794  0.323230  1
  Sb  Sb13  1  0.750000  0.274206  0.676770  1
  Sb  Sb14  1  0.750000  0.225794  0.176770  1
  Sb  Sb15  1  0.250000  0.774206  0.823230  1
