# generated using pymatgen
data_MoAs2
_symmetry_space_group_name_H-M   'P 1'
_cell_length_a   4.87215282
_cell_length_b   4.87215282
_cell_length_c   7.78148260
_cell_angle_alpha   62.73023888
_cell_angle_beta   117.26976112
_cell_angle_gamma   140.02000035
_symmetry_Int_Tables_number   1
_chemical_formula_structural   MoAs2
_chemical_formula_sum   'Mo2 As4'
_cell_volume   103.62181348
_cell_formula_units_Z   2
loop_
 _symmetry_equiv_pos_site_id
 _symmetry_equiv_pos_as_xyz
  1  'x, y, z'
loop_
 _atom_site_type_symbol
 _atom_site_label
 _atom_site_symmetry_multiplicity
 _atom_site_fract_x
 _atom_site_fract_y
 _atom_site_fract_z
 _atom_site_occupancy
  Mo  Mo0  1  0.653353  0.346647  0.701473  1
  Mo  Mo1  1  0.346647  0.653353  0.298527  1
  As  As2  1  0.353687  0.646313  0.967541  1
  As  As3  1  0.646313  0.353687  0.032459  1
  As  As4  1  0.097534  0.902466  0.393708  1
  As  As5  1  0.902466  0.097534  0.606292  1
