# generated using pymatgen
data_BaMg2V2O8
_symmetry_space_group_name_H-M   'P 1'
_cell_length_a   9.90113222
_cell_length_b   9.90113222
_cell_length_c   9.90113222
_cell_angle_alpha   100.91691346
_cell_angle_beta   100.91691346
_cell_angle_gamma   128.40596678
_symmetry_Int_Tables_number   1
_chemical_formula_structural   BaMg2V2O8
_chemical_formula_sum   'Ba4 Mg8 V8 O32'
_cell_volume   684.81330189
_cell_formula_units_Z   4
loop_
 _symmetry_equiv_pos_site_id
 _symmetry_equiv_pos_as_xyz
  1  'x, y, z'
loop_
 _atom_site_type_symbol
 _atom_site_label
 _atom_site_symmetry_multiplicity
 _atom_site_fract_x
 _atom_site_fract_y
 _atom_site_fract_z
 _atom_site_occupancy
  Ba  Ba0  1  0.000000  0.000000  0.000000  1
  Ba  Ba1  1  0.250000  0.750000  0.500000  1
  Ba  Ba2  1  0.500000  0.500000  0.000000  1
  Ba  Ba3  1  0.750000  0.250000  0.500000  1
  Mg  Mg4  1  0.581874  0.918126  0.000000  1
  Mg  Mg5  1  0.831874  0.331874  0.163747  1
  Mg  Mg6  1  0.168126  0.668126  0.836253  1
  Mg  Mg7  1  0.918126  0.581874  1.000000  1
  Mg  Mg8  1  0.668126  0.831874  0.500000  1
  Mg  Mg9  1  0.418126  0.418126  0.336253  1
  Mg  Mg10  1  0.081874  0.081874  0.663747  1
  Mg  Mg11  1  0.331874  0.168126  0.500000  1
  V  V12  1  0.875000  0.705893  0.330893  1
  V  V13  1  0.794107  0.625000  0.669107  1
  V  V14  1  0.955893  0.125000  0.330893  1
  V  V15  1  0.375000  0.544107  0.669107  1
  V  V16  1  0.375000  0.044107  0.169107  1
  V  V17  1  0.455893  0.125000  0.830893  1
  V  V18  1  0.294107  0.625000  0.169107  1
  V  V19  1  0.875000  0.205893  0.830893  1
  O  O20  1  0.380940  0.221566  0.164490  1
  O  O21  1  0.057076  0.216450  0.835510  1
  O  O22  1  0.466450  0.130940  0.659374  1
  O  O23  1  0.471566  0.807076  0.340626  1
  O  O24  1  0.692924  0.028434  0.659374  1
  O  O25  1  0.283550  0.442924  0.164490  1
  O  O26  1  0.278434  0.119060  0.835510  1
  O  O27  1  0.369060  0.033550  0.340626  1
  O  O28  1  0.869060  0.528434  0.335510  1
  O  O29  1  0.192924  0.533550  0.664490  1
  O  O30  1  0.783550  0.619060  0.840626  1
  O  O31  1  0.778434  0.942924  0.159374  1
  O  O32  1  0.557076  0.721566  0.840626  1
  O  O33  1  0.966450  0.307076  0.335510  1
  O  O34  1  0.971566  0.630940  0.664490  1
  O  O35  1  0.880940  0.716450  0.159374  1
  O  O36  1  0.436914  0.600480  0.519000  1
  O  O37  1  0.081481  0.917914  0.481000  1
  O  O38  1  0.167914  0.186914  0.336433  1
  O  O39  1  0.850480  0.831481  0.663567  1
  O  O40  1  0.936914  0.417914  0.836433  1
  O  O41  1  0.350480  0.686914  0.019000  1
  O  O42  1  0.667914  0.331481  0.981000  1
  O  O43  1  0.581481  0.100480  0.163567  1
  O  O44  1  0.399520  0.918519  0.836433  1
  O  O45  1  0.082086  0.563086  0.163567  1
  O  O46  1  0.168519  0.832086  0.019000  1
  O  O47  1  0.813086  0.149520  0.981000  1
  O  O48  1  0.313086  0.332086  0.663567  1
  O  O49  1  0.899520  0.063086  0.481000  1
  O  O50  1  0.582086  0.418519  0.519000  1
  O  O51  1  0.668519  0.649520  0.336433  1
