# generated using pymatgen
data_BaCoO2
_symmetry_space_group_name_H-M   'P 1'
_cell_length_a   5.91432154
_cell_length_b   5.91432154
_cell_length_c   6.89389226
_cell_angle_alpha   90.00000000
_cell_angle_beta   90.00000000
_cell_angle_gamma   120.00000000
_symmetry_Int_Tables_number   1
_chemical_formula_structural   BaCoO2
_chemical_formula_sum   'Ba3 Co3 O6'
_cell_volume   208.83581774
_cell_formula_units_Z   3
loop_
 _symmetry_equiv_pos_site_id
 _symmetry_equiv_pos_as_xyz
  1  'x, y, z'
loop_
 _atom_site_type_symbol
 _atom_site_label
 _atom_site_symmetry_multiplicity
 _atom_site_fract_x
 _atom_site_fract_y
 _atom_site_fract_z
 _atom_site_occupancy
  Ba  Ba0  1  0.653293  0.000000  0.833333  1
  Ba  Ba1  1  0.000000  0.653293  0.166667  1
  Ba  Ba2  1  0.346707  0.346707  0.500000  1
  Co  Co3  1  0.401245  0.401245  0.000000  1
  Co  Co4  1  0.000000  0.598755  0.666667  1
  Co  Co5  1  0.598755  0.000000  0.333333  1
  O  O6  1  0.128047  0.430780  0.870882  1
  O  O7  1  0.569220  0.697268  0.204215  1
  O  O8  1  0.302732  0.871953  0.537548  1
  O  O9  1  0.697268  0.569220  0.795785  1
  O  O10  1  0.430780  0.128047  0.129118  1
  O  O11  1  0.871953  0.302732  0.462452  1
