# generated using pymatgen
data_CaTa2O6
_symmetry_space_group_name_H-M   'P 1'
_cell_length_a   5.42205806
_cell_length_b   7.58058369
_cell_length_c   11.21282320
_cell_angle_alpha   90.00000000
_cell_angle_beta   90.00000000
_cell_angle_gamma   90.00000000
_symmetry_Int_Tables_number   1
_chemical_formula_structural   CaTa2O6
_chemical_formula_sum   'Ca4 Ta8 O24'
_cell_volume   460.87355068
_cell_formula_units_Z   4
loop_
 _symmetry_equiv_pos_site_id
 _symmetry_equiv_pos_as_xyz
  1  'x, y, z'
loop_
 _atom_site_type_symbol
 _atom_site_label
 _atom_site_symmetry_multiplicity
 _atom_site_fract_x
 _atom_site_fract_y
 _atom_site_fract_z
 _atom_site_occupancy
  Ca  Ca0  1  0.457480  0.750000  0.041215  1
  Ca  Ca1  1  0.957480  0.250000  0.458785  1
  Ca  Ca2  1  0.542520  0.250000  0.958785  1
  Ca  Ca3  1  0.042520  0.750000  0.541215  1
  Ta  Ta4  1  0.536836  0.494514  0.640913  1
  Ta  Ta5  1  0.036836  0.505486  0.859087  1
  Ta  Ta6  1  0.463164  0.994514  0.359087  1
  Ta  Ta7  1  0.963164  0.005486  0.140913  1
  Ta  Ta8  1  0.036836  0.994514  0.859087  1
  Ta  Ta9  1  0.536836  0.005486  0.640913  1
  Ta  Ta10  1  0.963164  0.494514  0.140913  1
  Ta  Ta11  1  0.463164  0.505486  0.359087  1
  O  O12  1  0.660420  0.250000  0.622202  1
  O  O13  1  0.160420  0.750000  0.877798  1
  O  O14  1  0.339580  0.750000  0.377798  1
  O  O15  1  0.839580  0.250000  0.122202  1
  O  O16  1  0.448583  0.750000  0.644247  1
  O  O17  1  0.948583  0.250000  0.855753  1
  O  O18  1  0.551417  0.250000  0.355753  1
  O  O19  1  0.051417  0.750000  0.144247  1
  O  O20  1  0.132435  0.440091  0.286740  1
  O  O21  1  0.632435  0.559909  0.213260  1
  O  O22  1  0.867565  0.940091  0.713260  1
  O  O23  1  0.367565  0.059909  0.786740  1
  O  O24  1  0.770679  0.959763  0.976336  1
  O  O25  1  0.270679  0.040237  0.523664  1
  O  O26  1  0.229321  0.459763  0.023664  1
  O  O27  1  0.729321  0.540237  0.476336  1
  O  O28  1  0.229321  0.040237  0.023664  1
  O  O29  1  0.729321  0.959763  0.476336  1
  O  O30  1  0.770679  0.540237  0.976336  1
  O  O31  1  0.270679  0.459763  0.523664  1
  O  O32  1  0.632435  0.940091  0.213260  1
  O  O33  1  0.132435  0.059909  0.286740  1
  O  O34  1  0.367565  0.440091  0.786740  1
  O  O35  1  0.867565  0.559909  0.713260  1
