# generated using pymatgen
data_Li2MnO3
_symmetry_space_group_name_H-M   'P 1'
_cell_length_a   5.00563716
_cell_length_b   5.00563716
_cell_length_c   5.10579080
_cell_angle_alpha   80.32616461
_cell_angle_beta   99.67383539
_cell_angle_gamma   60.13809701
_symmetry_Int_Tables_number   1
_chemical_formula_structural   Li2MnO3
_chemical_formula_sum   'Li4 Mn2 O6'
_cell_volume   104.52120367
_cell_formula_units_Z   2
loop_
 _symmetry_equiv_pos_site_id
 _symmetry_equiv_pos_as_xyz
  1  'x, y, z'
loop_
 _atom_site_type_symbol
 _atom_site_label
 _atom_site_symmetry_multiplicity
 _atom_site_fract_x
 _atom_site_fract_y
 _atom_site_fract_z
 _atom_site_occupancy
  Li  Li0  1  0.661294  0.661294  0.500000  1
  Li  Li1  1  0.338706  0.338706  0.500000  1
  Li  Li2  1  0.000000  0.000000  0.500000  1
  Li  Li3  1  0.500000  0.500000  0.000000  1
  Mn  Mn4  1  0.832935  0.832935  0.000000  1
  Mn  Mn5  1  0.167065  0.167065  0.000000  1
  O  O6  1  0.423772  0.933545  0.776528  1
  O  O7  1  0.066455  0.576228  0.776528  1
  O  O8  1  0.576228  0.066455  0.223472  1
  O  O9  1  0.933545  0.423772  0.223472  1
  O  O10  1  0.780820  0.219180  0.772508  1
  O  O11  1  0.219180  0.780820  0.227492  1
