# generated using pymatgen
data_Ca3AlAs3
_symmetry_space_group_name_H-M   'P 1'
_cell_length_a   4.21916946
_cell_length_b   12.30558642
_cell_length_c   13.48547552
_cell_angle_alpha   90.00000000
_cell_angle_beta   90.00000000
_cell_angle_gamma   90.00000000
_symmetry_Int_Tables_number   1
_chemical_formula_structural   Ca3AlAs3
_chemical_formula_sum   'Ca12 Al4 As12'
_cell_volume   700.15718292
_cell_formula_units_Z   4
loop_
 _symmetry_equiv_pos_site_id
 _symmetry_equiv_pos_as_xyz
  1  'x, y, z'
loop_
 _atom_site_type_symbol
 _atom_site_label
 _atom_site_symmetry_multiplicity
 _atom_site_fract_x
 _atom_site_fract_y
 _atom_site_fract_z
 _atom_site_occupancy
  Ca  Ca0  1  0.250000  0.852518  0.999250  1
  Ca  Ca1  1  0.250000  0.352518  0.500750  1
  Ca  Ca2  1  0.750000  0.147482  0.000750  1
  Ca  Ca3  1  0.750000  0.227912  0.287359  1
  Ca  Ca4  1  0.750000  0.434048  0.107270  1
  Ca  Ca5  1  0.250000  0.565952  0.892730  1
  Ca  Ca6  1  0.750000  0.934048  0.392730  1
  Ca  Ca7  1  0.250000  0.065952  0.607270  1
  Ca  Ca8  1  0.250000  0.272088  0.787359  1
  Ca  Ca9  1  0.750000  0.727912  0.212641  1
  Ca  Ca10  1  0.250000  0.772088  0.712641  1
  Ca  Ca11  1  0.750000  0.647482  0.499250  1
  Al  Al12  1  0.750000  0.939159  0.797550  1
  Al  Al13  1  0.250000  0.060841  0.202450  1
  Al  Al14  1  0.250000  0.560841  0.297550  1
  Al  Al15  1  0.750000  0.439159  0.702450  1
  As  As16  1  0.750000  0.458649  0.351307  1
  As  As17  1  0.250000  0.541351  0.648693  1
  As  As18  1  0.750000  0.958649  0.148693  1
  As  As19  1  0.250000  0.041351  0.851307  1
  As  As20  1  0.750000  0.396210  0.885517  1
  As  As21  1  0.250000  0.603790  0.114483  1
  As  As22  1  0.750000  0.896210  0.614483  1
  As  As23  1  0.250000  0.103790  0.385517  1
  As  As24  1  0.750000  0.252744  0.624517  1
  As  As25  1  0.250000  0.747256  0.375483  1
  As  As26  1  0.750000  0.752744  0.875483  1
  As  As27  1  0.250000  0.247256  0.124517  1
