# generated using pymatgen
data_Tm5(SiSb)2
_symmetry_space_group_name_H-M   'P 1'
_cell_length_a   8.41599501
_cell_length_b   8.41599501
_cell_length_c   7.75859484
_cell_angle_alpha   90.00000000
_cell_angle_beta   90.00000000
_cell_angle_gamma   125.28138681
_symmetry_Int_Tables_number   1
_chemical_formula_structural   Tm5(SiSb)2
_chemical_formula_sum   'Tm10 Si4 Sb4'
_cell_volume   448.59791766
_cell_formula_units_Z   2
loop_
 _symmetry_equiv_pos_site_id
 _symmetry_equiv_pos_as_xyz
  1  'x, y, z'
loop_
 _atom_site_type_symbol
 _atom_site_label
 _atom_site_symmetry_multiplicity
 _atom_site_fract_x
 _atom_site_fract_y
 _atom_site_fract_z
 _atom_site_occupancy
  Tm  Tm0  1  0.789780  0.540153  0.835547  1
  Tm  Tm1  1  0.040153  0.289780  0.664453  1
  Tm  Tm2  1  0.459847  0.210220  0.164453  1
  Tm  Tm3  1  0.710220  0.959847  0.335547  1
  Tm  Tm4  1  0.959847  0.710220  0.335547  1
  Tm  Tm5  1  0.210220  0.459847  0.164453  1
  Tm  Tm6  1  0.540153  0.789780  0.835547  1
  Tm  Tm7  1  0.289780  0.040153  0.664453  1
  Tm  Tm8  1  0.500000  0.500000  0.500000  1
  Tm  Tm9  1  0.000000  0.000000  0.000000  1
  Si  Si10  1  0.633428  0.633428  0.132205  1
  Si  Si11  1  0.133428  0.133428  0.367795  1
  Si  Si12  1  0.866572  0.866572  0.632205  1
  Si  Si13  1  0.366572  0.366572  0.867795  1
  Sb  Sb14  1  0.706110  0.293890  0.500000  1
  Sb  Sb15  1  0.793890  0.206110  0.000000  1
  Sb  Sb16  1  0.293890  0.706110  0.500000  1
  Sb  Sb17  1  0.206110  0.793890  0.000000  1
