# generated using pymatgen
data_Ge3Sb2O9
_symmetry_space_group_name_H-M   'P 1'
_cell_length_a   7.19718485
_cell_length_b   7.19718485
_cell_length_c   10.05123757
_cell_angle_alpha   90.00000000
_cell_angle_beta   90.00000000
_cell_angle_gamma   120.00000000
_symmetry_Int_Tables_number   1
_chemical_formula_structural   Ge3Sb2O9
_chemical_formula_sum   'Ge6 Sb4 O18'
_cell_volume   450.89506711
_cell_formula_units_Z   2
loop_
 _symmetry_equiv_pos_site_id
 _symmetry_equiv_pos_as_xyz
  1  'x, y, z'
loop_
 _atom_site_type_symbol
 _atom_site_label
 _atom_site_symmetry_multiplicity
 _atom_site_fract_x
 _atom_site_fract_y
 _atom_site_fract_z
 _atom_site_occupancy
  Ge  Ge0  1  0.208720  0.921889  0.250000  1
  Ge  Ge1  1  0.286830  0.208720  0.750000  1
  Ge  Ge2  1  0.921889  0.713170  0.750000  1
  Ge  Ge3  1  0.078111  0.286830  0.250000  1
  Ge  Ge4  1  0.791280  0.078111  0.750000  1
  Ge  Ge5  1  0.713170  0.791280  0.250000  1
  Sb  Sb6  1  0.666667  0.333333  0.496646  1
  Sb  Sb7  1  0.333333  0.666667  0.996646  1
  Sb  Sb8  1  0.333333  0.666667  0.503354  1
  Sb  Sb9  1  0.666667  0.333333  0.003354  1
  O  O10  1  0.665075  0.095746  0.895524  1
  O  O11  1  0.569328  0.665075  0.395524  1
  O  O12  1  0.095746  0.430672  0.395524  1
  O  O13  1  0.904254  0.569328  0.895524  1
  O  O14  1  0.430672  0.334925  0.895524  1
  O  O15  1  0.334925  0.904254  0.395524  1
  O  O16  1  0.334925  0.904254  0.104476  1
  O  O17  1  0.430672  0.334925  0.604476  1
  O  O18  1  0.904254  0.569328  0.604476  1
  O  O19  1  0.095746  0.430672  0.104476  1
  O  O20  1  0.569328  0.665075  0.104476  1
  O  O21  1  0.665075  0.095746  0.604476  1
  O  O22  1  0.736552  0.807559  0.750000  1
  O  O23  1  0.928993  0.736552  0.250000  1
  O  O24  1  0.807559  0.071007  0.250000  1
  O  O25  1  0.192441  0.928993  0.750000  1
  O  O26  1  0.071007  0.263448  0.750000  1
  O  O27  1  0.263448  0.192441  0.250000  1
