# generated using pymatgen
data_LiPr2IrO6
_symmetry_space_group_name_H-M   'P 1'
_cell_length_a   5.48859226
_cell_length_b   5.83676356
_cell_length_c   9.52791526
_cell_angle_alpha   90.00000000
_cell_angle_beta   124.64757091
_cell_angle_gamma   90.00000000
_symmetry_Int_Tables_number   1
_chemical_formula_structural   LiPr2IrO6
_chemical_formula_sum   'Li2 Pr4 Ir2 O12'
_cell_volume   251.10408438
_cell_formula_units_Z   2
loop_
 _symmetry_equiv_pos_site_id
 _symmetry_equiv_pos_as_xyz
  1  'x, y, z'
loop_
 _atom_site_type_symbol
 _atom_site_label
 _atom_site_symmetry_multiplicity
 _atom_site_fract_x
 _atom_site_fract_y
 _atom_site_fract_z
 _atom_site_occupancy
  Li  Li0  1  0.000000  0.000000  0.000000  1
  Li  Li1  1  0.000000  0.500000  0.500000  1
  Pr  Pr2  1  0.768523  0.070262  0.251764  1
  Pr  Pr3  1  0.231477  0.570262  0.248236  1
  Pr  Pr4  1  0.768523  0.429738  0.751764  1
  Pr  Pr5  1  0.231477  0.929738  0.748236  1
  Ir  Ir6  1  0.500000  0.500000  0.000000  1
  Ir  Ir7  1  0.500000  0.000000  0.500000  1
  O  O8  1  0.267131  0.287061  0.449425  1
  O  O9  1  0.732869  0.787061  0.050575  1
  O  O10  1  0.732869  0.712939  0.550575  1
  O  O11  1  0.267131  0.212939  0.949425  1
  O  O12  1  0.652341  0.026647  0.745654  1
  O  O13  1  0.347659  0.526647  0.754346  1
  O  O14  1  0.843570  0.310757  0.046608  1
  O  O15  1  0.156430  0.810757  0.453392  1
  O  O16  1  0.156430  0.689243  0.953392  1
  O  O17  1  0.843570  0.189243  0.546608  1
  O  O18  1  0.652341  0.473353  0.245654  1
  O  O19  1  0.347659  0.973353  0.254346  1
