# generated using pymatgen
data_Sr2Cu(PO4)2
_symmetry_space_group_name_H-M   'P 1'
_cell_length_a   6.36598750
_cell_length_b   6.36598750
_cell_length_c   6.67946129
_cell_angle_alpha   75.04786980
_cell_angle_beta   104.95213020
_cell_angle_gamma   132.44952825
_symmetry_Int_Tables_number   1
_chemical_formula_structural   Sr2Cu(PO4)2
_chemical_formula_sum   'Sr2 Cu1 P2 O8'
_cell_volume   191.63220141
_cell_formula_units_Z   1
loop_
 _symmetry_equiv_pos_site_id
 _symmetry_equiv_pos_as_xyz
  1  'x, y, z'
loop_
 _atom_site_type_symbol
 _atom_site_label
 _atom_site_symmetry_multiplicity
 _atom_site_fract_x
 _atom_site_fract_y
 _atom_site_fract_z
 _atom_site_occupancy
  Sr  Sr0  1  0.829432  0.170568  0.783301  1
  Sr  Sr1  1  0.170568  0.829432  0.216699  1
  Cu  Cu2  1  0.500000  0.500000  0.500000  1
  P  P3  1  0.142493  0.857507  0.710128  1
  P  P4  1  0.857507  0.142493  0.289872  1
  O  O5  1  0.114404  0.375852  0.436496  1
  O  O6  1  0.375852  0.114404  0.563504  1
  O  O7  1  0.885596  0.624148  0.563504  1
  O  O8  1  0.624148  0.885596  0.436496  1
  O  O9  1  0.271297  0.728703  0.858457  1
  O  O10  1  0.950318  0.049682  0.167651  1
  O  O11  1  0.049682  0.950318  0.832349  1
  O  O12  1  0.728703  0.271297  0.141543  1
