# generated using pymatgen
data_K2Zn(PO3)4
_symmetry_space_group_name_H-M   'P 1'
_cell_length_a   8.47653154
_cell_length_b   8.47653154
_cell_length_c   7.82133701
_cell_angle_alpha   82.01035037
_cell_angle_beta   97.98964963
_cell_angle_gamma   82.91853032
_symmetry_Int_Tables_number   1
_chemical_formula_structural   K2Zn(PO3)4
_chemical_formula_sum   'K4 Zn2 P8 O24'
_cell_volume   545.26095084
_cell_formula_units_Z   2
loop_
 _symmetry_equiv_pos_site_id
 _symmetry_equiv_pos_as_xyz
  1  'x, y, z'
loop_
 _atom_site_type_symbol
 _atom_site_label
 _atom_site_symmetry_multiplicity
 _atom_site_fract_x
 _atom_site_fract_y
 _atom_site_fract_z
 _atom_site_occupancy
  K  K0  1  0.507088  0.242018  0.583759  1
  K  K1  1  0.757982  0.492912  0.083759  1
  K  K2  1  0.468159  0.800069  0.408402  1
  K  K3  1  0.199931  0.531841  0.908402  1
  Zn  Zn4  1  0.150900  0.158258  0.242207  1
  Zn  Zn5  1  0.841742  0.849100  0.742207  1
  P  P6  1  0.815848  0.034688  0.331976  1
  P  P7  1  0.965312  0.184152  0.831976  1
  P  P8  1  0.503595  0.172910  0.072575  1
  P  P9  1  0.827090  0.496405  0.572575  1
  P  P10  1  0.505397  0.867245  0.915911  1
  P  P11  1  0.132755  0.494603  0.415911  1
  P  P12  1  0.188440  0.963770  0.679594  1
  P  P13  1  0.036230  0.811560  0.179594  1
  O  O14  1  0.489377  0.340552  0.976975  1
  O  O15  1  0.659448  0.510623  0.476975  1
  O  O16  1  0.395872  0.130077  0.204581  1
  O  O17  1  0.869923  0.604128  0.704581  1
  O  O18  1  0.688860  0.122443  0.163485  1
  O  O19  1  0.877557  0.311140  0.663485  1
  O  O20  1  0.492112  0.059016  0.921162  1
  O  O21  1  0.940984  0.507888  0.421162  1
  O  O22  1  0.609436  0.832811  0.779427  1
  O  O23  1  0.167189  0.390564  0.279427  1
  O  O24  1  0.542394  0.766543  0.092052  1
  O  O25  1  0.233457  0.457606  0.592052  1
  O  O26  1  0.321663  0.853417  0.833310  1
  O  O27  1  0.146583  0.678337  0.333310  1
  O  O28  1  0.269336  0.025297  0.529558  1
  O  O29  1  0.974703  0.730664  0.029558  1
  O  O30  1  0.058339  0.860063  0.654030  1
  O  O31  1  0.139937  0.941661  0.154030  1
  O  O32  1  0.131028  0.116052  0.770651  1
  O  O33  1  0.883948  0.868972  0.270651  1
  O  O34  1  0.727801  0.988593  0.481837  1
  O  O35  1  0.011407  0.272199  0.981837  1
  O  O36  1  0.941950  0.143773  0.350508  1
  O  O37  1  0.856227  0.058050  0.850508  1
