# generated using pymatgen
data_Cd(BO2)2
_symmetry_space_group_name_H-M   'P 1'
_cell_length_a   8.97259437
_cell_length_b   8.97259437
_cell_length_c   7.27258200
_cell_angle_alpha   90.00000000
_cell_angle_beta   90.00000000
_cell_angle_gamma   120.00000000
_symmetry_Int_Tables_number   1
_chemical_formula_structural   Cd(BO2)2
_chemical_formula_sum   'Cd8 B16 O32'
_cell_volume   507.05530160
_cell_formula_units_Z   8
loop_
 _symmetry_equiv_pos_site_id
 _symmetry_equiv_pos_as_xyz
  1  'x, y, z'
loop_
 _atom_site_type_symbol
 _atom_site_label
 _atom_site_symmetry_multiplicity
 _atom_site_fract_x
 _atom_site_fract_y
 _atom_site_fract_z
 _atom_site_occupancy
  Cd  Cd0  1  0.000000  0.000000  0.062500  1
  Cd  Cd1  1  0.000000  0.000000  0.562500  1
  Cd  Cd2  1  0.521233  0.045704  0.043153  1
  Cd  Cd3  1  0.475529  0.521233  0.543153  1
  Cd  Cd4  1  0.045704  0.524471  0.543153  1
  Cd  Cd5  1  0.954296  0.475529  0.043153  1
  Cd  Cd6  1  0.524471  0.478767  0.043153  1
  Cd  Cd7  1  0.478767  0.954296  0.543153  1
  B  B8  1  0.848363  0.177298  0.346000  1
  B  B9  1  0.671065  0.848363  0.846000  1
  B  B10  1  0.177298  0.328935  0.846000  1
  B  B11  1  0.822702  0.671065  0.346000  1
  B  B12  1  0.328935  0.151637  0.346000  1
  B  B13  1  0.151637  0.822702  0.846000  1
  B  B14  1  0.672680  0.847816  0.231343  1
  B  B15  1  0.824863  0.672680  0.731343  1
  B  B16  1  0.666667  0.333333  0.750932  1
  B  B17  1  0.333333  0.666667  0.250932  1
  B  B18  1  0.666667  0.333333  0.366947  1
  B  B19  1  0.333333  0.666667  0.866947  1
  B  B20  1  0.327320  0.152184  0.731343  1
  B  B21  1  0.175137  0.327320  0.231343  1
  B  B22  1  0.152184  0.824863  0.231343  1
  B  B23  1  0.847816  0.175137  0.731343  1
  O  O24  1  0.004516  0.707649  0.722320  1
  O  O25  1  0.707649  0.703132  0.222320  1
  O  O26  1  0.304073  0.807598  0.794795  1
  O  O27  1  0.496475  0.304073  0.294795  1
  O  O28  1  0.807598  0.503525  0.294795  1
  O  O29  1  0.192402  0.496475  0.794795  1
  O  O30  1  0.503525  0.695927  0.794795  1
  O  O31  1  0.695927  0.192402  0.294795  1
  O  O32  1  0.666667  0.333333  0.559907  1
  O  O33  1  0.333333  0.666667  0.059907  1
  O  O34  1  0.329392  0.091906  0.537956  1
  O  O35  1  0.237486  0.329392  0.037956  1
  O  O36  1  0.091906  0.762514  0.037956  1
  O  O37  1  0.908094  0.237486  0.537956  1
  O  O38  1  0.762514  0.670608  0.537956  1
  O  O39  1  0.670608  0.908094  0.037956  1
  O  O40  1  0.186860  0.002843  0.828124  1
  O  O41  1  0.184017  0.186860  0.328124  1
  O  O42  1  0.002843  0.815983  0.328124  1
  O  O43  1  0.997157  0.184017  0.828124  1
  O  O44  1  0.815983  0.813140  0.828124  1
  O  O45  1  0.813140  0.997157  0.328124  1
  O  O46  1  0.493256  0.205923  0.828212  1
  O  O47  1  0.287333  0.493256  0.328212  1
  O  O48  1  0.205923  0.712667  0.328212  1
  O  O49  1  0.794077  0.287333  0.828212  1
  O  O50  1  0.712667  0.506744  0.828212  1
  O  O51  1  0.506744  0.794077  0.328212  1
  O  O52  1  0.292351  0.296868  0.722320  1
  O  O53  1  0.995484  0.292351  0.222320  1
  O  O54  1  0.296868  0.004516  0.222320  1
  O  O55  1  0.703132  0.995484  0.722320  1
