# generated using pymatgen
data_Na2SrV4O12
_symmetry_space_group_name_H-M   'P 1'
_cell_length_a   10.76081104
_cell_length_b   10.76081104
_cell_length_c   5.09283942
_cell_angle_alpha   90.00000000
_cell_angle_beta   90.00000000
_cell_angle_gamma   90.00000000
_symmetry_Int_Tables_number   1
_chemical_formula_structural   Na2SrV4O12
_chemical_formula_sum   'Na4 Sr2 V8 O24'
_cell_volume   589.72561687
_cell_formula_units_Z   2
loop_
 _symmetry_equiv_pos_site_id
 _symmetry_equiv_pos_as_xyz
  1  'x, y, z'
loop_
 _atom_site_type_symbol
 _atom_site_label
 _atom_site_symmetry_multiplicity
 _atom_site_fract_x
 _atom_site_fract_y
 _atom_site_fract_z
 _atom_site_occupancy
  Na  Na0  1  0.750000  0.750000  0.500000  1
  Na  Na1  1  0.750000  0.250000  0.500000  1
  Na  Na2  1  0.250000  0.750000  0.500000  1
  Na  Na3  1  0.250000  0.250000  0.500000  1
  Sr  Sr4  1  0.500000  0.500000  0.500000  1
  Sr  Sr5  1  0.000000  0.000000  0.500000  1
  V  V6  1  0.717389  0.000000  0.000000  1
  V  V7  1  0.000000  0.282611  0.000000  1
  V  V8  1  0.282611  0.000000  0.000000  1
  V  V9  1  0.500000  0.782611  0.000000  1
  V  V10  1  0.782611  0.500000  0.000000  1
  V  V11  1  0.217389  0.500000  0.000000  1
  V  V12  1  0.500000  0.217389  0.000000  1
  V  V13  1  0.000000  0.717389  0.000000  1
  O  O14  1  0.433352  0.303413  0.236987  1
  O  O15  1  0.566648  0.696587  0.236987  1
  O  O16  1  0.696587  0.433352  0.236987  1
  O  O17  1  0.303413  0.566648  0.236987  1
  O  O18  1  0.303413  0.433352  0.763013  1
  O  O19  1  0.433352  0.696587  0.763013  1
  O  O20  1  0.566648  0.303413  0.763013  1
  O  O21  1  0.696587  0.566648  0.763013  1
  O  O22  1  0.066648  0.196587  0.763013  1
  O  O23  1  0.933352  0.803413  0.763013  1
  O  O24  1  0.803413  0.066648  0.763013  1
  O  O25  1  0.196587  0.933352  0.763013  1
  O  O26  1  0.196587  0.066648  0.236987  1
  O  O27  1  0.066648  0.803413  0.236987  1
  O  O28  1  0.118386  0.381614  0.150462  1
  O  O29  1  0.381614  0.881614  0.150462  1
  O  O30  1  0.618386  0.118386  0.150462  1
  O  O31  1  0.881614  0.618386  0.150462  1
  O  O32  1  0.881614  0.381614  0.849538  1
  O  O33  1  0.118386  0.618386  0.849538  1
  O  O34  1  0.381614  0.118386  0.849538  1
  O  O35  1  0.618386  0.881614  0.849538  1
  O  O36  1  0.803413  0.933352  0.236987  1
  O  O37  1  0.933352  0.196587  0.236987  1
