# generated using pymatgen
data_Rb2GeB4O9
_symmetry_space_group_name_H-M   'P 1'
_cell_length_a   6.72935488
_cell_length_b   10.06679812
_cell_length_c   13.46842047
_cell_angle_alpha   90.00000000
_cell_angle_beta   90.35513833
_cell_angle_gamma   90.00000000
_symmetry_Int_Tables_number   1
_chemical_formula_structural   Rb2GeB4O9
_chemical_formula_sum   'Rb8 Ge4 B16 O36'
_cell_volume   912.37444904
_cell_formula_units_Z   4
loop_
 _symmetry_equiv_pos_site_id
 _symmetry_equiv_pos_as_xyz
  1  'x, y, z'
loop_
 _atom_site_type_symbol
 _atom_site_label
 _atom_site_symmetry_multiplicity
 _atom_site_fract_x
 _atom_site_fract_y
 _atom_site_fract_z
 _atom_site_occupancy
  Rb  Rb0  1  0.218615  0.626359  0.882883  1
  Rb  Rb1  1  0.781385  0.126359  0.117117  1
  Rb  Rb2  1  0.743753  0.341419  0.880520  1
  Rb  Rb3  1  0.256247  0.841419  0.119480  1
  Rb  Rb4  1  0.229205  0.847030  0.634604  1
  Rb  Rb5  1  0.770795  0.347030  0.365396  1
  Rb  Rb6  1  0.292776  0.567626  0.372855  1
  Rb  Rb7  1  0.707224  0.067626  0.627145  1
  Ge  Ge8  1  0.743529  0.851864  0.869451  1
  Ge  Ge9  1  0.256471  0.351864  0.130549  1
  Ge  Ge10  1  0.245702  0.342135  0.616404  1
  Ge  Ge11  1  0.754298  0.842135  0.383596  1
  B  B12  1  0.402376  0.016259  0.839921  1
  B  B13  1  0.597624  0.516259  0.160079  1
  B  B14  1  0.661462  0.677171  0.544315  1
  B  B15  1  0.338538  0.177171  0.455685  1
  B  B16  1  0.072042  0.018284  0.905881  1
  B  B17  1  0.927958  0.518284  0.094119  1
  B  B18  1  0.805444  0.677132  0.706755  1
  B  B19  1  0.194556  0.177132  0.293245  1
  B  B20  1  0.508917  0.539897  0.673424  1
  B  B21  1  0.491083  0.039897  0.326576  1
  B  B22  1  0.333400  0.156392  0.984446  1
  B  B23  1  0.666600  0.656392  0.015554  1
  B  B24  1  0.043345  0.038543  0.422922  1
  B  B25  1  0.956655  0.538543  0.577078  1
  B  B26  1  0.141526  0.150830  0.756319  1
  B  B27  1  0.858474  0.650830  0.243681  1
  O  O28  1  0.075658  0.247224  0.688603  1
  O  O29  1  0.924342  0.747224  0.311397  1
  O  O30  1  0.595858  0.755658  0.953118  1
  O  O31  1  0.404142  0.255658  0.046882  1
  O  O32  1  0.413424  0.256534  0.540556  1
  O  O33  1  0.586576  0.756534  0.459444  1
  O  O34  1  0.083968  0.439781  0.541139  1
  O  O35  1  0.916032  0.939781  0.458861  1
  O  O36  1  0.905533  0.943016  0.947467  1
  O  O37  1  0.094467  0.443016  0.052533  1
  O  O38  1  0.387075  0.435120  0.704761  1
  O  O39  1  0.612925  0.935120  0.295239  1
  O  O40  1  0.888535  0.755202  0.788285  1
  O  O41  1  0.111465  0.255202  0.211715  1
  O  O42  1  0.565674  0.938724  0.798565  1
  O  O43  1  0.434326  0.438724  0.201435  1
  O  O44  1  0.236482  0.935515  0.873766  1
  O  O45  1  0.763518  0.435515  0.126234  1
  O  O46  1  0.734780  0.758622  0.624867  1
  O  O47  1  0.265220  0.258622  0.375133  1
  O  O48  1  0.488653  0.592177  0.579357  1
  O  O49  1  0.511347  0.092177  0.420643  1
  O  O50  1  0.973721  0.587204  0.671784  1
  O  O51  1  0.026279  0.087204  0.328216  1
  O  O52  1  0.818993  0.582044  0.508827  1
  O  O53  1  0.181007  0.082044  0.491173  1
  O  O54  1  0.333703  0.106365  0.754631  1
  O  O55  1  0.666297  0.606365  0.245369  1
  O  O56  1  0.999502  0.105097  0.820491  1
  O  O57  1  0.000498  0.605097  0.179509  1
  O  O58  1  0.642336  0.585027  0.742859  1
  O  O59  1  0.357664  0.085027  0.257141  1
  O  O60  1  0.474512  0.106226  0.921216  1
  O  O61  1  0.525488  0.606226  0.078784  1
  O  O62  1  0.140205  0.112462  0.987512  1
  O  O63  1  0.859795  0.612462  0.012488  1
