# generated using pymatgen
data_K2Zr3OF12
_symmetry_space_group_name_H-M   'P 1'
_cell_length_a   10.77701551
_cell_length_b   10.77701551
_cell_length_c   10.77701551
_cell_angle_alpha   42.53240911
_cell_angle_beta   42.53240911
_cell_angle_gamma   42.53240911
_symmetry_Int_Tables_number   1
_chemical_formula_structural   K2Zr3OF12
_chemical_formula_sum   'K4 Zr6 O2 F24'
_cell_volume   517.97157877
_cell_formula_units_Z   2
loop_
 _symmetry_equiv_pos_site_id
 _symmetry_equiv_pos_as_xyz
  1  'x, y, z'
loop_
 _atom_site_type_symbol
 _atom_site_label
 _atom_site_symmetry_multiplicity
 _atom_site_fract_x
 _atom_site_fract_y
 _atom_site_fract_z
 _atom_site_occupancy
  K  K0  1  0.000000  0.000000  0.000000  1
  K  K1  1  0.500000  0.500000  0.500000  1
  K  K2  1  0.861670  0.861670  0.861670  1
  K  K3  1  0.138330  0.138330  0.138330  1
  Zr  Zr4  1  0.422386  0.968380  0.422386  1
  Zr  Zr5  1  0.968380  0.422386  0.422386  1
  Zr  Zr6  1  0.422386  0.422386  0.968380  1
  Zr  Zr7  1  0.577614  0.577614  0.031620  1
  Zr  Zr8  1  0.031620  0.577614  0.577614  1
  Zr  Zr9  1  0.577614  0.031620  0.577614  1
  O  O10  1  0.285156  0.285156  0.285156  1
  O  O11  1  0.714844  0.714844  0.714844  1
  F  F12  1  0.295909  0.631637  0.295909  1
  F  F13  1  0.631637  0.295909  0.295909  1
  F  F14  1  0.295909  0.295909  0.631637  1
  F  F15  1  0.704091  0.704091  0.368363  1
  F  F16  1  0.704091  0.368363  0.704091  1
  F  F17  1  0.368363  0.704091  0.704091  1
  F  F18  1  0.085468  0.598316  0.085468  1
  F  F19  1  0.598316  0.085468  0.085468  1
  F  F20  1  0.350038  0.000000  0.649962  1
  F  F21  1  0.649962  0.350038  0.000000  1
  F  F22  1  0.000000  0.649962  0.350038  1
  F  F23  1  0.649962  0.000000  0.350038  1
  F  F24  1  0.350038  0.649962  0.000000  1
  F  F25  1  0.000000  0.350038  0.649962  1
  F  F26  1  0.088298  0.652205  0.652205  1
  F  F27  1  0.652205  0.088298  0.652205  1
  F  F28  1  0.652205  0.652205  0.088298  1
  F  F29  1  0.347795  0.347795  0.911702  1
  F  F30  1  0.911702  0.347795  0.347795  1
  F  F31  1  0.347795  0.911702  0.347795  1
  F  F32  1  0.401684  0.914532  0.914532  1
  F  F33  1  0.914532  0.401684  0.914532  1
  F  F34  1  0.914532  0.914532  0.401684  1
  F  F35  1  0.085468  0.085468  0.598316  1
