# generated using pymatgen
data_Tl5Te3
_symmetry_space_group_name_H-M   'P 1'
_cell_length_a   9.15781790
_cell_length_b   9.15781790
_cell_length_c   9.15781790
_cell_angle_alpha   120.60326166
_cell_angle_beta   120.60326166
_cell_angle_gamma   88.95825788
_symmetry_Int_Tables_number   1
_chemical_formula_structural   Tl5Te3
_chemical_formula_sum   'Tl10 Te6'
_cell_volume   538.02812511
_cell_formula_units_Z   2
loop_
 _symmetry_equiv_pos_site_id
 _symmetry_equiv_pos_as_xyz
  1  'x, y, z'
loop_
 _atom_site_type_symbol
 _atom_site_label
 _atom_site_symmetry_multiplicity
 _atom_site_fract_x
 _atom_site_fract_y
 _atom_site_fract_z
 _atom_site_occupancy
  Tl  Tl0  1  0.992553  0.195142  0.500000  1
  Tl  Tl1  1  0.007447  0.804858  0.500000  1
  Tl  Tl2  1  1.000000  1.000000  0.000000  1
  Tl  Tl3  1  0.500000  0.500000  0.000000  1
  Tl  Tl4  1  0.695142  0.492553  0.500000  1
  Tl  Tl5  1  0.492553  0.992553  0.797411  1
  Tl  Tl6  1  0.195142  0.695142  0.202589  1
  Tl  Tl7  1  0.804858  0.304858  0.797411  1
  Tl  Tl8  1  0.507447  0.007447  0.202589  1
  Tl  Tl9  1  0.304858  0.507447  0.500000  1
  Te  Te10  1  0.342506  0.157494  0.500000  1
  Te  Te11  1  0.157494  0.657494  0.814988  1
  Te  Te12  1  0.842506  0.342506  0.185012  1
  Te  Te13  1  0.657494  0.842506  0.500000  1
  Te  Te14  1  0.750000  0.750000  0.000000  1
  Te  Te15  1  0.250000  0.250000  0.000000  1
