# generated using pymatgen
data_Ba2CaSi4(BO7)2
_symmetry_space_group_name_H-M   'P 1'
_cell_length_a   9.39175879
_cell_length_b   9.39175879
_cell_length_c   9.39175879
_cell_angle_alpha   107.88662462
_cell_angle_beta   107.88662462
_cell_angle_gamma   112.68913347
_symmetry_Int_Tables_number   1
_chemical_formula_structural   Ba2CaSi4(BO7)2
_chemical_formula_sum   'Ba4 Ca2 Si8 B4 O28'
_cell_volume   636.18587357
_cell_formula_units_Z   2
loop_
 _symmetry_equiv_pos_site_id
 _symmetry_equiv_pos_as_xyz
  1  'x, y, z'
loop_
 _atom_site_type_symbol
 _atom_site_label
 _atom_site_symmetry_multiplicity
 _atom_site_fract_x
 _atom_site_fract_y
 _atom_site_fract_z
 _atom_site_occupancy
  Ba  Ba0  1  0.203800  0.794066  0.000000  1
  Ba  Ba1  1  0.794066  0.203800  0.000000  1
  Ba  Ba2  1  0.205934  0.205934  0.409734  1
  Ba  Ba3  1  0.796200  0.796200  0.590266  1
  Ca  Ca4  1  0.244624  0.244624  0.000000  1
  Ca  Ca5  1  0.755376  0.755376  0.000000  1
  Si  Si6  1  0.750723  0.035027  0.313290  1
  Si  Si7  1  0.721737  0.437433  0.686710  1
  Si  Si8  1  0.278263  0.964973  0.715696  1
  Si  Si9  1  0.249277  0.562567  0.284304  1
  Si  Si10  1  0.964973  0.278263  0.715696  1
  Si  Si11  1  0.562567  0.249277  0.284304  1
  Si  Si12  1  0.437433  0.721737  0.686710  1
  Si  Si13  1  0.035027  0.750723  0.313290  1
  B  B14  1  0.500000  0.666984  0.166984  1
  B  B15  1  0.500000  0.333016  0.833016  1
  B  B16  1  0.333016  0.500000  0.833016  1
  B  B17  1  0.666984  0.500000  0.166984  1
  O  O18  1  0.471924  0.659668  0.000000  1
  O  O19  1  0.659668  0.471924  1.000000  1
  O  O20  1  0.340332  0.340332  0.812256  1
  O  O21  1  0.528076  0.528076  0.187744  1
  O  O22  1  0.657541  0.843931  0.306449  1
  O  O23  1  0.537482  0.351093  0.693551  1
  O  O24  1  0.462518  0.156069  0.813611  1
  O  O25  1  0.342459  0.648907  0.186389  1
  O  O26  1  0.156069  0.462518  0.813611  1
  O  O27  1  0.648907  0.342459  0.186389  1
  O  O28  1  0.351093  0.537482  0.693551  1
  O  O29  1  0.843931  0.657541  0.306449  1
  O  O30  1  0.842527  0.042373  0.194212  1
  O  O31  1  0.848161  0.648315  0.805788  1
  O  O32  1  0.151839  0.957627  0.800154  1
  O  O33  1  0.157473  0.351685  0.199846  1
  O  O34  1  0.957627  0.151839  0.800154  1
  O  O35  1  0.351685  0.157473  0.199846  1
  O  O36  1  0.648315  0.848161  0.805788  1
  O  O37  1  0.042373  0.842527  0.194212  1
  O  O38  1  0.911810  0.177516  0.512524  1
  O  O39  1  0.664993  0.399287  0.487476  1
  O  O40  1  0.335007  0.822484  0.734294  1
  O  O41  1  0.088190  0.600713  0.265706  1
  O  O42  1  0.822484  0.335007  0.734294  1
  O  O43  1  0.600713  0.088190  0.265706  1
  O  O44  1  0.399287  0.664993  0.487476  1
  O  O45  1  0.177516  0.911810  0.512524  1
