# generated using pymatgen
data_Na4Mo(NO)2
_symmetry_space_group_name_H-M   'P 1'
_cell_length_a   5.91738420
_cell_length_b   5.95144141
_cell_length_c   8.98467031
_cell_angle_alpha   82.81308832
_cell_angle_beta   71.51611291
_cell_angle_gamma   68.88208754
_symmetry_Int_Tables_number   1
_chemical_formula_structural   Na4Mo(NO)2
_chemical_formula_sum   'Na8 Mo2 N4 O4'
_cell_volume   279.91505275
_cell_formula_units_Z   2
loop_
 _symmetry_equiv_pos_site_id
 _symmetry_equiv_pos_as_xyz
  1  'x, y, z'
loop_
 _atom_site_type_symbol
 _atom_site_label
 _atom_site_symmetry_multiplicity
 _atom_site_fract_x
 _atom_site_fract_y
 _atom_site_fract_z
 _atom_site_occupancy
  Na  Na0  1  0.240484  0.761527  0.985113  1
  Na  Na1  1  0.759516  0.238473  0.014887  1
  Na  Na2  1  0.056468  0.757658  0.402471  1
  Na  Na3  1  0.943532  0.242342  0.597529  1
  Na  Na4  1  0.479105  0.739893  0.557259  1
  Na  Na5  1  0.520895  0.260107  0.442741  1
  Na  Na6  1  0.612828  0.723505  0.183722  1
  Na  Na7  1  0.387172  0.276495  0.816278  1
  Mo  Mo8  1  0.841730  0.719799  0.762181  1
  Mo  Mo9  1  0.158270  0.280201  0.237819  1
  N  N10  1  0.295277  0.037714  0.362269  1
  N  N11  1  0.156744  0.543246  0.645861  1
  N  N12  1  0.843256  0.456754  0.354139  1
  N  N13  1  0.704723  0.962286  0.637731  1
  O  O14  1  0.640183  0.515586  0.814301  1
  O  O15  1  0.150267  0.156330  0.054754  1
  O  O16  1  0.359817  0.484414  0.185699  1
  O  O17  1  0.849733  0.843670  0.945246  1
