# generated using pymatgen
data_La2Ni3
_symmetry_space_group_name_H-M   'P 1'
_cell_length_a   5.44293609
_cell_length_b   5.44293609
_cell_length_c   7.90308165
_cell_angle_alpha   90.00000000
_cell_angle_beta   90.00000000
_cell_angle_gamma   124.93791284
_symmetry_Int_Tables_number   1
_chemical_formula_structural   La2Ni3
_chemical_formula_sum   'La4 Ni6'
_cell_volume   191.93607318
_cell_formula_units_Z   2
loop_
 _symmetry_equiv_pos_site_id
 _symmetry_equiv_pos_as_xyz
  1  'x, y, z'
loop_
 _atom_site_type_symbol
 _atom_site_label
 _atom_site_symmetry_multiplicity
 _atom_site_fract_x
 _atom_site_fract_y
 _atom_site_fract_z
 _atom_site_occupancy
  La  La0  1  0.846068  0.153932  0.595151  1
  La  La1  1  0.153932  0.846068  0.404849  1
  La  La2  1  0.653932  0.346068  0.095151  1
  La  La3  1  0.346068  0.653932  0.904849  1
  Ni  Ni4  1  0.500000  0.500000  0.500000  1
  Ni  Ni5  1  0.000000  0.000000  0.000000  1
  Ni  Ni6  1  0.842134  0.657866  0.750000  1
  Ni  Ni7  1  0.657866  0.842134  0.250000  1
  Ni  Ni8  1  0.342134  0.157866  0.750000  1
  Ni  Ni9  1  0.157866  0.342134  0.250000  1
