# generated using pymatgen
data_Sr2FeMoO6
_symmetry_space_group_name_H-M   'P 1'
_cell_length_a   5.64366085
_cell_length_b   5.64366085
_cell_length_c   5.64366085
_cell_angle_alpha   119.46694264
_cell_angle_beta   119.46694264
_cell_angle_gamma   90.92578905
_symmetry_Int_Tables_number   1
_chemical_formula_structural   Sr2FeMoO6
_chemical_formula_sum   'Sr2 Fe1 Mo1 O6'
_cell_volume   128.11250214
_cell_formula_units_Z   1
loop_
 _symmetry_equiv_pos_site_id
 _symmetry_equiv_pos_as_xyz
  1  'x, y, z'
loop_
 _atom_site_type_symbol
 _atom_site_label
 _atom_site_symmetry_multiplicity
 _atom_site_fract_x
 _atom_site_fract_y
 _atom_site_fract_z
 _atom_site_occupancy
  Sr  Sr0  1  0.750000  0.250000  0.500000  1
  Sr  Sr1  1  0.250000  0.750000  0.500000  1
  Fe  Fe2  1  0.000000  0.000000  0.000000  1
  Mo  Mo3  1  0.500000  0.500000  0.000000  1
  O  O4  1  0.743527  0.743527  0.000000  1
  O  O5  1  0.256473  0.256473  0.000000  1
  O  O6  1  0.777060  0.724631  0.501691  1
  O  O7  1  0.222940  0.275369  0.498309  1
  O  O8  1  0.275369  0.777060  0.052429  1
  O  O9  1  0.724631  0.222940  0.947571  1
