# generated using pymatgen
data_Na3Fe2(GeO4)3
_symmetry_space_group_name_H-M   'P 1'
_cell_length_a   10.74237594
_cell_length_b   10.74237594
_cell_length_c   10.74237594
_cell_angle_alpha   109.47122063
_cell_angle_beta   109.47122063
_cell_angle_gamma   109.47122063
_symmetry_Int_Tables_number   1
_chemical_formula_structural   Na3Fe2(GeO4)3
_chemical_formula_sum   'Na12 Fe8 Ge12 O48'
_cell_volume   954.28731267
_cell_formula_units_Z   4
loop_
 _symmetry_equiv_pos_site_id
 _symmetry_equiv_pos_as_xyz
  1  'x, y, z'
loop_
 _atom_site_type_symbol
 _atom_site_label
 _atom_site_symmetry_multiplicity
 _atom_site_fract_x
 _atom_site_fract_y
 _atom_site_fract_z
 _atom_site_occupancy
  Na  Na0  1  0.625000  0.250000  0.875000  1
  Na  Na1  1  0.875000  0.750000  0.625000  1
  Na  Na2  1  0.750000  0.625000  0.875000  1
  Na  Na3  1  0.250000  0.875000  0.625000  1
  Na  Na4  1  0.875000  0.625000  0.250000  1
  Na  Na5  1  0.625000  0.875000  0.750000  1
  Na  Na6  1  0.375000  0.750000  0.125000  1
  Na  Na7  1  0.125000  0.250000  0.375000  1
  Na  Na8  1  0.250000  0.375000  0.125000  1
  Na  Na9  1  0.750000  0.125000  0.375000  1
  Na  Na10  1  0.125000  0.375000  0.750000  1
  Na  Na11  1  0.375000  0.125000  0.250000  1
  Fe  Fe12  1  0.500000  0.500000  0.500000  1
  Fe  Fe13  1  0.500000  0.500000  0.000000  1
  Fe  Fe14  1  0.500000  1.000000  0.500000  1
  Fe  Fe15  1  1.000000  0.500000  0.500000  1
  Fe  Fe16  1  0.500000  1.000000  0.000000  1
  Fe  Fe17  1  1.000000  1.000000  0.500000  1
  Fe  Fe18  1  1.000000  0.500000  0.000000  1
  Fe  Fe19  1  0.000000  0.000000  0.000000  1
  Ge  Ge20  1  0.875000  0.125000  0.750000  1
  Ge  Ge21  1  0.125000  0.875000  0.250000  1
  Ge  Ge22  1  0.250000  0.625000  0.375000  1
  Ge  Ge23  1  0.125000  0.750000  0.875000  1
  Ge  Ge24  1  0.750000  0.875000  0.125000  1
  Ge  Ge25  1  0.375000  0.250000  0.625000  1
  Ge  Ge26  1  0.625000  0.750000  0.375000  1
  Ge  Ge27  1  0.875000  0.250000  0.125000  1
  Ge  Ge28  1  0.250000  0.125000  0.875000  1
  Ge  Ge29  1  0.750000  0.375000  0.625000  1
  Ge  Ge30  1  0.375000  0.625000  0.750000  1
  Ge  Ge31  1  0.625000  0.375000  0.250000  1
  O  O32  1  0.804439  0.419022  0.816879  1
  O  O33  1  0.080978  0.885417  0.397857  1
  O  O34  1  0.683121  0.102143  0.987560  1
  O  O35  1  0.695561  0.512440  0.614583  1
  O  O36  1  0.695561  0.683121  0.080978  1
  O  O37  1  0.512440  0.614583  0.695561  1
  O  O38  1  0.102143  0.614583  0.419022  1
  O  O39  1  0.614583  0.695561  0.512440  1
  O  O40  1  0.397857  0.816879  0.512440  1
  O  O41  1  0.885417  0.987560  0.804439  1
  O  O42  1  0.987560  0.804439  0.885417  1
  O  O43  1  0.080978  0.695561  0.683121  1
  O  O44  1  0.614583  0.419022  0.102143  1
  O  O45  1  0.512440  0.397857  0.816879  1
  O  O46  1  0.683121  0.080978  0.695561  1
  O  O47  1  0.419022  0.102143  0.614583  1
  O  O48  1  0.816879  0.512440  0.397857  1
  O  O49  1  0.397857  0.080978  0.885417  1
  O  O50  1  0.102143  0.987560  0.683121  1
  O  O51  1  0.602143  0.183121  0.487560  1
  O  O52  1  0.987560  0.683121  0.102143  1
  O  O53  1  0.816879  0.804439  0.419022  1
  O  O54  1  0.885417  0.397857  0.080978  1
  O  O55  1  0.804439  0.885417  0.987560  1
  O  O56  1  0.195561  0.580978  0.183121  1
  O  O57  1  0.919022  0.114583  0.602143  1
  O  O58  1  0.316879  0.897857  0.012440  1
  O  O59  1  0.304439  0.487560  0.385417  1
  O  O60  1  0.304439  0.316879  0.919022  1
  O  O61  1  0.487560  0.385417  0.304439  1
  O  O62  1  0.897857  0.385417  0.580978  1
  O  O63  1  0.385417  0.304439  0.487560  1
  O  O64  1  0.195561  0.114583  0.012440  1
  O  O65  1  0.114583  0.602143  0.919022  1
  O  O66  1  0.183121  0.195561  0.580978  1
  O  O67  1  0.580978  0.183121  0.195561  1
  O  O68  1  0.012440  0.316879  0.897857  1
  O  O69  1  0.897857  0.012440  0.316879  1
  O  O70  1  0.602143  0.919022  0.114583  1
  O  O71  1  0.183121  0.487560  0.602143  1
  O  O72  1  0.580978  0.897857  0.385417  1
  O  O73  1  0.316879  0.919022  0.304439  1
  O  O74  1  0.487560  0.602143  0.183121  1
  O  O75  1  0.385417  0.580978  0.897857  1
  O  O76  1  0.919022  0.304439  0.316879  1
  O  O77  1  0.012440  0.195561  0.114583  1
  O  O78  1  0.114583  0.012440  0.195561  1
  O  O79  1  0.419022  0.816879  0.804439  1
