# generated using pymatgen
data_V3S4
_symmetry_space_group_name_H-M   'P 1'
_cell_length_a   6.51628786
_cell_length_b   6.51628786
_cell_length_c   5.86339993
_cell_angle_alpha   65.50633922
_cell_angle_beta   114.49366078
_cell_angle_gamma   151.13695081
_symmetry_Int_Tables_number   1
_chemical_formula_structural   V3S4
_chemical_formula_sum   'V3 S4'
_cell_volume   108.61315544
_cell_formula_units_Z   1
loop_
 _symmetry_equiv_pos_site_id
 _symmetry_equiv_pos_as_xyz
  1  'x, y, z'
loop_
 _atom_site_type_symbol
 _atom_site_label
 _atom_site_symmetry_multiplicity
 _atom_site_fract_x
 _atom_site_fract_y
 _atom_site_fract_z
 _atom_site_occupancy
  V  V0  1  0.000000  0.000000  0.000000  1
  V  V1  1  0.257869  0.742131  0.318827  1
  V  V2  1  0.742131  0.257869  0.681173  1
  S  S3  1  0.359283  0.640717  0.019076  1
  S  S4  1  0.640717  0.359283  0.980924  1
  S  S5  1  0.890500  0.109500  0.550787  1
  S  S6  1  0.109500  0.890500  0.449213  1
