# generated using pymatgen
data_SiO2
_symmetry_space_group_name_H-M   'P 1'
_cell_length_a   11.65287525
_cell_length_b   11.65287525
_cell_length_c   7.74834006
_cell_angle_alpha   80.45049435
_cell_angle_beta   99.54950565
_cell_angle_gamma   108.30585880
_symmetry_Int_Tables_number   1
_chemical_formula_structural   SiO2
_chemical_formula_sum   'Si16 O32'
_cell_volume   977.75276030
_cell_formula_units_Z   16
loop_
 _symmetry_equiv_pos_site_id
 _symmetry_equiv_pos_as_xyz
  1  'x, y, z'
loop_
 _atom_site_type_symbol
 _atom_site_label
 _atom_site_symmetry_multiplicity
 _atom_site_fract_x
 _atom_site_fract_y
 _atom_site_fract_z
 _atom_site_occupancy
  Si  Si0  1  0.957506  0.635416  0.772309  1
  Si  Si1  1  0.635416  0.957506  0.227691  1
  Si  Si2  1  0.042494  0.364584  0.227691  1
  Si  Si3  1  0.364584  0.042494  0.772309  1
  Si  Si4  1  0.866333  0.361672  0.874538  1
  Si  Si5  1  0.361672  0.866333  0.125462  1
  Si  Si6  1  0.133667  0.638328  0.125462  1
  Si  Si7  1  0.638328  0.133667  0.874538  1
  Si  Si8  1  0.874102  0.898465  0.199026  1
  Si  Si9  1  0.898465  0.874102  0.800974  1
  Si  Si10  1  0.125898  0.101535  0.800974  1
  Si  Si11  1  0.101535  0.125898  0.199026  1
  Si  Si12  1  0.031787  0.737112  0.404196  1
  Si  Si13  1  0.737112  0.031787  0.595804  1
  Si  Si14  1  0.968213  0.262888  0.595804  1
  Si  Si15  1  0.262888  0.968213  0.404196  1
  O  O16  1  0.048017  0.667229  0.249069  1
  O  O17  1  0.667229  0.048017  0.750931  1
  O  O18  1  0.951983  0.332771  0.750931  1
  O  O19  1  0.332771  0.951983  0.249069  1
  O  O20  1  0.737933  0.888928  0.233134  1
  O  O21  1  0.888928  0.737933  0.766866  1
  O  O22  1  0.262067  0.111072  0.766866  1
  O  O23  1  0.111072  0.262067  0.233134  1
  O  O24  1  0.922813  0.341916  0.080231  1
  O  O25  1  0.341916  0.922813  0.919769  1
  O  O26  1  0.077187  0.658084  0.919769  1
  O  O27  1  0.658084  0.077187  0.080231  1
  O  O28  1  0.862465  0.501574  0.819872  1
  O  O29  1  0.501574  0.862465  0.180128  1
  O  O30  1  0.137535  0.498426  0.180128  1
  O  O31  1  0.498426  0.137535  0.819872  1
  O  O32  1  0.157630  0.842370  0.453524  1
  O  O33  1  0.842370  0.157630  0.546476  1
  O  O34  1  0.128739  0.128739  0.000000  1
  O  O35  1  0.871261  0.871261  0.000000  1
  O  O36  1  0.358226  0.000354  0.579837  1
  O  O37  1  0.000354  0.358226  0.420163  1
  O  O38  1  0.641774  0.999646  0.420163  1
  O  O39  1  0.999646  0.641774  0.579837  1
  O  O40  1  0.203031  0.079227  0.337676  1
  O  O41  1  0.079227  0.203031  0.662324  1
  O  O42  1  0.796969  0.920773  0.662324  1
  O  O43  1  0.920773  0.796969  0.337676  1
  O  O44  1  0.964829  0.035171  0.226609  1
  O  O45  1  0.035171  0.964829  0.773391  1
  O  O46  1  0.727886  0.272114  0.848358  1
  O  O47  1  0.272114  0.727886  0.151642  1
