# generated using pymatgen
data_SrDy2CuO5
_symmetry_space_group_name_H-M   'P 1'
_cell_length_a   5.64297282
_cell_length_b   7.18130281
_cell_length_c   12.08895788
_cell_angle_alpha   90.00000000
_cell_angle_beta   90.00000000
_cell_angle_gamma   90.00000000
_symmetry_Int_Tables_number   1
_chemical_formula_structural   SrDy2CuO5
_chemical_formula_sum   'Sr4 Dy8 Cu4 O20'
_cell_volume   489.89167876
_cell_formula_units_Z   4
loop_
 _symmetry_equiv_pos_site_id
 _symmetry_equiv_pos_as_xyz
  1  'x, y, z'
loop_
 _atom_site_type_symbol
 _atom_site_label
 _atom_site_symmetry_multiplicity
 _atom_site_fract_x
 _atom_site_fract_y
 _atom_site_fract_z
 _atom_site_occupancy
  Sr  Sr0  1  0.750000  0.582079  0.586568  1
  Sr  Sr1  1  0.750000  0.917921  0.086568  1
  Sr  Sr2  1  0.250000  0.082079  0.913432  1
  Sr  Sr3  1  0.250000  0.417921  0.413432  1
  Dy  Dy4  1  0.250000  0.894416  0.573234  1
  Dy  Dy5  1  0.750000  0.113007  0.713600  1
  Dy  Dy6  1  0.750000  0.386993  0.213600  1
  Dy  Dy7  1  0.250000  0.613007  0.786400  1
  Dy  Dy8  1  0.750000  0.105584  0.426766  1
  Dy  Dy9  1  0.750000  0.394416  0.926766  1
  Dy  Dy10  1  0.250000  0.605584  0.073234  1
  Dy  Dy11  1  0.250000  0.886993  0.286400  1
  Cu  Cu12  1  0.250000  0.278869  0.663256  1
  Cu  Cu13  1  0.750000  0.721131  0.336744  1
  Cu  Cu14  1  0.750000  0.778869  0.836744  1
  Cu  Cu15  1  0.250000  0.221131  0.163256  1
  O  O16  1  0.250000  0.925538  0.094194  1
  O  O17  1  0.750000  0.074462  0.905806  1
  O  O18  1  0.750000  0.425538  0.405806  1
  O  O19  1  0.250000  0.574462  0.594194  1
  O  O20  1  0.006135  0.348496  0.776443  1
  O  O21  1  0.506135  0.651504  0.223557  1
  O  O22  1  0.993865  0.848496  0.723557  1
  O  O23  1  0.493865  0.151504  0.276443  1
  O  O24  1  0.993865  0.651504  0.223557  1
  O  O25  1  0.493865  0.348496  0.776443  1
  O  O26  1  0.006135  0.151504  0.276443  1
  O  O27  1  0.506135  0.848496  0.723557  1
  O  O28  1  0.492333  0.164084  0.567030  1
  O  O29  1  0.992333  0.835916  0.432970  1
  O  O30  1  0.507667  0.664084  0.932970  1
  O  O31  1  0.007667  0.335916  0.067030  1
  O  O32  1  0.992333  0.664084  0.932970  1
  O  O33  1  0.492333  0.335916  0.067030  1
  O  O34  1  0.007667  0.164084  0.567030  1
  O  O35  1  0.507667  0.835916  0.432970  1
