# generated using pymatgen
data_Nd(FeP3)4
_symmetry_space_group_name_H-M   'P 1'
_cell_length_a   6.76454252
_cell_length_b   6.76454252
_cell_length_c   6.76454252
_cell_angle_alpha   109.47122063
_cell_angle_beta   109.47122063
_cell_angle_gamma   109.47122063
_symmetry_Int_Tables_number   1
_chemical_formula_structural   Nd(FeP3)4
_chemical_formula_sum   'Nd1 Fe4 P12'
_cell_volume   238.28318819
_cell_formula_units_Z   1
loop_
 _symmetry_equiv_pos_site_id
 _symmetry_equiv_pos_as_xyz
  1  'x, y, z'
loop_
 _atom_site_type_symbol
 _atom_site_label
 _atom_site_symmetry_multiplicity
 _atom_site_fract_x
 _atom_site_fract_y
 _atom_site_fract_z
 _atom_site_occupancy
  Nd  Nd0  1  0.000000  0.000000  0.000000  1
  Fe  Fe1  1  0.500000  0.000000  0.000000  1
  Fe  Fe2  1  0.000000  0.000000  0.500000  1
  Fe  Fe3  1  0.000000  0.500000  0.000000  1
  Fe  Fe4  1  0.500000  0.500000  0.500000  1
  P  P5  1  0.495270  0.848418  0.646852  1
  P  P6  1  0.201566  0.848418  0.353148  1
  P  P7  1  0.798434  0.151582  0.646852  1
  P  P8  1  0.151582  0.353148  0.504730  1
  P  P9  1  0.353148  0.504730  0.151582  1
  P  P10  1  0.504730  0.151582  0.353148  1
  P  P11  1  0.151582  0.646852  0.798434  1
  P  P12  1  0.353148  0.201566  0.848418  1
  P  P13  1  0.848418  0.646852  0.495270  1
  P  P14  1  0.646852  0.798434  0.151582  1
  P  P15  1  0.848418  0.353148  0.201566  1
  P  P16  1  0.646852  0.495270  0.848418  1
