# generated using pymatgen
data_Mg2GeS4
_symmetry_space_group_name_H-M   'P 1'
_cell_length_a   6.05960271
_cell_length_b   7.52192173
_cell_length_c   12.93075969
_cell_angle_alpha   90.00000000
_cell_angle_beta   90.00000000
_cell_angle_gamma   90.00000000
_symmetry_Int_Tables_number   1
_chemical_formula_structural   Mg2GeS4
_chemical_formula_sum   'Mg8 Ge4 S16'
_cell_volume   589.38218144
_cell_formula_units_Z   4
loop_
 _symmetry_equiv_pos_site_id
 _symmetry_equiv_pos_as_xyz
  1  'x, y, z'
loop_
 _atom_site_type_symbol
 _atom_site_label
 _atom_site_symmetry_multiplicity
 _atom_site_fract_x
 _atom_site_fract_y
 _atom_site_fract_z
 _atom_site_occupancy
  Mg  Mg0  1  0.000000  0.000000  0.000000  1
  Mg  Mg1  1  0.500000  0.000000  0.500000  1
  Mg  Mg2  1  0.000000  0.500000  0.000000  1
  Mg  Mg3  1  0.500000  0.500000  0.500000  1
  Mg  Mg4  1  0.497221  0.750000  0.230621  1
  Mg  Mg5  1  0.997221  0.250000  0.269379  1
  Mg  Mg6  1  0.502779  0.250000  0.769379  1
  Mg  Mg7  1  0.002779  0.750000  0.730621  1
  Ge  Ge8  1  0.913797  0.750000  0.410621  1
  Ge  Ge9  1  0.586203  0.750000  0.910621  1
  Ge  Ge10  1  0.086203  0.250000  0.589379  1
  Ge  Ge11  1  0.413797  0.250000  0.089379  1
  S  S12  1  0.255297  0.250000  0.931635  1
  S  S13  1  0.744703  0.750000  0.068365  1
  S  S14  1  0.244703  0.250000  0.431635  1
  S  S15  1  0.251235  0.482108  0.667089  1
  S  S16  1  0.748765  0.982108  0.332911  1
  S  S17  1  0.248765  0.017892  0.167089  1
  S  S18  1  0.748765  0.517892  0.332911  1
  S  S19  1  0.751235  0.517892  0.832911  1
  S  S20  1  0.251235  0.017892  0.667089  1
  S  S21  1  0.751235  0.982108  0.832911  1
  S  S22  1  0.221344  0.750000  0.906997  1
  S  S23  1  0.248765  0.482108  0.167089  1
  S  S24  1  0.278656  0.750000  0.406997  1
  S  S25  1  0.778656  0.250000  0.093003  1
  S  S26  1  0.721344  0.250000  0.593003  1
  S  S27  1  0.755297  0.750000  0.568365  1
