# generated using pymatgen
data_Ge3Mo5C
_symmetry_space_group_name_H-M   'P 1'
_cell_length_a   7.46969780
_cell_length_b   7.46969780
_cell_length_c   5.34118124
_cell_angle_alpha   90.00000000
_cell_angle_beta   90.00000000
_cell_angle_gamma   120.00000000
_symmetry_Int_Tables_number   1
_chemical_formula_structural   Ge3Mo5C
_chemical_formula_sum   'Ge6 Mo10 C2'
_cell_volume   258.09168381
_cell_formula_units_Z   2
loop_
 _symmetry_equiv_pos_site_id
 _symmetry_equiv_pos_as_xyz
  1  'x, y, z'
loop_
 _atom_site_type_symbol
 _atom_site_label
 _atom_site_symmetry_multiplicity
 _atom_site_fract_x
 _atom_site_fract_y
 _atom_site_fract_z
 _atom_site_occupancy
  Ge  Ge0  1  0.403679  0.000000  0.750000  1
  Ge  Ge1  1  0.403679  0.403679  0.250000  1
  Ge  Ge2  1  0.000000  0.596321  0.250000  1
  Ge  Ge3  1  0.000000  0.403679  0.750000  1
  Ge  Ge4  1  0.596321  0.596321  0.750000  1
  Ge  Ge5  1  0.596321  0.000000  0.250000  1
  Mo  Mo6  1  0.666667  0.333333  0.000000  1
  Mo  Mo7  1  0.333333  0.666667  0.500000  1
  Mo  Mo8  1  0.666667  0.333333  0.500000  1
  Mo  Mo9  1  0.333333  0.666667  0.000000  1
  Mo  Mo10  1  0.774058  0.000000  0.750000  1
  Mo  Mo11  1  0.774058  0.774058  0.250000  1
  Mo  Mo12  1  0.000000  0.225942  0.250000  1
  Mo  Mo13  1  0.000000  0.774058  0.750000  1
  Mo  Mo14  1  0.225942  0.225942  0.750000  1
  Mo  Mo15  1  0.225942  0.000000  0.250000  1
  C  C16  1  0.000000  0.000000  0.500000  1
  C  C17  1  0.000000  0.000000  0.000000  1
