# generated using pymatgen
data_K2Ga2Sb3
_symmetry_space_group_name_H-M   'P 1'
_cell_length_a   15.00686406
_cell_length_b   7.34480323
_cell_length_c   16.89268971
_cell_angle_alpha   90.00000000
_cell_angle_beta   90.51162883
_cell_angle_gamma   90.00000000
_symmetry_Int_Tables_number   1
_chemical_formula_structural   K2Ga2Sb3
_chemical_formula_sum   'K16 Ga16 Sb24'
_cell_volume   1861.87964423
_cell_formula_units_Z   8
loop_
 _symmetry_equiv_pos_site_id
 _symmetry_equiv_pos_as_xyz
  1  'x, y, z'
loop_
 _atom_site_type_symbol
 _atom_site_label
 _atom_site_symmetry_multiplicity
 _atom_site_fract_x
 _atom_site_fract_y
 _atom_site_fract_z
 _atom_site_occupancy
  K  K0  1  0.856471  0.974924  0.007891  1
  K  K1  1  0.143529  0.474924  0.492109  1
  K  K2  1  0.143529  0.025076  0.992109  1
  K  K3  1  0.856471  0.525076  0.507891  1
  K  K4  1  0.347780  0.539730  0.980123  1
  K  K5  1  0.652220  0.039730  0.519877  1
  K  K6  1  0.652220  0.460270  0.019877  1
  K  K7  1  0.347780  0.960270  0.480123  1
  K  K8  1  0.074906  0.525025  0.887210  1
  K  K9  1  0.925094  0.025025  0.612790  1
  K  K10  1  0.925094  0.474975  0.112790  1
  K  K11  1  0.074906  0.974975  0.387210  1
  K  K12  1  0.556423  0.954164  0.108014  1
  K  K13  1  0.443577  0.454164  0.391986  1
  K  K14  1  0.443577  0.045836  0.891986  1
  K  K15  1  0.556423  0.545836  0.608014  1
  Ga  Ga16  1  0.314395  0.284101  0.169814  1
  Ga  Ga17  1  0.685605  0.784101  0.330186  1
  Ga  Ga18  1  0.685605  0.715899  0.830186  1
  Ga  Ga19  1  0.314395  0.215899  0.669814  1
  Ga  Ga20  1  0.909315  0.791224  0.269888  1
  Ga  Ga21  1  0.090685  0.291224  0.230112  1
  Ga  Ga22  1  0.090685  0.208776  0.730112  1
  Ga  Ga23  1  0.909315  0.708776  0.769888  1
  Ga  Ga24  1  0.182284  0.769823  0.176037  1
  Ga  Ga25  1  0.817716  0.269823  0.323963  1
  Ga  Ga26  1  0.817716  0.230177  0.823963  1
  Ga  Ga27  1  0.182284  0.730177  0.676037  1
  Ga  Ga28  1  0.408029  0.765473  0.239943  1
  Ga  Ga29  1  0.591971  0.265473  0.260057  1
  Ga  Ga30  1  0.591971  0.234527  0.760057  1
  Ga  Ga31  1  0.408029  0.734527  0.739943  1
  Sb  Sb32  1  0.027504  0.966820  0.173427  1
  Sb  Sb33  1  0.972496  0.466820  0.326573  1
  Sb  Sb34  1  0.972496  0.033180  0.826573  1
  Sb  Sb35  1  0.027504  0.533180  0.673427  1
  Sb  Sb36  1  0.163581  0.450882  0.099285  1
  Sb  Sb37  1  0.836419  0.950882  0.400715  1
  Sb  Sb38  1  0.836419  0.549118  0.900715  1
  Sb  Sb39  1  0.163581  0.049118  0.599285  1
  Sb  Sb40  1  0.329359  0.942549  0.113759  1
  Sb  Sb41  1  0.670641  0.442549  0.386241  1
  Sb  Sb42  1  0.670641  0.057451  0.886241  1
  Sb  Sb43  1  0.329359  0.557451  0.613759  1
  Sb  Sb44  1  0.252133  0.818144  0.821620  1
  Sb  Sb45  1  0.747867  0.318144  0.678380  1
  Sb  Sb46  1  0.747867  0.181856  0.178380  1
  Sb  Sb47  1  0.252133  0.681856  0.321620  1
  Sb  Sb48  1  0.474733  0.463364  0.165275  1
  Sb  Sb49  1  0.525267  0.963364  0.334725  1
  Sb  Sb50  1  0.525267  0.536636  0.834725  1
  Sb  Sb51  1  0.474733  0.036636  0.665275  1
  Sb  Sb52  1  0.245865  0.211911  0.817946  1
  Sb  Sb53  1  0.754135  0.711911  0.682054  1
  Sb  Sb54  1  0.754135  0.788089  0.182054  1
  Sb  Sb55  1  0.245865  0.288089  0.317946  1
