# generated using pymatgen
data_Co2P
_symmetry_space_group_name_H-M   'P 1'
_cell_length_a   5.72631795
_cell_length_b   5.72631795
_cell_length_c   3.40791584
_cell_angle_alpha   90.00000000
_cell_angle_beta   90.00000000
_cell_angle_gamma   120.00000000
_symmetry_Int_Tables_number   1
_chemical_formula_structural   Co2P
_chemical_formula_sum   'Co6 P3'
_cell_volume   96.77661107
_cell_formula_units_Z   3
loop_
 _symmetry_equiv_pos_site_id
 _symmetry_equiv_pos_as_xyz
  1  'x, y, z'
loop_
 _atom_site_type_symbol
 _atom_site_label
 _atom_site_symmetry_multiplicity
 _atom_site_fract_x
 _atom_site_fract_y
 _atom_site_fract_z
 _atom_site_occupancy
  Co  Co0  1  0.601799  0.000000  0.500000  1
  Co  Co1  1  0.398201  0.398201  0.500000  1
  Co  Co2  1  0.000000  0.601799  0.500000  1
  Co  Co3  1  0.000000  0.258706  0.000000  1
  Co  Co4  1  0.741294  0.741294  0.000000  1
  Co  Co5  1  0.258706  0.000000  0.000000  1
  P  P6  1  0.000000  0.000000  0.500000  1
  P  P7  1  0.666667  0.333333  0.000000  1
  P  P8  1  0.333333  0.666667  0.000000  1
