# generated using pymatgen
data_CsSm2CuSe4
_symmetry_space_group_name_H-M   'P 1'
_cell_length_a   7.73186796
_cell_length_b   7.73186796
_cell_length_c   14.67989493
_cell_angle_alpha   90.00000000
_cell_angle_beta   90.00000000
_cell_angle_gamma   148.22368512
_symmetry_Int_Tables_number   1
_chemical_formula_structural   CsSm2CuSe4
_chemical_formula_sum   'Cs2 Sm4 Cu2 Se8'
_cell_volume   462.14292033
_cell_formula_units_Z   2
loop_
 _symmetry_equiv_pos_site_id
 _symmetry_equiv_pos_as_xyz
  1  'x, y, z'
loop_
 _atom_site_type_symbol
 _atom_site_label
 _atom_site_symmetry_multiplicity
 _atom_site_fract_x
 _atom_site_fract_y
 _atom_site_fract_z
 _atom_site_occupancy
  Cs  Cs0  1  0.893195  0.106805  0.750000  1
  Cs  Cs1  1  0.106805  0.893195  0.250000  1
  Sm  Sm2  1  0.365906  0.634094  0.061992  1
  Sm  Sm3  1  0.634094  0.365906  0.938008  1
  Sm  Sm4  1  0.365906  0.634094  0.438008  1
  Sm  Sm5  1  0.634094  0.365906  0.561992  1
  Cu  Cu6  1  0.165777  0.834223  0.750000  1
  Cu  Cu7  1  0.834223  0.165777  0.250000  1
  Se  Se8  1  0.421940  0.578060  0.250000  1
  Se  Se9  1  0.578060  0.421940  0.750000  1
  Se  Se10  1  0.741403  0.258597  0.108906  1
  Se  Se11  1  0.258597  0.741403  0.891094  1
  Se  Se12  1  0.000000  0.000000  0.500000  1
  Se  Se13  1  0.000000  0.000000  0.000000  1
  Se  Se14  1  0.741403  0.258597  0.391094  1
  Se  Se15  1  0.258597  0.741403  0.608906  1
