# generated using pymatgen
data_Ba3Sn5
_symmetry_space_group_name_H-M   'P 1'
_cell_length_a   7.20677109
_cell_length_b   7.20677109
_cell_length_c   11.31927319
_cell_angle_alpha   90.00000000
_cell_angle_beta   90.00000000
_cell_angle_gamma   101.65379047
_symmetry_Int_Tables_number   1
_chemical_formula_structural   Ba3Sn5
_chemical_formula_sum   'Ba6 Sn10'
_cell_volume   575.77646313
_cell_formula_units_Z   2
loop_
 _symmetry_equiv_pos_site_id
 _symmetry_equiv_pos_as_xyz
  1  'x, y, z'
loop_
 _atom_site_type_symbol
 _atom_site_label
 _atom_site_symmetry_multiplicity
 _atom_site_fract_x
 _atom_site_fract_y
 _atom_site_fract_z
 _atom_site_occupancy
  Ba  Ba0  1  0.294663  0.705337  0.500000  1
  Ba  Ba1  1  0.705337  0.294663  0.000000  1
  Ba  Ba2  1  0.705337  0.294663  0.500000  1
  Ba  Ba3  1  0.294663  0.705337  0.000000  1
  Ba  Ba4  1  0.850399  0.850399  0.750000  1
  Ba  Ba5  1  0.149601  0.149601  0.250000  1
  Sn  Sn6  1  0.806878  0.806878  0.439642  1
  Sn  Sn7  1  0.193122  0.193122  0.939642  1
  Sn  Sn8  1  0.806878  0.806878  0.060358  1
  Sn  Sn9  1  0.193122  0.193122  0.560358  1
  Sn  Sn10  1  0.403774  0.019779  0.750000  1
  Sn  Sn11  1  0.596226  0.980221  0.250000  1
  Sn  Sn12  1  0.550657  0.550657  0.250000  1
  Sn  Sn13  1  0.449343  0.449343  0.750000  1
  Sn  Sn14  1  0.980221  0.596226  0.250000  1
  Sn  Sn15  1  0.019779  0.403774  0.750000  1
