# generated using pymatgen
data_Pr2B5
_symmetry_space_group_name_H-M   'P 1'
_cell_length_a   8.48855358
_cell_length_b   8.48855358
_cell_length_c   7.36122215
_cell_angle_alpha   72.49905130
_cell_angle_beta   107.50094870
_cell_angle_gamma   128.79151605
_symmetry_Int_Tables_number   1
_chemical_formula_structural   Pr2B5
_chemical_formula_sum   'Pr8 B20'
_cell_volume   389.75944567
_cell_formula_units_Z   4
loop_
 _symmetry_equiv_pos_site_id
 _symmetry_equiv_pos_as_xyz
  1  'x, y, z'
loop_
 _atom_site_type_symbol
 _atom_site_label
 _atom_site_symmetry_multiplicity
 _atom_site_fract_x
 _atom_site_fract_y
 _atom_site_fract_z
 _atom_site_occupancy
  Pr  Pr0  1  0.943717  0.180937  0.777704  1
  Pr  Pr1  1  0.180937  0.943717  0.722296  1
  Pr  Pr2  1  0.056283  0.819063  0.222296  1
  Pr  Pr3  1  0.819063  0.056283  0.277704  1
  Pr  Pr4  1  0.451798  0.689672  0.904040  1
  Pr  Pr5  1  0.689672  0.451798  0.595960  1
  Pr  Pr6  1  0.548202  0.310328  0.095960  1
  Pr  Pr7  1  0.310328  0.548202  0.404040  1
  B  B8  1  0.797020  0.710556  0.849998  1
  B  B9  1  0.710556  0.797020  0.650002  1
  B  B10  1  0.202980  0.289444  0.150002  1
  B  B11  1  0.289444  0.202980  0.349998  1
  B  B12  1  0.408268  0.906853  0.092780  1
  B  B13  1  0.906853  0.408268  0.407220  1
  B  B14  1  0.591732  0.093147  0.907220  1
  B  B15  1  0.093147  0.591732  0.592780  1
  B  B16  1  0.959093  0.461339  0.170234  1
  B  B17  1  0.461339  0.959093  0.329766  1
  B  B18  1  0.040907  0.538661  0.829766  1
  B  B19  1  0.538661  0.040907  0.670234  1
  B  B20  1  0.828730  0.328960  0.959894  1
  B  B21  1  0.328960  0.828730  0.540106  1
  B  B22  1  0.171270  0.671040  0.040106  1
  B  B23  1  0.671040  0.171270  0.459894  1
  B  B24  1  0.089334  0.409862  0.061572  1
  B  B25  1  0.409862  0.089334  0.438428  1
  B  B26  1  0.910666  0.590138  0.938428  1
  B  B27  1  0.590138  0.910666  0.561572  1
