# generated using pymatgen
data_Er2Co3Ge5
_symmetry_space_group_name_H-M   'P 1'
_cell_length_a   8.04383313
_cell_length_b   8.04383313
_cell_length_c   5.69081876
_cell_angle_alpha   70.53419151
_cell_angle_beta   109.46580849
_cell_angle_gamma   86.20573136
_symmetry_Int_Tables_number   1
_chemical_formula_structural   Er2Co3Ge5
_chemical_formula_sum   'Er4 Co6 Ge10'
_cell_volume   320.75264319
_cell_formula_units_Z   2
loop_
 _symmetry_equiv_pos_site_id
 _symmetry_equiv_pos_as_xyz
  1  'x, y, z'
loop_
 _atom_site_type_symbol
 _atom_site_label
 _atom_site_symmetry_multiplicity
 _atom_site_fract_x
 _atom_site_fract_y
 _atom_site_fract_z
 _atom_site_occupancy
  Er  Er0  1  0.409439  0.872632  0.267641  1
  Er  Er1  1  0.127368  0.590561  0.767641  1
  Er  Er2  1  0.590561  0.127368  0.732359  1
  Er  Er3  1  0.872632  0.409439  0.232359  1
  Co  Co4  1  0.002738  0.002738  0.250000  1
  Co  Co5  1  0.997262  0.997262  0.750000  1
  Co  Co6  1  0.738626  0.543833  0.619690  1
  Co  Co7  1  0.456167  0.261374  0.119690  1
  Co  Co8  1  0.261374  0.456167  0.380310  1
  Co  Co9  1  0.543833  0.738626  0.880310  1
  Ge  Ge10  1  0.261933  0.919444  0.673582  1
  Ge  Ge11  1  0.919444  0.261933  0.826418  1
  Ge  Ge12  1  0.738067  0.080556  0.326418  1
  Ge  Ge13  1  0.080556  0.738067  0.173582  1
  Ge  Ge14  1  0.212749  0.212749  0.250000  1
  Ge  Ge15  1  0.787251  0.787251  0.750000  1
  Ge  Ge16  1  0.509238  0.509238  0.250000  1
  Ge  Ge17  1  0.490762  0.490762  0.750000  1
  Ge  Ge18  1  0.774427  0.774427  0.250000  1
  Ge  Ge19  1  0.225573  0.225573  0.750000  1
