# generated using pymatgen
data_Ho3Al5O12
_symmetry_space_group_name_H-M   'P 1'
_cell_length_a   10.46095275
_cell_length_b   10.46095275
_cell_length_c   10.46095275
_cell_angle_alpha   109.47122063
_cell_angle_beta   109.47122063
_cell_angle_gamma   109.47122063
_symmetry_Int_Tables_number   1
_chemical_formula_structural   Ho3Al5O12
_chemical_formula_sum   'Ho12 Al20 O48'
_cell_volume   881.23518777
_cell_formula_units_Z   4
loop_
 _symmetry_equiv_pos_site_id
 _symmetry_equiv_pos_as_xyz
  1  'x, y, z'
loop_
 _atom_site_type_symbol
 _atom_site_label
 _atom_site_symmetry_multiplicity
 _atom_site_fract_x
 _atom_site_fract_y
 _atom_site_fract_z
 _atom_site_occupancy
  Ho  Ho0  1  0.250000  0.875000  0.625000  1
  Ho  Ho1  1  0.875000  0.625000  0.250000  1
  Ho  Ho2  1  0.625000  0.875000  0.750000  1
  Ho  Ho3  1  0.875000  0.750000  0.625000  1
  Ho  Ho4  1  0.625000  0.250000  0.875000  1
  Ho  Ho5  1  0.750000  0.625000  0.875000  1
  Ho  Ho6  1  0.750000  0.125000  0.375000  1
  Ho  Ho7  1  0.125000  0.375000  0.750000  1
  Ho  Ho8  1  0.375000  0.125000  0.250000  1
  Ho  Ho9  1  0.125000  0.250000  0.375000  1
  Ho  Ho10  1  0.375000  0.750000  0.125000  1
  Ho  Ho11  1  0.250000  0.375000  0.125000  1
  Al  Al12  1  0.250000  0.125000  0.875000  1
  Al  Al13  1  0.750000  0.875000  0.125000  1
  Al  Al14  1  0.375000  0.250000  0.625000  1
  Al  Al15  1  0.625000  0.375000  0.250000  1
  Al  Al16  1  0.125000  0.750000  0.875000  1
  Al  Al17  1  0.875000  0.125000  0.750000  1
  Al  Al18  1  0.750000  0.375000  0.625000  1
  Al  Al19  1  0.375000  0.625000  0.750000  1
  Al  Al20  1  0.125000  0.875000  0.250000  1
  Al  Al21  1  0.875000  0.250000  0.125000  1
  Al  Al22  1  0.625000  0.750000  0.375000  1
  Al  Al23  1  0.250000  0.625000  0.375000  1
  Al  Al24  1  0.500000  0.500000  0.500000  1
  Al  Al25  1  0.500000  0.500000  0.000000  1
  Al  Al26  1  0.500000  0.000000  0.500000  1
  Al  Al27  1  1.000000  0.500000  0.500000  1
  Al  Al28  1  0.500000  0.000000  0.000000  1
  Al  Al29  1  0.000000  0.000000  0.500000  1
  Al  Al30  1  0.000000  0.500000  0.000000  1
  Al  Al31  1  0.000000  0.000000  0.000000  1
  O  O32  1  0.979089  0.679305  0.098270  1
  O  O33  1  0.820695  0.799785  0.418965  1
  O  O34  1  0.401730  0.081035  0.880819  1
  O  O35  1  0.520911  0.619181  0.700215  1
  O  O36  1  0.520911  0.401730  0.820695  1
  O  O37  1  0.619181  0.700215  0.520911  1
  O  O38  1  0.081035  0.700215  0.679305  1
  O  O39  1  0.700215  0.520911  0.619181  1
  O  O40  1  0.418965  0.098270  0.619181  1
  O  O41  1  0.799785  0.880819  0.979089  1
  O  O42  1  0.880819  0.979089  0.799785  1
  O  O43  1  0.820695  0.520911  0.401730  1
  O  O44  1  0.700215  0.679305  0.081035  1
  O  O45  1  0.619181  0.418965  0.098270  1
  O  O46  1  0.401730  0.820695  0.520911  1
  O  O47  1  0.679305  0.081035  0.700215  1
  O  O48  1  0.098270  0.619181  0.418965  1
  O  O49  1  0.418965  0.820695  0.799785  1
  O  O50  1  0.081035  0.880819  0.401730  1
  O  O51  1  0.581035  0.901730  0.380819  1
  O  O52  1  0.880819  0.401730  0.081035  1
  O  O53  1  0.098270  0.979089  0.679305  1
  O  O54  1  0.799785  0.418965  0.820695  1
  O  O55  1  0.979089  0.799785  0.880819  1
  O  O56  1  0.020911  0.320695  0.901730  1
  O  O57  1  0.179305  0.200215  0.581035  1
  O  O58  1  0.598270  0.918965  0.119181  1
  O  O59  1  0.479089  0.380819  0.299785  1
  O  O60  1  0.479089  0.598270  0.179305  1
  O  O61  1  0.380819  0.299785  0.479089  1
  O  O62  1  0.918965  0.299785  0.320695  1
  O  O63  1  0.299785  0.479089  0.380819  1
  O  O64  1  0.020911  0.200215  0.119181  1
  O  O65  1  0.200215  0.581035  0.179305  1
  O  O66  1  0.901730  0.020911  0.320695  1
  O  O67  1  0.320695  0.901730  0.020911  1
  O  O68  1  0.119181  0.598270  0.918965  1
  O  O69  1  0.918965  0.119181  0.598270  1
  O  O70  1  0.581035  0.179305  0.200215  1
  O  O71  1  0.901730  0.380819  0.581035  1
  O  O72  1  0.320695  0.918965  0.299785  1
  O  O73  1  0.598270  0.179305  0.479089  1
  O  O74  1  0.380819  0.581035  0.901730  1
  O  O75  1  0.299785  0.320695  0.918965  1
  O  O76  1  0.179305  0.479089  0.598270  1
  O  O77  1  0.119181  0.020911  0.200215  1
  O  O78  1  0.200215  0.119181  0.020911  1
  O  O79  1  0.679305  0.098270  0.979089  1
