# generated using pymatgen
data_Mg(CoGe)6
_symmetry_space_group_name_H-M   'P 1'
_cell_length_a   5.07175622
_cell_length_b   5.07175622
_cell_length_c   7.71801216
_cell_angle_alpha   90.00000000
_cell_angle_beta   90.00000000
_cell_angle_gamma   120.00000000
_symmetry_Int_Tables_number   1
_chemical_formula_structural   Mg(CoGe)6
_chemical_formula_sum   'Mg1 Co6 Ge6'
_cell_volume   171.93046244
_cell_formula_units_Z   1
loop_
 _symmetry_equiv_pos_site_id
 _symmetry_equiv_pos_as_xyz
  1  'x, y, z'
loop_
 _atom_site_type_symbol
 _atom_site_label
 _atom_site_symmetry_multiplicity
 _atom_site_fract_x
 _atom_site_fract_y
 _atom_site_fract_z
 _atom_site_occupancy
  Mg  Mg0  1  0.000000  0.000000  0.000000  1
  Co  Co1  1  0.500000  0.000000  0.750070  1
  Co  Co2  1  0.000000  0.500000  0.750070  1
  Co  Co3  1  0.500000  0.500000  0.750070  1
  Co  Co4  1  0.000000  0.500000  0.249930  1
  Co  Co5  1  0.500000  0.000000  0.249930  1
  Co  Co6  1  0.500000  0.500000  0.249930  1
  Ge  Ge7  1  0.666667  0.333333  0.500000  1
  Ge  Ge8  1  0.333333  0.666667  0.500000  1
  Ge  Ge9  1  0.666667  0.333333  0.000000  1
  Ge  Ge10  1  0.000000  0.000000  0.337498  1
  Ge  Ge11  1  0.000000  0.000000  0.662502  1
  Ge  Ge12  1  0.333333  0.666667  0.000000  1
