# generated using pymatgen
data_MoRh
_symmetry_space_group_name_H-M   'P 1'
_cell_length_a   2.76199198
_cell_length_b   4.44773099
_cell_length_c   4.84785846
_cell_angle_alpha   90.00000000
_cell_angle_beta   90.00000000
_cell_angle_gamma   90.00000000
_symmetry_Int_Tables_number   1
_chemical_formula_structural   MoRh
_chemical_formula_sum   'Mo2 Rh2'
_cell_volume   59.55398906
_cell_formula_units_Z   2
loop_
 _symmetry_equiv_pos_site_id
 _symmetry_equiv_pos_as_xyz
  1  'x, y, z'
loop_
 _atom_site_type_symbol
 _atom_site_label
 _atom_site_symmetry_multiplicity
 _atom_site_fract_x
 _atom_site_fract_y
 _atom_site_fract_z
 _atom_site_occupancy
  Mo  Mo0  1  0.000000  0.750000  0.170935  1
  Mo  Mo1  1  0.000000  0.250000  0.829065  1
  Rh  Rh2  1  0.500000  0.750000  0.673804  1
  Rh  Rh3  1  0.500000  0.250000  0.326196  1
