# generated using pymatgen
data_SrFe12O19
_symmetry_space_group_name_H-M   'P 1'
_cell_length_a   5.99523435
_cell_length_b   5.99523435
_cell_length_c   23.34821490
_cell_angle_alpha   90.00000000
_cell_angle_beta   90.00000000
_cell_angle_gamma   120.00000000
_symmetry_Int_Tables_number   1
_chemical_formula_structural   SrFe12O19
_chemical_formula_sum   'Sr2 Fe24 O38'
_cell_volume   726.76941464
_cell_formula_units_Z   2
loop_
 _symmetry_equiv_pos_site_id
 _symmetry_equiv_pos_as_xyz
  1  'x, y, z'
loop_
 _atom_site_type_symbol
 _atom_site_label
 _atom_site_symmetry_multiplicity
 _atom_site_fract_x
 _atom_site_fract_y
 _atom_site_fract_z
 _atom_site_occupancy
  Sr  Sr0  1  0.333333  0.666667  0.750000  1
  Sr  Sr1  1  0.666667  0.333333  0.250000  1
  Fe  Fe2  1  0.000000  0.000000  0.500000  1
  Fe  Fe3  1  0.000000  0.000000  0.000000  1
  Fe  Fe4  1  0.000000  0.000000  0.750000  1
  Fe  Fe5  1  0.000000  0.000000  0.250000  1
  Fe  Fe6  1  0.666667  0.333333  0.527485  1
  Fe  Fe7  1  0.333333  0.666667  0.472515  1
  Fe  Fe8  1  0.333333  0.666667  0.027485  1
  Fe  Fe9  1  0.666667  0.333333  0.972515  1
  Fe  Fe10  1  0.666667  0.333333  0.691043  1
  Fe  Fe11  1  0.333333  0.666667  0.308957  1
  Fe  Fe12  1  0.333333  0.666667  0.191043  1
  Fe  Fe13  1  0.666667  0.333333  0.808957  1
  Fe  Fe14  1  0.831846  0.663692  0.390326  1
  Fe  Fe15  1  0.831846  0.168154  0.390326  1
  Fe  Fe16  1  0.336308  0.168154  0.390326  1
  Fe  Fe17  1  0.168154  0.336308  0.609674  1
  Fe  Fe18  1  0.168154  0.831846  0.609674  1
  Fe  Fe19  1  0.663692  0.831846  0.609674  1
  Fe  Fe20  1  0.168154  0.336308  0.890326  1
  Fe  Fe21  1  0.168154  0.831846  0.890326  1
  Fe  Fe22  1  0.663692  0.831846  0.890326  1
  Fe  Fe23  1  0.831846  0.663692  0.109674  1
  Fe  Fe24  1  0.831846  0.168154  0.109674  1
  Fe  Fe25  1  0.336308  0.168154  0.109674  1
  O  O26  1  0.000000  0.000000  0.652738  1
  O  O27  1  0.000000  0.000000  0.347262  1
  O  O28  1  0.000000  0.000000  0.152738  1
  O  O29  1  0.000000  0.000000  0.847262  1
  O  O30  1  0.666667  0.333333  0.444284  1
  O  O31  1  0.333333  0.666667  0.555716  1
  O  O32  1  0.333333  0.666667  0.944284  1
  O  O33  1  0.666667  0.333333  0.055716  1
  O  O34  1  0.817135  0.634270  0.750000  1
  O  O35  1  0.817135  0.182865  0.750000  1
  O  O36  1  0.365730  0.182865  0.750000  1
  O  O37  1  0.182865  0.365730  0.250000  1
  O  O38  1  0.182865  0.817135  0.250000  1
  O  O39  1  0.634270  0.817135  0.250000  1
  O  O40  1  0.844667  0.689335  0.552953  1
  O  O41  1  0.844667  0.155333  0.552953  1
  O  O42  1  0.310665  0.155333  0.552953  1
  O  O43  1  0.155333  0.310665  0.447047  1
  O  O44  1  0.155333  0.844667  0.447047  1
  O  O45  1  0.689335  0.844667  0.447047  1
  O  O46  1  0.155333  0.310665  0.052953  1
  O  O47  1  0.155333  0.844667  0.052953  1
  O  O48  1  0.689335  0.844667  0.052953  1
  O  O49  1  0.844667  0.689335  0.947047  1
  O  O50  1  0.844667  0.155333  0.947047  1
  O  O51  1  0.310665  0.155333  0.947047  1
  O  O52  1  0.494214  0.988428  0.651384  1
  O  O53  1  0.494214  0.505786  0.651384  1
  O  O54  1  0.011572  0.505786  0.651384  1
  O  O55  1  0.505786  0.011572  0.348616  1
  O  O56  1  0.505786  0.494214  0.348616  1
  O  O57  1  0.988428  0.494214  0.348616  1
  O  O58  1  0.505786  0.011572  0.151384  1
  O  O59  1  0.505786  0.494214  0.151384  1
  O  O60  1  0.988428  0.494214  0.151384  1
  O  O61  1  0.494214  0.988428  0.848616  1
  O  O62  1  0.494214  0.505786  0.848616  1
  O  O63  1  0.011572  0.505786  0.848616  1
