# generated using pymatgen
data_Hf2CuGe4
_symmetry_space_group_name_H-M   'P 1'
_cell_length_a   16.68011316
_cell_length_b   16.68011316
_cell_length_c   3.79489250
_cell_angle_alpha   90.00000000
_cell_angle_beta   90.00000000
_cell_angle_gamma   166.84956069
_symmetry_Int_Tables_number   1
_chemical_formula_structural   Hf2CuGe4
_chemical_formula_sum   'Hf4 Cu2 Ge8'
_cell_volume   240.21236601
_cell_formula_units_Z   2
loop_
 _symmetry_equiv_pos_site_id
 _symmetry_equiv_pos_as_xyz
  1  'x, y, z'
loop_
 _atom_site_type_symbol
 _atom_site_label
 _atom_site_symmetry_multiplicity
 _atom_site_fract_x
 _atom_site_fract_y
 _atom_site_fract_z
 _atom_site_occupancy
  Hf  Hf0  1  0.822254  0.177746  0.250000  1
  Hf  Hf1  1  0.177746  0.822254  0.750000  1
  Hf  Hf2  1  0.547344  0.452656  0.250000  1
  Hf  Hf3  1  0.452656  0.547344  0.750000  1
  Cu  Cu4  1  0.750107  0.249893  0.750000  1
  Cu  Cu5  1  0.249893  0.750107  0.250000  1
  Ge  Ge6  1  0.386735  0.613265  0.250000  1
  Ge  Ge7  1  0.613265  0.386735  0.750000  1
  Ge  Ge8  1  0.701400  0.298600  0.250000  1
  Ge  Ge9  1  0.298600  0.701400  0.750000  1
  Ge  Ge10  1  0.027892  0.972108  0.750000  1
  Ge  Ge11  1  0.972108  0.027892  0.250000  1
  Ge  Ge12  1  0.887058  0.112942  0.750000  1
  Ge  Ge13  1  0.112942  0.887058  0.250000  1
