# generated using pymatgen
data_KHfPdF7
_symmetry_space_group_name_H-M   'P 1'
_cell_length_a   6.48833958
_cell_length_b   8.10466302
_cell_length_c   11.55476853
_cell_angle_alpha   90.00000000
_cell_angle_beta   90.00000000
_cell_angle_gamma   90.00000000
_symmetry_Int_Tables_number   1
_chemical_formula_structural   KHfPdF7
_chemical_formula_sum   'K4 Hf4 Pd4 F28'
_cell_volume   607.61681462
_cell_formula_units_Z   4
loop_
 _symmetry_equiv_pos_site_id
 _symmetry_equiv_pos_as_xyz
  1  'x, y, z'
loop_
 _atom_site_type_symbol
 _atom_site_label
 _atom_site_symmetry_multiplicity
 _atom_site_fract_x
 _atom_site_fract_y
 _atom_site_fract_z
 _atom_site_occupancy
  K  K0  1  0.267965  0.000000  0.250000  1
  K  K1  1  0.232035  0.500000  0.250000  1
  K  K2  1  0.732035  0.000000  0.750000  1
  K  K3  1  0.767965  0.500000  0.750000  1
  Hf  Hf4  1  0.750000  0.750000  0.407448  1
  Hf  Hf5  1  0.750000  0.250000  0.092552  1
  Hf  Hf6  1  0.250000  0.250000  0.592552  1
  Hf  Hf7  1  0.250000  0.750000  0.907448  1
  Pd  Pd8  1  0.250000  0.750000  0.598692  1
  Pd  Pd9  1  0.250000  0.250000  0.901308  1
  Pd  Pd10  1  0.750000  0.250000  0.401308  1
  Pd  Pd11  1  0.750000  0.750000  0.098692  1
  F  F12  1  0.950855  0.181476  0.546961  1
  F  F13  1  0.950855  0.818524  0.953039  1
  F  F14  1  0.549145  0.681476  0.953039  1
  F  F15  1  0.549145  0.318524  0.546961  1
  F  F16  1  0.049145  0.818524  0.453039  1
  F  F17  1  0.049145  0.181476  0.046961  1
  F  F18  1  0.450855  0.318524  0.046961  1
  F  F19  1  0.450855  0.681476  0.453039  1
  F  F20  1  0.250000  0.750000  0.080356  1
  F  F21  1  0.250000  0.250000  0.419644  1
  F  F22  1  0.750000  0.250000  0.919644  1
  F  F23  1  0.750000  0.750000  0.580356  1
  F  F24  1  0.932782  0.791911  0.255826  1
  F  F25  1  0.932782  0.208089  0.244174  1
  F  F26  1  0.567218  0.291911  0.244174  1
  F  F27  1  0.567218  0.708089  0.255826  1
  F  F28  1  0.067218  0.208089  0.744174  1
  F  F29  1  0.067218  0.791911  0.755826  1
  F  F30  1  0.432782  0.708089  0.755826  1
  F  F31  1  0.432782  0.291911  0.744174  1
  F  F32  1  0.651274  0.013553  0.104777  1
  F  F33  1  0.651274  0.986447  0.395223  1
  F  F34  1  0.848726  0.513553  0.395223  1
  F  F35  1  0.848726  0.486447  0.104777  1
  F  F36  1  0.348726  0.986447  0.895223  1
  F  F37  1  0.348726  0.013553  0.604777  1
  F  F38  1  0.151274  0.486447  0.604777  1
  F  F39  1  0.151274  0.513553  0.895223  1
