# generated using pymatgen
data_Ba2Zn
_symmetry_space_group_name_H-M   'P 1'
_cell_length_a   8.11500418
_cell_length_b   8.11500418
_cell_length_c   8.11500418
_cell_angle_alpha   150.13630107
_cell_angle_beta   150.13630107
_cell_angle_gamma   42.74136464
_symmetry_Int_Tables_number   1
_chemical_formula_structural   Ba2Zn
_chemical_formula_sum   'Ba2 Zn1'
_cell_volume   132.16500903
_cell_formula_units_Z   1
loop_
 _symmetry_equiv_pos_site_id
 _symmetry_equiv_pos_as_xyz
  1  'x, y, z'
loop_
 _atom_site_type_symbol
 _atom_site_label
 _atom_site_symmetry_multiplicity
 _atom_site_fract_x
 _atom_site_fract_y
 _atom_site_fract_z
 _atom_site_occupancy
  Ba  Ba0  1  0.629142  0.629142  0.000000  1
  Ba  Ba1  1  0.370858  0.370858  0.000000  1
  Zn  Zn2  1  0.000000  0.000000  0.000000  1
