# generated using pymatgen
data_Na2CoP2O7
_symmetry_space_group_name_H-M   'P 1'
_cell_length_a   6.54630170
_cell_length_b   9.55282400
_cell_length_c   11.06920705
_cell_angle_alpha   115.32074159
_cell_angle_beta   85.92540243
_cell_angle_gamma   106.57192402
_symmetry_Int_Tables_number   1
_chemical_formula_structural   Na2CoP2O7
_chemical_formula_sum   'Na8 Co4 P8 O28'
_cell_volume   598.68930625
_cell_formula_units_Z   4
loop_
 _symmetry_equiv_pos_site_id
 _symmetry_equiv_pos_as_xyz
  1  'x, y, z'
loop_
 _atom_site_type_symbol
 _atom_site_label
 _atom_site_symmetry_multiplicity
 _atom_site_fract_x
 _atom_site_fract_y
 _atom_site_fract_z
 _atom_site_occupancy
  Na  Na0  1  0.220292  0.038563  0.109597  1
  Na  Na1  1  0.397357  0.527498  0.349554  1
  Na  Na2  1  0.965142  0.291224  0.521809  1
  Na  Na3  1  0.155908  0.434430  0.053554  1
  Na  Na4  1  0.606485  0.540305  0.965940  1
  Na  Na5  1  0.032474  0.706340  0.477855  1
  Na  Na6  1  0.611262  0.473432  0.650757  1
  Na  Na7  1  0.826067  0.950694  0.903035  1
  Co  Co8  1  0.719298  0.885508  0.219045  1
  Co  Co9  1  0.280116  0.111614  0.776024  1
  Co  Co10  1  0.356908  0.764935  0.734347  1
  Co  Co11  1  0.636949  0.233569  0.259711  1
  P  P12  1  0.880466  0.860703  0.684213  1
  P  P13  1  0.117218  0.135300  0.309917  1
  P  P14  1  0.078401  0.387228  0.790947  1
  P  P15  1  0.576830  0.840141  0.456545  1
  P  P16  1  0.292878  0.768682  0.037190  1
  P  P17  1  0.920572  0.608160  0.208371  1
  P  P18  1  0.420694  0.158284  0.538662  1
  P  P19  1  0.701243  0.224614  0.958835  1
  O  O20  1  0.773182  0.068257  0.033092  1
  O  O21  1  0.278313  0.506807  0.814363  1
  O  O22  1  0.915544  0.368736  0.901681  1
  O  O23  1  0.692285  0.762108  0.775897  1
  O  O24  1  0.032371  0.760857  0.694555  1
  O  O25  1  0.983818  0.017693  0.700318  1
  O  O26  1  0.717189  0.487814  0.191241  1
  O  O27  1  0.641606  0.706971  0.437476  1
  O  O28  1  0.963638  0.443948  0.653185  1
  O  O29  1  0.216915  0.082566  0.462510  1
  O  O30  1  0.378883  0.712456  0.950513  1
  O  O31  1  0.114018  0.218636  0.841324  1
  O  O32  1  0.556119  0.975842  0.315910  1
  O  O33  1  0.385666  0.775867  0.541920  1
  O  O34  1  0.041392  0.553568  0.344348  1
  O  O35  1  0.965174  0.240476  0.288024  1
  O  O36  1  0.222193  0.925197  0.960957  1
  O  O37  1  0.360759  0.292501  0.558680  1
  O  O38  1  0.612133  0.272442  0.050073  1
  O  O39  1  0.611270  0.219485  0.453398  1
  O  O40  1  0.437088  0.020379  0.678141  1
  O  O41  1  0.075990  0.626209  0.094567  1
  O  O42  1  0.561996  0.231790  0.831558  1
  O  O43  1  0.886129  0.777412  0.156692  1
  O  O44  1  0.432650  0.765422  0.163618  1
  O  O45  1  0.304989  0.233911  0.217068  1
  O  O46  1  0.776437  0.920699  0.531094  1
  O  O47  1  0.015891  0.976629  0.296988  1
