# generated using pymatgen
data_Sr2Nb2O7
_symmetry_space_group_name_H-M   'P 1'
_cell_length_a   5.80171801
_cell_length_b   7.97565209
_cell_length_c   27.35209340
_cell_angle_alpha   90.00000000
_cell_angle_beta   90.00000000
_cell_angle_gamma   90.00000000
_symmetry_Int_Tables_number   1
_chemical_formula_structural   Sr2Nb2O7
_chemical_formula_sum   'Sr16 Nb16 O56'
_cell_volume   1265.64931439
_cell_formula_units_Z   8
loop_
 _symmetry_equiv_pos_site_id
 _symmetry_equiv_pos_as_xyz
  1  'x, y, z'
loop_
 _atom_site_type_symbol
 _atom_site_label
 _atom_site_symmetry_multiplicity
 _atom_site_fract_x
 _atom_site_fract_y
 _atom_site_fract_z
 _atom_site_occupancy
  Sr  Sr0  1  0.669261  0.625249  0.537418  1
  Sr  Sr1  1  0.169261  0.374751  0.462582  1
  Sr  Sr2  1  0.669261  0.874751  0.037418  1
  Sr  Sr3  1  0.169261  0.125249  0.962582  1
  Sr  Sr4  1  0.255645  0.625024  0.701560  1
  Sr  Sr5  1  0.755645  0.374976  0.298440  1
  Sr  Sr6  1  0.255645  0.874976  0.201560  1
  Sr  Sr7  1  0.755645  0.125024  0.798440  1
  Sr  Sr8  1  0.757094  0.624621  0.804813  1
  Sr  Sr9  1  0.257094  0.375379  0.195187  1
  Sr  Sr10  1  0.757094  0.875379  0.304813  1
  Sr  Sr11  1  0.257094  0.124621  0.695187  1
  Sr  Sr12  1  0.212420  0.621430  0.951062  1
  Sr  Sr13  1  0.712420  0.378570  0.048938  1
  Sr  Sr14  1  0.212420  0.878570  0.451062  1
  Sr  Sr15  1  0.712420  0.121430  0.548938  1
  Nb  Nb16  1  0.218828  0.871440  0.588088  1
  Nb  Nb17  1  0.718828  0.128560  0.411912  1
  Nb  Nb18  1  0.218828  0.628560  0.088088  1
  Nb  Nb19  1  0.718828  0.371440  0.911912  1
  Nb  Nb20  1  0.751608  0.878318  0.691279  1
  Nb  Nb21  1  0.251608  0.121682  0.308721  1
  Nb  Nb22  1  0.751608  0.621682  0.191279  1
  Nb  Nb23  1  0.251608  0.378318  0.808721  1
  Nb  Nb24  1  0.250190  0.872071  0.807872  1
  Nb  Nb25  1  0.750190  0.127929  0.192128  1
  Nb  Nb26  1  0.250190  0.627929  0.307872  1
  Nb  Nb27  1  0.750190  0.372071  0.692128  1
  Nb  Nb28  1  0.720446  0.876388  0.910803  1
  Nb  Nb29  1  0.220446  0.123612  0.089197  1
  Nb  Nb30  1  0.720446  0.623612  0.410804  1
  Nb  Nb31  1  0.220446  0.376388  0.589197  1
  O  O32  1  0.426157  0.887561  0.534058  1
  O  O33  1  0.926157  0.112439  0.465942  1
  O  O34  1  0.426157  0.612439  0.034058  1
  O  O35  1  0.926157  0.387561  0.965942  1
  O  O36  1  0.949184  0.854801  0.553498  1
  O  O37  1  0.449184  0.145199  0.446502  1
  O  O38  1  0.949184  0.645199  0.053498  1
  O  O39  1  0.449184  0.354801  0.946502  1
  O  O40  1  0.294847  0.625122  0.599585  1
  O  O41  1  0.794847  0.374878  0.400415  1
  O  O42  1  0.294847  0.874878  0.099585  1
  O  O43  1  0.794847  0.125122  0.900415  1
  O  O44  1  0.553388  0.910701  0.638579  1
  O  O45  1  0.053388  0.089299  0.361421  1
  O  O46  1  0.553388  0.589299  0.138579  1
  O  O47  1  0.053388  0.410701  0.861421  1
  O  O48  1  0.058563  0.861155  0.658034  1
  O  O49  1  0.558563  0.138845  0.341966  1
  O  O50  1  0.058563  0.638845  0.158034  1
  O  O51  1  0.558563  0.361155  0.841966  1
  O  O52  1  0.728490  0.625185  0.698224  1
  O  O53  1  0.322223  0.625149  0.796282  1
  O  O54  1  0.728490  0.874815  0.198224  1
  O  O55  1  0.228490  0.125185  0.801776  1
  O  O56  1  0.504893  0.899355  0.741692  1
  O  O57  1  0.004893  0.100645  0.258308  1
  O  O58  1  0.504893  0.600645  0.241692  1
  O  O59  1  0.004893  0.399355  0.758308  1
  O  O60  1  0.005195  0.850777  0.757768  1
  O  O61  1  0.505195  0.149223  0.242232  1
  O  O62  1  0.005195  0.649223  0.257768  1
  O  O63  1  0.505195  0.350777  0.742232  1
  O  O64  1  0.437189  0.360898  0.537637  1
  O  O65  1  0.937189  0.639102  0.462363  1
  O  O66  1  0.437189  0.139102  0.037637  1
  O  O67  1  0.937189  0.860898  0.962363  1
  O  O68  1  0.961466  0.392011  0.549343  1
  O  O69  1  0.461466  0.607989  0.450657  1
  O  O70  1  0.961466  0.107989  0.049343  1
  O  O71  1  0.461466  0.892011  0.950657  1
  O  O72  1  0.203844  0.124420  0.598657  1
  O  O73  1  0.703844  0.875580  0.401343  1
  O  O74  1  0.203844  0.375580  0.098657  1
  O  O75  1  0.703844  0.624420  0.901343  1
  O  O76  1  0.549014  0.339895  0.639919  1
  O  O77  1  0.049014  0.660105  0.360081  1
  O  O78  1  0.549014  0.160105  0.139919  1
  O  O79  1  0.049014  0.839895  0.860081  1
  O  O80  1  0.056454  0.389388  0.657678  1
  O  O81  1  0.556454  0.610612  0.342322  1
  O  O82  1  0.056454  0.110612  0.157678  1
  O  O83  1  0.556454  0.889388  0.842322  1
  O  O84  1  0.822223  0.125149  0.703718  1
  O  O85  1  0.322223  0.874851  0.296282  1
  O  O86  1  0.822223  0.374851  0.203718  1
  O  O87  1  0.228490  0.374815  0.301776  1
