# generated using pymatgen
data_VAg3O4
_symmetry_space_group_name_H-M   'P 1'
_cell_length_a   5.84125589
_cell_length_b   5.84125589
_cell_length_c   10.29693549
_cell_angle_alpha   66.47177526
_cell_angle_beta   113.52822474
_cell_angle_gamma   128.20258797
_symmetry_Int_Tables_number   1
_chemical_formula_structural   VAg3O4
_chemical_formula_sum   'V2 Ag6 O8'
_cell_volume   247.41429677
_cell_formula_units_Z   2
loop_
 _symmetry_equiv_pos_site_id
 _symmetry_equiv_pos_as_xyz
  1  'x, y, z'
loop_
 _atom_site_type_symbol
 _atom_site_label
 _atom_site_symmetry_multiplicity
 _atom_site_fract_x
 _atom_site_fract_y
 _atom_site_fract_z
 _atom_site_occupancy
  V  V0  1  0.448083  0.448083  0.750000  1
  V  V1  1  0.551917  0.551917  0.250000  1
  Ag  Ag2  1  0.300706  0.784833  0.902625  1
  Ag  Ag3  1  0.215167  0.699294  0.402625  1
  Ag  Ag4  1  0.699294  0.215167  0.097375  1
  Ag  Ag5  1  0.784833  0.300706  0.597375  1
  Ag  Ag6  1  0.000000  0.000000  0.000000  1
  Ag  Ag7  1  0.000000  0.000000  0.500000  1
  O  O8  1  0.864794  0.633677  0.206522  1
  O  O9  1  0.633677  0.864794  0.293478  1
  O  O10  1  0.135206  0.366323  0.793478  1
  O  O11  1  0.366323  0.135206  0.706522  1
  O  O12  1  0.748957  0.555286  0.897110  1
  O  O13  1  0.251043  0.444714  0.102890  1
  O  O14  1  0.555286  0.748957  0.602890  1
  O  O15  1  0.444714  0.251043  0.397110  1
