# generated using pymatgen
data_La2TiO5
_symmetry_space_group_name_H-M   'P 1'
_cell_length_a   3.93568625
_cell_length_b   11.07042901
_cell_length_c   11.53582181
_cell_angle_alpha   90.00000000
_cell_angle_beta   90.00000000
_cell_angle_gamma   90.00000000
_symmetry_Int_Tables_number   1
_chemical_formula_structural   La2TiO5
_chemical_formula_sum   'La8 Ti4 O20'
_cell_volume   502.61270199
_cell_formula_units_Z   4
loop_
 _symmetry_equiv_pos_site_id
 _symmetry_equiv_pos_as_xyz
  1  'x, y, z'
loop_
 _atom_site_type_symbol
 _atom_site_label
 _atom_site_symmetry_multiplicity
 _atom_site_fract_x
 _atom_site_fract_y
 _atom_site_fract_z
 _atom_site_occupancy
  La  La0  1  0.750000  0.597887  0.717088  1
  La  La1  1  0.250000  0.402113  0.282912  1
  La  La2  1  0.750000  0.097887  0.782912  1
  La  La3  1  0.250000  0.902113  0.217088  1
  La  La4  1  0.250000  0.863281  0.559263  1
  La  La5  1  0.750000  0.136719  0.440737  1
  La  La6  1  0.250000  0.363281  0.940737  1
  La  La7  1  0.750000  0.636719  0.059263  1
  Ti  Ti8  1  0.250000  0.808157  0.872779  1
  Ti  Ti9  1  0.750000  0.191843  0.127221  1
  Ti  Ti10  1  0.250000  0.308157  0.627221  1
  Ti  Ti11  1  0.750000  0.691843  0.372779  1
  O  O12  1  0.250000  0.964487  0.832677  1
  O  O13  1  0.750000  0.035513  0.167323  1
  O  O14  1  0.250000  0.464487  0.667323  1
  O  O15  1  0.750000  0.535513  0.332677  1
  O  O16  1  0.250000  0.721059  0.729271  1
  O  O17  1  0.750000  0.278941  0.270729  1
  O  O18  1  0.250000  0.221059  0.770729  1
  O  O19  1  0.750000  0.778941  0.229271  1
  O  O20  1  0.750000  0.761006  0.876292  1
  O  O21  1  0.250000  0.238994  0.123708  1
  O  O22  1  0.750000  0.261006  0.623708  1
  O  O23  1  0.250000  0.738994  0.376292  1
  O  O24  1  0.250000  0.508313  0.102204  1
  O  O25  1  0.750000  0.491687  0.897796  1
  O  O26  1  0.250000  0.008313  0.397796  1
  O  O27  1  0.750000  0.991687  0.602204  1
  O  O28  1  0.250000  0.773751  0.034111  1
  O  O29  1  0.750000  0.226249  0.965889  1
  O  O30  1  0.250000  0.273751  0.465889  1
  O  O31  1  0.750000  0.726249  0.534111  1
