# generated using pymatgen
data_Zr2Cr30P19
_symmetry_space_group_name_H-M   'P 1'
_cell_length_a   14.86304538
_cell_length_b   14.86304538
_cell_length_c   3.26434068
_cell_angle_alpha   90.00000000
_cell_angle_beta   90.00000000
_cell_angle_gamma   120.00000000
_symmetry_Int_Tables_number   1
_chemical_formula_structural   Zr2Cr30P19
_chemical_formula_sum   'Zr2 Cr30 P19'
_cell_volume   624.51333561
_cell_formula_units_Z   1
loop_
 _symmetry_equiv_pos_site_id
 _symmetry_equiv_pos_as_xyz
  1  'x, y, z'
loop_
 _atom_site_type_symbol
 _atom_site_label
 _atom_site_symmetry_multiplicity
 _atom_site_fract_x
 _atom_site_fract_y
 _atom_site_fract_z
 _atom_site_occupancy
  Zr  Zr0  1  0.000000  0.000000  0.500000  1
  Zr  Zr1  1  0.333333  0.666667  0.000000  1
  Cr  Cr2  1  0.156216  0.982118  0.000000  1
  Cr  Cr3  1  0.058403  0.524248  0.000000  1
  Cr  Cr4  1  0.465845  0.941597  0.000000  1
  Cr  Cr5  1  0.475752  0.534155  0.000000  1
  Cr  Cr6  1  0.270156  0.144346  0.500000  1
  Cr  Cr7  1  0.825902  0.843784  0.000000  1
  Cr  Cr8  1  0.855654  0.125810  0.500000  1
  Cr  Cr9  1  0.845378  0.443643  0.000000  1
  Cr  Cr10  1  0.598265  0.154622  0.000000  1
  Cr  Cr11  1  0.556357  0.401735  0.000000  1
  Cr  Cr12  1  0.522770  0.246864  0.500000  1
  Cr  Cr13  1  0.724094  0.477230  0.500000  1
  Cr  Cr14  1  0.753136  0.275906  0.500000  1
  Cr  Cr15  1  0.508268  0.821392  0.500000  1
  Cr  Cr16  1  0.178608  0.686876  0.500000  1
  Cr  Cr17  1  0.313124  0.491732  0.500000  1
  Cr  Cr18  1  0.730715  0.915408  0.500000  1
  Cr  Cr19  1  0.084592  0.815307  0.500000  1
  Cr  Cr20  1  0.184693  0.269285  0.500000  1
  Cr  Cr21  1  0.603425  0.745435  0.000000  1
  Cr  Cr22  1  0.254565  0.857990  0.000000  1
  Cr  Cr23  1  0.142010  0.396575  0.000000  1
  Cr  Cr24  1  0.692444  0.618589  0.000000  1
  Cr  Cr25  1  0.381411  0.073856  0.000000  1
  Cr  Cr26  1  0.926144  0.307556  0.000000  1
  Cr  Cr27  1  0.643266  0.044287  0.500000  1
  Cr  Cr28  1  0.955713  0.598979  0.500000  1
  Cr  Cr29  1  0.401021  0.356734  0.500000  1
  Cr  Cr30  1  0.874190  0.729844  0.500000  1
  Cr  Cr31  1  0.017882  0.174098  0.000000  1
  P  P32  1  0.666667  0.333333  0.000000  1
  P  P33  1  0.939402  0.422873  0.500000  1
  P  P34  1  0.397513  0.239386  0.000000  1
  P  P35  1  0.760614  0.158126  0.000000  1
  P  P36  1  0.841874  0.602487  0.000000  1
  P  P37  1  0.175774  0.526366  0.500000  1
  P  P38  1  0.473634  0.649408  0.500000  1
  P  P39  1  0.350592  0.824226  0.500000  1
  P  P40  1  0.155541  0.140497  0.000000  1
  P  P41  1  0.859503  0.015044  0.000000  1
  P  P42  1  0.984956  0.844459  0.000000  1
  P  P43  1  0.027127  0.285226  0.500000  1
  P  P44  1  0.714774  0.741901  0.500000  1
  P  P45  1  0.258099  0.972873  0.500000  1
  P  P46  1  0.299666  0.379854  0.000000  1
  P  P47  1  0.620146  0.919812  0.000000  1
  P  P48  1  0.080188  0.700334  0.000000  1
  P  P49  1  0.577127  0.516530  0.500000  1
  P  P50  1  0.483470  0.060598  0.500000  1
