# generated using pymatgen
data_K4Nb2S11
_symmetry_space_group_name_H-M   'P 1'
_cell_length_a   7.57475341
_cell_length_b   13.53308255
_cell_length_c   18.42313192
_cell_angle_alpha   90.00000000
_cell_angle_beta   90.00000000
_cell_angle_gamma   90.00000000
_symmetry_Int_Tables_number   1
_chemical_formula_structural   K4Nb2S11
_chemical_formula_sum   'K16 Nb8 S44'
_cell_volume   1888.55089040
_cell_formula_units_Z   4
loop_
 _symmetry_equiv_pos_site_id
 _symmetry_equiv_pos_as_xyz
  1  'x, y, z'
loop_
 _atom_site_type_symbol
 _atom_site_label
 _atom_site_symmetry_multiplicity
 _atom_site_fract_x
 _atom_site_fract_y
 _atom_site_fract_z
 _atom_site_occupancy
  K  K0  1  0.668620  0.774777  0.373005  1
  K  K1  1  0.331380  0.225223  0.873005  1
  K  K2  1  0.331380  0.274777  0.373005  1
  K  K3  1  0.668620  0.725223  0.873005  1
  K  K4  1  0.186269  0.591315  0.472561  1
  K  K5  1  0.813731  0.408685  0.972561  1
  K  K6  1  0.813731  0.091315  0.472561  1
  K  K7  1  0.186269  0.908685  0.972561  1
  K  K8  1  0.782909  0.461299  0.267779  1
  K  K9  1  0.217091  0.538701  0.767779  1
  K  K10  1  0.217091  0.961299  0.267779  1
  K  K11  1  0.782909  0.038701  0.767779  1
  K  K12  1  0.207035  0.284338  0.119639  1
  K  K13  1  0.792965  0.715662  0.619639  1
  K  K14  1  0.792965  0.784338  0.119639  1
  K  K15  1  0.207035  0.215662  0.619639  1
  Nb  Nb16  1  0.259504  0.555379  0.026734  1
  Nb  Nb17  1  0.740496  0.444621  0.526734  1
  Nb  Nb18  1  0.740496  0.055379  0.026734  1
  Nb  Nb19  1  0.259504  0.944621  0.526734  1
  Nb  Nb20  1  0.197338  0.617320  0.210264  1
  Nb  Nb21  1  0.802662  0.382680  0.710264  1
  Nb  Nb22  1  0.802662  0.117320  0.210264  1
  Nb  Nb23  1  0.197338  0.882680  0.710264  1
  S  S24  1  0.253985  0.411498  0.964785  1
  S  S25  1  0.746015  0.588502  0.464785  1
  S  S26  1  0.746015  0.911498  0.964785  1
  S  S27  1  0.253985  0.088502  0.464785  1
  S  S28  1  0.257626  0.673099  0.919633  1
  S  S29  1  0.742374  0.326901  0.419633  1
  S  S30  1  0.742374  0.173099  0.919633  1
  S  S31  1  0.257626  0.826901  0.419633  1
  S  S32  1  0.018024  0.653994  0.972795  1
  S  S33  1  0.981976  0.346006  0.472795  1
  S  S34  1  0.981976  0.153994  0.972795  1
  S  S35  1  0.018024  0.846006  0.472795  1
  S  S36  1  0.465652  0.517363  0.128315  1
  S  S37  1  0.534348  0.482637  0.628315  1
  S  S38  1  0.534348  0.017363  0.128315  1
  S  S39  1  0.465652  0.982637  0.628315  1
  S  S40  1  0.392871  0.566255  0.315538  1
  S  S41  1  0.576923  0.594021  0.041870  1
  S  S42  1  0.423077  0.094021  0.041870  1
  S  S43  1  0.576923  0.905979  0.541870  1
  S  S44  1  0.244639  0.454827  0.266540  1
  S  S45  1  0.755361  0.545173  0.766540  1
  S  S46  1  0.755361  0.954827  0.266540  1
  S  S47  1  0.244639  0.045173  0.766540  1
  S  S48  1  0.028431  0.985641  0.619898  1
  S  S49  1  0.971569  0.014359  0.119898  1
  S  S50  1  0.971569  0.485641  0.619898  1
  S  S51  1  0.028431  0.514359  0.119898  1
  S  S52  1  0.223890  0.764365  0.606059  1
  S  S53  1  0.776110  0.235635  0.106059  1
  S  S54  1  0.776110  0.264365  0.606059  1
  S  S55  1  0.223890  0.735635  0.106059  1
  S  S56  1  0.397460  0.740252  0.691867  1
  S  S57  1  0.602540  0.259748  0.191867  1
  S  S58  1  0.602540  0.240252  0.691867  1
  S  S59  1  0.397460  0.759748  0.191867  1
  S  S60  1  0.966275  0.817200  0.770918  1
  S  S61  1  0.033725  0.182800  0.270918  1
  S  S62  1  0.033725  0.317200  0.770918  1
  S  S63  1  0.966275  0.682800  0.270918  1
  S  S64  1  0.392871  0.933745  0.815538  1
  S  S65  1  0.607129  0.066255  0.315538  1
  S  S66  1  0.607129  0.433745  0.815538  1
  S  S67  1  0.423077  0.405979  0.541870  1
