# generated using pymatgen
data_Na2Si2O5
_symmetry_space_group_name_H-M   'P 1'
_cell_length_a   4.96163200
_cell_length_b   6.48563800
_cell_length_c   15.63427600
_cell_angle_alpha   90.00000000
_cell_angle_beta   90.00000000
_cell_angle_gamma   90.00000000
_symmetry_Int_Tables_number   1
_chemical_formula_structural   Na2Si2O5
_chemical_formula_sum   'Na8 Si8 O20'
_cell_volume   503.10082441
_cell_formula_units_Z   4
loop_
 _symmetry_equiv_pos_site_id
 _symmetry_equiv_pos_as_xyz
  1  'x, y, z'
loop_
 _atom_site_type_symbol
 _atom_site_label
 _atom_site_symmetry_multiplicity
 _atom_site_fract_x
 _atom_site_fract_y
 _atom_site_fract_z
 _atom_site_occupancy
  Na  Na0  1  0.763603  0.098027  0.560090  1
  Na  Na1  1  0.763603  0.901973  0.939910  1
  Na  Na2  1  0.736397  0.598027  0.439910  1
  Na  Na3  1  0.736397  0.401973  0.060090  1
  Na  Na4  1  0.236397  0.901973  0.439910  1
  Na  Na5  1  0.236397  0.098027  0.060090  1
  Na  Na6  1  0.263603  0.401973  0.560090  1
  Na  Na7  1  0.263603  0.598027  0.939910  1
  Si  Si8  1  0.704462  0.104682  0.343208  1
  Si  Si9  1  0.704462  0.895318  0.156792  1
  Si  Si10  1  0.795538  0.604682  0.656792  1
  Si  Si11  1  0.795538  0.395318  0.843208  1
  Si  Si12  1  0.295538  0.895318  0.656792  1
  Si  Si13  1  0.295538  0.104682  0.843208  1
  Si  Si14  1  0.204462  0.395318  0.343208  1
  Si  Si15  1  0.204462  0.604682  0.156792  1
  O  O16  1  0.261128  0.452296  0.078169  1
  O  O17  1  0.261128  0.547704  0.421831  1
  O  O18  1  0.238872  0.952296  0.921831  1
  O  O19  1  0.238872  0.047704  0.578169  1
  O  O20  1  0.738872  0.547704  0.921831  1
  O  O21  1  0.738872  0.452296  0.578169  1
  O  O22  1  0.761128  0.047704  0.078169  1
  O  O23  1  0.761128  0.952296  0.421831  1
  O  O24  1  0.883910  0.679488  0.151974  1
  O  O25  1  0.883910  0.320512  0.348026  1
  O  O26  1  0.616090  0.179488  0.848026  1
  O  O27  1  0.616090  0.820512  0.651974  1
  O  O28  1  0.116090  0.320512  0.848026  1
  O  O29  1  0.116090  0.679488  0.651974  1
  O  O30  1  0.383910  0.820512  0.151974  1
  O  O31  1  0.383910  0.179488  0.348026  1
  O  O32  1  0.760614  0.000000  0.250000  1
  O  O33  1  0.739386  0.500000  0.750000  1
  O  O34  1  0.239386  0.000000  0.750000  1
  O  O35  1  0.260614  0.500000  0.250000  1
