# generated using pymatgen
data_USeS
_symmetry_space_group_name_H-M   'P 1'
_cell_length_a   4.07951815
_cell_length_b   7.31692918
_cell_length_c   8.66768761
_cell_angle_alpha   90.00000000
_cell_angle_beta   90.00000000
_cell_angle_gamma   90.00000000
_symmetry_Int_Tables_number   1
_chemical_formula_structural   USeS
_chemical_formula_sum   'U4 Se4 S4'
_cell_volume   258.72653476
_cell_formula_units_Z   4
loop_
 _symmetry_equiv_pos_site_id
 _symmetry_equiv_pos_as_xyz
  1  'x, y, z'
loop_
 _atom_site_type_symbol
 _atom_site_label
 _atom_site_symmetry_multiplicity
 _atom_site_fract_x
 _atom_site_fract_y
 _atom_site_fract_z
 _atom_site_occupancy
  U  U0  1  0.250000  0.726644  0.626949  1
  U  U1  1  0.750000  0.273356  0.373051  1
  U  U2  1  0.250000  0.226644  0.873051  1
  U  U3  1  0.750000  0.773356  0.126949  1
  Se  Se4  1  0.750000  0.529591  0.835925  1
  Se  Se5  1  0.250000  0.470409  0.164075  1
  Se  Se6  1  0.750000  0.029591  0.664075  1
  Se  Se7  1  0.250000  0.970409  0.335925  1
  S  S8  1  0.250000  0.354638  0.570383  1
  S  S9  1  0.750000  0.645362  0.429617  1
  S  S10  1  0.250000  0.854638  0.929617  1
  S  S11  1  0.750000  0.145362  0.070383  1
