# generated using pymatgen
data_Eu2Ge(BO4)2
_symmetry_space_group_name_H-M   'P 1'
_cell_length_a   4.50331703
_cell_length_b   9.62295329
_cell_length_c   13.70751931
_cell_angle_alpha   90.00000000
_cell_angle_beta   90.00000000
_cell_angle_gamma   90.00000000
_symmetry_Int_Tables_number   1
_chemical_formula_structural   Eu2Ge(BO4)2
_chemical_formula_sum   'Eu8 Ge4 B8 O32'
_cell_volume   594.01822006
_cell_formula_units_Z   4
loop_
 _symmetry_equiv_pos_site_id
 _symmetry_equiv_pos_as_xyz
  1  'x, y, z'
loop_
 _atom_site_type_symbol
 _atom_site_label
 _atom_site_symmetry_multiplicity
 _atom_site_fract_x
 _atom_site_fract_y
 _atom_site_fract_z
 _atom_site_occupancy
  Eu  Eu0  1  0.465037  0.528941  0.639751  1
  Eu  Eu1  1  0.034963  0.028941  0.860249  1
  Eu  Eu2  1  0.034963  0.471059  0.139751  1
  Eu  Eu3  1  0.465037  0.971059  0.360249  1
  Eu  Eu4  1  0.534963  0.471059  0.360249  1
  Eu  Eu5  1  0.965037  0.971059  0.139751  1
  Eu  Eu6  1  0.965037  0.528941  0.860249  1
  Eu  Eu7  1  0.534963  0.028941  0.639751  1
  Ge  Ge8  1  0.919810  0.750000  0.500000  1
  Ge  Ge9  1  0.580190  0.250000  0.000000  1
  Ge  Ge10  1  0.080190  0.250000  0.500000  1
  Ge  Ge11  1  0.419810  0.750000  0.000000  1
  B  B12  1  0.532953  0.705020  0.201006  1
  B  B13  1  0.967047  0.205020  0.298994  1
  B  B14  1  0.967047  0.294980  0.701006  1
  B  B15  1  0.532953  0.794980  0.798994  1
  B  B16  1  0.467047  0.294980  0.798994  1
  B  B17  1  0.032953  0.794980  0.701006  1
  B  B18  1  0.032953  0.705020  0.298994  1
  B  B19  1  0.467047  0.205020  0.201006  1
  O  O20  1  0.539377  0.553981  0.193851  1
  O  O21  1  0.960623  0.053981  0.306149  1
  O  O22  1  0.960623  0.446019  0.693851  1
  O  O23  1  0.539377  0.946019  0.806149  1
  O  O24  1  0.460623  0.446019  0.806149  1
  O  O25  1  0.039377  0.946019  0.693851  1
  O  O26  1  0.039377  0.553981  0.306149  1
  O  O27  1  0.460623  0.053981  0.193851  1
  O  O28  1  0.651616  0.765398  0.106737  1
  O  O29  1  0.848384  0.265398  0.393263  1
  O  O30  1  0.848384  0.234602  0.606737  1
  O  O31  1  0.651616  0.734602  0.893263  1
  O  O32  1  0.348384  0.234602  0.893263  1
  O  O33  1  0.151616  0.734602  0.606737  1
  O  O34  1  0.151616  0.765398  0.393263  1
  O  O35  1  0.348384  0.265398  0.106737  1
  O  O36  1  0.224804  0.758654  0.217920  1
  O  O37  1  0.275196  0.258654  0.282080  1
  O  O38  1  0.275196  0.241346  0.717920  1
  O  O39  1  0.224804  0.741346  0.782080  1
  O  O40  1  0.775196  0.241346  0.782080  1
  O  O41  1  0.724804  0.741346  0.717920  1
  O  O42  1  0.724804  0.758654  0.282080  1
  O  O43  1  0.775196  0.258654  0.217920  1
  O  O44  1  0.705381  0.599043  0.495372  1
  O  O45  1  0.794619  0.099043  0.004628  1
  O  O46  1  0.794619  0.400957  0.995372  1
  O  O47  1  0.705381  0.900957  0.504628  1
  O  O48  1  0.294619  0.400957  0.504628  1
  O  O49  1  0.205381  0.900957  0.995372  1
  O  O50  1  0.205381  0.599043  0.004628  1
  O  O51  1  0.294619  0.099043  0.495372  1
