# generated using pymatgen
data_Tb3S3N
_symmetry_space_group_name_H-M   'P 1'
_cell_length_a   3.85133704
_cell_length_b   12.01223243
_cell_length_c   12.97669816
_cell_angle_alpha   90.00000000
_cell_angle_beta   90.00000000
_cell_angle_gamma   90.00000000
_symmetry_Int_Tables_number   1
_chemical_formula_structural   Tb3S3N
_chemical_formula_sum   'Tb12 S12 N4'
_cell_volume   600.34300733
_cell_formula_units_Z   4
loop_
 _symmetry_equiv_pos_site_id
 _symmetry_equiv_pos_as_xyz
  1  'x, y, z'
loop_
 _atom_site_type_symbol
 _atom_site_label
 _atom_site_symmetry_multiplicity
 _atom_site_fract_x
 _atom_site_fract_y
 _atom_site_fract_z
 _atom_site_occupancy
  Tb  Tb0  1  0.250000  0.048263  0.857535  1
  Tb  Tb1  1  0.750000  0.951737  0.142465  1
  Tb  Tb2  1  0.250000  0.548263  0.642465  1
  Tb  Tb3  1  0.750000  0.451737  0.357535  1
  Tb  Tb4  1  0.250000  0.211407  0.140362  1
  Tb  Tb5  1  0.750000  0.788593  0.859638  1
  Tb  Tb6  1  0.250000  0.711407  0.359638  1
  Tb  Tb7  1  0.750000  0.288593  0.640362  1
  Tb  Tb8  1  0.250000  0.565384  0.132520  1
  Tb  Tb9  1  0.750000  0.434616  0.867480  1
  Tb  Tb10  1  0.250000  0.065384  0.367480  1
  Tb  Tb11  1  0.750000  0.934616  0.632520  1
  S  S12  1  0.750000  0.223657  0.307863  1
  S  S13  1  0.750000  0.406170  0.099732  1
  S  S14  1  0.250000  0.093830  0.599732  1
  S  S15  1  0.250000  0.593830  0.900268  1
  S  S16  1  0.250000  0.366866  0.509649  1
  S  S17  1  0.750000  0.633134  0.490351  1
  S  S18  1  0.250000  0.866866  0.990351  1
  S  S19  1  0.750000  0.133134  0.009649  1
  S  S20  1  0.250000  0.776343  0.692137  1
  S  S21  1  0.750000  0.723657  0.192137  1
  S  S22  1  0.250000  0.276343  0.807863  1
  S  S23  1  0.750000  0.906170  0.400268  1
  N  N24  1  0.750000  0.465765  0.701360  1
  N  N25  1  0.250000  0.034235  0.201360  1
  N  N26  1  0.750000  0.965765  0.798640  1
  N  N27  1  0.250000  0.534235  0.298640  1
