# generated using pymatgen
data_Ca4Hg9
_symmetry_space_group_name_H-M   'P 1'
_cell_length_a   11.12538891
_cell_length_b   11.12538891
_cell_length_c   11.12538891
_cell_angle_alpha   90.00000000
_cell_angle_beta   90.00000000
_cell_angle_gamma   90.00000000
_symmetry_Int_Tables_number   1
_chemical_formula_structural   Ca4Hg9
_chemical_formula_sum   'Ca16 Hg36'
_cell_volume   1377.03698424
_cell_formula_units_Z   4
loop_
 _symmetry_equiv_pos_site_id
 _symmetry_equiv_pos_as_xyz
  1  'x, y, z'
loop_
 _atom_site_type_symbol
 _atom_site_label
 _atom_site_symmetry_multiplicity
 _atom_site_fract_x
 _atom_site_fract_y
 _atom_site_fract_z
 _atom_site_occupancy
  Ca  Ca0  1  0.808588  0.463826  0.191412  1
  Ca  Ca1  1  0.463826  0.191412  0.808588  1
  Ca  Ca2  1  0.536174  0.808588  0.808588  1
  Ca  Ca3  1  0.865824  0.134176  0.865824  1
  Ca  Ca4  1  0.191412  0.808588  0.463826  1
  Ca  Ca5  1  0.134176  0.865824  0.865824  1
  Ca  Ca6  1  0.808588  0.191412  0.463826  1
  Ca  Ca7  1  0.536174  0.191412  0.191412  1
  Ca  Ca8  1  0.191412  0.536174  0.191412  1
  Ca  Ca9  1  0.134176  0.134176  0.134176  1
  Ca  Ca10  1  0.191412  0.191412  0.536174  1
  Ca  Ca11  1  0.808588  0.808588  0.536174  1
  Ca  Ca12  1  0.808588  0.536174  0.808588  1
  Ca  Ca13  1  0.191412  0.463826  0.808588  1
  Ca  Ca14  1  0.463826  0.808588  0.191412  1
  Ca  Ca15  1  0.865824  0.865824  0.134176  1
  Hg  Hg16  1  0.840479  0.840479  0.840479  1
  Hg  Hg17  1  0.000000  0.000000  0.361799  1
  Hg  Hg18  1  0.323897  0.975029  0.676103  1
  Hg  Hg19  1  0.323897  0.024971  0.323897  1
  Hg  Hg20  1  0.840479  0.159521  0.159521  1
  Hg  Hg21  1  0.604932  0.604932  0.604932  1
  Hg  Hg22  1  0.638201  0.000000  0.000000  1
  Hg  Hg23  1  0.604932  0.395068  0.395068  1
  Hg  Hg24  1  0.676103  0.676103  0.024971  1
  Hg  Hg25  1  0.159521  0.840479  0.159521  1
  Hg  Hg26  1  0.500000  0.500000  0.852351  1
  Hg  Hg27  1  0.315798  0.684202  0.684202  1
  Hg  Hg28  1  0.684202  0.315798  0.684202  1
  Hg  Hg29  1  0.500000  0.147649  0.500000  1
  Hg  Hg30  1  0.975029  0.676103  0.323897  1
  Hg  Hg31  1  0.000000  0.000000  0.638201  1
  Hg  Hg32  1  0.315798  0.315798  0.315798  1
  Hg  Hg33  1  0.024971  0.323897  0.323897  1
  Hg  Hg34  1  0.395068  0.395068  0.604932  1
  Hg  Hg35  1  0.323897  0.676103  0.975029  1
  Hg  Hg36  1  0.500000  0.500000  0.147649  1
  Hg  Hg37  1  0.684202  0.684202  0.315798  1
  Hg  Hg38  1  0.676103  0.323897  0.975029  1
  Hg  Hg39  1  0.500000  0.852351  0.500000  1
  Hg  Hg40  1  0.159521  0.159521  0.840479  1
  Hg  Hg41  1  0.000000  0.361799  0.000000  1
  Hg  Hg42  1  0.975029  0.323897  0.676103  1
  Hg  Hg43  1  0.147649  0.500000  0.500000  1
  Hg  Hg44  1  0.395068  0.604932  0.395068  1
  Hg  Hg45  1  0.676103  0.975029  0.323897  1
  Hg  Hg46  1  0.676103  0.024971  0.676103  1
  Hg  Hg47  1  0.852351  0.500000  0.500000  1
  Hg  Hg48  1  0.000000  0.638201  0.000000  1
  Hg  Hg49  1  0.024971  0.676103  0.676103  1
  Hg  Hg50  1  0.323897  0.323897  0.024971  1
  Hg  Hg51  1  0.361799  0.000000  0.000000  1
