# generated using pymatgen
data_ZrP
_symmetry_space_group_name_H-M   'P 1'
_cell_length_a   3.70740446
_cell_length_b   3.70740446
_cell_length_c   12.63453500
_cell_angle_alpha   90.00000000
_cell_angle_beta   90.00000000
_cell_angle_gamma   120.00000000
_symmetry_Int_Tables_number   1
_chemical_formula_structural   ZrP
_chemical_formula_sum   'Zr4 P4'
_cell_volume   150.39376482
_cell_formula_units_Z   4
loop_
 _symmetry_equiv_pos_site_id
 _symmetry_equiv_pos_as_xyz
  1  'x, y, z'
loop_
 _atom_site_type_symbol
 _atom_site_label
 _atom_site_symmetry_multiplicity
 _atom_site_fract_x
 _atom_site_fract_y
 _atom_site_fract_z
 _atom_site_occupancy
  Zr  Zr0  1  0.333333  0.666667  0.384344  1
  Zr  Zr1  1  0.666667  0.333333  0.884344  1
  Zr  Zr2  1  0.666667  0.333333  0.615656  1
  Zr  Zr3  1  0.333333  0.666667  0.115656  1
  P  P4  1  0.666667  0.333333  0.250000  1
  P  P5  1  0.333333  0.666667  0.750000  1
  P  P6  1  0.000000  0.000000  0.500000  1
  P  P7  1  0.000000  0.000000  0.000000  1
