# generated using pymatgen
data_K2ZnTe2
_symmetry_space_group_name_H-M   'P 1'
_cell_length_a   8.74000637
_cell_length_b   8.74000637
_cell_length_c   8.74000637
_cell_angle_alpha   132.43951646
_cell_angle_beta   130.11259529
_cell_angle_gamma   71.39129503
_symmetry_Int_Tables_number   1
_chemical_formula_structural   K2ZnTe2
_chemical_formula_sum   'K4 Zn2 Te4'
_cell_volume   368.81126181
_cell_formula_units_Z   2
loop_
 _symmetry_equiv_pos_site_id
 _symmetry_equiv_pos_as_xyz
  1  'x, y, z'
loop_
 _atom_site_type_symbol
 _atom_site_label
 _atom_site_symmetry_multiplicity
 _atom_site_fract_x
 _atom_site_fract_y
 _atom_site_fract_z
 _atom_site_occupancy
  K  K0  1  0.176362  0.859448  0.316914  1
  K  K1  1  0.823638  0.140552  0.683086  1
  K  K2  1  0.457466  0.640552  0.816914  1
  K  K3  1  0.542534  0.359448  0.183086  1
  Zn  Zn4  1  1.000000  0.250000  0.250000  1
  Zn  Zn5  1  1.000000  0.750000  0.750000  1
  Te  Te6  1  0.913469  0.606768  0.306702  1
  Te  Te7  1  0.086531  0.393232  0.693298  1
  Te  Te8  1  0.699934  0.893232  0.806702  1
  Te  Te9  1  0.300066  0.106768  0.193298  1
