# generated using pymatgen
data_Th(NiP)2
_symmetry_space_group_name_H-M   'P 1'
_cell_length_a   3.93850852
_cell_length_b   8.23695873
_cell_length_c   9.80272649
_cell_angle_alpha   90.00000000
_cell_angle_beta   90.00000000
_cell_angle_gamma   90.00000000
_symmetry_Int_Tables_number   1
_chemical_formula_structural   Th(NiP)2
_chemical_formula_sum   'Th4 Ni8 P8'
_cell_volume   318.01350591
_cell_formula_units_Z   4
loop_
 _symmetry_equiv_pos_site_id
 _symmetry_equiv_pos_as_xyz
  1  'x, y, z'
loop_
 _atom_site_type_symbol
 _atom_site_label
 _atom_site_symmetry_multiplicity
 _atom_site_fract_x
 _atom_site_fract_y
 _atom_site_fract_z
 _atom_site_occupancy
  Th  Th0  1  0.250000  0.759900  0.830417  1
  Th  Th1  1  0.750000  0.240100  0.169583  1
  Th  Th2  1  0.250000  0.259900  0.669583  1
  Th  Th3  1  0.750000  0.740100  0.330417  1
  Ni  Ni4  1  0.750000  0.582614  0.048489  1
  Ni  Ni5  1  0.250000  0.417386  0.951511  1
  Ni  Ni6  1  0.750000  0.082614  0.451511  1
  Ni  Ni7  1  0.250000  0.917386  0.548489  1
  Ni  Ni8  1  0.250000  0.452319  0.376398  1
  Ni  Ni9  1  0.750000  0.547681  0.623602  1
  Ni  Ni10  1  0.250000  0.952319  0.123602  1
  Ni  Ni11  1  0.750000  0.047681  0.876398  1
  P  P12  1  0.250000  0.643333  0.549122  1
  P  P13  1  0.750000  0.356667  0.450878  1
  P  P14  1  0.250000  0.143333  0.950878  1
  P  P15  1  0.750000  0.856667  0.049122  1
  P  P16  1  0.250000  0.030921  0.338935  1
  P  P17  1  0.750000  0.969079  0.661065  1
  P  P18  1  0.250000  0.530921  0.161065  1
  P  P19  1  0.750000  0.469079  0.838935  1
