# generated using pymatgen
data_K2CN2
_symmetry_space_group_name_H-M   'P 1'
_cell_length_a   4.09726691
_cell_length_b   4.09726691
_cell_length_c   5.91792972
_cell_angle_alpha   76.25820840
_cell_angle_beta   103.74179160
_cell_angle_gamma   90.48516167
_symmetry_Int_Tables_number   1
_chemical_formula_structural   K2CN2
_chemical_formula_sum   'K2 C1 N2'
_cell_volume   93.62059713
_cell_formula_units_Z   1
loop_
 _symmetry_equiv_pos_site_id
 _symmetry_equiv_pos_as_xyz
  1  'x, y, z'
loop_
 _atom_site_type_symbol
 _atom_site_label
 _atom_site_symmetry_multiplicity
 _atom_site_fract_x
 _atom_site_fract_y
 _atom_site_fract_z
 _atom_site_occupancy
  K  K0  1  0.675266  0.324734  0.291907  1
  K  K1  1  0.324734  0.675266  0.708093  1
  C  C2  1  0.000000  0.000000  0.000000  1
  N  N3  1  0.847610  0.152390  0.793547  1
  N  N4  1  0.152390  0.847610  0.206453  1
