# generated using pymatgen
data_Mg3Au
_symmetry_space_group_name_H-M   'P 1'
_cell_length_a   8.12181502
_cell_length_b   8.12181502
_cell_length_c   8.58486605
_cell_angle_alpha   90.00000000
_cell_angle_beta   90.00000000
_cell_angle_gamma   120.00000000
_symmetry_Int_Tables_number   1
_chemical_formula_structural   Mg3Au
_chemical_formula_sum   'Mg18 Au6'
_cell_volume   490.42245005
_cell_formula_units_Z   6
loop_
 _symmetry_equiv_pos_site_id
 _symmetry_equiv_pos_as_xyz
  1  'x, y, z'
loop_
 _atom_site_type_symbol
 _atom_site_label
 _atom_site_symmetry_multiplicity
 _atom_site_fract_x
 _atom_site_fract_y
 _atom_site_fract_z
 _atom_site_occupancy
  Mg  Mg0  1  0.375119  0.000000  0.925607  1
  Mg  Mg1  1  0.375119  0.375119  0.425607  1
  Mg  Mg2  1  0.000000  0.624881  0.425607  1
  Mg  Mg3  1  0.000000  0.375119  0.925607  1
  Mg  Mg4  1  0.624881  0.624881  0.925607  1
  Mg  Mg5  1  0.624881  0.000000  0.425607  1
  Mg  Mg6  1  0.000000  0.000000  0.324288  1
  Mg  Mg7  1  0.000000  0.000000  0.824288  1
  Mg  Mg8  1  0.333333  0.666667  0.206458  1
  Mg  Mg9  1  0.666667  0.333333  0.706458  1
  Mg  Mg10  1  0.333333  0.666667  0.706458  1
  Mg  Mg11  1  0.666667  0.333333  0.206458  1
  Mg  Mg12  1  0.719656  0.000000  0.082337  1
  Mg  Mg13  1  0.719656  0.719656  0.582337  1
  Mg  Mg14  1  0.000000  0.280344  0.582337  1
  Mg  Mg15  1  0.000000  0.719656  0.082337  1
  Mg  Mg16  1  0.280344  0.280344  0.082337  1
  Mg  Mg17  1  0.280344  0.000000  0.582337  1
  Au  Au18  1  0.328286  0.000000  0.254255  1
  Au  Au19  1  0.328286  0.328286  0.754255  1
  Au  Au20  1  0.000000  0.671714  0.754255  1
  Au  Au21  1  0.000000  0.328286  0.254255  1
  Au  Au22  1  0.671714  0.671714  0.254255  1
  Au  Au23  1  0.671714  0.000000  0.754255  1
