# generated using pymatgen
data_Na3SiTe3
_symmetry_space_group_name_H-M   'P 1'
_cell_length_a   8.89278418
_cell_length_b   12.89722400
_cell_length_c   9.01841400
_cell_angle_alpha   90.00000000
_cell_angle_beta   120.37759948
_cell_angle_gamma   90.00000000
_symmetry_Int_Tables_number   1
_chemical_formula_structural   Na3SiTe3
_chemical_formula_sum   'Na12 Si4 Te12'
_cell_volume   892.33868798
_cell_formula_units_Z   4
loop_
 _symmetry_equiv_pos_site_id
 _symmetry_equiv_pos_as_xyz
  1  'x, y, z'
loop_
 _atom_site_type_symbol
 _atom_site_label
 _atom_site_symmetry_multiplicity
 _atom_site_fract_x
 _atom_site_fract_y
 _atom_site_fract_z
 _atom_site_occupancy
  Na  Na0  1  0.529135  0.229055  0.276413  1
  Na  Na1  1  0.470865  0.729055  0.223587  1
  Na  Na2  1  0.470865  0.770945  0.723587  1
  Na  Na3  1  0.529135  0.270945  0.776413  1
  Na  Na4  1  0.773529  0.557832  0.973499  1
  Na  Na5  1  0.226471  0.057832  0.526501  1
  Na  Na6  1  0.226471  0.442168  0.026501  1
  Na  Na7  1  0.773529  0.942168  0.473499  1
  Na  Na8  1  0.006086  0.151949  0.020764  1
  Na  Na9  1  0.993914  0.651949  0.479236  1
  Na  Na10  1  0.993914  0.848051  0.979236  1
  Na  Na11  1  0.006086  0.348051  0.520764  1
  Si  Si12  1  0.353487  0.009237  0.967500  1
  Si  Si13  1  0.646513  0.509237  0.532500  1
  Si  Si14  1  0.646513  0.990763  0.032500  1
  Si  Si15  1  0.353487  0.490763  0.467500  1
  Te  Te16  1  0.164938  0.622966  0.240509  1
  Te  Te17  1  0.835062  0.122966  0.259491  1
  Te  Te18  1  0.835062  0.377034  0.759491  1
  Te  Te19  1  0.164938  0.877034  0.740509  1
  Te  Te20  1  0.349067  0.525481  0.741610  1
  Te  Te21  1  0.650933  0.025481  0.758390  1
  Te  Te22  1  0.650933  0.474519  0.258390  1
  Te  Te23  1  0.349067  0.974519  0.241610  1
  Te  Te24  1  0.250303  0.307331  0.364036  1
  Te  Te25  1  0.749697  0.807331  0.135964  1
  Te  Te26  1  0.749697  0.692669  0.635964  1
  Te  Te27  1  0.250303  0.192669  0.864036  1
