# generated using pymatgen
data_Cr3Ga4
_symmetry_space_group_name_H-M   'P 1'
_cell_length_a   6.38115403
_cell_length_b   6.38115403
_cell_length_c   7.86638787
_cell_angle_alpha   78.38648585
_cell_angle_beta   101.61351415
_cell_angle_gamma   104.00614279
_symmetry_Int_Tables_number   1
_chemical_formula_structural   Cr3Ga4
_chemical_formula_sum   'Cr9 Ga12'
_cell_volume   300.47786437
_cell_formula_units_Z   3
loop_
 _symmetry_equiv_pos_site_id
 _symmetry_equiv_pos_as_xyz
  1  'x, y, z'
loop_
 _atom_site_type_symbol
 _atom_site_label
 _atom_site_symmetry_multiplicity
 _atom_site_fract_x
 _atom_site_fract_y
 _atom_site_fract_z
 _atom_site_occupancy
  Cr  Cr0  1  0.000000  0.000000  0.000000  1
  Cr  Cr1  1  0.494180  0.505820  0.662225  1
  Cr  Cr2  1  0.505820  0.494180  0.337775  1
  Cr  Cr3  1  0.769954  0.230046  0.339140  1
  Cr  Cr4  1  0.230046  0.769954  0.660860  1
  Cr  Cr5  1  0.668333  0.960601  0.142588  1
  Cr  Cr6  1  0.960601  0.668333  0.857412  1
  Cr  Cr7  1  0.331667  0.039399  0.857412  1
  Cr  Cr8  1  0.039399  0.331667  0.142588  1
  Ga  Ga9  1  0.712984  0.287016  0.902057  1
  Ga  Ga10  1  0.287016  0.712984  0.097943  1
  Ga  Ga11  1  0.952285  0.047715  0.648423  1
  Ga  Ga12  1  0.047715  0.952285  0.351577  1
  Ga  Ga13  1  0.189052  0.388227  0.844785  1
  Ga  Ga14  1  0.388227  0.189052  0.155215  1
  Ga  Ga15  1  0.810948  0.611773  0.155215  1
  Ga  Ga16  1  0.611773  0.810948  0.844785  1
  Ga  Ga17  1  0.455623  0.151924  0.559116  1
  Ga  Ga18  1  0.151924  0.455623  0.440884  1
  Ga  Ga19  1  0.544377  0.848076  0.440884  1
  Ga  Ga20  1  0.848076  0.544377  0.559116  1
