# generated using pymatgen
data_Pr10Se19
_symmetry_space_group_name_H-M   'P 1'
_cell_length_a   9.39952558
_cell_length_b   9.39952558
_cell_length_c   17.17786119
_cell_angle_alpha   90.00000000
_cell_angle_beta   90.00000000
_cell_angle_gamma   90.00000000
_symmetry_Int_Tables_number   1
_chemical_formula_structural   Pr10Se19
_chemical_formula_sum   'Pr20 Se38'
_cell_volume   1517.68260762
_cell_formula_units_Z   2
loop_
 _symmetry_equiv_pos_site_id
 _symmetry_equiv_pos_as_xyz
  1  'x, y, z'
loop_
 _atom_site_type_symbol
 _atom_site_label
 _atom_site_symmetry_multiplicity
 _atom_site_fract_x
 _atom_site_fract_y
 _atom_site_fract_z
 _atom_site_occupancy
  Pr  Pr0  1  0.000000  0.500000  0.133423  1
  Pr  Pr1  1  0.000000  0.500000  0.633423  1
  Pr  Pr2  1  0.500000  0.000000  0.366577  1
  Pr  Pr3  1  0.500000  0.000000  0.866577  1
  Pr  Pr4  1  0.398003  0.303500  0.644358  1
  Pr  Pr5  1  0.196500  0.898003  0.144358  1
  Pr  Pr6  1  0.803500  0.101997  0.144358  1
  Pr  Pr7  1  0.601997  0.696500  0.644358  1
  Pr  Pr8  1  0.101997  0.196500  0.855642  1
  Pr  Pr9  1  0.303500  0.601997  0.355642  1
  Pr  Pr10  1  0.696500  0.398003  0.355642  1
  Pr  Pr11  1  0.898003  0.803500  0.855642  1
  Pr  Pr12  1  0.206644  0.902882  0.630210  1
  Pr  Pr13  1  0.597118  0.706644  0.130210  1
  Pr  Pr14  1  0.402882  0.293356  0.130210  1
  Pr  Pr15  1  0.793356  0.097118  0.630210  1
  Pr  Pr16  1  0.293356  0.597118  0.869790  1
  Pr  Pr17  1  0.902882  0.793356  0.369790  1
  Pr  Pr18  1  0.097118  0.206644  0.369790  1
  Pr  Pr19  1  0.706644  0.402882  0.869790  1
  Se  Se20  1  0.000000  0.500000  0.814419  1
  Se  Se21  1  0.000000  0.500000  0.314419  1
  Se  Se22  1  0.500000  0.000000  0.685581  1
  Se  Se23  1  0.500000  0.000000  0.185581  1
  Se  Se24  1  0.399289  0.302092  0.313243  1
  Se  Se25  1  0.197908  0.899289  0.813243  1
  Se  Se26  1  0.802092  0.100711  0.813243  1
  Se  Se27  1  0.600711  0.697908  0.313243  1
  Se  Se28  1  0.100711  0.197908  0.186757  1
  Se  Se29  1  0.302092  0.600711  0.686757  1
  Se  Se30  1  0.697908  0.399289  0.686757  1
  Se  Se31  1  0.899289  0.802092  0.186757  1
  Se  Se32  1  0.798950  0.097679  0.321314  1
  Se  Se33  1  0.402321  0.298950  0.821314  1
  Se  Se34  1  0.597679  0.701050  0.821314  1
  Se  Se35  1  0.201050  0.902321  0.321314  1
  Se  Se36  1  0.701050  0.402321  0.178686  1
  Se  Se37  1  0.097679  0.201050  0.678686  1
  Se  Se38  1  0.902321  0.798950  0.678686  1
  Se  Se39  1  0.298950  0.597679  0.178686  1
  Se  Se40  1  0.816165  0.632661  0.999183  1
  Se  Se41  1  0.867339  0.316165  0.499183  1
  Se  Se42  1  0.132661  0.683835  0.499183  1
  Se  Se43  1  0.183835  0.367339  0.999183  1
  Se  Se44  1  0.683835  0.867339  0.500817  1
  Se  Se45  1  0.632661  0.183835  0.000817  1
  Se  Se46  1  0.367339  0.816165  0.000817  1
  Se  Se47  1  0.316165  0.132661  0.500817  1
  Se  Se48  1  0.076086  0.720263  0.000206  1
  Se  Se49  1  0.779737  0.576086  0.500206  1
  Se  Se50  1  0.220263  0.423914  0.500206  1
  Se  Se51  1  0.923914  0.279737  0.000206  1
  Se  Se52  1  0.423914  0.779737  0.499794  1
  Se  Se53  1  0.720263  0.923914  0.999794  1
  Se  Se54  1  0.279737  0.076086  0.999794  1
  Se  Se55  1  0.576086  0.220263  0.499794  1
  Se  Se56  1  0.000000  0.000000  0.500000  1
  Se  Se57  1  0.500000  0.500000  0.000000  1
