# generated using pymatgen
data_HfSiPd
_symmetry_space_group_name_H-M   'P 1'
_cell_length_a   3.89109844
_cell_length_b   6.60601169
_cell_length_c   7.61565343
_cell_angle_alpha   90.00000000
_cell_angle_beta   90.00000000
_cell_angle_gamma   90.00000000
_symmetry_Int_Tables_number   1
_chemical_formula_structural   HfSiPd
_chemical_formula_sum   'Hf4 Si4 Pd4'
_cell_volume   195.75764335
_cell_formula_units_Z   4
loop_
 _symmetry_equiv_pos_site_id
 _symmetry_equiv_pos_as_xyz
  1  'x, y, z'
loop_
 _atom_site_type_symbol
 _atom_site_label
 _atom_site_symmetry_multiplicity
 _atom_site_fract_x
 _atom_site_fract_y
 _atom_site_fract_z
 _atom_site_occupancy
  Hf  Hf0  1  0.250000  0.027808  0.678962  1
  Hf  Hf1  1  0.750000  0.972192  0.321038  1
  Hf  Hf2  1  0.250000  0.527808  0.821038  1
  Hf  Hf3  1  0.750000  0.472192  0.178962  1
  Si  Si4  1  0.250000  0.758276  0.124213  1
  Si  Si5  1  0.750000  0.241724  0.875787  1
  Si  Si6  1  0.250000  0.258276  0.375787  1
  Si  Si7  1  0.750000  0.741724  0.624213  1
  Pd  Pd8  1  0.750000  0.356882  0.562110  1
  Pd  Pd9  1  0.250000  0.643118  0.437890  1
  Pd  Pd10  1  0.750000  0.856882  0.937890  1
  Pd  Pd11  1  0.250000  0.143118  0.062110  1
