# generated using pymatgen
data_SmGaSb2
_symmetry_space_group_name_H-M   'P 1'
_cell_length_a   11.43215513
_cell_length_b   11.43215513
_cell_length_c   4.37271106
_cell_angle_alpha   90.00000000
_cell_angle_beta   90.00000000
_cell_angle_gamma   158.13928723
_symmetry_Int_Tables_number   1
_chemical_formula_structural   SmGaSb2
_chemical_formula_sum   'Sm2 Ga2 Sb4'
_cell_volume   212.79434885
_cell_formula_units_Z   2
loop_
 _symmetry_equiv_pos_site_id
 _symmetry_equiv_pos_as_xyz
  1  'x, y, z'
loop_
 _atom_site_type_symbol
 _atom_site_label
 _atom_site_symmetry_multiplicity
 _atom_site_fract_x
 _atom_site_fract_y
 _atom_site_fract_z
 _atom_site_occupancy
  Sm  Sm0  1  0.862724  0.137276  0.250000  1
  Sm  Sm1  1  0.137276  0.862724  0.750000  1
  Ga  Ga2  1  0.158370  0.158370  0.000000  1
  Ga  Ga3  1  0.841630  0.841630  0.500000  1
  Sb  Sb4  1  0.249778  0.750222  0.250000  1
  Sb  Sb5  1  0.750222  0.249778  0.750000  1
  Sb  Sb6  1  0.407677  0.592323  0.750000  1
  Sb  Sb7  1  0.592323  0.407677  0.250000  1
