# generated using pymatgen
data_Ca5P12Ir19
_symmetry_space_group_name_H-M   'P 1'
_cell_length_a   12.68327481
_cell_length_b   12.68327481
_cell_length_c   4.00044224
_cell_angle_alpha   90.00000000
_cell_angle_beta   90.00000000
_cell_angle_gamma   120.00000000
_symmetry_Int_Tables_number   1
_chemical_formula_structural   Ca5P12Ir19
_chemical_formula_sum   'Ca5 P12 Ir19'
_cell_volume   557.31590908
_cell_formula_units_Z   1
loop_
 _symmetry_equiv_pos_site_id
 _symmetry_equiv_pos_as_xyz
  1  'x, y, z'
loop_
 _atom_site_type_symbol
 _atom_site_label
 _atom_site_symmetry_multiplicity
 _atom_site_fract_x
 _atom_site_fract_y
 _atom_site_fract_z
 _atom_site_occupancy
  Ca  Ca0  1  0.000000  0.182441  0.500000  1
  Ca  Ca1  1  0.817559  0.817559  0.500000  1
  Ca  Ca2  1  0.182441  0.000000  0.500000  1
  Ca  Ca3  1  0.666667  0.333333  0.000000  1
  Ca  Ca4  1  0.333333  0.666667  0.000000  1
  P  P5  1  0.484343  0.311280  0.500000  1
  P  P6  1  0.819521  0.000000  0.000000  1
  P  P7  1  0.180479  0.180479  0.000000  1
  P  P8  1  0.000000  0.819521  0.000000  1
  P  P9  1  0.357971  0.000000  0.000000  1
  P  P10  1  0.688720  0.173064  0.500000  1
  P  P11  1  0.826936  0.515657  0.500000  1
  P  P12  1  0.515657  0.826936  0.500000  1
  P  P13  1  0.173064  0.688720  0.500000  1
  P  P14  1  0.311280  0.484343  0.500000  1
  P  P15  1  0.000000  0.357971  0.000000  1
  P  P16  1  0.642029  0.642029  0.000000  1
  Ir  Ir17  1  0.802485  0.180636  0.000000  1
  Ir  Ir18  1  0.378150  0.197515  0.000000  1
  Ir  Ir19  1  0.638717  0.508197  0.500000  1
  Ir  Ir20  1  0.869480  0.361283  0.500000  1
  Ir  Ir21  1  0.361283  0.869480  0.500000  1
  Ir  Ir22  1  0.508197  0.638717  0.500000  1
  Ir  Ir23  1  0.130520  0.491803  0.500000  1
  Ir  Ir24  1  0.819364  0.621850  0.000000  1
  Ir  Ir25  1  0.621850  0.819364  0.000000  1
  Ir  Ir26  1  0.180636  0.802485  0.000000  1
  Ir  Ir27  1  0.197515  0.378150  0.000000  1
  Ir  Ir28  1  0.000000  0.712723  0.500000  1
  Ir  Ir29  1  0.287277  0.287277  0.500000  1
  Ir  Ir30  1  0.712723  0.000000  0.500000  1
  Ir  Ir31  1  0.000000  0.538482  0.000000  1
  Ir  Ir32  1  0.461518  0.461518  0.000000  1
  Ir  Ir33  1  0.538482  0.000000  0.000000  1
  Ir  Ir34  1  0.000000  0.000000  0.000000  1
  Ir  Ir35  1  0.491803  0.130520  0.500000  1
