# generated using pymatgen
data_TiO2
_symmetry_space_group_name_H-M   'P 1'
_cell_length_a   5.18107495
_cell_length_b   5.51182423
_cell_length_c   9.27393462
_cell_angle_alpha   90.00000000
_cell_angle_beta   90.00000000
_cell_angle_gamma   90.00000000
_symmetry_Int_Tables_number   1
_chemical_formula_structural   TiO2
_chemical_formula_sum   'Ti8 O16'
_cell_volume   264.83736875
_cell_formula_units_Z   8
loop_
 _symmetry_equiv_pos_site_id
 _symmetry_equiv_pos_as_xyz
  1  'x, y, z'
loop_
 _atom_site_type_symbol
 _atom_site_label
 _atom_site_symmetry_multiplicity
 _atom_site_fract_x
 _atom_site_fract_y
 _atom_site_fract_z
 _atom_site_occupancy
  Ti  Ti0  1  0.138146  0.407265  0.371013  1
  Ti  Ti1  1  0.638146  0.592735  0.128987  1
  Ti  Ti2  1  0.361854  0.907265  0.628987  1
  Ti  Ti3  1  0.861854  0.092735  0.871013  1
  Ti  Ti4  1  0.861854  0.592735  0.628987  1
  Ti  Ti5  1  0.361854  0.407265  0.871013  1
  Ti  Ti6  1  0.638146  0.092735  0.371013  1
  Ti  Ti7  1  0.138146  0.907265  0.128987  1
  O  O8  1  0.464315  0.391862  0.270273  1
  O  O9  1  0.964315  0.608138  0.229727  1
  O  O10  1  0.035685  0.891862  0.729727  1
  O  O11  1  0.535685  0.108138  0.770273  1
  O  O12  1  0.535685  0.608138  0.729727  1
  O  O13  1  0.035685  0.391862  0.770273  1
  O  O14  1  0.964315  0.108138  0.270273  1
  O  O15  1  0.464315  0.891862  0.229727  1
  O  O16  1  0.816566  0.851678  0.010307  1
  O  O17  1  0.316566  0.148322  0.489693  1
  O  O18  1  0.683434  0.351678  0.989693  1
  O  O19  1  0.183434  0.648322  0.510307  1
  O  O20  1  0.183434  0.148322  0.989693  1
  O  O21  1  0.683434  0.851678  0.510307  1
  O  O22  1  0.316566  0.648322  0.010307  1
  O  O23  1  0.816566  0.351678  0.489693  1
