# generated using pymatgen
data_Al2W
_symmetry_space_group_name_H-M   'P 1'
_cell_length_a   4.87286863
_cell_length_b   4.87286863
_cell_length_c   6.78679141
_cell_angle_alpha   90.00000000
_cell_angle_beta   90.00000000
_cell_angle_gamma   120.00000000
_symmetry_Int_Tables_number   1
_chemical_formula_structural   Al2W
_chemical_formula_sum   'Al6 W3'
_cell_volume   139.56114990
_cell_formula_units_Z   3
loop_
 _symmetry_equiv_pos_site_id
 _symmetry_equiv_pos_as_xyz
  1  'x, y, z'
loop_
 _atom_site_type_symbol
 _atom_site_label
 _atom_site_symmetry_multiplicity
 _atom_site_fract_x
 _atom_site_fract_y
 _atom_site_fract_z
 _atom_site_occupancy
  Al  Al0  1  0.168545  0.831455  0.166667  1
  Al  Al1  1  0.337089  0.168545  0.833333  1
  Al  Al2  1  0.831455  0.662911  0.500000  1
  Al  Al3  1  0.831455  0.168545  0.166667  1
  Al  Al4  1  0.662911  0.831455  0.833333  1
  Al  Al5  1  0.168545  0.337089  0.500000  1
  W  W6  1  0.500000  0.000000  0.500000  1
  W  W7  1  0.000000  0.500000  0.833333  1
  W  W8  1  0.500000  0.500000  0.166667  1
