# generated using pymatgen
data_Hg3(PO4)2
_symmetry_space_group_name_H-M   'P 1'
_cell_length_a   6.52886273
_cell_length_b   11.69084022
_cell_length_c   10.12748442
_cell_angle_alpha   90.00000000
_cell_angle_beta   99.43600509
_cell_angle_gamma   90.00000000
_symmetry_Int_Tables_number   1
_chemical_formula_structural   Hg3(PO4)2
_chemical_formula_sum   'Hg12 P8 O32'
_cell_volume   762.55019124
_cell_formula_units_Z   4
loop_
 _symmetry_equiv_pos_site_id
 _symmetry_equiv_pos_as_xyz
  1  'x, y, z'
loop_
 _atom_site_type_symbol
 _atom_site_label
 _atom_site_symmetry_multiplicity
 _atom_site_fract_x
 _atom_site_fract_y
 _atom_site_fract_z
 _atom_site_occupancy
  Hg  Hg0  1  0.079930  0.170596  0.347084  1
  Hg  Hg1  1  0.420070  0.670596  0.652916  1
  Hg  Hg2  1  0.920070  0.829404  0.652916  1
  Hg  Hg3  1  0.579930  0.329404  0.347084  1
  Hg  Hg4  1  0.668579  0.900225  0.305245  1
  Hg  Hg5  1  0.831421  0.400225  0.694755  1
  Hg  Hg6  1  0.331421  0.099775  0.694755  1
  Hg  Hg7  1  0.168579  0.599775  0.305245  1
  Hg  Hg8  1  0.820429  0.119338  0.960955  1
  Hg  Hg9  1  0.679571  0.619338  0.039045  1
  Hg  Hg10  1  0.179571  0.880662  0.039045  1
  Hg  Hg11  1  0.320429  0.380662  0.960955  1
  P  P12  1  0.900105  0.366363  0.106364  1
  P  P13  1  0.599895  0.866363  0.893636  1
  P  P14  1  0.099895  0.633637  0.893636  1
  P  P15  1  0.400105  0.133637  0.106364  1
  P  P16  1  0.188137  0.901255  0.388509  1
  P  P17  1  0.311863  0.401255  0.611491  1
  P  P18  1  0.811863  0.098745  0.611491  1
  P  P19  1  0.688137  0.598745  0.388509  1
  O  O20  1  0.097192  0.438780  0.137982  1
  O  O21  1  0.402808  0.938780  0.862018  1
  O  O22  1  0.902808  0.561220  0.862018  1
  O  O23  1  0.597192  0.061220  0.137982  1
  O  O24  1  0.695528  0.439549  0.084207  1
  O  O25  1  0.804472  0.939549  0.915793  1
  O  O26  1  0.304472  0.560451  0.915793  1
  O  O27  1  0.195528  0.060451  0.084207  1
  O  O28  1  0.866446  0.283367  0.223156  1
  O  O29  1  0.633554  0.783367  0.776844  1
  O  O30  1  0.133554  0.716633  0.776844  1
  O  O31  1  0.366446  0.216633  0.223156  1
  O  O32  1  0.914154  0.293968  0.976754  1
  O  O33  1  0.585846  0.793968  0.023246  1
  O  O34  1  0.085846  0.706032  0.023246  1
  O  O35  1  0.414154  0.206032  0.976754  1
  O  O36  1  0.181706  0.813716  0.500812  1
  O  O37  1  0.318294  0.313716  0.499188  1
  O  O38  1  0.818294  0.186284  0.499188  1
  O  O39  1  0.681706  0.686284  0.500812  1
  O  O40  1  0.740023  0.476394  0.448752  1
  O  O41  1  0.759977  0.976394  0.551248  1
  O  O42  1  0.259977  0.523606  0.551248  1
  O  O43  1  0.240023  0.023606  0.448752  1
  O  O44  1  0.483000  0.593288  0.283497  1
  O  O45  1  0.017000  0.093288  0.716503  1
  O  O46  1  0.517000  0.406712  0.716503  1
  O  O47  1  0.983000  0.906712  0.283497  1
  O  O48  1  0.850749  0.636798  0.297993  1
  O  O49  1  0.649251  0.136798  0.702007  1
  O  O50  1  0.149251  0.363202  0.702007  1
  O  O51  1  0.350749  0.863202  0.297993  1
