# generated using pymatgen
data_YbZnAu
_symmetry_space_group_name_H-M   'P 1'
_cell_length_a   4.35574232
_cell_length_b   7.14007462
_cell_length_c   8.16301096
_cell_angle_alpha   90.00000000
_cell_angle_beta   90.00000000
_cell_angle_gamma   90.00000000
_symmetry_Int_Tables_number   1
_chemical_formula_structural   YbZnAu
_chemical_formula_sum   'Yb4 Zn4 Au4'
_cell_volume   253.87229539
_cell_formula_units_Z   4
loop_
 _symmetry_equiv_pos_site_id
 _symmetry_equiv_pos_as_xyz
  1  'x, y, z'
loop_
 _atom_site_type_symbol
 _atom_site_label
 _atom_site_symmetry_multiplicity
 _atom_site_fract_x
 _atom_site_fract_y
 _atom_site_fract_z
 _atom_site_occupancy
  Yb  Yb0  1  0.750000  0.472486  0.808905  1
  Yb  Yb1  1  0.250000  0.027514  0.308905  1
  Yb  Yb2  1  0.750000  0.972486  0.691095  1
  Yb  Yb3  1  0.250000  0.527514  0.191095  1
  Zn  Zn4  1  0.250000  0.655602  0.567484  1
  Zn  Zn5  1  0.250000  0.155602  0.932516  1
  Zn  Zn6  1  0.750000  0.344398  0.432516  1
  Zn  Zn7  1  0.750000  0.844398  0.067484  1
  Au  Au8  1  0.250000  0.767622  0.885321  1
  Au  Au9  1  0.250000  0.267622  0.614679  1
  Au  Au10  1  0.750000  0.732378  0.385321  1
  Au  Au11  1  0.750000  0.232378  0.114679  1
