# generated using pymatgen
data_Na2Sn2Se5
_symmetry_space_group_name_H-M   'P 1'
_cell_length_a   11.87059460
_cell_length_b   12.70977016
_cell_length_c   14.30867369
_cell_angle_alpha   90.00000000
_cell_angle_beta   90.00000000
_cell_angle_gamma   90.00000000
_symmetry_Int_Tables_number   1
_chemical_formula_structural   Na2Sn2Se5
_chemical_formula_sum   'Na16 Sn16 Se40'
_cell_volume   2158.78578665
_cell_formula_units_Z   8
loop_
 _symmetry_equiv_pos_site_id
 _symmetry_equiv_pos_as_xyz
  1  'x, y, z'
loop_
 _atom_site_type_symbol
 _atom_site_label
 _atom_site_symmetry_multiplicity
 _atom_site_fract_x
 _atom_site_fract_y
 _atom_site_fract_z
 _atom_site_occupancy
  Na  Na0  1  0.750163  0.754368  0.287195  1
  Na  Na1  1  0.250163  0.245632  0.212805  1
  Na  Na2  1  0.749837  0.254368  0.712805  1
  Na  Na3  1  0.249837  0.745632  0.787195  1
  Na  Na4  1  0.249837  0.245632  0.712805  1
  Na  Na5  1  0.749837  0.754368  0.787195  1
  Na  Na6  1  0.250163  0.745632  0.287195  1
  Na  Na7  1  0.750163  0.254368  0.212805  1
  Na  Na8  1  0.005336  0.501201  0.238590  1
  Na  Na9  1  0.505336  0.498799  0.261410  1
  Na  Na10  1  0.494664  0.001201  0.761410  1
  Na  Na11  1  0.994664  0.998799  0.738590  1
  Na  Na12  1  0.994664  0.498799  0.761410  1
  Na  Na13  1  0.494664  0.501201  0.738590  1
  Na  Na14  1  0.505336  0.998799  0.238590  1
  Na  Na15  1  0.005336  0.001201  0.261410  1
  Sn  Sn16  1  0.556373  0.718870  0.054373  1
  Sn  Sn17  1  0.765261  0.468198  0.472063  1
  Sn  Sn18  1  0.265261  0.531802  0.027937  1
  Sn  Sn19  1  0.734739  0.968198  0.527937  1
  Sn  Sn20  1  0.234739  0.031802  0.972063  1
  Sn  Sn21  1  0.234739  0.531802  0.527937  1
  Sn  Sn22  1  0.734739  0.468198  0.972063  1
  Sn  Sn23  1  0.265261  0.031802  0.472063  1
  Sn  Sn24  1  0.765261  0.968198  0.027937  1
  Sn  Sn25  1  0.556373  0.218870  0.445627  1
  Sn  Sn26  1  0.056373  0.781130  0.054373  1
  Sn  Sn27  1  0.943627  0.718870  0.554373  1
  Sn  Sn28  1  0.443627  0.281130  0.945627  1
  Sn  Sn29  1  0.443627  0.781130  0.554373  1
  Sn  Sn30  1  0.943627  0.218870  0.945627  1
  Sn  Sn31  1  0.056373  0.281130  0.445627  1
  Se  Se32  1  0.070728  0.620658  0.435468  1
  Se  Se33  1  0.002164  0.251924  0.279376  1
  Se  Se34  1  0.502164  0.748076  0.220624  1
  Se  Se35  1  0.497836  0.751924  0.720624  1
  Se  Se36  1  0.997836  0.248076  0.779376  1
  Se  Se37  1  0.997836  0.748076  0.720624  1
  Se  Se38  1  0.497836  0.251924  0.779376  1
  Se  Se39  1  0.502164  0.248076  0.279376  1
  Se  Se40  1  0.002164  0.751924  0.220624  1
  Se  Se41  1  0.759210  0.999039  0.200395  1
  Se  Se42  1  0.259210  0.000961  0.299605  1
  Se  Se43  1  0.740790  0.499039  0.799605  1
  Se  Se44  1  0.240790  0.500961  0.700395  1
  Se  Se45  1  0.240790  0.000961  0.799605  1
  Se  Se46  1  0.740790  0.999039  0.700395  1
  Se  Se47  1  0.259210  0.500961  0.200395  1
  Se  Se48  1  0.757040  0.637890  0.069834  1
  Se  Se49  1  0.257040  0.362110  0.430166  1
  Se  Se50  1  0.742960  0.137890  0.930166  1
  Se  Se51  1  0.242960  0.862110  0.569834  1
  Se  Se52  1  0.242960  0.362110  0.930166  1
  Se  Se53  1  0.742960  0.637890  0.569834  1
  Se  Se54  1  0.257040  0.862110  0.069834  1
  Se  Se55  1  0.757040  0.137890  0.430166  1
  Se  Se56  1  0.906207  0.878823  0.445853  1
  Se  Se57  1  0.406207  0.121177  0.054147  1
  Se  Se58  1  0.593793  0.378823  0.554147  1
  Se  Se59  1  0.093793  0.621177  0.945853  1
  Se  Se60  1  0.570728  0.379342  0.064532  1
  Se  Se61  1  0.593793  0.878823  0.945853  1
  Se  Se62  1  0.406207  0.621177  0.445853  1
  Se  Se63  1  0.906207  0.378823  0.054147  1
  Se  Se64  1  0.570728  0.879342  0.435468  1
  Se  Se65  1  0.070728  0.120658  0.064532  1
  Se  Se66  1  0.929272  0.379342  0.564532  1
  Se  Se67  1  0.429272  0.620658  0.935468  1
  Se  Se68  1  0.429272  0.120658  0.564532  1
  Se  Se69  1  0.929272  0.879342  0.935468  1
  Se  Se70  1  0.759210  0.499039  0.299605  1
  Se  Se71  1  0.093793  0.121177  0.554147  1
