# generated using pymatgen
data_VS
_symmetry_space_group_name_H-M   'P 1'
_cell_length_a   3.20809406
_cell_length_b   5.79284835
_cell_length_c   5.84974412
_cell_angle_alpha   90.00000000
_cell_angle_beta   90.00000000
_cell_angle_gamma   90.00000000
_symmetry_Int_Tables_number   1
_chemical_formula_structural   VS
_chemical_formula_sum   'V4 S4'
_cell_volume   108.71165875
_cell_formula_units_Z   4
loop_
 _symmetry_equiv_pos_site_id
 _symmetry_equiv_pos_as_xyz
  1  'x, y, z'
loop_
 _atom_site_type_symbol
 _atom_site_label
 _atom_site_symmetry_multiplicity
 _atom_site_fract_x
 _atom_site_fract_y
 _atom_site_fract_z
 _atom_site_occupancy
  V  V0  1  0.250000  0.802256  0.989696  1
  V  V1  1  0.250000  0.697744  0.489696  1
  V  V2  1  0.750000  0.302256  0.510304  1
  V  V3  1  0.750000  0.197744  0.010304  1
  S  S4  1  0.750000  0.923163  0.719776  1
  S  S5  1  0.250000  0.076837  0.280224  1
  S  S6  1  0.250000  0.423163  0.780224  1
  S  S7  1  0.750000  0.576837  0.219776  1
