# generated using pymatgen
data_Na2BeSiO4
_symmetry_space_group_name_H-M   'P 1'
_cell_length_a   7.08418496
_cell_length_b   5.01443487
_cell_length_c   10.03288796
_cell_angle_alpha   90.00000000
_cell_angle_beta   90.08528283
_cell_angle_gamma   90.00000000
_symmetry_Int_Tables_number   1
_chemical_formula_structural   Na2BeSiO4
_chemical_formula_sum   'Na8 Be4 Si4 O16'
_cell_volume   356.39973107
_cell_formula_units_Z   4
loop_
 _symmetry_equiv_pos_site_id
 _symmetry_equiv_pos_as_xyz
  1  'x, y, z'
loop_
 _atom_site_type_symbol
 _atom_site_label
 _atom_site_symmetry_multiplicity
 _atom_site_fract_x
 _atom_site_fract_y
 _atom_site_fract_z
 _atom_site_occupancy
  Na  Na0  1  0.998335  0.791934  0.609706  1
  Na  Na1  1  0.734729  0.318467  0.640968  1
  Na  Na2  1  0.265271  0.818467  0.859032  1
  Na  Na3  1  0.265271  0.681533  0.359032  1
  Na  Na4  1  0.734729  0.181533  0.140968  1
  Na  Na5  1  0.001665  0.291934  0.890294  1
  Na  Na6  1  0.998335  0.708066  0.109706  1
  Na  Na7  1  0.001665  0.208066  0.390294  1
  Be  Be8  1  0.501147  0.158304  0.412037  1
  Be  Be9  1  0.498853  0.658304  0.087963  1
  Be  Be10  1  0.498853  0.841696  0.587963  1
  Be  Be11  1  0.501147  0.341696  0.912037  1
  Si  Si12  1  0.278755  0.156149  0.157347  1
  Si  Si13  1  0.278755  0.343851  0.657347  1
  Si  Si14  1  0.721245  0.843851  0.842653  1
  Si  Si15  1  0.721245  0.656149  0.342653  1
  O  O16  1  0.437070  0.165184  0.573722  1
  O  O17  1  0.684207  0.160731  0.880561  1
  O  O18  1  0.315793  0.660731  0.619439  1
  O  O19  1  0.315793  0.839269  0.119439  1
  O  O20  1  0.684207  0.339269  0.380561  1
  O  O21  1  0.060719  0.234882  0.124530  1
  O  O22  1  0.562930  0.665184  0.926278  1
  O  O23  1  0.562930  0.834816  0.426278  1
  O  O24  1  0.437070  0.334816  0.073722  1
  O  O25  1  0.319302  0.294459  0.818001  1
  O  O26  1  0.680698  0.794459  0.681999  1
  O  O27  1  0.680698  0.705541  0.181999  1
  O  O28  1  0.939281  0.765118  0.875470  1
  O  O29  1  0.939281  0.734882  0.375470  1
  O  O30  1  0.060719  0.265118  0.624530  1
  O  O31  1  0.319302  0.205541  0.318001  1
