# generated using pymatgen
data_Li4P2O7
_symmetry_space_group_name_H-M   'P 1'
_cell_length_a   5.58059774
_cell_length_b   5.82218016
_cell_length_c   9.98866926
_cell_angle_alpha   103.36247594
_cell_angle_beta   97.73722124
_cell_angle_gamma   98.42206550
_symmetry_Int_Tables_number   1
_chemical_formula_structural   Li4P2O7
_chemical_formula_sum   'Li8 P4 O14'
_cell_volume   307.52976534
_cell_formula_units_Z   2
loop_
 _symmetry_equiv_pos_site_id
 _symmetry_equiv_pos_as_xyz
  1  'x, y, z'
loop_
 _atom_site_type_symbol
 _atom_site_label
 _atom_site_symmetry_multiplicity
 _atom_site_fract_x
 _atom_site_fract_y
 _atom_site_fract_z
 _atom_site_occupancy
  Li  Li0  1  0.202657  0.897330  0.192764  1
  Li  Li1  1  0.797343  0.102670  0.807236  1
  Li  Li2  1  0.596257  0.314216  0.421446  1
  Li  Li3  1  0.403743  0.685784  0.578554  1
  Li  Li4  1  0.709198  0.761340  0.304517  1
  Li  Li5  1  0.290802  0.238660  0.695483  1
  Li  Li6  1  0.698338  0.687872  0.000423  1
  Li  Li7  1  0.301662  0.312128  0.999577  1
  P  P8  1  0.830135  0.288512  0.131364  1
  P  P9  1  0.169865  0.711488  0.868636  1
  P  P10  1  0.033610  0.220266  0.425828  1
  P  P11  1  0.966390  0.779734  0.574172  1
  O  O12  1  0.037748  0.363842  0.261538  1
  O  O13  1  0.962252  0.636158  0.738462  1
  O  O14  1  0.647236  0.464552  0.134006  1
  O  O15  1  0.352764  0.535448  0.865994  1
  O  O16  1  0.543136  0.023374  0.247133  1
  O  O17  1  0.456864  0.976626  0.752867  1
  O  O18  1  0.937983  0.240366  0.997516  1
  O  O19  1  0.062017  0.759634  0.002484  1
  O  O20  1  0.673881  0.021651  0.125102  1
  O  O21  1  0.326119  0.978349  0.874898  1
  O  O22  1  0.301125  0.331130  0.508699  1
  O  O23  1  0.698875  0.668870  0.491301  1
  O  O24  1  0.040326  0.958792  0.345090  1
  O  O25  1  0.959674  0.041208  0.654910  1
