# generated using pymatgen
data_BeAgPO4
_symmetry_space_group_name_H-M   'P 1'
_cell_length_a   8.32969936
_cell_length_b   7.99686473
_cell_length_c   16.80049653
_cell_angle_alpha   90.00000000
_cell_angle_beta   119.52510567
_cell_angle_gamma   90.00000000
_symmetry_Int_Tables_number   1
_chemical_formula_structural   BeAgPO4
_chemical_formula_sum   'Be12 Ag12 P12 O48'
_cell_volume   973.77865231
_cell_formula_units_Z   12
loop_
 _symmetry_equiv_pos_site_id
 _symmetry_equiv_pos_as_xyz
  1  'x, y, z'
loop_
 _atom_site_type_symbol
 _atom_site_label
 _atom_site_symmetry_multiplicity
 _atom_site_fract_x
 _atom_site_fract_y
 _atom_site_fract_z
 _atom_site_occupancy
  Be  Be0  1  0.014901  0.673054  0.918601  1
  Be  Be1  1  0.342463  0.329096  0.408849  1
  Be  Be2  1  0.657537  0.829096  0.091151  1
  Be  Be3  1  0.657537  0.670904  0.591151  1
  Be  Be4  1  0.342463  0.170904  0.908849  1
  Be  Be5  1  0.985099  0.326946  0.081399  1
  Be  Be6  1  0.014901  0.826946  0.418601  1
  Be  Be7  1  0.985099  0.173054  0.581399  1
  Be  Be8  1  0.679653  0.325737  0.258034  1
  Be  Be9  1  0.320347  0.825737  0.241966  1
  Be  Be10  1  0.320347  0.674263  0.741966  1
  Be  Be11  1  0.679653  0.174263  0.758034  1
  Ag  Ag12  1  0.722734  0.485711  0.435454  1
  Ag  Ag13  1  0.277266  0.985711  0.064546  1
  Ag  Ag14  1  0.277266  0.514289  0.564546  1
  Ag  Ag15  1  0.722734  0.014289  0.935454  1
  Ag  Ag16  1  0.635675  0.019549  0.414367  1
  Ag  Ag17  1  0.364325  0.519549  0.085633  1
  Ag  Ag18  1  0.364325  0.980451  0.585633  1
  Ag  Ag19  1  0.635675  0.480451  0.914367  1
  Ag  Ag20  1  0.001847  0.493138  0.252124  1
  Ag  Ag21  1  0.998153  0.993138  0.247876  1
  Ag  Ag22  1  0.998153  0.506862  0.747876  1
  Ag  Ag23  1  0.001847  0.006862  0.752124  1
  P  P24  1  0.659463  0.205354  0.089538  1
  P  P25  1  0.340537  0.705354  0.410462  1
  P  P26  1  0.340537  0.794646  0.910462  1
  P  P27  1  0.659463  0.294646  0.589538  1
  P  P28  1  0.022152  0.203549  0.417645  1
  P  P29  1  0.977848  0.703549  0.082355  1
  P  P30  1  0.977848  0.796451  0.582355  1
  P  P31  1  0.022152  0.296451  0.917645  1
  P  P32  1  0.320217  0.207795  0.238058  1
  P  P33  1  0.679783  0.707795  0.261942  1
  P  P34  1  0.679783  0.792205  0.761942  1
  P  P35  1  0.320217  0.292205  0.738058  1
  O  O36  1  0.617909  0.024205  0.106413  1
  O  O37  1  0.384537  0.824905  0.350786  1
  O  O38  1  0.384537  0.675095  0.850786  1
  O  O39  1  0.615463  0.175095  0.649214  1
  O  O40  1  0.188625  0.321528  0.442812  1
  O  O41  1  0.811375  0.821528  0.057188  1
  O  O42  1  0.811375  0.678472  0.557188  1
  O  O43  1  0.188625  0.178472  0.942812  1
  O  O44  1  0.538310  0.245893  0.487121  1
  O  O45  1  0.794525  0.821597  0.345893  1
  O  O46  1  0.794525  0.678403  0.845893  1
  O  O47  1  0.205475  0.178403  0.654107  1
  O  O48  1  0.279719  0.477881  0.705428  1
  O  O49  1  0.720281  0.977881  0.794572  1
  O  O50  1  0.720281  0.522119  0.294572  1
  O  O51  1  0.279719  0.022119  0.205428  1
  O  O52  1  0.092120  0.479623  0.933195  1
  O  O53  1  0.615463  0.324905  0.149214  1
  O  O54  1  0.907880  0.979623  0.566805  1
  O  O55  1  0.907880  0.520377  0.066805  1
  O  O56  1  0.092120  0.020377  0.433195  1
  O  O57  1  0.617909  0.475795  0.606413  1
  O  O58  1  0.382091  0.975795  0.893587  1
  O  O59  1  0.382091  0.524205  0.393587  1
  O  O60  1  0.259527  0.268012  0.811249  1
  O  O61  1  0.740473  0.768012  0.688751  1
  O  O62  1  0.740473  0.731988  0.188751  1
  O  O63  1  0.259527  0.231988  0.311249  1
  O  O64  1  0.876282  0.273362  0.815596  1
  O  O65  1  0.123718  0.773362  0.684404  1
  O  O66  1  0.123718  0.726638  0.184404  1
  O  O67  1  0.876282  0.226638  0.315596  1
  O  O68  1  0.866994  0.280643  0.617870  1
  O  O69  1  0.133006  0.780643  0.882130  1
  O  O70  1  0.133006  0.719357  0.382130  1
  O  O71  1  0.866994  0.219357  0.117870  1
  O  O72  1  0.528035  0.254631  0.781004  1
  O  O73  1  0.471965  0.754631  0.718996  1
  O  O74  1  0.471965  0.745369  0.218996  1
  O  O75  1  0.528035  0.245369  0.281004  1
  O  O76  1  0.938432  0.253615  0.979928  1
  O  O77  1  0.061568  0.753615  0.520072  1
  O  O78  1  0.061568  0.746385  0.020072  1
  O  O79  1  0.938432  0.246385  0.479928  1
  O  O80  1  0.538310  0.254107  0.987121  1
  O  O81  1  0.461690  0.754107  0.512879  1
  O  O82  1  0.461690  0.745893  0.012879  1
  O  O83  1  0.205475  0.321597  0.154107  1
