# generated using pymatgen
data_Sb2O3
_symmetry_space_group_name_H-M   'P 1'
_cell_length_a   8.12544545
_cell_length_b   8.12544545
_cell_length_c   8.12544545
_cell_angle_alpha   60.00000000
_cell_angle_beta   60.00000000
_cell_angle_gamma   60.00000000
_symmetry_Int_Tables_number   1
_chemical_formula_structural   Sb2O3
_chemical_formula_sum   'Sb8 O12'
_cell_volume   379.33816546
_cell_formula_units_Z   4
loop_
 _symmetry_equiv_pos_site_id
 _symmetry_equiv_pos_as_xyz
  1  'x, y, z'
loop_
 _atom_site_type_symbol
 _atom_site_label
 _atom_site_symmetry_multiplicity
 _atom_site_fract_x
 _atom_site_fract_y
 _atom_site_fract_z
 _atom_site_occupancy
  Sb  Sb0  1  0.362478  0.362478  0.912567  1
  Sb  Sb1  1  0.887522  0.337433  0.887522  1
  Sb  Sb2  1  0.887522  0.887522  0.887522  1
  Sb  Sb3  1  0.337433  0.887522  0.887522  1
  Sb  Sb4  1  0.362478  0.362478  0.362478  1
  Sb  Sb5  1  0.912567  0.362478  0.362478  1
  Sb  Sb6  1  0.362478  0.912567  0.362478  1
  Sb  Sb7  1  0.887522  0.887522  0.337433  1
  O  O8  1  0.185089  0.814911  0.814911  1
  O  O9  1  0.435089  0.064911  0.064911  1
  O  O10  1  0.814911  0.814911  0.185089  1
  O  O11  1  0.185089  0.814911  0.185089  1
  O  O12  1  0.814911  0.185089  0.814911  1
  O  O13  1  0.185089  0.185089  0.814911  1
  O  O14  1  0.435089  0.435089  0.064911  1
  O  O15  1  0.064911  0.064911  0.435089  1
  O  O16  1  0.814911  0.185089  0.185089  1
  O  O17  1  0.435089  0.064911  0.435089  1
  O  O18  1  0.064911  0.435089  0.064911  1
  O  O19  1  0.064911  0.435089  0.435089  1
