# generated using pymatgen
data_Mg3Au
_symmetry_space_group_name_H-M   'P 1'
_cell_length_a   8.12385295
_cell_length_b   8.12385295
_cell_length_c   8.58982898
_cell_angle_alpha   90.00000000
_cell_angle_beta   90.00000000
_cell_angle_gamma   120.00000000
_symmetry_Int_Tables_number   1
_chemical_formula_structural   Mg3Au
_chemical_formula_sum   'Mg18 Au6'
_cell_volume   490.95225183
_cell_formula_units_Z   6
loop_
 _symmetry_equiv_pos_site_id
 _symmetry_equiv_pos_as_xyz
  1  'x, y, z'
loop_
 _atom_site_type_symbol
 _atom_site_label
 _atom_site_symmetry_multiplicity
 _atom_site_fract_x
 _atom_site_fract_y
 _atom_site_fract_z
 _atom_site_occupancy
  Mg  Mg0  1  0.946098  0.633718  0.578272  1
  Mg  Mg1  1  0.366282  0.312380  0.578272  1
  Mg  Mg2  1  0.687620  0.053902  0.578272  1
  Mg  Mg3  1  0.312380  0.366282  0.921728  1
  Mg  Mg4  1  0.053902  0.687620  0.921728  1
  Mg  Mg5  1  0.633718  0.946098  0.921728  1
  Mg  Mg6  1  0.000000  0.000000  0.250000  1
  Mg  Mg7  1  0.000000  0.000000  0.750000  1
  Mg  Mg8  1  0.333333  0.666667  0.184329  1
  Mg  Mg9  1  0.666667  0.333333  0.315671  1
  Mg  Mg10  1  0.666667  0.333333  0.815671  1
  Mg  Mg11  1  0.333333  0.666667  0.684329  1
  Mg  Mg12  1  0.366282  0.053902  0.078272  1
  Mg  Mg13  1  0.946098  0.312380  0.078272  1
  Mg  Mg14  1  0.687620  0.633718  0.078272  1
  Mg  Mg15  1  0.312380  0.946098  0.421728  1
  Mg  Mg16  1  0.633718  0.687620  0.421728  1
  Mg  Mg17  1  0.053902  0.366282  0.421728  1
  Au  Au18  1  0.660210  0.660210  0.750000  1
  Au  Au19  1  0.000000  0.339790  0.750000  1
  Au  Au20  1  0.339790  0.000000  0.750000  1
  Au  Au21  1  0.339790  0.339790  0.250000  1
  Au  Au22  1  0.000000  0.660210  0.250000  1
  Au  Au23  1  0.660210  0.000000  0.250000  1
