# generated using pymatgen
data_Cd3SiO5
_symmetry_space_group_name_H-M   'P 1'
_cell_length_a   6.92604117
_cell_length_b   6.92604117
_cell_length_c   5.07476618
_cell_angle_alpha   90.00000000
_cell_angle_beta   90.00000000
_cell_angle_gamma   90.00000000
_symmetry_Int_Tables_number   1
_chemical_formula_structural   Cd3SiO5
_chemical_formula_sum   'Cd6 Si2 O10'
_cell_volume   243.43676856
_cell_formula_units_Z   2
loop_
 _symmetry_equiv_pos_site_id
 _symmetry_equiv_pos_as_xyz
  1  'x, y, z'
loop_
 _atom_site_type_symbol
 _atom_site_label
 _atom_site_symmetry_multiplicity
 _atom_site_fract_x
 _atom_site_fract_y
 _atom_site_fract_z
 _atom_site_occupancy
  Cd  Cd0  1  0.500000  0.000000  0.966267  1
  Cd  Cd1  1  0.000000  0.500000  0.033733  1
  Cd  Cd2  1  0.250000  0.250000  0.500000  1
  Cd  Cd3  1  0.750000  0.250000  0.500000  1
  Cd  Cd4  1  0.250000  0.750000  0.500000  1
  Cd  Cd5  1  0.750000  0.750000  0.500000  1
  Si  Si6  1  0.000000  0.000000  0.000000  1
  Si  Si7  1  0.500000  0.500000  0.000000  1
  O  O8  1  0.500000  0.000000  0.393772  1
  O  O9  1  0.000000  0.500000  0.606228  1
  O  O10  1  0.500000  0.311061  0.801805  1
  O  O11  1  0.500000  0.688939  0.801805  1
  O  O12  1  0.188939  0.000000  0.801805  1
  O  O13  1  0.811061  0.000000  0.801805  1
  O  O14  1  0.311061  0.500000  0.198195  1
  O  O15  1  0.000000  0.188939  0.198195  1
  O  O16  1  0.688939  0.500000  0.198195  1
  O  O17  1  0.000000  0.811061  0.198195  1
