# generated using pymatgen
data_Ni3Mo
_symmetry_space_group_name_H-M   'P 1'
_cell_length_a   4.23580340
_cell_length_b   4.46213618
_cell_length_c   5.02450706
_cell_angle_alpha   90.00000000
_cell_angle_beta   90.00000000
_cell_angle_gamma   90.00000000
_symmetry_Int_Tables_number   1
_chemical_formula_structural   Ni3Mo
_chemical_formula_sum   'Ni6 Mo2'
_cell_volume   94.96685938
_cell_formula_units_Z   2
loop_
 _symmetry_equiv_pos_site_id
 _symmetry_equiv_pos_as_xyz
  1  'x, y, z'
loop_
 _atom_site_type_symbol
 _atom_site_label
 _atom_site_symmetry_multiplicity
 _atom_site_fract_x
 _atom_site_fract_y
 _atom_site_fract_z
 _atom_site_occupancy
  Ni  Ni0  1  0.500000  0.159494  0.751147  1
  Ni  Ni1  1  0.500000  0.159494  0.248853  1
  Ni  Ni2  1  0.000000  0.840506  0.748853  1
  Ni  Ni3  1  0.000000  0.840506  0.251147  1
  Ni  Ni4  1  0.000000  0.337795  0.500000  1
  Ni  Ni5  1  0.500000  0.662205  0.000000  1
  Mo  Mo6  1  0.500000  0.657008  0.500000  1
  Mo  Mo7  1  0.000000  0.342992  0.000000  1
