# generated using pymatgen
data_KO3
_symmetry_space_group_name_H-M   'P 1'
_cell_length_a   7.21840636
_cell_length_b   7.21840636
_cell_length_c   7.21840636
_cell_angle_alpha   104.53834576
_cell_angle_beta   104.53834576
_cell_angle_gamma   119.86408362
_symmetry_Int_Tables_number   1
_chemical_formula_structural   KO3
_chemical_formula_sum   'K4 O12'
_cell_volume   282.28032555
_cell_formula_units_Z   4
loop_
 _symmetry_equiv_pos_site_id
 _symmetry_equiv_pos_as_xyz
  1  'x, y, z'
loop_
 _atom_site_type_symbol
 _atom_site_label
 _atom_site_symmetry_multiplicity
 _atom_site_fract_x
 _atom_site_fract_y
 _atom_site_fract_z
 _atom_site_occupancy
  K  K0  1  0.750000  0.250000  0.500000  1
  K  K1  1  0.250000  0.750000  0.500000  1
  K  K2  1  0.750000  0.750000  0.000000  1
  K  K3  1  0.250000  0.250000  0.000000  1
  O  O4  1  0.566345  0.750677  0.317022  1
  O  O5  1  0.750677  0.433655  0.184332  1
  O  O6  1  0.249323  0.566345  0.815668  1
  O  O7  1  0.433655  0.249323  0.682978  1
  O  O8  1  0.281495  0.218505  0.500000  1
  O  O9  1  0.781495  0.281495  0.062989  1
  O  O10  1  0.218505  0.718505  0.937011  1
  O  O11  1  0.718505  0.781495  0.500000  1
  O  O12  1  0.250677  0.066345  0.317022  1
  O  O13  1  0.933655  0.250677  0.184332  1
  O  O14  1  0.066345  0.749323  0.815668  1
  O  O15  1  0.749323  0.933655  0.682978  1
