# generated using pymatgen
data_Mg2B2O5
_symmetry_space_group_name_H-M   'P 1'
_cell_length_a   9.29319998
_cell_length_b   3.16215193
_cell_length_c   12.43499396
_cell_angle_alpha   90.00000000
_cell_angle_beta   104.49605489
_cell_angle_gamma   90.00000000
_symmetry_Int_Tables_number   1
_chemical_formula_structural   Mg2B2O5
_chemical_formula_sum   'Mg8 B8 O20'
_cell_volume   353.78785288
_cell_formula_units_Z   4
loop_
 _symmetry_equiv_pos_site_id
 _symmetry_equiv_pos_as_xyz
  1  'x, y, z'
loop_
 _atom_site_type_symbol
 _atom_site_label
 _atom_site_symmetry_multiplicity
 _atom_site_fract_x
 _atom_site_fract_y
 _atom_site_fract_z
 _atom_site_occupancy
  Mg  Mg0  1  0.643699  0.790791  0.394934  1
  Mg  Mg1  1  0.356301  0.290791  0.105066  1
  Mg  Mg2  1  0.356301  0.209209  0.605066  1
  Mg  Mg3  1  0.643699  0.709209  0.894934  1
  Mg  Mg4  1  0.102450  0.713843  0.685851  1
  Mg  Mg5  1  0.897550  0.213843  0.814149  1
  Mg  Mg6  1  0.897550  0.286157  0.314149  1
  Mg  Mg7  1  0.102450  0.786157  0.185851  1
  B  B8  1  0.169275  0.849711  0.439547  1
  B  B9  1  0.830725  0.349711  0.060453  1
  B  B10  1  0.830725  0.150289  0.560453  1
  B  B11  1  0.169275  0.650289  0.939547  1
  B  B12  1  0.356185  0.275589  0.840656  1
  B  B13  1  0.643815  0.775589  0.659344  1
  B  B14  1  0.643815  0.724411  0.159344  1
  B  B15  1  0.356185  0.224411  0.340656  1
  O  O16  1  0.496262  0.799412  0.137007  1
  O  O17  1  0.503738  0.299412  0.362993  1
  O  O18  1  0.503738  0.200588  0.862993  1
  O  O19  1  0.496262  0.700588  0.637007  1
  O  O20  1  0.258646  0.272026  0.237951  1
  O  O21  1  0.741354  0.772026  0.262049  1
  O  O22  1  0.741354  0.727974  0.762049  1
  O  O23  1  0.258646  0.227974  0.737951  1
  O  O24  1  0.180871  0.771964  0.046481  1
  O  O25  1  0.819129  0.271964  0.453519  1
  O  O26  1  0.819129  0.228036  0.953519  1
  O  O27  1  0.180871  0.728036  0.546481  1
  O  O28  1  0.946255  0.287846  0.152057  1
  O  O29  1  0.053745  0.787846  0.347943  1
  O  O30  1  0.053745  0.712154  0.847943  1
  O  O31  1  0.946255  0.212154  0.652057  1
  O  O32  1  0.299442  0.422504  0.930453  1
  O  O33  1  0.700558  0.922504  0.569547  1
  O  O34  1  0.700558  0.577496  0.069547  1
  O  O35  1  0.299442  0.077496  0.430453  1
