# generated using pymatgen
data_Er2Cu(B2O5)2
_symmetry_space_group_name_H-M   'P 1'
_cell_length_a   4.59348269
_cell_length_b   7.26863399
_cell_length_c   9.34457777
_cell_angle_alpha   90.00000000
_cell_angle_beta   90.38821443
_cell_angle_gamma   90.00000000
_symmetry_Int_Tables_number   1
_chemical_formula_structural   Er2Cu(B2O5)2
_chemical_formula_sum   'Er4 Cu2 B8 O20'
_cell_volume   311.99281920
_cell_formula_units_Z   2
loop_
 _symmetry_equiv_pos_site_id
 _symmetry_equiv_pos_as_xyz
  1  'x, y, z'
loop_
 _atom_site_type_symbol
 _atom_site_label
 _atom_site_symmetry_multiplicity
 _atom_site_fract_x
 _atom_site_fract_y
 _atom_site_fract_z
 _atom_site_occupancy
  Er  Er0  1  0.003716  0.396014  0.165046  1
  Er  Er1  1  0.996284  0.896014  0.334954  1
  Er  Er2  1  0.003716  0.103986  0.665046  1
  Er  Er3  1  0.996284  0.603986  0.834954  1
  Cu  Cu4  1  0.000000  0.000000  0.000000  1
  Cu  Cu5  1  0.000000  0.500000  0.500000  1
  B  B6  1  0.539413  0.268337  0.919639  1
  B  B7  1  0.460587  0.768337  0.580361  1
  B  B8  1  0.460587  0.731663  0.080361  1
  B  B9  1  0.539413  0.231663  0.419639  1
  B  B10  1  0.528208  0.598379  0.337629  1
  B  B11  1  0.471792  0.098379  0.162371  1
  B  B12  1  0.528208  0.901621  0.837629  1
  B  B13  1  0.471792  0.401621  0.662371  1
  O  O14  1  0.358532  0.222652  0.047773  1
  O  O15  1  0.641468  0.722652  0.452227  1
  O  O16  1  0.657994  0.835169  0.699240  1
  O  O17  1  0.342006  0.335169  0.800760  1
  O  O18  1  0.342006  0.164831  0.300760  1
  O  O19  1  0.657994  0.664831  0.199240  1
  O  O20  1  0.677368  0.087859  0.861776  1
  O  O21  1  0.322632  0.587859  0.638224  1
  O  O22  1  0.322632  0.912141  0.138224  1
  O  O23  1  0.677368  0.412141  0.361776  1
  O  O24  1  0.214237  0.910556  0.833554  1
  O  O25  1  0.785763  0.410556  0.666446  1
  O  O26  1  0.785763  0.089444  0.166446  1
  O  O27  1  0.214237  0.589444  0.333554  1
  O  O28  1  0.771277  0.110862  0.458232  1
  O  O29  1  0.228723  0.610862  0.041768  1
  O  O30  1  0.228723  0.889138  0.541768  1
  O  O31  1  0.771277  0.389138  0.958232  1
  O  O32  1  0.641468  0.777348  0.952227  1
  O  O33  1  0.358532  0.277348  0.547773  1
