# generated using pymatgen
data_BaMg2Si2O7
_symmetry_space_group_name_H-M   'P 1'
_cell_length_a   7.40411871
_cell_length_b   7.40411871
_cell_length_c   13.90877438
_cell_angle_alpha   89.88573272
_cell_angle_beta   90.11426728
_cell_angle_gamma   59.52659740
_symmetry_Int_Tables_number   1
_chemical_formula_structural   BaMg2Si2O7
_chemical_formula_sum   'Ba4 Mg8 Si8 O28'
_cell_volume   657.16009512
_cell_formula_units_Z   4
loop_
 _symmetry_equiv_pos_site_id
 _symmetry_equiv_pos_as_xyz
  1  'x, y, z'
loop_
 _atom_site_type_symbol
 _atom_site_label
 _atom_site_symmetry_multiplicity
 _atom_site_fract_x
 _atom_site_fract_y
 _atom_site_fract_z
 _atom_site_occupancy
  Ba  Ba0  1  0.814890  0.217916  0.379365  1
  Ba  Ba1  1  0.217916  0.814890  0.120635  1
  Ba  Ba2  1  0.185110  0.782084  0.620635  1
  Ba  Ba3  1  0.782084  0.185110  0.879365  1
  Mg  Mg4  1  0.768892  0.768892  0.250000  1
  Mg  Mg5  1  0.231108  0.231108  0.750000  1
  Mg  Mg6  1  0.229232  0.229232  0.250000  1
  Mg  Mg7  1  0.770768  0.770768  0.750000  1
  Mg  Mg8  1  0.197233  0.272630  0.991219  1
  Mg  Mg9  1  0.272630  0.197233  0.508781  1
  Mg  Mg10  1  0.802767  0.727370  0.008781  1
  Mg  Mg11  1  0.727370  0.802767  0.491219  1
  Si  Si12  1  0.588504  0.159083  0.133658  1
  Si  Si13  1  0.159083  0.588504  0.366342  1
  Si  Si14  1  0.411496  0.840917  0.866342  1
  Si  Si15  1  0.840917  0.411496  0.633658  1
  Si  Si16  1  0.782904  0.427201  0.121144  1
  Si  Si17  1  0.427201  0.782904  0.378856  1
  Si  Si18  1  0.217096  0.572799  0.878856  1
  Si  Si19  1  0.572799  0.217096  0.621144  1
  O  O20  1  0.350929  0.201559  0.114530  1
  O  O21  1  0.201559  0.350929  0.385470  1
  O  O22  1  0.649071  0.798441  0.885470  1
  O  O23  1  0.798441  0.649071  0.614530  1
  O  O24  1  0.945536  0.286702  0.205273  1
  O  O25  1  0.286702  0.945536  0.294727  1
  O  O26  1  0.054464  0.713298  0.794727  1
  O  O27  1  0.713298  0.054464  0.705273  1
  O  O28  1  0.890293  0.388324  0.014539  1
  O  O29  1  0.388324  0.890293  0.485461  1
  O  O30  1  0.109707  0.611676  0.985461  1
  O  O31  1  0.611676  0.109707  0.514539  1
  O  O32  1  0.677199  0.682834  0.134236  1
  O  O33  1  0.682834  0.677199  0.365764  1
  O  O34  1  0.322801  0.317166  0.865764  1
  O  O35  1  0.317166  0.322801  0.634236  1
  O  O36  1  0.576575  0.391559  0.121313  1
  O  O37  1  0.391559  0.576575  0.378687  1
  O  O38  1  0.423425  0.608441  0.878687  1
  O  O39  1  0.608441  0.423425  0.621313  1
  O  O40  1  0.639757  0.078443  0.245805  1
  O  O41  1  0.078443  0.639757  0.254195  1
  O  O42  1  0.360243  0.921557  0.754195  1
  O  O43  1  0.921557  0.360243  0.745805  1
  O  O44  1  0.767232  0.001207  0.057866  1
  O  O45  1  0.001207  0.767232  0.442134  1
  O  O46  1  0.232768  0.998793  0.942134  1
  O  O47  1  0.998793  0.232768  0.557866  1
