# generated using pymatgen
data_Tm2AlSi2
_symmetry_space_group_name_H-M   'P 1'
_cell_length_a   5.52566227
_cell_length_b   5.52566227
_cell_length_c   5.52566227
_cell_angle_alpha   137.31637713
_cell_angle_beta   116.87945712
_cell_angle_gamma   79.20921428
_symmetry_Int_Tables_number   1
_chemical_formula_structural   Tm2AlSi2
_chemical_formula_sum   'Tm2 Al1 Si2'
_cell_volume   99.04054945
_cell_formula_units_Z   1
loop_
 _symmetry_equiv_pos_site_id
 _symmetry_equiv_pos_as_xyz
  1  'x, y, z'
loop_
 _atom_site_type_symbol
 _atom_site_label
 _atom_site_symmetry_multiplicity
 _atom_site_fract_x
 _atom_site_fract_y
 _atom_site_fract_z
 _atom_site_occupancy
  Tm  Tm0  1  0.288825  0.788825  0.500000  1
  Tm  Tm1  1  0.711175  0.211175  0.500000  1
  Al  Al2  1  0.000000  0.000000  0.000000  1
  Si  Si3  1  0.289042  0.500000  0.789042  1
  Si  Si4  1  0.710958  0.500000  0.210958  1
