# generated using pymatgen
data_Ba2LiReN4
_symmetry_space_group_name_H-M   'P 1'
_cell_length_a   6.59054915
_cell_length_b   6.06459666
_cell_length_c   7.59404177
_cell_angle_alpha   90.00000000
_cell_angle_beta   109.89053972
_cell_angle_gamma   90.00000000
_symmetry_Int_Tables_number   1
_chemical_formula_structural   Ba2LiReN4
_chemical_formula_sum   'Ba4 Li2 Re2 N8'
_cell_volume   285.41934844
_cell_formula_units_Z   2
loop_
 _symmetry_equiv_pos_site_id
 _symmetry_equiv_pos_as_xyz
  1  'x, y, z'
loop_
 _atom_site_type_symbol
 _atom_site_label
 _atom_site_symmetry_multiplicity
 _atom_site_fract_x
 _atom_site_fract_y
 _atom_site_fract_z
 _atom_site_occupancy
  Ba  Ba0  1  0.265903  0.250000  0.947838  1
  Ba  Ba1  1  0.734097  0.750000  0.052162  1
  Ba  Ba2  1  0.810842  0.750000  0.579638  1
  Ba  Ba3  1  0.189158  0.250000  0.420362  1
  Li  Li4  1  0.351300  0.750000  0.630492  1
  Li  Li5  1  0.648700  0.250000  0.369508  1
  Re  Re6  1  0.708358  0.250000  0.785599  1
  Re  Re7  1  0.291642  0.750000  0.214401  1
  N  N8  1  0.468099  0.507328  0.266023  1
  N  N9  1  0.531901  0.007328  0.733977  1
  N  N10  1  0.531901  0.492672  0.733977  1
  N  N11  1  0.468099  0.992672  0.266023  1
  N  N12  1  0.118208  0.750000  0.365102  1
  N  N13  1  0.881792  0.250000  0.634898  1
  N  N14  1  0.125324  0.750000  0.966968  1
  N  N15  1  0.874676  0.250000  0.033032  1
