# generated using pymatgen
data_TmB2C
_symmetry_space_group_name_H-M   'P 1'
_cell_length_a   6.75634833
_cell_length_b   6.75634833
_cell_length_c   7.29345743
_cell_angle_alpha   90.00000000
_cell_angle_beta   90.00000000
_cell_angle_gamma   90.00000000
_symmetry_Int_Tables_number   1
_chemical_formula_structural   TmB2C
_chemical_formula_sum   'Tm8 B16 C8'
_cell_volume   332.93351530
_cell_formula_units_Z   8
loop_
 _symmetry_equiv_pos_site_id
 _symmetry_equiv_pos_as_xyz
  1  'x, y, z'
loop_
 _atom_site_type_symbol
 _atom_site_label
 _atom_site_symmetry_multiplicity
 _atom_site_fract_x
 _atom_site_fract_y
 _atom_site_fract_z
 _atom_site_occupancy
  Tm  Tm0  1  0.309200  0.809200  0.750000  1
  Tm  Tm1  1  0.190800  0.309200  0.250000  1
  Tm  Tm2  1  0.809200  0.690800  0.250000  1
  Tm  Tm3  1  0.690800  0.190800  0.750000  1
  Tm  Tm4  1  0.690800  0.190800  0.250000  1
  Tm  Tm5  1  0.809200  0.690800  0.750000  1
  Tm  Tm6  1  0.190800  0.309200  0.750000  1
  Tm  Tm7  1  0.309200  0.809200  0.250000  1
  B  B8  1  0.152526  0.034419  0.000000  1
  B  B9  1  0.534419  0.652526  0.500000  1
  B  B10  1  0.847474  0.965581  0.000000  1
  B  B11  1  0.347474  0.534419  0.000000  1
  B  B12  1  0.652526  0.465581  0.000000  1
  B  B13  1  0.034419  0.847474  0.500000  1
  B  B14  1  0.965581  0.152526  0.500000  1
  B  B15  1  0.465581  0.347474  0.500000  1
  B  B16  1  0.096926  0.593877  0.000000  1
  B  B17  1  0.406123  0.096926  0.500000  1
  B  B18  1  0.593877  0.903074  0.500000  1
  B  B19  1  0.596926  0.906123  0.000000  1
  B  B20  1  0.403074  0.093877  0.000000  1
  B  B21  1  0.903074  0.406123  0.000000  1
  B  B22  1  0.093877  0.596926  0.500000  1
  B  B23  1  0.906123  0.403074  0.500000  1
  C  C24  1  0.177626  0.040234  0.500000  1
  C  C25  1  0.677626  0.459766  0.500000  1
  C  C26  1  0.322374  0.540234  0.500000  1
  C  C27  1  0.959766  0.177626  0.000000  1
  C  C28  1  0.040234  0.822374  0.000000  1
  C  C29  1  0.540234  0.677626  0.000000  1
  C  C30  1  0.822374  0.959766  0.500000  1
  C  C31  1  0.459766  0.322374  0.000000  1
