# generated using pymatgen
data_Sr(AlS2)2
_symmetry_space_group_name_H-M   'P 1'
_cell_length_a   14.80099958
_cell_length_b   12.24695325
_cell_length_c   11.99332891
_cell_angle_alpha   75.25696610
_cell_angle_beta   53.14911196
_cell_angle_gamma   51.59392193
_symmetry_Int_Tables_number   1
_chemical_formula_structural   Sr(AlS2)2
_chemical_formula_sum   'Sr8 Al16 S32'
_cell_volume   1338.83009155
_cell_formula_units_Z   8
loop_
 _symmetry_equiv_pos_site_id
 _symmetry_equiv_pos_as_xyz
  1  'x, y, z'
loop_
 _atom_site_type_symbol
 _atom_site_label
 _atom_site_symmetry_multiplicity
 _atom_site_fract_x
 _atom_site_fract_y
 _atom_site_fract_z
 _atom_site_occupancy
  Sr  Sr0  1  0.498694  0.498694  0.001306  1
  Sr  Sr1  1  0.001306  0.001306  0.498694  1
  Sr  Sr2  1  0.751306  0.751306  0.248694  1
  Sr  Sr3  1  0.248694  0.248694  0.751306  1
  Sr  Sr4  1  0.250000  0.250000  0.250000  1
  Sr  Sr5  1  0.000000  0.000000  1.000000  1
  Sr  Sr6  1  0.750000  0.750000  0.750000  1
  Sr  Sr7  1  0.500000  0.500000  0.500000  1
  Al  Al8  1  0.233175  0.516042  0.490641  1
  Al  Al9  1  0.760142  0.490641  0.516042  1
  Al  Al10  1  0.490641  0.760142  0.233175  1
  Al  Al11  1  0.516042  0.233175  0.760142  1
  Al  Al12  1  0.016825  0.733958  0.759359  1
  Al  Al13  1  0.489858  0.759359  0.733958  1
  Al  Al14  1  0.759359  0.489858  0.016825  1
  Al  Al15  1  0.733958  0.016825  0.489858  1
  Al  Al16  1  0.093639  0.656558  0.261925  1
  Al  Al17  1  0.987879  0.261925  0.656558  1
  Al  Al18  1  0.261925  0.987879  0.093639  1
  Al  Al19  1  0.656558  0.093639  0.987879  1
  Al  Al20  1  0.156361  0.593442  0.988075  1
  Al  Al21  1  0.262121  0.988075  0.593442  1
  Al  Al22  1  0.988075  0.262121  0.156361  1
  Al  Al23  1  0.593442  0.156361  0.262121  1
  S  S24  1  0.815529  0.935845  0.785052  1
  S  S25  1  0.463574  0.785052  0.935845  1
  S  S26  1  0.785052  0.463574  0.815529  1
  S  S27  1  0.935845  0.815529  0.463574  1
  S  S28  1  0.434471  0.314155  0.464948  1
  S  S29  1  0.786426  0.464948  0.314155  1
  S  S30  1  0.464948  0.786426  0.434471  1
  S  S31  1  0.314155  0.434471  0.786426  1
  S  S32  1  0.545521  0.543224  0.705108  1
  S  S33  1  0.206148  0.705108  0.543224  1
  S  S34  1  0.705108  0.206148  0.545521  1
  S  S35  1  0.543224  0.545521  0.206148  1
  S  S36  1  0.704479  0.706776  0.544892  1
  S  S37  1  0.043852  0.544892  0.706776  1
  S  S38  1  0.544892  0.043852  0.704479  1
  S  S39  1  0.706776  0.704479  0.043852  1
  S  S40  1  0.044663  0.043362  0.705342  1
  S  S41  1  0.206633  0.705342  0.043362  1
  S  S42  1  0.705342  0.206633  0.044663  1
  S  S43  1  0.043362  0.044663  0.206633  1
  S  S44  1  0.205337  0.206638  0.544658  1
  S  S45  1  0.043367  0.544658  0.206638  1
  S  S46  1  0.544658  0.043367  0.205337  1
  S  S47  1  0.206638  0.205337  0.043367  1
  S  S48  1  0.479574  0.268996  0.962671  1
  S  S49  1  0.288759  0.962671  0.268996  1
  S  S50  1  0.962671  0.288759  0.479574  1
  S  S51  1  0.268996  0.479574  0.288759  1
  S  S52  1  0.770426  0.981004  0.287329  1
  S  S53  1  0.961241  0.287329  0.981004  1
  S  S54  1  0.287329  0.961241  0.770426  1
  S  S55  1  0.981004  0.770426  0.961241  1
