# generated using pymatgen
data_YbZnSn
_symmetry_space_group_name_H-M   'P 1'
_cell_length_a   4.66192374
_cell_length_b   4.66192374
_cell_length_c   7.45599455
_cell_angle_alpha   90.00000000
_cell_angle_beta   90.00000000
_cell_angle_gamma   120.00000000
_symmetry_Int_Tables_number   1
_chemical_formula_structural   YbZnSn
_chemical_formula_sum   'Yb2 Zn2 Sn2'
_cell_volume   140.33517602
_cell_formula_units_Z   2
loop_
 _symmetry_equiv_pos_site_id
 _symmetry_equiv_pos_as_xyz
  1  'x, y, z'
loop_
 _atom_site_type_symbol
 _atom_site_label
 _atom_site_symmetry_multiplicity
 _atom_site_fract_x
 _atom_site_fract_y
 _atom_site_fract_z
 _atom_site_occupancy
  Yb  Yb0  1  0.000000  0.000000  0.251831  1
  Yb  Yb1  1  0.000000  0.000000  0.751831  1
  Zn  Zn2  1  0.666667  0.333333  0.566106  1
  Zn  Zn3  1  0.333333  0.666667  0.066106  1
  Sn  Sn4  1  0.666667  0.333333  0.971763  1
  Sn  Sn5  1  0.333333  0.666667  0.471763  1
