# generated using pymatgen
data_CeGa
_symmetry_space_group_name_H-M   'P 1'
_cell_length_a   5.98933539
_cell_length_b   5.98933539
_cell_length_c   4.13452372
_cell_angle_alpha   90.00000000
_cell_angle_beta   90.00000000
_cell_angle_gamma   136.68877287
_symmetry_Int_Tables_number   1
_chemical_formula_structural   CeGa
_chemical_formula_sum   'Ce2 Ga2'
_cell_volume   101.73775395
_cell_formula_units_Z   2
loop_
 _symmetry_equiv_pos_site_id
 _symmetry_equiv_pos_as_xyz
  1  'x, y, z'
loop_
 _atom_site_type_symbol
 _atom_site_label
 _atom_site_symmetry_multiplicity
 _atom_site_fract_x
 _atom_site_fract_y
 _atom_site_fract_z
 _atom_site_occupancy
  Ce  Ce0  1  0.857529  0.142471  0.250000  1
  Ce  Ce1  1  0.142471  0.857529  0.750000  1
  Ga  Ga2  1  0.572079  0.427921  0.250000  1
  Ga  Ga3  1  0.427921  0.572079  0.750000  1
