# generated using pymatgen
data_BaBrCl
_symmetry_space_group_name_H-M   'P 1'
_cell_length_a   4.89283845
_cell_length_b   8.32261055
_cell_length_c   9.63777796
_cell_angle_alpha   90.00000000
_cell_angle_beta   90.00000000
_cell_angle_gamma   90.00000000
_symmetry_Int_Tables_number   1
_chemical_formula_structural   BaBrCl
_chemical_formula_sum   'Ba4 Br4 Cl4'
_cell_volume   392.46177692
_cell_formula_units_Z   4
loop_
 _symmetry_equiv_pos_site_id
 _symmetry_equiv_pos_as_xyz
  1  'x, y, z'
loop_
 _atom_site_type_symbol
 _atom_site_label
 _atom_site_symmetry_multiplicity
 _atom_site_fract_x
 _atom_site_fract_y
 _atom_site_fract_z
 _atom_site_occupancy
  Ba  Ba0  1  0.750000  0.735534  0.120358  1
  Ba  Ba1  1  0.250000  0.264466  0.879642  1
  Ba  Ba2  1  0.750000  0.235534  0.379642  1
  Ba  Ba3  1  0.250000  0.764466  0.620358  1
  Br  Br4  1  0.750000  0.970713  0.831354  1
  Br  Br5  1  0.250000  0.029287  0.168646  1
  Br  Br6  1  0.750000  0.470713  0.668646  1
  Br  Br7  1  0.250000  0.529287  0.331354  1
  Cl  Cl8  1  0.750000  0.857435  0.431421  1
  Cl  Cl9  1  0.250000  0.142565  0.568579  1
  Cl  Cl10  1  0.750000  0.357435  0.068579  1
  Cl  Cl11  1  0.250000  0.642565  0.931421  1
