# generated using pymatgen
data_VAg3O4
_symmetry_space_group_name_H-M   'P 1'
_cell_length_a   6.13369190
_cell_length_b   6.13369190
_cell_length_c   6.13369190
_cell_angle_alpha   131.18723662
_cell_angle_beta   131.18723662
_cell_angle_gamma   71.51576772
_symmetry_Int_Tables_number   1
_chemical_formula_structural   VAg3O4
_chemical_formula_sum   'V1 Ag3 O4'
_cell_volume   127.89215270
_cell_formula_units_Z   1
loop_
 _symmetry_equiv_pos_site_id
 _symmetry_equiv_pos_as_xyz
  1  'x, y, z'
loop_
 _atom_site_type_symbol
 _atom_site_label
 _atom_site_symmetry_multiplicity
 _atom_site_fract_x
 _atom_site_fract_y
 _atom_site_fract_z
 _atom_site_occupancy
  V  V0  1  0.000000  0.000000  0.000000  1
  Ag  Ag1  1  0.500000  0.500000  0.000000  1
  Ag  Ag2  1  0.250000  0.750000  0.500000  1
  Ag  Ag3  1  0.750000  0.250000  0.500000  1
  O  O4  1  0.697112  0.697112  0.598150  1
  O  O5  1  0.098962  0.098962  0.401850  1
  O  O6  1  0.302888  0.901038  1.000000  1
  O  O7  1  0.901038  0.302888  0.000000  1
