# generated using pymatgen
data_LiFe(WO4)2
_symmetry_space_group_name_H-M   'P 1'
_cell_length_a   7.45769563
_cell_length_b   7.45769563
_cell_length_c   5.01793854
_cell_angle_alpha   89.27344496
_cell_angle_beta   90.72655504
_cell_angle_gamma   78.45391951
_symmetry_Int_Tables_number   1
_chemical_formula_structural   LiFe(WO4)2
_chemical_formula_sum   'Li2 Fe2 W4 O16'
_cell_volume   273.38130979
_cell_formula_units_Z   2
loop_
 _symmetry_equiv_pos_site_id
 _symmetry_equiv_pos_as_xyz
  1  'x, y, z'
loop_
 _atom_site_type_symbol
 _atom_site_label
 _atom_site_symmetry_multiplicity
 _atom_site_fract_x
 _atom_site_fract_y
 _atom_site_fract_z
 _atom_site_occupancy
  Li  Li0  1  0.841765  0.841765  0.750000  1
  Li  Li1  1  0.158235  0.158235  0.250000  1
  Fe  Fe2  1  0.670825  0.670825  0.250000  1
  Fe  Fe3  1  0.329175  0.329175  0.750000  1
  W  W4  1  0.336922  0.839434  0.744101  1
  W  W5  1  0.839434  0.336922  0.755899  1
  W  W6  1  0.663078  0.160566  0.255899  1
  W  W7  1  0.160566  0.663078  0.244101  1
  O  O8  1  0.422510  0.696775  0.422695  1
  O  O9  1  0.696775  0.422510  0.077305  1
  O  O10  1  0.577490  0.303225  0.577305  1
  O  O11  1  0.303225  0.577490  0.922695  1
  O  O12  1  0.562466  0.799478  0.913484  1
  O  O13  1  0.799478  0.562466  0.586516  1
  O  O14  1  0.437534  0.200522  0.086516  1
  O  O15  1  0.200522  0.437534  0.413484  1
  O  O16  1  0.193880  0.903507  0.056122  1
  O  O17  1  0.903507  0.193880  0.443878  1
  O  O18  1  0.806120  0.096493  0.943878  1
  O  O19  1  0.096493  0.806120  0.556122  1
  O  O20  1  0.316433  0.071768  0.608874  1
  O  O21  1  0.071768  0.316433  0.891126  1
  O  O22  1  0.683567  0.928232  0.391126  1
  O  O23  1  0.928232  0.683567  0.108874  1
