# generated using pymatgen
data_YMgCu
_symmetry_space_group_name_H-M   'P 1'
_cell_length_a   7.50111304
_cell_length_b   7.50111304
_cell_length_c   3.95953929
_cell_angle_alpha   90.00000000
_cell_angle_beta   90.00000000
_cell_angle_gamma   120.00000000
_symmetry_Int_Tables_number   1
_chemical_formula_structural   YMgCu
_chemical_formula_sum   'Y3 Mg3 Cu3'
_cell_volume   192.94197020
_cell_formula_units_Z   3
loop_
 _symmetry_equiv_pos_site_id
 _symmetry_equiv_pos_as_xyz
  1  'x, y, z'
loop_
 _atom_site_type_symbol
 _atom_site_label
 _atom_site_symmetry_multiplicity
 _atom_site_fract_x
 _atom_site_fract_y
 _atom_site_fract_z
 _atom_site_occupancy
  Y  Y0  1  0.000000  0.586308  0.000000  1
  Y  Y1  1  0.586308  0.000000  0.000000  1
  Y  Y2  1  0.413692  0.413692  0.000000  1
  Mg  Mg3  1  0.000000  0.243331  0.500000  1
  Mg  Mg4  1  0.756669  0.756669  0.500000  1
  Mg  Mg5  1  0.243331  0.000000  0.500000  1
  Cu  Cu6  1  0.333333  0.666667  0.500000  1
  Cu  Cu7  1  0.000000  0.000000  0.000000  1
  Cu  Cu8  1  0.666667  0.333333  0.500000  1
