# generated using pymatgen
data_Ag7AsS6
_symmetry_space_group_name_H-M   'P 1'
_cell_length_a   10.64731893
_cell_length_b   10.64731893
_cell_length_c   10.64731893
_cell_angle_alpha   90.00000000
_cell_angle_beta   90.00000000
_cell_angle_gamma   90.00000000
_symmetry_Int_Tables_number   1
_chemical_formula_structural   Ag7AsS6
_chemical_formula_sum   'Ag28 As4 S24'
_cell_volume   1207.03757366
_cell_formula_units_Z   4
loop_
 _symmetry_equiv_pos_site_id
 _symmetry_equiv_pos_as_xyz
  1  'x, y, z'
loop_
 _atom_site_type_symbol
 _atom_site_label
 _atom_site_symmetry_multiplicity
 _atom_site_fract_x
 _atom_site_fract_y
 _atom_site_fract_z
 _atom_site_occupancy
  Ag  Ag0  1  0.649122  0.676989  0.988685  1
  Ag  Ag1  1  0.149122  0.823011  0.011315  1
  Ag  Ag2  1  0.350878  0.176989  0.511315  1
  Ag  Ag3  1  0.823011  0.011315  0.149122  1
  Ag  Ag4  1  0.511315  0.350878  0.176989  1
  Ag  Ag5  1  0.011315  0.149122  0.823011  1
  Ag  Ag6  1  0.676989  0.988685  0.649122  1
  Ag  Ag7  1  0.988685  0.649122  0.676989  1
  Ag  Ag8  1  0.176989  0.511315  0.350878  1
  Ag  Ag9  1  0.323011  0.488685  0.850878  1
  Ag  Ag10  1  0.488685  0.850878  0.323011  1
  Ag  Ag11  1  0.850878  0.323011  0.488685  1
  Ag  Ag12  1  0.756488  0.472003  0.266018  1
  Ag  Ag13  1  0.256488  0.027997  0.733982  1
  Ag  Ag14  1  0.243512  0.972003  0.233982  1
  Ag  Ag15  1  0.027997  0.733982  0.256488  1
  Ag  Ag16  1  0.233982  0.243512  0.972003  1
  Ag  Ag17  1  0.733982  0.256488  0.027997  1
  Ag  Ag18  1  0.472003  0.266018  0.756488  1
  Ag  Ag19  1  0.266018  0.756488  0.472003  1
  Ag  Ag20  1  0.972003  0.233982  0.243512  1
  Ag  Ag21  1  0.527997  0.766018  0.743512  1
  Ag  Ag22  1  0.766018  0.743512  0.527997  1
  Ag  Ag23  1  0.743512  0.527997  0.766018  1
  Ag  Ag24  1  0.102682  0.397318  0.602682  1
  Ag  Ag25  1  0.397318  0.602682  0.102682  1
  Ag  Ag26  1  0.602682  0.102682  0.397318  1
  Ag  Ag27  1  0.897318  0.897318  0.897318  1
  As  As28  1  0.495529  0.004471  0.995529  1
  As  As29  1  0.004471  0.995529  0.495529  1
  As  As30  1  0.995529  0.495529  0.004471  1
  As  As31  1  0.504471  0.504471  0.504471  1
  S  S32  1  0.869536  0.617698  0.116008  1
  S  S33  1  0.369536  0.882302  0.883992  1
  S  S34  1  0.130464  0.117698  0.383992  1
  S  S35  1  0.882302  0.883992  0.369536  1
  S  S36  1  0.383992  0.130464  0.117698  1
  S  S37  1  0.883992  0.369536  0.882302  1
  S  S38  1  0.617698  0.116008  0.869536  1
  S  S39  1  0.116008  0.869536  0.617698  1
  S  S40  1  0.117698  0.383992  0.130464  1
  S  S41  1  0.382302  0.616008  0.630464  1
  S  S42  1  0.616008  0.630464  0.382302  1
  S  S43  1  0.630464  0.382302  0.616008  1
  S  S44  1  0.234632  0.265368  0.734632  1
  S  S45  1  0.028123  0.028123  0.028123  1
  S  S46  1  0.265368  0.734632  0.234632  1
  S  S47  1  0.765368  0.765368  0.765368  1
  S  S48  1  0.616706  0.883294  0.116706  1
  S  S49  1  0.883294  0.116706  0.616706  1
  S  S50  1  0.116706  0.616706  0.883294  1
  S  S51  1  0.383294  0.383294  0.383294  1
  S  S52  1  0.971877  0.528123  0.471877  1
  S  S53  1  0.528123  0.471877  0.971877  1
  S  S54  1  0.471877  0.971877  0.528123  1
  S  S55  1  0.734632  0.234632  0.265368  1
