# generated using pymatgen
data_BaNd2FeS5
_symmetry_space_group_name_H-M   'P 1'
_cell_length_a   8.76646829
_cell_length_b   8.76646829
_cell_length_c   8.76646829
_cell_angle_alpha   126.45383755
_cell_angle_beta   126.45383755
_cell_angle_gamma   79.14349963
_symmetry_Int_Tables_number   1
_chemical_formula_structural   BaNd2FeS5
_chemical_formula_sum   'Ba2 Nd4 Fe2 S10'
_cell_volume   421.50237184
_cell_formula_units_Z   2
loop_
 _symmetry_equiv_pos_site_id
 _symmetry_equiv_pos_as_xyz
  1  'x, y, z'
loop_
 _atom_site_type_symbol
 _atom_site_label
 _atom_site_symmetry_multiplicity
 _atom_site_fract_x
 _atom_site_fract_y
 _atom_site_fract_z
 _atom_site_occupancy
  Ba  Ba0  1  0.750000  0.750000  0.000000  1
  Ba  Ba1  1  0.250000  0.250000  0.000000  1
  Nd  Nd2  1  0.838092  0.661908  0.500000  1
  Nd  Nd3  1  0.661908  0.161908  0.823816  1
  Nd  Nd4  1  0.338092  0.838092  0.176184  1
  Nd  Nd5  1  0.161908  0.338092  0.500000  1
  Fe  Fe6  1  0.250000  0.750000  0.500000  1
  Fe  Fe7  1  0.750000  0.250000  0.500000  1
  S  S8  1  0.987662  0.487662  0.204579  1
  S  S9  1  0.716916  0.216916  0.204579  1
  S  S10  1  0.012338  0.512338  0.795421  1
  S  S11  1  0.512338  0.716916  0.500000  1
  S  S12  1  0.216916  0.012338  0.500000  1
  S  S13  1  0.487662  0.283084  0.500000  1
  S  S14  1  0.783084  0.987662  0.500000  1
  S  S15  1  0.283084  0.783084  0.795421  1
  S  S16  1  0.000000  0.000000  0.000000  1
  S  S17  1  0.500000  0.500000  0.000000  1
