# generated using pymatgen
data_Ce3ZrO8
_symmetry_space_group_name_H-M   'P 1'
_cell_length_a   7.66242303
_cell_length_b   7.66242303
_cell_length_c   5.43929993
_cell_angle_alpha   89.83533856
_cell_angle_beta   90.16466144
_cell_angle_gamma   89.62513015
_symmetry_Int_Tables_number   1
_chemical_formula_structural   Ce3ZrO8
_chemical_formula_sum   'Ce6 Zr2 O16'
_cell_volume   319.34664008
_cell_formula_units_Z   2
loop_
 _symmetry_equiv_pos_site_id
 _symmetry_equiv_pos_as_xyz
  1  'x, y, z'
loop_
 _atom_site_type_symbol
 _atom_site_label
 _atom_site_symmetry_multiplicity
 _atom_site_fract_x
 _atom_site_fract_y
 _atom_site_fract_z
 _atom_site_occupancy
  Ce  Ce0  1  0.122090  0.632187  0.240309  1
  Ce  Ce1  1  0.625452  0.625452  0.250000  1
  Ce  Ce2  1  0.367813  0.877910  0.740309  1
  Ce  Ce3  1  0.877910  0.367813  0.759691  1
  Ce  Ce4  1  0.632187  0.122090  0.259691  1
  Ce  Ce5  1  0.374548  0.374548  0.750000  1
  Zr  Zr6  1  0.867755  0.867755  0.750000  1
  Zr  Zr7  1  0.132245  0.132245  0.250000  1
  O  O8  1  0.105277  0.864070  0.943985  1
  O  O9  1  0.866925  0.618164  0.012878  1
  O  O10  1  0.886063  0.643919  0.523473  1
  O  O11  1  0.135930  0.894723  0.443985  1
  O  O12  1  0.643919  0.886063  0.976527  1
  O  O13  1  0.381079  0.635919  0.002355  1
  O  O14  1  0.364081  0.618921  0.502355  1
  O  O15  1  0.618164  0.866925  0.487122  1
  O  O16  1  0.133075  0.381836  0.987122  1
  O  O17  1  0.894723  0.135930  0.056015  1
  O  O18  1  0.864070  0.105277  0.556015  1
  O  O19  1  0.113937  0.356081  0.476527  1
  O  O20  1  0.618921  0.364081  0.997645  1
  O  O21  1  0.356081  0.113937  0.023473  1
  O  O22  1  0.381836  0.133075  0.512878  1
  O  O23  1  0.635919  0.381079  0.497645  1
