# generated using pymatgen
data_Sb3Ir
_symmetry_space_group_name_H-M   'P 1'
_cell_length_a   8.13597499
_cell_length_b   8.13597499
_cell_length_c   8.13597499
_cell_angle_alpha   109.47122063
_cell_angle_beta   109.47122063
_cell_angle_gamma   109.47122063
_symmetry_Int_Tables_number   1
_chemical_formula_structural   Sb3Ir
_chemical_formula_sum   'Sb12 Ir4'
_cell_volume   414.57864108
_cell_formula_units_Z   4
loop_
 _symmetry_equiv_pos_site_id
 _symmetry_equiv_pos_as_xyz
  1  'x, y, z'
loop_
 _atom_site_type_symbol
 _atom_site_label
 _atom_site_symmetry_multiplicity
 _atom_site_fract_x
 _atom_site_fract_y
 _atom_site_fract_z
 _atom_site_occupancy
  Sb  Sb0  1  0.506262  0.846032  0.660230  1
  Sb  Sb1  1  0.185803  0.846032  0.339770  1
  Sb  Sb2  1  0.814197  0.153968  0.660230  1
  Sb  Sb3  1  0.153968  0.339770  0.493738  1
  Sb  Sb4  1  0.493738  0.153968  0.339770  1
  Sb  Sb5  1  0.153968  0.660230  0.814197  1
  Sb  Sb6  1  0.339770  0.185803  0.846032  1
  Sb  Sb7  1  0.846032  0.660230  0.506262  1
  Sb  Sb8  1  0.660230  0.814197  0.153968  1
  Sb  Sb9  1  0.846032  0.339770  0.185803  1
  Sb  Sb10  1  0.660230  0.506262  0.846032  1
  Sb  Sb11  1  0.339770  0.493738  0.153968  1
  Ir  Ir12  1  0.500000  0.000000  0.000000  1
  Ir  Ir13  1  0.000000  0.000000  0.500000  1
  Ir  Ir14  1  0.000000  0.500000  0.000000  1
  Ir  Ir15  1  0.500000  0.500000  0.500000  1
