# generated using pymatgen
data_SiRu2
_symmetry_space_group_name_H-M   'P 1'
_cell_length_a   4.03764518
_cell_length_b   5.32526902
_cell_length_c   7.45303621
_cell_angle_alpha   90.00000000
_cell_angle_beta   90.00000000
_cell_angle_gamma   90.00000000
_symmetry_Int_Tables_number   1
_chemical_formula_structural   SiRu2
_chemical_formula_sum   'Si4 Ru8'
_cell_volume   160.25180680
_cell_formula_units_Z   4
loop_
 _symmetry_equiv_pos_site_id
 _symmetry_equiv_pos_as_xyz
  1  'x, y, z'
loop_
 _atom_site_type_symbol
 _atom_site_label
 _atom_site_symmetry_multiplicity
 _atom_site_fract_x
 _atom_site_fract_y
 _atom_site_fract_z
 _atom_site_occupancy
  Si  Si0  1  0.250000  0.798336  0.598311  1
  Si  Si1  1  0.750000  0.201664  0.401689  1
  Si  Si2  1  0.250000  0.298336  0.901689  1
  Si  Si3  1  0.750000  0.701664  0.098311  1
  Ru  Ru4  1  0.750000  0.013935  0.711539  1
  Ru  Ru5  1  0.250000  0.986065  0.288461  1
  Ru  Ru6  1  0.750000  0.513935  0.788461  1
  Ru  Ru7  1  0.250000  0.486065  0.211539  1
  Ru  Ru8  1  0.250000  0.334011  0.565029  1
  Ru  Ru9  1  0.750000  0.665989  0.434971  1
  Ru  Ru10  1  0.250000  0.834011  0.934971  1
  Ru  Ru11  1  0.750000  0.165989  0.065029  1
