# generated using pymatgen
data_K6MgO4
_symmetry_space_group_name_H-M   'P 1'
_cell_length_a   8.61384933
_cell_length_b   8.61384933
_cell_length_c   6.67833484
_cell_angle_alpha   90.00000000
_cell_angle_beta   90.00000000
_cell_angle_gamma   120.00000000
_symmetry_Int_Tables_number   1
_chemical_formula_structural   K6MgO4
_chemical_formula_sum   'K12 Mg2 O8'
_cell_volume   429.13443342
_cell_formula_units_Z   2
loop_
 _symmetry_equiv_pos_site_id
 _symmetry_equiv_pos_as_xyz
  1  'x, y, z'
loop_
 _atom_site_type_symbol
 _atom_site_label
 _atom_site_symmetry_multiplicity
 _atom_site_fract_x
 _atom_site_fract_y
 _atom_site_fract_z
 _atom_site_occupancy
  K  K0  1  0.073169  0.536585  0.322627  1
  K  K1  1  0.536585  0.463415  0.822627  1
  K  K2  1  0.463415  0.926831  0.322627  1
  K  K3  1  0.536585  0.073169  0.822627  1
  K  K4  1  0.926831  0.463415  0.822627  1
  K  K5  1  0.463415  0.536585  0.322627  1
  K  K6  1  0.855928  0.144072  0.495600  1
  K  K7  1  0.711857  0.855928  0.995600  1
  K  K8  1  0.144072  0.288143  0.995600  1
  K  K9  1  0.855928  0.711857  0.495600  1
  K  K10  1  0.288143  0.144072  0.495600  1
  K  K11  1  0.144072  0.855928  0.995600  1
  Mg  Mg12  1  0.333333  0.666667  0.717917  1
  Mg  Mg13  1  0.666667  0.333333  0.217917  1
  O  O14  1  0.333333  0.666667  0.022306  1
  O  O15  1  0.666667  0.333333  0.522306  1
  O  O16  1  0.798050  0.201950  0.116965  1
  O  O17  1  0.596100  0.798050  0.616965  1
  O  O18  1  0.201950  0.403900  0.616965  1
  O  O19  1  0.798050  0.596100  0.116965  1
  O  O20  1  0.403900  0.201950  0.116965  1
  O  O21  1  0.201950  0.798050  0.616965  1
