# generated using pymatgen
data_SrGa4
_symmetry_space_group_name_H-M   'P 1'
_cell_length_a   6.28376345
_cell_length_b   6.28376345
_cell_length_c   6.28376345
_cell_angle_alpha   138.16272354
_cell_angle_beta   138.16272354
_cell_angle_gamma   60.65387118
_symmetry_Int_Tables_number   1
_chemical_formula_structural   SrGa4
_chemical_formula_sum   'Sr1 Ga4'
_cell_volume   109.20643303
_cell_formula_units_Z   1
loop_
 _symmetry_equiv_pos_site_id
 _symmetry_equiv_pos_as_xyz
  1  'x, y, z'
loop_
 _atom_site_type_symbol
 _atom_site_label
 _atom_site_symmetry_multiplicity
 _atom_site_fract_x
 _atom_site_fract_y
 _atom_site_fract_z
 _atom_site_occupancy
  Sr  Sr0  1  0.000000  0.000000  0.000000  1
  Ga  Ga1  1  0.617286  0.617286  0.000000  1
  Ga  Ga2  1  0.750000  0.250000  0.500000  1
  Ga  Ga3  1  0.250000  0.750000  0.500000  1
  Ga  Ga4  1  0.382714  0.382714  0.000000  1
