# generated using pymatgen
data_Tl2Ge2S5
_symmetry_space_group_name_H-M   'P 1'
_cell_length_a   10.93924517
_cell_length_b   10.93924517
_cell_length_c   9.04367911
_cell_angle_alpha   80.48721657
_cell_angle_beta   99.51278343
_cell_angle_gamma   89.87784912
_symmetry_Int_Tables_number   1
_chemical_formula_structural   Tl2Ge2S5
_chemical_formula_sum   'Tl8 Ge8 S20'
_cell_volume   1052.18887112
_cell_formula_units_Z   4
loop_
 _symmetry_equiv_pos_site_id
 _symmetry_equiv_pos_as_xyz
  1  'x, y, z'
loop_
 _atom_site_type_symbol
 _atom_site_label
 _atom_site_symmetry_multiplicity
 _atom_site_fract_x
 _atom_site_fract_y
 _atom_site_fract_z
 _atom_site_occupancy
  Tl  Tl0  1  0.205664  0.937250  0.100263  1
  Tl  Tl1  1  0.937250  0.205664  0.399737  1
  Tl  Tl2  1  0.794336  0.062750  0.899737  1
  Tl  Tl3  1  0.062750  0.794336  0.600263  1
  Tl  Tl4  1  0.547959  0.205535  0.377492  1
  Tl  Tl5  1  0.205535  0.547959  0.122508  1
  Tl  Tl6  1  0.452041  0.794465  0.622508  1
  Tl  Tl7  1  0.794465  0.452041  0.877492  1
  Ge  Ge8  1  0.730468  0.866556  0.390645  1
  Ge  Ge9  1  0.866556  0.730468  0.109355  1
  Ge  Ge10  1  0.269532  0.133444  0.609355  1
  Ge  Ge11  1  0.133444  0.269532  0.890645  1
  Ge  Ge12  1  0.469452  0.266121  0.898222  1
  Ge  Ge13  1  0.266121  0.469452  0.601778  1
  Ge  Ge14  1  0.530548  0.733879  0.101778  1
  Ge  Ge15  1  0.733879  0.530548  0.398222  1
  S  S16  1  0.454670  0.454670  0.750000  1
  S  S17  1  0.545330  0.545330  0.250000  1
  S  S18  1  0.113747  0.113747  0.750000  1
  S  S19  1  0.886253  0.886253  0.250000  1
  S  S20  1  0.245565  0.990651  0.469267  1
  S  S21  1  0.990651  0.245565  0.030733  1
  S  S22  1  0.754435  0.009349  0.530733  1
  S  S23  1  0.009349  0.754435  0.969267  1
  S  S24  1  0.649773  0.245228  0.043535  1
  S  S25  1  0.245228  0.649773  0.456465  1
  S  S26  1  0.350227  0.754772  0.956465  1
  S  S27  1  0.754772  0.350227  0.543535  1
  S  S28  1  0.679913  0.756397  0.952888  1
  S  S29  1  0.756397  0.679913  0.547112  1
  S  S30  1  0.320087  0.243603  0.047112  1
  S  S31  1  0.243603  0.320087  0.452888  1
  S  S32  1  0.887452  0.541572  0.255583  1
  S  S33  1  0.541572  0.887452  0.244417  1
  S  S34  1  0.112548  0.458428  0.744417  1
  S  S35  1  0.458428  0.112548  0.755583  1
