# generated using pymatgen
data_Te2MoO7
_symmetry_space_group_name_H-M   'P 1'
_cell_length_a   4.38922143
_cell_length_b   9.19409052
_cell_length_c   16.05699974
_cell_angle_alpha   90.00000000
_cell_angle_beta   96.42136954
_cell_angle_gamma   90.00000000
_symmetry_Int_Tables_number   1
_chemical_formula_structural   Te2MoO7
_chemical_formula_sum   'Te8 Mo4 O28'
_cell_volume   643.91336595
_cell_formula_units_Z   4
loop_
 _symmetry_equiv_pos_site_id
 _symmetry_equiv_pos_as_xyz
  1  'x, y, z'
loop_
 _atom_site_type_symbol
 _atom_site_label
 _atom_site_symmetry_multiplicity
 _atom_site_fract_x
 _atom_site_fract_y
 _atom_site_fract_z
 _atom_site_occupancy
  Te  Te0  1  0.165898  0.028077  0.779351  1
  Te  Te1  1  0.834102  0.528077  0.720649  1
  Te  Te2  1  0.834102  0.971923  0.220649  1
  Te  Te3  1  0.165898  0.471923  0.279351  1
  Te  Te4  1  0.291498  0.288166  0.612435  1
  Te  Te5  1  0.708502  0.788166  0.887565  1
  Te  Te6  1  0.708502  0.711834  0.387565  1
  Te  Te7  1  0.291498  0.211834  0.112435  1
  Mo  Mo8  1  0.881378  0.368867  0.931423  1
  Mo  Mo9  1  0.118622  0.868867  0.568577  1
  Mo  Mo10  1  0.118622  0.631133  0.068577  1
  Mo  Mo11  1  0.881378  0.131133  0.431423  1
  O  O12  1  0.409018  0.159120  0.701938  1
  O  O13  1  0.590982  0.659120  0.798062  1
  O  O14  1  0.590982  0.840880  0.298062  1
  O  O15  1  0.409018  0.340880  0.201938  1
  O  O16  1  0.417377  0.467378  0.687740  1
  O  O17  1  0.582623  0.967378  0.812260  1
  O  O18  1  0.582623  0.532622  0.312260  1
  O  O19  1  0.417377  0.032622  0.187740  1
  O  O20  1  0.894396  0.347575  0.641435  1
  O  O21  1  0.105604  0.847575  0.858565  1
  O  O22  1  0.105604  0.652425  0.358565  1
  O  O23  1  0.894396  0.152425  0.141435  1
  O  O24  1  0.976740  0.316112  0.437481  1
  O  O25  1  0.023260  0.816112  0.062519  1
  O  O26  1  0.023260  0.683888  0.562519  1
  O  O27  1  0.976740  0.183888  0.937481  1
  O  O28  1  0.485005  0.125499  0.431427  1
  O  O29  1  0.514995  0.625499  0.068573  1
  O  O30  1  0.514995  0.874501  0.568573  1
  O  O31  1  0.485005  0.374501  0.931427  1
  O  O32  1  0.030689  0.399408  0.051374  1
  O  O33  1  0.969311  0.899408  0.448626  1
  O  O34  1  0.969311  0.600592  0.948626  1
  O  O35  1  0.030689  0.100592  0.551374  1
  O  O36  1  0.937060  0.101095  0.313743  1
  O  O37  1  0.062940  0.601095  0.186257  1
  O  O38  1  0.062940  0.898905  0.686257  1
  O  O39  1  0.937060  0.398905  0.813743  1
