# generated using pymatgen
data_LiCu(PO3)3
_symmetry_space_group_name_H-M   'P 1'
_cell_length_a   8.26246991
_cell_length_b   8.76878388
_cell_length_c   8.91923469
_cell_angle_alpha   90.00000000
_cell_angle_beta   90.00000000
_cell_angle_gamma   90.00000000
_symmetry_Int_Tables_number   1
_chemical_formula_structural   LiCu(PO3)3
_chemical_formula_sum   'Li4 Cu4 P12 O36'
_cell_volume   646.21472347
_cell_formula_units_Z   4
loop_
 _symmetry_equiv_pos_site_id
 _symmetry_equiv_pos_as_xyz
  1  'x, y, z'
loop_
 _atom_site_type_symbol
 _atom_site_label
 _atom_site_symmetry_multiplicity
 _atom_site_fract_x
 _atom_site_fract_y
 _atom_site_fract_z
 _atom_site_occupancy
  Li  Li0  1  0.379270  0.083804  0.886847  1
  Li  Li1  1  0.879270  0.416196  0.113153  1
  Li  Li2  1  0.620730  0.583804  0.613153  1
  Li  Li3  1  0.120730  0.916196  0.386847  1
  Cu  Cu4  1  0.403268  0.861815  0.615044  1
  Cu  Cu5  1  0.903268  0.638185  0.384956  1
  Cu  Cu6  1  0.596732  0.361815  0.884956  1
  Cu  Cu7  1  0.096732  0.138185  0.115044  1
  P  P8  1  0.068340  0.940350  0.765516  1
  P  P9  1  0.568340  0.559650  0.234484  1
  P  P10  1  0.931660  0.440350  0.734484  1
  P  P11  1  0.431660  0.059650  0.265516  1
  P  P12  1  0.222381  0.425142  0.936160  1
  P  P13  1  0.722381  0.074858  0.063840  1
  P  P14  1  0.777619  0.925142  0.563840  1
  P  P15  1  0.277619  0.574858  0.436160  1
  P  P16  1  0.454323  0.681950  0.951186  1
  P  P17  1  0.954323  0.818050  0.048814  1
  P  P18  1  0.545677  0.181950  0.548814  1
  P  P19  1  0.045677  0.318050  0.451186  1
  O  O20  1  0.970645  0.303206  0.617760  1
  O  O21  1  0.470645  0.196794  0.382240  1
  O  O22  1  0.029355  0.803206  0.882240  1
  O  O23  1  0.529355  0.696794  0.117760  1
  O  O24  1  0.110621  0.476056  0.798175  1
  O  O25  1  0.610621  0.023944  0.201825  1
  O  O26  1  0.889379  0.976056  0.701825  1
  O  O27  1  0.389379  0.523944  0.298175  1
  O  O28  1  0.288966  0.587705  0.988753  1
  O  O29  1  0.788966  0.912295  0.011247  1
  O  O30  1  0.711034  0.087705  0.511247  1
  O  O31  1  0.211034  0.412295  0.488753  1
  O  O32  1  0.333703  0.122467  0.136051  1
  O  O33  1  0.833703  0.377533  0.863949  1
  O  O34  1  0.666297  0.622467  0.363949  1
  O  O35  1  0.166297  0.877533  0.636051  1
  O  O36  1  0.860276  0.172965  0.119256  1
  O  O37  1  0.360276  0.327035  0.880744  1
  O  O38  1  0.139724  0.672965  0.380744  1
  O  O39  1  0.639724  0.827035  0.619256  1
  O  O40  1  0.060881  0.917097  0.148680  1
  O  O41  1  0.560881  0.582903  0.851320  1
  O  O42  1  0.939119  0.417097  0.351320  1
  O  O43  1  0.439119  0.082903  0.648680  1
  O  O44  1  0.085757  0.162419  0.396397  1
  O  O45  1  0.585757  0.337581  0.603603  1
  O  O46  1  0.914243  0.662419  0.103603  1
  O  O47  1  0.414243  0.837581  0.896397  1
  O  O48  1  0.129926  0.074944  0.850593  1
  O  O49  1  0.629926  0.425056  0.149407  1
  O  O50  1  0.870074  0.574944  0.649407  1
  O  O51  1  0.370074  0.925056  0.350593  1
  O  O52  1  0.118636  0.360795  0.060810  1
  O  O53  1  0.618636  0.139205  0.939190  1
  O  O54  1  0.881364  0.860795  0.439190  1
  O  O55  1  0.381364  0.639205  0.560810  1
