# generated using pymatgen
data_Na2Ge2S5
_symmetry_space_group_name_H-M   'P 1'
_cell_length_a   9.24518500
_cell_length_b   9.24518500
_cell_length_c   10.71704155
_cell_angle_alpha   90.00000000
_cell_angle_beta   90.00000000
_cell_angle_gamma   90.97468584
_symmetry_Int_Tables_number   1
_chemical_formula_structural   Na2Ge2S5
_chemical_formula_sum   'Na8 Ge8 S20'
_cell_volume   915.88992756
_cell_formula_units_Z   4
loop_
 _symmetry_equiv_pos_site_id
 _symmetry_equiv_pos_as_xyz
  1  'x, y, z'
loop_
 _atom_site_type_symbol
 _atom_site_label
 _atom_site_symmetry_multiplicity
 _atom_site_fract_x
 _atom_site_fract_y
 _atom_site_fract_z
 _atom_site_occupancy
  Na  Na0  1  0.420649  0.908401  0.250000  1
  Na  Na1  1  0.579351  0.091599  0.750000  1
  Na  Na2  1  0.908401  0.420649  0.750000  1
  Na  Na3  1  0.091599  0.579351  0.250000  1
  Na  Na4  1  0.147109  0.147109  0.500000  1
  Na  Na5  1  0.852891  0.852891  0.000000  1
  Na  Na6  1  0.852891  0.852891  0.500000  1
  Na  Na7  1  0.147109  0.147109  1.000000  1
  Ge  Ge8  1  0.409045  0.312927  0.250000  1
  Ge  Ge9  1  0.590955  0.687073  0.750000  1
  Ge  Ge10  1  0.312927  0.409045  0.750000  1
  Ge  Ge11  1  0.687073  0.590955  0.250000  1
  Ge  Ge12  1  0.744844  0.255156  0.418515  1
  Ge  Ge13  1  0.255156  0.744844  0.918515  1
  Ge  Ge14  1  0.255156  0.744844  0.581485  1
  Ge  Ge15  1  0.744844  0.255156  0.081485  1
  S  S16  1  0.447025  0.552974  0.250000  1
  S  S17  1  0.552975  0.447026  0.750000  1
  S  S18  1  0.794798  0.496193  0.078967  1
  S  S19  1  0.205202  0.503807  0.578967  1
  S  S20  1  0.496193  0.794798  0.921033  1
  S  S21  1  0.503807  0.205202  0.421033  1
  S  S22  1  0.205202  0.503807  0.921033  1
  S  S23  1  0.794798  0.496193  0.421033  1
  S  S24  1  0.503807  0.205202  0.078967  1
  S  S25  1  0.496193  0.794798  0.578967  1
  S  S26  1  0.846202  0.153798  0.250000  1
  S  S27  1  0.153798  0.846202  0.750000  1
  S  S28  1  0.841195  0.158805  0.917453  1
  S  S29  1  0.158805  0.841195  0.417453  1
  S  S30  1  0.158805  0.841195  0.082547  1
  S  S31  1  0.841195  0.158805  0.582547  1
  S  S32  1  0.729179  0.820904  0.250000  1
  S  S33  1  0.270821  0.179096  0.750000  1
  S  S34  1  0.820904  0.729179  0.750000  1
  S  S35  1  0.179096  0.270821  0.250000  1
