# generated using pymatgen
data_CdSO3
_symmetry_space_group_name_H-M   'P 1'
_cell_length_a   8.33582986
_cell_length_b   8.33582986
_cell_length_c   8.33582986
_cell_angle_alpha   109.10807853
_cell_angle_beta   109.10807853
_cell_angle_gamma   109.10807853
_symmetry_Int_Tables_number   1
_chemical_formula_structural   CdSO3
_chemical_formula_sum   'Cd6 S6 O18'
_cell_volume   451.78230402
_cell_formula_units_Z   6
loop_
 _symmetry_equiv_pos_site_id
 _symmetry_equiv_pos_as_xyz
  1  'x, y, z'
loop_
 _atom_site_type_symbol
 _atom_site_label
 _atom_site_symmetry_multiplicity
 _atom_site_fract_x
 _atom_site_fract_y
 _atom_site_fract_z
 _atom_site_occupancy
  Cd  Cd0  1  0.326675  0.641155  0.815647  1
  Cd  Cd1  1  0.815647  0.326675  0.641155  1
  Cd  Cd2  1  0.641155  0.815647  0.326675  1
  Cd  Cd3  1  0.673325  0.358845  0.184353  1
  Cd  Cd4  1  0.184353  0.673325  0.358845  1
  Cd  Cd5  1  0.358845  0.184353  0.673325  1
  S  S6  1  0.643615  0.978615  0.788506  1
  S  S7  1  0.788506  0.643615  0.978615  1
  S  S8  1  0.978615  0.788506  0.643615  1
  S  S9  1  0.356385  0.021385  0.211494  1
  S  S10  1  0.211494  0.356385  0.021385  1
  S  S11  1  0.021385  0.211494  0.356385  1
  O  O12  1  0.423407  0.874758  0.130327  1
  O  O13  1  0.130327  0.423407  0.874758  1
  O  O14  1  0.874758  0.130327  0.423407  1
  O  O15  1  0.576593  0.125242  0.869673  1
  O  O16  1  0.869673  0.576593  0.125242  1
  O  O17  1  0.125242  0.869673  0.576593  1
  O  O18  1  0.022978  0.636969  0.689088  1
  O  O19  1  0.689088  0.022978  0.636969  1
  O  O20  1  0.636969  0.689088  0.022978  1
  O  O21  1  0.977022  0.363031  0.310912  1
  O  O22  1  0.310912  0.977022  0.363031  1
  O  O23  1  0.363031  0.310912  0.977022  1
  O  O24  1  0.222931  0.340843  0.546106  1
  O  O25  1  0.340843  0.546106  0.222931  1
  O  O26  1  0.546106  0.222931  0.340843  1
  O  O27  1  0.777069  0.659157  0.453894  1
  O  O28  1  0.659157  0.453894  0.777069  1
  O  O29  1  0.453894  0.777069  0.659157  1
