# generated using pymatgen
data_Y(BRu)4
_symmetry_space_group_name_H-M   'P 1'
_cell_length_a   9.20973778
_cell_length_b   9.20973778
_cell_length_c   9.20973778
_cell_angle_alpha   131.96063472
_cell_angle_beta   131.96063472
_cell_angle_gamma   70.29120718
_symmetry_Int_Tables_number   1
_chemical_formula_structural   Y(BRu)4
_chemical_formula_sum   'Y4 B16 Ru16'
_cell_volume   423.33862661
_cell_formula_units_Z   4
loop_
 _symmetry_equiv_pos_site_id
 _symmetry_equiv_pos_as_xyz
  1  'x, y, z'
loop_
 _atom_site_type_symbol
 _atom_site_label
 _atom_site_symmetry_multiplicity
 _atom_site_fract_x
 _atom_site_fract_y
 _atom_site_fract_z
 _atom_site_occupancy
  Y  Y0  1  0.250000  0.250000  0.000000  1
  Y  Y1  1  0.000000  0.500000  0.500000  1
  Y  Y2  1  0.500000  0.000000  0.500000  1
  Y  Y3  1  0.750000  0.750000  0.000000  1
  B  B4  1  0.527941  0.000336  0.191316  1
  B  B5  1  0.163375  0.690980  0.191316  1
  B  B6  1  0.499664  0.972059  0.808684  1
  B  B7  1  0.722059  0.413375  0.972395  1
  B  B8  1  0.440980  0.749664  0.027605  1
  B  B9  1  0.750336  0.059020  0.972395  1
  B  B10  1  0.086625  0.777941  0.027605  1
  B  B11  1  0.809020  0.336625  0.808684  1
  B  B12  1  0.222059  0.249664  0.308684  1
  B  B13  1  0.586625  0.559020  0.308684  1
  B  B14  1  0.250336  0.277941  0.691316  1
  B  B15  1  0.027941  0.836625  0.527605  1
  B  B16  1  0.309020  0.500336  0.472395  1
  B  B17  1  0.999664  0.190980  0.527605  1
  B  B18  1  0.663375  0.472059  0.472395  1
  B  B19  1  0.940980  0.913375  0.691316  1
  Ru  Ru20  1  0.336212  0.803705  0.763512  1
  Ru  Ru21  1  0.927300  0.459807  0.763512  1
  Ru  Ru22  1  0.696295  0.163788  0.236488  1
  Ru  Ru23  1  0.913788  0.177300  0.967493  1
  Ru  Ru24  1  0.209807  0.946295  0.032507  1
  Ru  Ru25  1  0.553705  0.290193  0.967493  1
  Ru  Ru26  1  0.322700  0.586212  0.032507  1
  Ru  Ru27  1  0.040193  0.572700  0.236488  1
  Ru  Ru28  1  0.413788  0.446295  0.736488  1
  Ru  Ru29  1  0.822700  0.790193  0.736488  1
  Ru  Ru30  1  0.053705  0.086212  0.263512  1
  Ru  Ru31  1  0.836212  0.072700  0.532507  1
  Ru  Ru32  1  0.540193  0.303705  0.467493  1
  Ru  Ru33  1  0.196295  0.959807  0.532507  1
  Ru  Ru34  1  0.427300  0.663788  0.467493  1
  Ru  Ru35  1  0.709807  0.677300  0.263512  1
