# generated using pymatgen
data_BaHo2O4
_symmetry_space_group_name_H-M   'P 1'
_cell_length_a   3.46456586
_cell_length_b   10.47774618
_cell_length_c   12.16223734
_cell_angle_alpha   90.00000000
_cell_angle_beta   90.00000000
_cell_angle_gamma   90.00000000
_symmetry_Int_Tables_number   1
_chemical_formula_structural   BaHo2O4
_chemical_formula_sum   'Ba4 Ho8 O16'
_cell_volume   441.49945246
_cell_formula_units_Z   4
loop_
 _symmetry_equiv_pos_site_id
 _symmetry_equiv_pos_as_xyz
  1  'x, y, z'
loop_
 _atom_site_type_symbol
 _atom_site_label
 _atom_site_symmetry_multiplicity
 _atom_site_fract_x
 _atom_site_fract_y
 _atom_site_fract_z
 _atom_site_occupancy
  Ba  Ba0  1  0.750000  0.246758  0.649055  1
  Ba  Ba1  1  0.250000  0.753242  0.350945  1
  Ba  Ba2  1  0.750000  0.746758  0.850945  1
  Ba  Ba3  1  0.250000  0.253242  0.149055  1
  Ho  Ho4  1  0.250000  0.922449  0.608871  1
  Ho  Ho5  1  0.750000  0.077551  0.391129  1
  Ho  Ho6  1  0.250000  0.422449  0.891129  1
  Ho  Ho7  1  0.750000  0.577551  0.108871  1
  Ho  Ho8  1  0.750000  0.573347  0.610749  1
  Ho  Ho9  1  0.250000  0.426653  0.389251  1
  Ho  Ho10  1  0.750000  0.073347  0.889251  1
  Ho  Ho11  1  0.250000  0.926653  0.110749  1
  O  O12  1  0.250000  0.930129  0.926059  1
  O  O13  1  0.750000  0.069871  0.073941  1
  O  O14  1  0.250000  0.430129  0.573941  1
  O  O15  1  0.750000  0.569871  0.426059  1
  O  O16  1  0.250000  0.018927  0.282773  1
  O  O17  1  0.750000  0.981073  0.717227  1
  O  O18  1  0.250000  0.518927  0.217227  1
  O  O19  1  0.750000  0.481073  0.782773  1
  O  O20  1  0.250000  0.614451  0.981932  1
  O  O21  1  0.750000  0.385549  0.018068  1
  O  O22  1  0.250000  0.114451  0.518068  1
  O  O23  1  0.750000  0.885549  0.481932  1
  O  O24  1  0.750000  0.790596  0.157325  1
  O  O25  1  0.250000  0.209404  0.842675  1
  O  O26  1  0.750000  0.290596  0.342675  1
  O  O27  1  0.250000  0.709404  0.657325  1
