# generated using pymatgen
data_BaV2(CoO4)2
_symmetry_space_group_name_H-M   'P 1'
_cell_length_a   9.91269410
_cell_length_b   9.91269410
_cell_length_c   9.91269410
_cell_angle_alpha   100.61980195
_cell_angle_beta   100.61980195
_cell_angle_gamma   129.15481010
_symmetry_Int_Tables_number   1
_chemical_formula_structural   BaV2(CoO4)2
_chemical_formula_sum   'Ba4 V8 Co8 O32'
_cell_volume   682.16975369
_cell_formula_units_Z   4
loop_
 _symmetry_equiv_pos_site_id
 _symmetry_equiv_pos_as_xyz
  1  'x, y, z'
loop_
 _atom_site_type_symbol
 _atom_site_label
 _atom_site_symmetry_multiplicity
 _atom_site_fract_x
 _atom_site_fract_y
 _atom_site_fract_z
 _atom_site_occupancy
  Ba  Ba0  1  0.000000  0.000000  0.000000  1
  Ba  Ba1  1  0.250000  0.750000  0.500000  1
  Ba  Ba2  1  0.500000  0.500000  0.000000  1
  Ba  Ba3  1  0.750000  0.250000  0.500000  1
  V  V4  1  0.954338  0.125000  0.329338  1
  V  V5  1  0.875000  0.204338  0.829338  1
  V  V6  1  0.295662  0.625000  0.170662  1
  V  V7  1  0.454338  0.125000  0.829338  1
  V  V8  1  0.375000  0.045662  0.170662  1
  V  V9  1  0.375000  0.545662  0.670662  1
  V  V10  1  0.795662  0.625000  0.670662  1
  V  V11  1  0.875000  0.704338  0.329338  1
  Co  Co12  1  0.581512  0.918488  0.000000  1
  Co  Co13  1  0.081512  0.081512  0.663024  1
  Co  Co14  1  0.168488  0.668488  0.836976  1
  Co  Co15  1  0.418488  0.418488  0.336976  1
  Co  Co16  1  0.668488  0.831512  0.500000  1
  Co  Co17  1  0.918488  0.581512  1.000000  1
  Co  Co18  1  0.831512  0.331512  0.163024  1
  Co  Co19  1  0.331512  0.168488  0.500000  1
  O  O20  1  0.383134  0.224226  0.165077  1
  O  O21  1  0.059149  0.218058  0.834923  1
  O  O22  1  0.468058  0.133134  0.658909  1
  O  O23  1  0.474226  0.809149  0.341091  1
  O  O24  1  0.690851  0.025774  0.658909  1
  O  O25  1  0.281942  0.440851  0.165077  1
  O  O26  1  0.275774  0.116866  0.834923  1
  O  O27  1  0.366866  0.031942  0.341091  1
  O  O28  1  0.866866  0.525774  0.334923  1
  O  O29  1  0.190851  0.531942  0.665077  1
  O  O30  1  0.781942  0.616866  0.841091  1
  O  O31  1  0.775774  0.940851  0.158909  1
  O  O32  1  0.559149  0.724226  0.841091  1
  O  O33  1  0.968058  0.309149  0.334923  1
  O  O34  1  0.974226  0.633134  0.665077  1
  O  O35  1  0.883134  0.718058  0.158909  1
  O  O36  1  0.436588  0.601655  0.519219  1
  O  O37  1  0.082435  0.917368  0.480781  1
  O  O38  1  0.167368  0.186588  0.334933  1
  O  O39  1  0.851655  0.832435  0.665067  1
  O  O40  1  0.936588  0.417368  0.834933  1
  O  O41  1  0.351655  0.686588  0.019219  1
  O  O42  1  0.667368  0.332435  0.980781  1
  O  O43  1  0.582435  0.101655  0.165067  1
  O  O44  1  0.398345  0.917565  0.834933  1
  O  O45  1  0.082632  0.563412  0.165067  1
  O  O46  1  0.167565  0.832632  0.019219  1
  O  O47  1  0.813412  0.148345  0.980781  1
  O  O48  1  0.313412  0.332632  0.665067  1
  O  O49  1  0.898345  0.063412  0.480781  1
  O  O50  1  0.582632  0.417565  0.519219  1
  O  O51  1  0.667565  0.648345  0.334933  1
