# generated using pymatgen
data_NpSi
_symmetry_space_group_name_H-M   'P 1'
_cell_length_a   6.41747366
_cell_length_b   6.41747366
_cell_length_c   6.37602152
_cell_angle_alpha   90.00000000
_cell_angle_beta   90.00000000
_cell_angle_gamma   141.03478206
_symmetry_Int_Tables_number   1
_chemical_formula_structural   NpSi
_chemical_formula_sum   'Np4 Si4'
_cell_volume   165.12924404
_cell_formula_units_Z   4
loop_
 _symmetry_equiv_pos_site_id
 _symmetry_equiv_pos_as_xyz
  1  'x, y, z'
loop_
 _atom_site_type_symbol
 _atom_site_label
 _atom_site_symmetry_multiplicity
 _atom_site_fract_x
 _atom_site_fract_y
 _atom_site_fract_z
 _atom_site_occupancy
  Np  Np0  1  0.727623  0.272377  0.750000  1
  Np  Np1  1  0.272377  0.727623  0.250000  1
  Np  Np2  1  0.556073  0.443927  0.250000  1
  Np  Np3  1  0.443927  0.556073  0.750000  1
  Si  Si4  1  0.903835  0.096165  0.440663  1
  Si  Si5  1  0.096165  0.903835  0.559337  1
  Si  Si6  1  0.903835  0.096165  0.059337  1
  Si  Si7  1  0.096165  0.903835  0.940663  1
