# generated using pymatgen
data_KSrVO4
_symmetry_space_group_name_H-M   'P 1'
_cell_length_a   5.96336622
_cell_length_b   7.54848358
_cell_length_c   10.11853923
_cell_angle_alpha   90.00000000
_cell_angle_beta   90.00000000
_cell_angle_gamma   90.00000000
_symmetry_Int_Tables_number   1
_chemical_formula_structural   KSrVO4
_chemical_formula_sum   'K4 Sr4 V4 O16'
_cell_volume   455.47968893
_cell_formula_units_Z   4
loop_
 _symmetry_equiv_pos_site_id
 _symmetry_equiv_pos_as_xyz
  1  'x, y, z'
loop_
 _atom_site_type_symbol
 _atom_site_label
 _atom_site_symmetry_multiplicity
 _atom_site_fract_x
 _atom_site_fract_y
 _atom_site_fract_z
 _atom_site_occupancy
  K  K0  1  0.250000  0.657529  0.575989  1
  K  K1  1  0.750000  0.342471  0.424011  1
  K  K2  1  0.250000  0.157529  0.924011  1
  K  K3  1  0.750000  0.842471  0.075989  1
  Sr  Sr4  1  0.250000  0.503418  0.201736  1
  Sr  Sr5  1  0.750000  0.496582  0.798264  1
  Sr  Sr6  1  0.250000  0.003418  0.298264  1
  Sr  Sr7  1  0.750000  0.996582  0.701736  1
  V  V8  1  0.250000  0.222141  0.584162  1
  V  V9  1  0.750000  0.777859  0.415838  1
  V  V10  1  0.250000  0.722141  0.915838  1
  V  V11  1  0.750000  0.277859  0.084162  1
  O  O12  1  0.991681  0.719828  0.327220  1
  O  O13  1  0.491681  0.280172  0.672780  1
  O  O14  1  0.508319  0.219828  0.172780  1
  O  O15  1  0.008319  0.780172  0.827220  1
  O  O16  1  0.008319  0.280172  0.672780  1
  O  O17  1  0.508319  0.719828  0.327220  1
  O  O18  1  0.491681  0.780172  0.827220  1
  O  O19  1  0.991681  0.219828  0.172780  1
  O  O20  1  0.250000  0.324203  0.428724  1
  O  O21  1  0.750000  0.675797  0.571276  1
  O  O22  1  0.250000  0.824203  0.071276  1
  O  O23  1  0.750000  0.175797  0.928724  1
  O  O24  1  0.750000  0.002584  0.443812  1
  O  O25  1  0.250000  0.997416  0.556188  1
  O  O26  1  0.750000  0.502584  0.056188  1
  O  O27  1  0.250000  0.497416  0.943812  1
