# generated using pymatgen
data_EuMg3SiN4
_symmetry_space_group_name_H-M   'P 1'
_cell_length_a   10.65987730
_cell_length_b   10.65987730
_cell_length_c   10.65987730
_cell_angle_alpha   113.97490357
_cell_angle_beta   113.97490357
_cell_angle_gamma   100.79683690
_symmetry_Int_Tables_number   1
_chemical_formula_structural   EuMg3SiN4
_chemical_formula_sum   'Eu8 Mg24 Si8 N32'
_cell_volume   916.79004298
_cell_formula_units_Z   8
loop_
 _symmetry_equiv_pos_site_id
 _symmetry_equiv_pos_as_xyz
  1  'x, y, z'
loop_
 _atom_site_type_symbol
 _atom_site_label
 _atom_site_symmetry_multiplicity
 _atom_site_fract_x
 _atom_site_fract_y
 _atom_site_fract_z
 _atom_site_occupancy
  Eu  Eu0  1  0.230982  0.200647  0.507731  1
  Eu  Eu1  1  0.692916  0.723251  0.492269  1
  Eu  Eu2  1  0.950647  0.942916  0.469665  1
  Eu  Eu3  1  0.473251  0.480982  0.530335  1
  Eu  Eu4  1  0.519018  0.049353  0.992269  1
  Eu  Eu5  1  0.057084  0.526749  0.007731  1
  Eu  Eu6  1  0.799353  0.307084  0.030335  1
  Eu  Eu7  1  0.276749  0.769018  0.969665  1
  Mg  Mg8  1  0.942496  0.804828  0.138497  1
  Mg  Mg9  1  0.666331  0.803999  0.861503  1
  Mg  Mg10  1  0.554828  0.916331  0.362332  1
  Mg  Mg11  1  0.553999  0.192496  0.637668  1
  Mg  Mg12  1  0.807504  0.445172  0.361503  1
  Mg  Mg13  1  0.083669  0.446001  0.638497  1
  Mg  Mg14  1  0.195172  0.333669  0.137668  1
  Mg  Mg15  1  0.196001  0.057504  0.862332  1
  Mg  Mg16  1  0.915082  0.095196  0.140470  1
  Mg  Mg17  1  0.954725  0.774612  0.859530  1
  Mg  Mg18  1  0.845196  0.204725  0.680114  1
  Mg  Mg19  1  0.524612  0.165082  0.319886  1
  Mg  Mg20  1  0.834918  0.154804  0.359530  1
  Mg  Mg21  1  0.795275  0.475388  0.640470  1
  Mg  Mg22  1  0.904804  0.045275  0.819886  1
  Mg  Mg23  1  0.225388  0.084918  0.180114  1
  Mg  Mg24  1  0.463982  0.281876  0.873015  1
  Mg  Mg25  1  0.408861  0.590967  0.126985  1
  Mg  Mg26  1  0.031876  0.658861  0.317893  1
  Mg  Mg27  1  0.340967  0.713982  0.682107  1
  Mg  Mg28  1  0.286018  0.968124  0.626985  1
  Mg  Mg29  1  0.341139  0.659033  0.373015  1
  Mg  Mg30  1  0.718124  0.591139  0.182107  1
  Mg  Mg31  1  0.409033  0.536018  0.817893  1
  Si  Si32  1  0.141435  0.282967  0.784755  1
  Si  Si33  1  0.498212  0.356680  0.215245  1
  Si  Si34  1  0.032967  0.748212  0.641532  1
  Si  Si35  1  0.106680  0.391435  0.358468  1
  Si  Si36  1  0.608565  0.967033  0.715245  1
  Si  Si37  1  0.251788  0.893320  0.284755  1
  Si  Si38  1  0.717033  0.501788  0.858468  1
  Si  Si39  1  0.643320  0.858565  0.141532  1
  N  N40  1  0.230240  0.160610  0.740113  1
  N  N41  1  0.420497  0.490127  0.259887  1
  N  N42  1  0.910610  0.670497  0.430370  1
  N  N43  1  0.240127  0.480240  0.569630  1
  N  N44  1  0.519760  0.089390  0.759887  1
  N  N45  1  0.329503  0.759873  0.240113  1
  N  N46  1  0.839390  0.579503  0.069630  1
  N  N47  1  0.509873  0.769760  0.930370  1
  N  N48  1  0.387463  0.083531  0.390588  1
  N  N49  1  0.692943  0.996875  0.609412  1
  N  N50  1  0.833531  0.942943  0.196068  1
  N  N51  1  0.746875  0.637463  0.803932  1
  N  N52  1  0.362537  0.166469  0.109412  1
  N  N53  1  0.057057  0.253125  0.890588  1
  N  N54  1  0.916469  0.307057  0.303932  1
  N  N55  1  0.003125  0.612537  0.696068  1
  N  N56  1  0.985227  0.227672  0.592478  1
  N  N57  1  0.635194  0.392749  0.407522  1
  N  N58  1  0.977672  0.885194  0.742445  1
  N  N59  1  0.142749  0.235227  0.257555  1
  N  N60  1  0.764773  0.022328  0.907522  1
  N  N61  1  0.114806  0.857251  0.092478  1
  N  N62  1  0.772328  0.364806  0.757555  1
  N  N63  1  0.607251  0.014773  0.242445  1
  N  N64  1  0.148801  0.878638  0.378552  1
  N  N65  1  0.500086  0.770249  0.621448  1
  N  N66  1  0.628638  0.750086  0.229837  1
  N  N67  1  0.520249  0.398801  0.770163  1
  N  N68  1  0.601199  0.371362  0.121448  1
  N  N69  1  0.249914  0.479751  0.878552  1
  N  N70  1  0.121362  0.499914  0.270163  1
  N  N71  1  0.229751  0.851199  0.729837  1
