# generated using pymatgen
data_Yb3(GePd)4
_symmetry_space_group_name_H-M   'P 1'
_cell_length_a   8.10442463
_cell_length_b   8.10442463
_cell_length_c   8.10442463
_cell_angle_alpha   150.01632697
_cell_angle_beta   127.45912120
_cell_angle_gamma   61.68211110
_symmetry_Int_Tables_number   1
_chemical_formula_structural   Yb3(GePd)4
_chemical_formula_sum   'Yb3 Ge4 Pd4'
_cell_volume   209.31428588
_cell_formula_units_Z   1
loop_
 _symmetry_equiv_pos_site_id
 _symmetry_equiv_pos_as_xyz
  1  'x, y, z'
loop_
 _atom_site_type_symbol
 _atom_site_label
 _atom_site_symmetry_multiplicity
 _atom_site_fract_x
 _atom_site_fract_y
 _atom_site_fract_z
 _atom_site_occupancy
  Yb  Yb0  1  0.000000  0.000000  0.000000  1
  Yb  Yb1  1  0.626892  0.126892  0.500000  1
  Yb  Yb2  1  0.373108  0.873108  0.500000  1
  Ge  Ge3  1  0.322596  0.500000  0.822596  1
  Ge  Ge4  1  0.677404  0.500000  0.177404  1
  Ge  Ge5  1  0.779436  0.779436  0.000000  1
  Ge  Ge6  1  0.220564  0.220564  0.000000  1
  Pd  Pd7  1  0.626306  0.325337  0.300969  1
  Pd  Pd8  1  0.975632  0.674663  0.300969  1
  Pd  Pd9  1  0.024368  0.325337  0.699031  1
  Pd  Pd10  1  0.373694  0.674663  0.699031  1
