# generated using pymatgen
data_BaNaEu(SiO3)3
_symmetry_space_group_name_H-M   'P 1'
_cell_length_a   5.73980303
_cell_length_b   11.67480512
_cell_length_c   12.71041907
_cell_angle_alpha   90.00000000
_cell_angle_beta   90.00000000
_cell_angle_gamma   90.00000000
_symmetry_Int_Tables_number   1
_chemical_formula_structural   BaNaEu(SiO3)3
_chemical_formula_sum   'Ba4 Na4 Eu4 Si12 O36'
_cell_volume   851.73893204
_cell_formula_units_Z   4
loop_
 _symmetry_equiv_pos_site_id
 _symmetry_equiv_pos_as_xyz
  1  'x, y, z'
loop_
 _atom_site_type_symbol
 _atom_site_label
 _atom_site_symmetry_multiplicity
 _atom_site_fract_x
 _atom_site_fract_y
 _atom_site_fract_z
 _atom_site_occupancy
  Ba  Ba0  1  0.102983  0.617298  0.418900  1
  Ba  Ba1  1  0.397017  0.382702  0.918900  1
  Ba  Ba2  1  0.602983  0.882702  0.581100  1
  Ba  Ba3  1  0.897017  0.117298  0.081100  1
  Na  Na4  1  0.069953  0.285401  0.393956  1
  Na  Na5  1  0.430047  0.714599  0.893956  1
  Na  Na6  1  0.569953  0.214599  0.606044  1
  Na  Na7  1  0.930047  0.785401  0.106044  1
  Eu  Eu8  1  0.111731  0.969634  0.362261  1
  Eu  Eu9  1  0.388269  0.030366  0.862261  1
  Eu  Eu10  1  0.611731  0.530366  0.637739  1
  Eu  Eu11  1  0.888269  0.469634  0.137739  1
  Si  Si12  1  0.599062  0.803816  0.312979  1
  Si  Si13  1  0.900938  0.196184  0.812979  1
  Si  Si14  1  0.099062  0.696184  0.687021  1
  Si  Si15  1  0.400938  0.303816  0.187021  1
  Si  Si16  1  0.596618  0.152531  0.357287  1
  Si  Si17  1  0.903382  0.847469  0.857287  1
  Si  Si18  1  0.096618  0.347469  0.642713  1
  Si  Si19  1  0.403382  0.652531  0.142713  1
  Si  Si20  1  0.104273  0.087772  0.623742  1
  Si  Si21  1  0.395727  0.912228  0.123742  1
  Si  Si22  1  0.604273  0.412228  0.376258  1
  Si  Si23  1  0.895727  0.587772  0.876258  1
  O  O24  1  0.371825  0.814014  0.388690  1
  O  O25  1  0.128175  0.185986  0.888690  1
  O  O26  1  0.871825  0.685986  0.611310  1
  O  O27  1  0.628175  0.314014  0.111310  1
  O  O28  1  0.841599  0.814191  0.376549  1
  O  O29  1  0.658401  0.185809  0.876548  1
  O  O30  1  0.341599  0.685809  0.623452  1
  O  O31  1  0.158401  0.314191  0.123451  1
  O  O32  1  0.860186  0.123733  0.318284  1
  O  O33  1  0.639814  0.876267  0.818284  1
  O  O34  1  0.360186  0.376267  0.681716  1
  O  O35  1  0.139814  0.623733  0.181716  1
  O  O36  1  0.610940  0.277716  0.425695  1
  O  O37  1  0.889060  0.722284  0.925695  1
  O  O38  1  0.110940  0.222284  0.574305  1
  O  O39  1  0.389060  0.777716  0.074305  1
  O  O40  1  0.354488  0.059594  0.677541  1
  O  O41  1  0.145512  0.940406  0.177541  1
  O  O42  1  0.854488  0.440406  0.322459  1
  O  O43  1  0.645512  0.559594  0.822459  1
  O  O44  1  0.900448  0.096614  0.717778  1
  O  O45  1  0.599552  0.903386  0.217778  1
  O  O46  1  0.400448  0.403386  0.282222  1
  O  O47  1  0.099552  0.596614  0.782222  1
  O  O48  1  0.418120  0.181179  0.255482  1
  O  O49  1  0.081880  0.818821  0.755482  1
  O  O50  1  0.918120  0.318821  0.744518  1
  O  O51  1  0.581880  0.681179  0.244518  1
  O  O52  1  0.464146  0.060081  0.430063  1
  O  O53  1  0.035854  0.939919  0.930063  1
  O  O54  1  0.964146  0.439919  0.569937  1
  O  O55  1  0.535854  0.560081  0.069937  1
  O  O56  1  0.011896  0.997441  0.537418  1
  O  O57  1  0.488104  0.002559  0.037418  1
  O  O58  1  0.511896  0.502559  0.462582  1
  O  O59  1  0.988104  0.497441  0.962582  1
