# generated using pymatgen
data_CeZnPd
_symmetry_space_group_name_H-M   'P 1'
_cell_length_a   4.44425409
_cell_length_b   6.88537279
_cell_length_c   8.05381555
_cell_angle_alpha   90.00000000
_cell_angle_beta   90.00000000
_cell_angle_gamma   90.00000000
_symmetry_Int_Tables_number   1
_chemical_formula_structural   CeZnPd
_chemical_formula_sum   'Ce4 Zn4 Pd4'
_cell_volume   246.44954393
_cell_formula_units_Z   4
loop_
 _symmetry_equiv_pos_site_id
 _symmetry_equiv_pos_as_xyz
  1  'x, y, z'
loop_
 _atom_site_type_symbol
 _atom_site_label
 _atom_site_symmetry_multiplicity
 _atom_site_fract_x
 _atom_site_fract_y
 _atom_site_fract_z
 _atom_site_occupancy
  Ce  Ce0  1  0.250000  0.532600  0.196472  1
  Ce  Ce1  1  0.750000  0.467400  0.803528  1
  Ce  Ce2  1  0.250000  0.032600  0.303528  1
  Ce  Ce3  1  0.750000  0.967400  0.696472  1
  Zn  Zn4  1  0.250000  0.154066  0.931859  1
  Zn  Zn5  1  0.750000  0.845934  0.068141  1
  Zn  Zn6  1  0.250000  0.654066  0.568141  1
  Zn  Zn7  1  0.750000  0.345934  0.431859  1
  Pd  Pd8  1  0.750000  0.740622  0.392285  1
  Pd  Pd9  1  0.250000  0.259378  0.607715  1
  Pd  Pd10  1  0.750000  0.240622  0.107715  1
  Pd  Pd11  1  0.250000  0.759378  0.892285  1
