# generated using pymatgen
data_BePd3
_symmetry_space_group_name_H-M   'P 1'
_cell_length_a   5.07933857
_cell_length_b   5.07933857
_cell_length_c   7.69467930
_cell_angle_alpha   90.00000000
_cell_angle_beta   90.00000000
_cell_angle_gamma   147.14068999
_symmetry_Int_Tables_number   1
_chemical_formula_structural   BePd3
_chemical_formula_sum   'Be2 Pd6'
_cell_volume   107.71273629
_cell_formula_units_Z   2
loop_
 _symmetry_equiv_pos_site_id
 _symmetry_equiv_pos_as_xyz
  1  'x, y, z'
loop_
 _atom_site_type_symbol
 _atom_site_label
 _atom_site_symmetry_multiplicity
 _atom_site_fract_x
 _atom_site_fract_y
 _atom_site_fract_z
 _atom_site_occupancy
  Be  Be0  1  0.252947  0.747053  0.750000  1
  Be  Be1  1  0.747053  0.252947  0.250000  1
  Pd  Pd2  1  0.567268  0.432732  0.750000  1
  Pd  Pd3  1  0.432732  0.567268  0.250000  1
  Pd  Pd4  1  0.863622  0.136378  0.938892  1
  Pd  Pd5  1  0.136378  0.863622  0.061108  1
  Pd  Pd6  1  0.136378  0.863622  0.438892  1
  Pd  Pd7  1  0.863622  0.136378  0.561108  1
