# generated using pymatgen
data_BaDy2CoO5
_symmetry_space_group_name_H-M   'P 1'
_cell_length_a   5.76064893
_cell_length_b   7.13412761
_cell_length_c   12.37552633
_cell_angle_alpha   90.00000000
_cell_angle_beta   90.00000000
_cell_angle_gamma   90.00000000
_symmetry_Int_Tables_number   1
_chemical_formula_structural   BaDy2CoO5
_chemical_formula_sum   'Ba4 Dy8 Co4 O20'
_cell_volume   508.59953741
_cell_formula_units_Z   4
loop_
 _symmetry_equiv_pos_site_id
 _symmetry_equiv_pos_as_xyz
  1  'x, y, z'
loop_
 _atom_site_type_symbol
 _atom_site_label
 _atom_site_symmetry_multiplicity
 _atom_site_fract_x
 _atom_site_fract_y
 _atom_site_fract_z
 _atom_site_occupancy
  Ba  Ba0  1  0.750000  0.079859  0.099713  1
  Ba  Ba1  1  0.250000  0.579859  0.400287  1
  Ba  Ba2  1  0.250000  0.920141  0.900287  1
  Ba  Ba3  1  0.750000  0.420141  0.599713  1
  Dy  Dy4  1  0.250000  0.379932  0.791726  1
  Dy  Dy5  1  0.250000  0.098333  0.574567  1
  Dy  Dy6  1  0.750000  0.598333  0.925433  1
  Dy  Dy7  1  0.750000  0.879932  0.708274  1
  Dy  Dy8  1  0.250000  0.401667  0.074567  1
  Dy  Dy9  1  0.750000  0.901667  0.425433  1
  Dy  Dy10  1  0.750000  0.620068  0.208274  1
  Dy  Dy11  1  0.250000  0.120068  0.291726  1
  Co  Co12  1  0.750000  0.308529  0.347682  1
  Co  Co13  1  0.250000  0.691471  0.652318  1
  Co  Co14  1  0.750000  0.191471  0.847682  1
  Co  Co15  1  0.250000  0.808529  0.152318  1
  O  O16  1  0.750000  0.575955  0.397848  1
  O  O17  1  0.495901  0.666588  0.065570  1
  O  O18  1  0.001226  0.860914  0.275103  1
  O  O19  1  0.504099  0.166588  0.434430  1
  O  O20  1  0.501226  0.360914  0.224897  1
  O  O21  1  0.004099  0.666588  0.065570  1
  O  O22  1  0.998774  0.360914  0.224897  1
  O  O23  1  0.495901  0.833412  0.565570  1
  O  O24  1  0.995901  0.333412  0.934430  1
  O  O25  1  0.750000  0.924045  0.897848  1
  O  O26  1  0.250000  0.424045  0.602152  1
  O  O27  1  0.498774  0.860914  0.275103  1
  O  O28  1  0.004099  0.833412  0.565570  1
  O  O29  1  0.250000  0.075955  0.102152  1
  O  O30  1  0.995901  0.166588  0.434430  1
  O  O31  1  0.498774  0.639086  0.775103  1
  O  O32  1  0.998774  0.139086  0.724897  1
  O  O33  1  0.001226  0.639086  0.775103  1
  O  O34  1  0.504099  0.333412  0.934430  1
  O  O35  1  0.501226  0.139086  0.724897  1
