# generated using pymatgen
data_Na3Cr2(AsO4)3
_symmetry_space_group_name_H-M   'P 1'
_cell_length_a   10.72028469
_cell_length_b   10.72028469
_cell_length_c   10.72028469
_cell_angle_alpha   109.47122063
_cell_angle_beta   109.47122063
_cell_angle_gamma   109.47122063
_symmetry_Int_Tables_number   1
_chemical_formula_structural   Na3Cr2(AsO4)3
_chemical_formula_sum   'Na12 Cr8 As12 O48'
_cell_volume   948.41205400
_cell_formula_units_Z   4
loop_
 _symmetry_equiv_pos_site_id
 _symmetry_equiv_pos_as_xyz
  1  'x, y, z'
loop_
 _atom_site_type_symbol
 _atom_site_label
 _atom_site_symmetry_multiplicity
 _atom_site_fract_x
 _atom_site_fract_y
 _atom_site_fract_z
 _atom_site_occupancy
  Na  Na0  1  0.750000  0.125000  0.375000  1
  Na  Na1  1  0.250000  0.375000  0.125000  1
  Na  Na2  1  0.375000  0.750000  0.125000  1
  Na  Na3  1  0.125000  0.250000  0.375000  1
  Na  Na4  1  0.125000  0.375000  0.750000  1
  Na  Na5  1  0.375000  0.125000  0.250000  1
  Na  Na6  1  0.250000  0.875000  0.625000  1
  Na  Na7  1  0.750000  0.625000  0.875000  1
  Na  Na8  1  0.625000  0.250000  0.875000  1
  Na  Na9  1  0.875000  0.750000  0.625000  1
  Na  Na10  1  0.875000  0.625000  0.250000  1
  Na  Na11  1  0.625000  0.875000  0.750000  1
  Cr  Cr12  1  0.500000  1.000000  0.500000  1
  Cr  Cr13  1  1.000000  0.500000  0.500000  1
  Cr  Cr14  1  0.500000  0.500000  0.000000  1
  Cr  Cr15  1  1.000000  1.000000  0.000000  1
  Cr  Cr16  1  0.500000  0.000000  0.000000  1
  Cr  Cr17  1  0.000000  0.500000  0.000000  1
  Cr  Cr18  1  0.000000  0.000000  0.500000  1
  Cr  Cr19  1  0.500000  0.500000  0.500000  1
  As  As20  1  0.750000  0.875000  0.125000  1
  As  As21  1  0.250000  0.625000  0.375000  1
  As  As22  1  0.125000  0.750000  0.875000  1
  As  As23  1  0.375000  0.250000  0.625000  1
  As  As24  1  0.875000  0.125000  0.750000  1
  As  As25  1  0.625000  0.375000  0.250000  1
  As  As26  1  0.250000  0.125000  0.875000  1
  As  As27  1  0.750000  0.375000  0.625000  1
  As  As28  1  0.875000  0.250000  0.125000  1
  As  As29  1  0.625000  0.750000  0.375000  1
  As  As30  1  0.125000  0.875000  0.250000  1
  As  As31  1  0.375000  0.625000  0.750000  1
  O  O32  1  0.103951  0.614176  0.413892  1
  O  O33  1  0.396049  0.809941  0.510225  1
  O  O34  1  0.799716  0.885824  0.989775  1
  O  O35  1  0.700284  0.690059  0.086108  1
  O  O36  1  0.413892  0.103951  0.614176  1
  O  O37  1  0.510225  0.396049  0.809941  1
  O  O38  1  0.989775  0.799716  0.885824  1
  O  O39  1  0.086108  0.700284  0.690059  1
  O  O40  1  0.614176  0.413892  0.103951  1
  O  O41  1  0.809941  0.510225  0.396049  1
  O  O42  1  0.885824  0.989775  0.799716  1
  O  O43  1  0.690059  0.086108  0.700284  1
  O  O44  1  0.896049  0.385824  0.586108  1
  O  O45  1  0.603951  0.190059  0.489775  1
  O  O46  1  0.200284  0.114176  0.010225  1
  O  O47  1  0.299716  0.309941  0.913892  1
  O  O48  1  0.586108  0.896049  0.385824  1
  O  O49  1  0.489775  0.603951  0.190059  1
  O  O50  1  0.010225  0.200284  0.114176  1
  O  O51  1  0.913892  0.299716  0.309941  1
  O  O52  1  0.385824  0.586108  0.896049  1
  O  O53  1  0.190059  0.489775  0.603951  1
  O  O54  1  0.114176  0.010225  0.200284  1
  O  O55  1  0.309941  0.913892  0.299716  1
  O  O56  1  0.114176  0.603951  0.913892  1
  O  O57  1  0.309941  0.896049  0.010225  1
  O  O58  1  0.385824  0.299716  0.489775  1
  O  O59  1  0.190059  0.200284  0.586108  1
  O  O60  1  0.603951  0.913892  0.114176  1
  O  O61  1  0.896049  0.010225  0.309941  1
  O  O62  1  0.299716  0.489775  0.385824  1
  O  O63  1  0.200284  0.586108  0.190059  1
  O  O64  1  0.913892  0.114176  0.603951  1
  O  O65  1  0.010225  0.309941  0.896049  1
  O  O66  1  0.489775  0.385824  0.299716  1
  O  O67  1  0.586108  0.190059  0.200284  1
  O  O68  1  0.885824  0.396049  0.086108  1
  O  O69  1  0.690059  0.103951  0.989775  1
  O  O70  1  0.614176  0.700284  0.510225  1
  O  O71  1  0.809941  0.799716  0.413892  1
  O  O72  1  0.396049  0.086108  0.885824  1
  O  O73  1  0.103951  0.989775  0.690059  1
  O  O74  1  0.700284  0.510225  0.614176  1
  O  O75  1  0.799716  0.413892  0.809941  1
  O  O76  1  0.086108  0.885824  0.396049  1
  O  O77  1  0.989775  0.690059  0.103951  1
  O  O78  1  0.510225  0.614176  0.700284  1
  O  O79  1  0.413892  0.809941  0.799716  1
