# generated using pymatgen
data_Tb2Co3Si5
_symmetry_space_group_name_H-M   'P 1'
_cell_length_a   7.88719476
_cell_length_b   7.88719476
_cell_length_c   5.52670422
_cell_angle_alpha   70.77772114
_cell_angle_beta   109.22227886
_cell_angle_gamma   86.59732865
_symmetry_Int_Tables_number   1
_chemical_formula_structural   Tb2Co3Si5
_chemical_formula_sum   'Tb4 Co6 Si10'
_cell_volume   301.06353090
_cell_formula_units_Z   2
loop_
 _symmetry_equiv_pos_site_id
 _symmetry_equiv_pos_as_xyz
  1  'x, y, z'
loop_
 _atom_site_type_symbol
 _atom_site_label
 _atom_site_symmetry_multiplicity
 _atom_site_fract_x
 _atom_site_fract_y
 _atom_site_fract_z
 _atom_site_occupancy
  Tb  Tb0  1  0.869470  0.401599  0.736921  1
  Tb  Tb1  1  0.401599  0.869470  0.763079  1
  Tb  Tb2  1  0.130530  0.598401  0.263079  1
  Tb  Tb3  1  0.598401  0.130530  0.236921  1
  Co  Co4  1  0.539000  0.736789  0.373679  1
  Co  Co5  1  0.996110  0.996110  0.250000  1
  Co  Co6  1  0.263211  0.461000  0.873679  1
  Co  Co7  1  0.461000  0.263211  0.626321  1
  Co  Co8  1  0.736789  0.539000  0.126321  1
  Co  Co9  1  0.003890  0.003890  0.750000  1
  Si  Si10  1  0.770002  0.770002  0.750000  1
  Si  Si11  1  0.229998  0.229998  0.250000  1
  Si  Si12  1  0.511449  0.511449  0.750000  1
  Si  Si13  1  0.488551  0.488551  0.250000  1
  Si  Si14  1  0.214698  0.214698  0.750000  1
  Si  Si15  1  0.785302  0.785302  0.250000  1
  Si  Si16  1  0.062569  0.738307  0.664187  1
  Si  Si17  1  0.261693  0.937431  0.164187  1
  Si  Si18  1  0.937431  0.261693  0.335813  1
  Si  Si19  1  0.738307  0.062569  0.835813  1
