# generated using pymatgen
data_Re2O7
_symmetry_space_group_name_H-M   'P 1'
_cell_length_a   5.55836387
_cell_length_b   12.74065775
_cell_length_c   15.56604360
_cell_angle_alpha   90.00000000
_cell_angle_beta   90.00000000
_cell_angle_gamma   90.00000000
_symmetry_Int_Tables_number   1
_chemical_formula_structural   Re2O7
_chemical_formula_sum   'Re16 O56'
_cell_volume   1102.34380523
_cell_formula_units_Z   8
loop_
 _symmetry_equiv_pos_site_id
 _symmetry_equiv_pos_as_xyz
  1  'x, y, z'
loop_
 _atom_site_type_symbol
 _atom_site_label
 _atom_site_symmetry_multiplicity
 _atom_site_fract_x
 _atom_site_fract_y
 _atom_site_fract_z
 _atom_site_occupancy
  Re  Re0  1  0.066698  0.023821  0.630364  1
  Re  Re1  1  0.672424  0.025549  0.356464  1
  Re  Re2  1  0.814080  0.219990  0.136658  1
  Re  Re3  1  0.562519  0.232087  0.636465  1
  Re  Re4  1  0.062519  0.267913  0.363535  1
  Re  Re5  1  0.314080  0.280010  0.863342  1
  Re  Re6  1  0.172424  0.474451  0.643536  1
  Re  Re7  1  0.566698  0.476179  0.369636  1
  Re  Re8  1  0.933302  0.523821  0.869636  1
  Re  Re9  1  0.327576  0.525549  0.143536  1
  Re  Re10  1  0.185920  0.719990  0.363342  1
  Re  Re11  1  0.437481  0.732087  0.863535  1
  Re  Re12  1  0.937481  0.767913  0.136465  1
  Re  Re13  1  0.685920  0.780010  0.636658  1
  Re  Re14  1  0.827576  0.974451  0.856464  1
  Re  Re15  1  0.433302  0.976179  0.130364  1
  O  O16  1  0.483414  0.003184  0.264531  1
  O  O17  1  0.965938  0.013300  0.950429  1
  O  O18  1  0.012364  0.053960  0.524232  1
  O  O19  1  0.572968  0.048880  0.843553  1
  O  O20  1  0.235887  0.079975  0.121827  1
  O  O21  1  0.722954  0.084165  0.130267  1
  O  O22  1  0.761851  0.126383  0.660856  1
  O  O23  1  0.263796  0.128365  0.660899  1
  O  O24  1  0.255339  0.161894  0.362598  1
  O  O25  1  0.767524  0.160355  0.360856  1
  O  O26  1  0.054173  0.208739  0.850647  1
  O  O27  1  0.515505  0.213488  0.528225  1
  O  O28  1  0.454161  0.237974  0.955862  1
  O  O29  1  0.002166  0.244366  0.227930  1
  O  O30  1  0.502166  0.255634  0.772070  1
  O  O31  1  0.954161  0.262026  0.044138  1
  O  O32  1  0.015505  0.286512  0.471775  1
  O  O33  1  0.554173  0.291261  0.149353  1
  O  O34  1  0.267524  0.339645  0.639144  1
  O  O35  1  0.755339  0.338106  0.637402  1
  O  O36  1  0.763796  0.371635  0.339101  1
  O  O37  1  0.261851  0.373617  0.339144  1
  O  O38  1  0.222954  0.415835  0.869733  1
  O  O39  1  0.735887  0.420025  0.878173  1
  O  O40  1  0.072968  0.451120  0.156447  1
  O  O41  1  0.512364  0.446040  0.475768  1
  O  O42  1  0.465938  0.486700  0.049571  1
  O  O43  1  0.983414  0.496816  0.735469  1
  O  O44  1  0.516586  0.503184  0.235469  1
  O  O45  1  0.034062  0.513300  0.549571  1
  O  O46  1  0.987636  0.553960  0.975768  1
  O  O47  1  0.427032  0.548880  0.656447  1
  O  O48  1  0.764113  0.579975  0.378173  1
  O  O49  1  0.277046  0.584165  0.369733  1
  O  O50  1  0.238149  0.626383  0.839144  1
  O  O51  1  0.736204  0.628365  0.839101  1
  O  O52  1  0.744661  0.661894  0.137402  1
  O  O53  1  0.232476  0.660355  0.139144  1
  O  O54  1  0.945827  0.708739  0.649353  1
  O  O55  1  0.484495  0.713488  0.971775  1
  O  O56  1  0.545839  0.737974  0.544138  1
  O  O57  1  0.997834  0.744366  0.272070  1
  O  O58  1  0.497834  0.755634  0.727930  1
  O  O59  1  0.045839  0.762026  0.455862  1
  O  O60  1  0.984495  0.786512  0.028225  1
  O  O61  1  0.445827  0.791261  0.350647  1
  O  O62  1  0.732476  0.839645  0.860856  1
  O  O63  1  0.244661  0.838106  0.862598  1
  O  O64  1  0.236204  0.871635  0.160899  1
  O  O65  1  0.738149  0.873617  0.160856  1
  O  O66  1  0.777046  0.915835  0.630267  1
  O  O67  1  0.264113  0.920025  0.621827  1
  O  O68  1  0.927032  0.951120  0.343553  1
  O  O69  1  0.487636  0.946040  0.024232  1
  O  O70  1  0.534062  0.986700  0.450429  1
  O  O71  1  0.016586  0.996816  0.764531  1
