# generated using pymatgen
data_HoS2
_symmetry_space_group_name_H-M   'P 1'
_cell_length_a   3.84842955
_cell_length_b   3.84842955
_cell_length_c   7.93431510
_cell_angle_alpha   90.00000000
_cell_angle_beta   90.00000000
_cell_angle_gamma   90.00000000
_symmetry_Int_Tables_number   1
_chemical_formula_structural   HoS2
_chemical_formula_sum   'Ho2 S4'
_cell_volume   117.51045971
_cell_formula_units_Z   2
loop_
 _symmetry_equiv_pos_site_id
 _symmetry_equiv_pos_as_xyz
  1  'x, y, z'
loop_
 _atom_site_type_symbol
 _atom_site_label
 _atom_site_symmetry_multiplicity
 _atom_site_fract_x
 _atom_site_fract_y
 _atom_site_fract_z
 _atom_site_occupancy
  Ho  Ho0  1  0.000000  0.500000  0.726280  1
  Ho  Ho1  1  0.500000  0.000000  0.273720  1
  S  S2  1  0.000000  0.000000  0.000000  1
  S  S3  1  0.500000  0.500000  0.000000  1
  S  S4  1  0.000000  0.500000  0.366852  1
  S  S5  1  0.500000  0.000000  0.633148  1
