# generated using pymatgen
data_Ca4PdO6
_symmetry_space_group_name_H-M   'P 1'
_cell_length_a   6.60583780
_cell_length_b   6.60583780
_cell_length_c   6.60583780
_cell_angle_alpha   90.72020323
_cell_angle_beta   90.72020323
_cell_angle_gamma   90.72020323
_symmetry_Int_Tables_number   1
_chemical_formula_structural   Ca4PdO6
_chemical_formula_sum   'Ca8 Pd2 O12'
_cell_volume   288.19066349
_cell_formula_units_Z   2
loop_
 _symmetry_equiv_pos_site_id
 _symmetry_equiv_pos_as_xyz
  1  'x, y, z'
loop_
 _atom_site_type_symbol
 _atom_site_label
 _atom_site_symmetry_multiplicity
 _atom_site_fract_x
 _atom_site_fract_y
 _atom_site_fract_z
 _atom_site_occupancy
  Ca  Ca0  1  0.250000  0.250000  0.250000  1
  Ca  Ca1  1  0.750000  0.750000  0.750000  1
  Ca  Ca2  1  0.384577  0.750000  0.115423  1
  Ca  Ca3  1  0.115423  0.384577  0.750000  1
  Ca  Ca4  1  0.750000  0.115423  0.384577  1
  Ca  Ca5  1  0.615423  0.250000  0.884577  1
  Ca  Ca6  1  0.884577  0.615423  0.250000  1
  Ca  Ca7  1  0.250000  0.884577  0.615423  1
  Pd  Pd8  1  0.000000  0.000000  0.000000  1
  Pd  Pd9  1  0.500000  0.500000  0.500000  1
  O  O10  1  0.446811  0.569567  0.797842  1
  O  O11  1  0.797842  0.446811  0.569567  1
  O  O12  1  0.569567  0.797842  0.446811  1
  O  O13  1  0.702158  0.930433  0.053189  1
  O  O14  1  0.053189  0.702158  0.930433  1
  O  O15  1  0.930433  0.053189  0.702158  1
  O  O16  1  0.553189  0.430433  0.202158  1
  O  O17  1  0.202158  0.553189  0.430433  1
  O  O18  1  0.430433  0.202158  0.553189  1
  O  O19  1  0.297842  0.069567  0.946811  1
  O  O20  1  0.069567  0.946811  0.297842  1
  O  O21  1  0.946811  0.297842  0.069567  1
