# generated using pymatgen
data_Nb3Cr3C
_symmetry_space_group_name_H-M   'P 1'
_cell_length_a   8.17759960
_cell_length_b   8.17759960
_cell_length_c   8.17759960
_cell_angle_alpha   60.00000000
_cell_angle_beta   60.00000000
_cell_angle_gamma   60.00000000
_symmetry_Int_Tables_number   1
_chemical_formula_structural   Nb3Cr3C
_chemical_formula_sum   'Nb12 Cr12 C4'
_cell_volume   386.68963389
_cell_formula_units_Z   4
loop_
 _symmetry_equiv_pos_site_id
 _symmetry_equiv_pos_as_xyz
  1  'x, y, z'
loop_
 _atom_site_type_symbol
 _atom_site_label
 _atom_site_symmetry_multiplicity
 _atom_site_fract_x
 _atom_site_fract_y
 _atom_site_fract_z
 _atom_site_occupancy
  Nb  Nb0  1  0.307634  0.307634  0.692366  1
  Nb  Nb1  1  0.692366  0.692366  0.307634  1
  Nb  Nb2  1  0.942366  0.942366  0.557634  1
  Nb  Nb3  1  0.557634  0.942366  0.557634  1
  Nb  Nb4  1  0.942366  0.557634  0.942366  1
  Nb  Nb5  1  0.557634  0.557634  0.942366  1
  Nb  Nb6  1  0.692366  0.307634  0.307634  1
  Nb  Nb7  1  0.942366  0.557634  0.557634  1
  Nb  Nb8  1  0.307634  0.692366  0.692366  1
  Nb  Nb9  1  0.692366  0.307634  0.692366  1
  Nb  Nb10  1  0.557634  0.942366  0.942366  1
  Nb  Nb11  1  0.307634  0.692366  0.307634  1
  Cr  Cr12  1  0.625000  0.125000  0.125000  1
  Cr  Cr13  1  0.328475  0.328475  0.328475  1
  Cr  Cr14  1  0.328475  0.328475  0.014575  1
  Cr  Cr15  1  0.921525  0.235425  0.921525  1
  Cr  Cr16  1  0.921525  0.921525  0.235425  1
  Cr  Cr17  1  0.235425  0.921525  0.921525  1
  Cr  Cr18  1  0.921525  0.921525  0.921525  1
  Cr  Cr19  1  0.328475  0.014575  0.328475  1
  Cr  Cr20  1  0.125000  0.125000  0.625000  1
  Cr  Cr21  1  0.125000  0.125000  0.125000  1
  Cr  Cr22  1  0.125000  0.625000  0.125000  1
  Cr  Cr23  1  0.014575  0.328475  0.328475  1
  C  C24  1  0.125000  0.625000  0.625000  1
  C  C25  1  0.625000  0.625000  0.625000  1
  C  C26  1  0.625000  0.625000  0.125000  1
  C  C27  1  0.625000  0.125000  0.625000  1
