# generated using pymatgen
data_Tm3Sb
_symmetry_space_group_name_H-M   'P 1'
_cell_length_a   12.21396061
_cell_length_b   12.21396061
_cell_length_c   6.11243293
_cell_angle_alpha   90.00000000
_cell_angle_beta   90.00000000
_cell_angle_gamma   90.00000000
_symmetry_Int_Tables_number   1
_chemical_formula_structural   Tm3Sb
_chemical_formula_sum   'Tm24 Sb8'
_cell_volume   911.85784094
_cell_formula_units_Z   8
loop_
 _symmetry_equiv_pos_site_id
 _symmetry_equiv_pos_as_xyz
  1  'x, y, z'
loop_
 _atom_site_type_symbol
 _atom_site_label
 _atom_site_symmetry_multiplicity
 _atom_site_fract_x
 _atom_site_fract_y
 _atom_site_fract_z
 _atom_site_occupancy
  Tm  Tm0  1  0.286211  0.173676  0.016709  1
  Tm  Tm1  1  0.673676  0.213789  0.516709  1
  Tm  Tm2  1  0.326324  0.786211  0.516709  1
  Tm  Tm3  1  0.713789  0.826324  0.016709  1
  Tm  Tm4  1  0.213789  0.326324  0.483291  1
  Tm  Tm5  1  0.826324  0.286211  0.983291  1
  Tm  Tm6  1  0.173676  0.713789  0.983291  1
  Tm  Tm7  1  0.786211  0.673676  0.483291  1
  Tm  Tm8  1  0.031162  0.145277  0.713605  1
  Tm  Tm9  1  0.645277  0.468838  0.213605  1
  Tm  Tm10  1  0.354723  0.531162  0.213605  1
  Tm  Tm11  1  0.968838  0.854723  0.713605  1
  Tm  Tm12  1  0.468838  0.354723  0.786395  1
  Tm  Tm13  1  0.854723  0.031162  0.286395  1
  Tm  Tm14  1  0.145277  0.968838  0.286395  1
  Tm  Tm15  1  0.531162  0.645277  0.786395  1
  Tm  Tm16  1  0.608363  0.916684  0.536660  1
  Tm  Tm17  1  0.416684  0.891637  0.036660  1
  Tm  Tm18  1  0.583316  0.108363  0.036660  1
  Tm  Tm19  1  0.391637  0.083316  0.536660  1
  Tm  Tm20  1  0.891637  0.583316  0.963340  1
  Tm  Tm21  1  0.083316  0.608363  0.463340  1
  Tm  Tm22  1  0.916684  0.391637  0.463340  1
  Tm  Tm23  1  0.108363  0.416684  0.963340  1
  Sb  Sb24  1  0.800592  0.042687  0.790421  1
  Sb  Sb25  1  0.542687  0.699408  0.290421  1
  Sb  Sb26  1  0.457313  0.300592  0.290421  1
  Sb  Sb27  1  0.199408  0.957313  0.790421  1
  Sb  Sb28  1  0.699408  0.457313  0.709579  1
  Sb  Sb29  1  0.957313  0.800592  0.209579  1
  Sb  Sb30  1  0.042687  0.199408  0.209579  1
  Sb  Sb31  1  0.300592  0.542687  0.709579  1
