# generated using pymatgen
data_K3HoSi2O7
_symmetry_space_group_name_H-M   'P 1'
_cell_length_a   9.93255437
_cell_length_b   9.93255437
_cell_length_c   14.46513185
_cell_angle_alpha   90.00000000
_cell_angle_beta   90.00000000
_cell_angle_gamma   120.00000000
_symmetry_Int_Tables_number   1
_chemical_formula_structural   K3HoSi2O7
_chemical_formula_sum   'K18 Ho6 Si12 O42'
_cell_volume   1235.87609026
_cell_formula_units_Z   6
loop_
 _symmetry_equiv_pos_site_id
 _symmetry_equiv_pos_as_xyz
  1  'x, y, z'
loop_
 _atom_site_type_symbol
 _atom_site_label
 _atom_site_symmetry_multiplicity
 _atom_site_fract_x
 _atom_site_fract_y
 _atom_site_fract_z
 _atom_site_occupancy
  K  K0  1  0.000000  0.000000  0.500000  1
  K  K1  1  0.331878  0.000000  0.091834  1
  K  K2  1  0.331878  0.331878  0.591834  1
  K  K3  1  0.000000  0.668122  0.591834  1
  K  K4  1  0.000000  0.331878  0.091834  1
  K  K5  1  0.668122  0.668122  0.091834  1
  K  K6  1  0.331878  0.000000  0.408166  1
  K  K7  1  0.000000  0.000000  0.000000  1
  K  K8  1  0.333333  0.666667  0.750000  1
  K  K9  1  0.666667  0.333333  0.250000  1
  K  K10  1  0.666667  0.333333  0.750000  1
  K  K11  1  0.333333  0.666667  0.250000  1
  K  K12  1  0.668122  0.668122  0.408166  1
  K  K13  1  0.668122  0.000000  0.908166  1
  K  K14  1  0.000000  0.668122  0.908166  1
  K  K15  1  0.000000  0.331878  0.408166  1
  K  K16  1  0.668122  0.000000  0.591834  1
  K  K17  1  0.331878  0.331878  0.908166  1
  Ho  Ho18  1  0.000000  0.000000  0.750000  1
  Ho  Ho19  1  0.333333  0.666667  0.000000  1
  Ho  Ho20  1  0.666667  0.333333  0.500000  1
  Ho  Ho21  1  0.666667  0.333333  0.000000  1
  Ho  Ho22  1  0.333333  0.666667  0.500000  1
  Ho  Ho23  1  0.000000  0.000000  0.250000  1
  Si  Si24  1  0.658248  0.658248  0.857334  1
  Si  Si25  1  0.341752  0.000000  0.857334  1
  Si  Si26  1  0.000000  0.341752  0.857334  1
  Si  Si27  1  0.000000  0.658248  0.357334  1
  Si  Si28  1  0.341752  0.000000  0.642666  1
  Si  Si29  1  0.341752  0.341752  0.357334  1
  Si  Si30  1  0.658248  0.000000  0.357334  1
  Si  Si31  1  0.341752  0.341752  0.142666  1
  Si  Si32  1  0.000000  0.658248  0.142666  1
  Si  Si33  1  0.000000  0.341752  0.642666  1
  Si  Si34  1  0.658248  0.658248  0.642666  1
  Si  Si35  1  0.658248  0.000000  0.142666  1
  O  O36  1  0.408639  0.000000  0.750000  1
  O  O37  1  0.408639  0.408639  0.250000  1
  O  O38  1  0.000000  0.591361  0.250000  1
  O  O39  1  0.000000  0.408639  0.750000  1
  O  O40  1  0.591361  0.591361  0.750000  1
  O  O41  1  0.591361  0.000000  0.250000  1
  O  O42  1  0.823026  0.823026  0.851720  1
  O  O43  1  0.176974  0.000000  0.851720  1
  O  O44  1  0.000000  0.176974  0.851720  1
  O  O45  1  0.000000  0.823026  0.351720  1
  O  O46  1  0.176974  0.000000  0.648280  1
  O  O47  1  0.176974  0.176974  0.351720  1
  O  O48  1  0.823026  0.000000  0.351720  1
  O  O49  1  0.176974  0.176974  0.148280  1
  O  O50  1  0.000000  0.823026  0.148280  1
  O  O51  1  0.000000  0.176974  0.648280  1
  O  O52  1  0.823026  0.823026  0.648280  1
  O  O53  1  0.823026  0.000000  0.148280  1
  O  O54  1  0.321939  0.844193  0.908639  1
  O  O55  1  0.155807  0.477746  0.908639  1
  O  O56  1  0.522254  0.678061  0.908639  1
  O  O57  1  0.477746  0.321939  0.408639  1
  O  O58  1  0.678061  0.522254  0.591361  1
  O  O59  1  0.678061  0.155807  0.408639  1
  O  O60  1  0.844193  0.522254  0.408639  1
  O  O61  1  0.155807  0.678061  0.091361  1
  O  O62  1  0.522254  0.844193  0.091361  1
  O  O63  1  0.477746  0.155807  0.591361  1
  O  O64  1  0.844193  0.321939  0.591361  1
  O  O65  1  0.321939  0.477746  0.091361  1
  O  O66  1  0.678061  0.155807  0.091361  1
  O  O67  1  0.844193  0.522254  0.091361  1
  O  O68  1  0.477746  0.321939  0.091361  1
  O  O69  1  0.522254  0.678061  0.591361  1
  O  O70  1  0.321939  0.477746  0.408639  1
  O  O71  1  0.321939  0.844193  0.591361  1
  O  O72  1  0.678061  0.522254  0.908639  1
  O  O73  1  0.155807  0.678061  0.408639  1
  O  O74  1  0.522254  0.844193  0.408639  1
  O  O75  1  0.477746  0.155807  0.908639  1
  O  O76  1  0.844193  0.321939  0.908639  1
  O  O77  1  0.155807  0.477746  0.591361  1
