# generated using pymatgen
data_EuAg2
_symmetry_space_group_name_H-M   'P 1'
_cell_length_a   6.09502959
_cell_length_b   6.09502959
_cell_length_c   6.09502959
_cell_angle_alpha   133.36125914
_cell_angle_beta   104.01065085
_cell_angle_gamma   94.08875378
_symmetry_Int_Tables_number   1
_chemical_formula_structural   EuAg2
_chemical_formula_sum   'Eu2 Ag4'
_cell_volume   150.39635357
_cell_formula_units_Z   2
loop_
 _symmetry_equiv_pos_site_id
 _symmetry_equiv_pos_as_xyz
  1  'x, y, z'
loop_
 _atom_site_type_symbol
 _atom_site_label
 _atom_site_symmetry_multiplicity
 _atom_site_fract_x
 _atom_site_fract_y
 _atom_site_fract_z
 _atom_site_occupancy
  Eu  Eu0  1  0.706388  0.956388  0.250000  1
  Eu  Eu1  1  0.293612  0.043612  0.750000  1
  Ag  Ag2  1  0.285103  0.336632  0.448471  1
  Ag  Ag3  1  0.714897  0.663368  0.551529  1
  Ag  Ag4  1  0.111839  0.663368  0.948471  1
  Ag  Ag5  1  0.888161  0.336632  0.051529  1
