# generated using pymatgen
data_LiYbGe2
_symmetry_space_group_name_H-M   'P 1'
_cell_length_a   3.91768853
_cell_length_b   7.96165621
_cell_length_c   10.61510093
_cell_angle_alpha   90.00000000
_cell_angle_beta   90.00000000
_cell_angle_gamma   90.00000000
_symmetry_Int_Tables_number   1
_chemical_formula_structural   LiYbGe2
_chemical_formula_sum   'Li4 Yb4 Ge8'
_cell_volume   331.09868314
_cell_formula_units_Z   4
loop_
 _symmetry_equiv_pos_site_id
 _symmetry_equiv_pos_as_xyz
  1  'x, y, z'
loop_
 _atom_site_type_symbol
 _atom_site_label
 _atom_site_symmetry_multiplicity
 _atom_site_fract_x
 _atom_site_fract_y
 _atom_site_fract_z
 _atom_site_occupancy
  Li  Li0  1  0.250000  0.989308  0.108881  1
  Li  Li1  1  0.750000  0.010692  0.891119  1
  Li  Li2  1  0.250000  0.489308  0.391119  1
  Li  Li3  1  0.750000  0.510692  0.608881  1
  Yb  Yb4  1  0.250000  0.634630  0.863321  1
  Yb  Yb5  1  0.750000  0.365370  0.136679  1
  Yb  Yb6  1  0.250000  0.134630  0.636679  1
  Yb  Yb7  1  0.750000  0.865370  0.363321  1
  Ge  Ge8  1  0.750000  0.845032  0.680148  1
  Ge  Ge9  1  0.250000  0.154968  0.319852  1
  Ge  Ge10  1  0.750000  0.345032  0.819852  1
  Ge  Ge11  1  0.250000  0.654968  0.180148  1
  Ge  Ge12  1  0.750000  0.766924  0.060472  1
  Ge  Ge13  1  0.250000  0.233076  0.939528  1
  Ge  Ge14  1  0.750000  0.266924  0.439528  1
  Ge  Ge15  1  0.250000  0.733076  0.560472  1
