# generated using pymatgen
data_Nd(PdO2)2
_symmetry_space_group_name_H-M   'P 1'
_cell_length_a   6.63651121
_cell_length_b   6.63651121
_cell_length_c   6.63651121
_cell_angle_alpha   126.81984999
_cell_angle_beta   126.81984999
_cell_angle_gamma   78.54478333
_symmetry_Int_Tables_number   1
_chemical_formula_structural   Nd(PdO2)2
_chemical_formula_sum   'Nd2 Pd4 O8'
_cell_volume   181.33860518
_cell_formula_units_Z   2
loop_
 _symmetry_equiv_pos_site_id
 _symmetry_equiv_pos_as_xyz
  1  'x, y, z'
loop_
 _atom_site_type_symbol
 _atom_site_label
 _atom_site_symmetry_multiplicity
 _atom_site_fract_x
 _atom_site_fract_y
 _atom_site_fract_z
 _atom_site_occupancy
  Nd  Nd0  1  0.500000  0.500000  0.000000  1
  Nd  Nd1  1  0.250000  0.750000  0.500000  1
  Pd  Pd2  1  0.875000  0.125000  0.750000  1
  Pd  Pd3  1  0.875000  0.625000  0.750000  1
  Pd  Pd4  1  0.875000  0.125000  0.250000  1
  Pd  Pd5  1  0.375000  0.125000  0.250000  1
  O  O6  1  0.500095  0.453065  0.351326  1
  O  O7  1  0.203065  0.351739  0.452970  1
  O  O8  1  0.898770  0.750095  0.547030  1
  O  O9  1  0.101739  0.148770  0.648674  1
  O  O10  1  0.249905  0.796935  0.148674  1
  O  O11  1  0.546935  0.898261  0.047030  1
  O  O12  1  0.648261  0.101230  0.851326  1
  O  O13  1  0.851230  0.499905  0.952970  1
