# generated using pymatgen
data_SrY2O4
_symmetry_space_group_name_H-M   'P 1'
_cell_length_a   3.43602252
_cell_length_b   10.19098088
_cell_length_c   12.03608562
_cell_angle_alpha   90.00000000
_cell_angle_beta   90.00000000
_cell_angle_gamma   90.00000000
_symmetry_Int_Tables_number   1
_chemical_formula_structural   SrY2O4
_chemical_formula_sum   'Sr4 Y8 O16'
_cell_volume   421.46086760
_cell_formula_units_Z   4
loop_
 _symmetry_equiv_pos_site_id
 _symmetry_equiv_pos_as_xyz
  1  'x, y, z'
loop_
 _atom_site_type_symbol
 _atom_site_label
 _atom_site_symmetry_multiplicity
 _atom_site_fract_x
 _atom_site_fract_y
 _atom_site_fract_z
 _atom_site_occupancy
  Sr  Sr0  1  0.750000  0.753683  0.649059  1
  Sr  Sr1  1  0.250000  0.246317  0.350941  1
  Sr  Sr2  1  0.750000  0.253683  0.850941  1
  Sr  Sr3  1  0.250000  0.746317  0.149059  1
  Y  Y4  1  0.250000  0.077809  0.610299  1
  Y  Y5  1  0.750000  0.922191  0.389701  1
  Y  Y6  1  0.250000  0.577809  0.889701  1
  Y  Y7  1  0.750000  0.422191  0.110299  1
  Y  Y8  1  0.750000  0.424322  0.612351  1
  Y  Y9  1  0.250000  0.575678  0.387649  1
  Y  Y10  1  0.750000  0.924322  0.887649  1
  Y  Y11  1  0.250000  0.075678  0.112351  1
  O  O12  1  0.250000  0.075994  0.922983  1
  O  O13  1  0.750000  0.924006  0.077017  1
  O  O14  1  0.250000  0.575994  0.577017  1
  O  O15  1  0.750000  0.424006  0.422983  1
  O  O16  1  0.250000  0.983970  0.283931  1
  O  O17  1  0.750000  0.016030  0.716069  1
  O  O18  1  0.250000  0.483970  0.216069  1
  O  O19  1  0.750000  0.516030  0.783931  1
  O  O20  1  0.250000  0.374961  0.979120  1
  O  O21  1  0.750000  0.625039  0.020880  1
  O  O22  1  0.250000  0.874961  0.520880  1
  O  O23  1  0.750000  0.125039  0.479120  1
  O  O24  1  0.750000  0.210483  0.174353  1
  O  O25  1  0.250000  0.789517  0.825647  1
  O  O26  1  0.750000  0.710483  0.325647  1
  O  O27  1  0.250000  0.289517  0.674353  1
