# generated using pymatgen
data_Ca2BN2F
_symmetry_space_group_name_H-M   'P 1'
_cell_length_a   3.67843323
_cell_length_b   9.24138724
_cell_length_c   10.02998822
_cell_angle_alpha   90.00000000
_cell_angle_beta   90.00000000
_cell_angle_gamma   90.00000000
_symmetry_Int_Tables_number   1
_chemical_formula_structural   Ca2BN2F
_chemical_formula_sum   'Ca8 B4 N8 F4'
_cell_volume   340.95767348
_cell_formula_units_Z   4
loop_
 _symmetry_equiv_pos_site_id
 _symmetry_equiv_pos_as_xyz
  1  'x, y, z'
loop_
 _atom_site_type_symbol
 _atom_site_label
 _atom_site_symmetry_multiplicity
 _atom_site_fract_x
 _atom_site_fract_y
 _atom_site_fract_z
 _atom_site_occupancy
  Ca  Ca0  1  0.250000  0.676496  0.025590  1
  Ca  Ca1  1  0.750000  0.823504  0.525590  1
  Ca  Ca2  1  0.250000  0.176496  0.474410  1
  Ca  Ca3  1  0.750000  0.323504  0.974410  1
  Ca  Ca4  1  0.250000  0.527124  0.656271  1
  Ca  Ca5  1  0.750000  0.472876  0.343729  1
  Ca  Ca6  1  0.250000  0.027124  0.843729  1
  Ca  Ca7  1  0.750000  0.972876  0.156271  1
  B  B8  1  0.250000  0.735311  0.323499  1
  B  B9  1  0.750000  0.264689  0.676501  1
  B  B10  1  0.250000  0.235311  0.176501  1
  B  B11  1  0.750000  0.764689  0.823499  1
  N  N12  1  0.250000  0.653550  0.435634  1
  N  N13  1  0.750000  0.346450  0.564366  1
  N  N14  1  0.250000  0.153550  0.064366  1
  N  N15  1  0.750000  0.179179  0.783347  1
  N  N16  1  0.250000  0.320821  0.283347  1
  N  N17  1  0.750000  0.679179  0.716653  1
  N  N18  1  0.250000  0.820821  0.216653  1
  N  N19  1  0.750000  0.846450  0.935634  1
  F  F20  1  0.750000  0.540690  0.105516  1
  F  F21  1  0.750000  0.040690  0.394484  1
  F  F22  1  0.250000  0.459310  0.894484  1
  F  F23  1  0.250000  0.959310  0.605516  1
