# generated using pymatgen
data_Lu2Cu2O5
_symmetry_space_group_name_H-M   'P 1'
_cell_length_a   3.41841155
_cell_length_b   10.76567924
_cell_length_c   12.36820321
_cell_angle_alpha   90.00000000
_cell_angle_beta   90.00000000
_cell_angle_gamma   90.00000000
_symmetry_Int_Tables_number   1
_chemical_formula_structural   Lu2Cu2O5
_chemical_formula_sum   'Lu8 Cu8 O20'
_cell_volume   455.16870572
_cell_formula_units_Z   4
loop_
 _symmetry_equiv_pos_site_id
 _symmetry_equiv_pos_as_xyz
  1  'x, y, z'
loop_
 _atom_site_type_symbol
 _atom_site_label
 _atom_site_symmetry_multiplicity
 _atom_site_fract_x
 _atom_site_fract_y
 _atom_site_fract_z
 _atom_site_occupancy
  Lu  Lu0  1  0.276265  0.542224  0.830471  1
  Lu  Lu1  1  0.723735  0.457776  0.330471  1
  Lu  Lu2  1  0.223735  0.042224  0.830471  1
  Lu  Lu3  1  0.776265  0.957776  0.330471  1
  Lu  Lu4  1  0.276797  0.708022  0.502473  1
  Lu  Lu5  1  0.723203  0.291978  0.002473  1
  Lu  Lu6  1  0.223203  0.208022  0.502473  1
  Lu  Lu7  1  0.776797  0.791978  0.002473  1
  Cu  Cu8  1  0.845655  0.761605  0.720158  1
  Cu  Cu9  1  0.154345  0.238395  0.220158  1
  Cu  Cu10  1  0.654345  0.261605  0.720158  1
  Cu  Cu11  1  0.345655  0.738395  0.220158  1
  Cu  Cu12  1  0.840699  0.489049  0.612341  1
  Cu  Cu13  1  0.159301  0.510951  0.112341  1
  Cu  Cu14  1  0.659301  0.989049  0.612341  1
  Cu  Cu15  1  0.340699  0.010951  0.112341  1
  O  O16  1  0.271461  0.921584  0.971586  1
  O  O17  1  0.728539  0.078416  0.471586  1
  O  O18  1  0.228539  0.421584  0.971586  1
  O  O19  1  0.771461  0.578416  0.471586  1
  O  O20  1  0.723716  0.930139  0.765295  1
  O  O21  1  0.276284  0.069861  0.265295  1
  O  O22  1  0.776284  0.430139  0.765295  1
  O  O23  1  0.223716  0.569861  0.265295  1
  O  O24  1  0.174250  0.624820  0.666382  1
  O  O25  1  0.825750  0.375180  0.166382  1
  O  O26  1  0.325750  0.124820  0.666382  1
  O  O27  1  0.674250  0.875180  0.166382  1
  O  O28  1  0.780897  0.820518  0.566794  1
  O  O29  1  0.219103  0.179482  0.066794  1
  O  O30  1  0.719103  0.320518  0.566794  1
  O  O31  1  0.280897  0.679482  0.066794  1
  O  O32  1  0.276500  0.828105  0.360799  1
  O  O33  1  0.723500  0.171895  0.860799  1
  O  O34  1  0.223500  0.328105  0.360799  1
  O  O35  1  0.776500  0.671895  0.860799  1
