# generated using pymatgen
data_Al21Pt8
_symmetry_space_group_name_H-M   'P 1'
_cell_length_a   10.68179036
_cell_length_b   10.68179036
_cell_length_c   10.68179036
_cell_angle_alpha   104.70962377
_cell_angle_beta   104.70962377
_cell_angle_gamma   119.48259734
_symmetry_Int_Tables_number   1
_chemical_formula_structural   Al21Pt8
_chemical_formula_sum   'Al42 Pt16'
_cell_volume   916.42327576
_cell_formula_units_Z   2
loop_
 _symmetry_equiv_pos_site_id
 _symmetry_equiv_pos_as_xyz
  1  'x, y, z'
loop_
 _atom_site_type_symbol
 _atom_site_label
 _atom_site_symmetry_multiplicity
 _atom_site_fract_x
 _atom_site_fract_y
 _atom_site_fract_z
 _atom_site_occupancy
  Al  Al0  1  1.000000  1.000000  0.000000  1
  Al  Al1  1  0.250000  0.750000  0.500000  1
  Al  Al2  1  0.347248  0.490039  0.036667  1
  Al  Al3  1  0.560582  0.097248  0.357209  1
  Al  Al4  1  0.740039  0.203372  0.642791  1
  Al  Al5  1  0.453372  0.310582  0.963333  1
  Al  Al6  1  0.902752  0.259961  0.463333  1
  Al  Al7  1  0.689418  0.652752  0.142791  1
  Al  Al8  1  0.509961  0.546628  0.857209  1
  Al  Al9  1  0.796628  0.439418  0.536667  1
  Al  Al10  1  0.700097  0.536820  0.340469  1
  Al  Al11  1  0.609628  0.450097  0.663277  1
  Al  Al12  1  0.786820  0.946351  0.336723  1
  Al  Al13  1  0.196351  0.359628  0.659531  1
  Al  Al14  1  0.549903  0.213180  0.159531  1
  Al  Al15  1  0.640372  0.299903  0.836723  1
  Al  Al16  1  0.463180  0.803649  0.163277  1
  Al  Al17  1  0.053649  0.390372  0.840469  1
  Al  Al18  1  0.806829  0.816293  0.572025  1
  Al  Al19  1  0.484804  0.556829  0.490536  1
  Al  Al20  1  0.066293  0.994268  0.509464  1
  Al  Al21  1  0.244268  0.234804  0.427975  1
  Al  Al22  1  0.443171  0.933707  0.927975  1
  Al  Al23  1  0.765196  0.193171  0.009464  1
  Al  Al24  1  0.183707  0.755732  0.990536  1
  Al  Al25  1  0.005732  0.515196  0.072025  1
  Al  Al26  1  0.802213  0.030178  0.791373  1
  Al  Al27  1  0.260840  0.552213  0.272035  1
  Al  Al28  1  0.280178  0.988805  0.727965  1
  Al  Al29  1  0.238805  0.010840  0.208627  1
  Al  Al30  1  0.447787  0.719822  0.708627  1
  Al  Al31  1  0.989160  0.197787  0.227965  1
  Al  Al32  1  0.969822  0.761195  0.772035  1
  Al  Al33  1  0.011195  0.739160  0.291373  1
  Al  Al34  1  0.135110  0.157494  0.837811  1
  Al  Al35  1  0.547298  0.885110  0.477616  1
  Al  Al36  1  0.407494  0.069682  0.522384  1
  Al  Al37  1  0.319682  0.297298  0.162189  1
  Al  Al38  1  0.114890  0.592506  0.662189  1
  Al  Al39  1  0.702702  0.864890  0.022384  1
  Al  Al40  1  0.842506  0.680318  0.977616  1
  Al  Al41  1  0.930318  0.452702  0.337811  1
  Pt  Pt42  1  0.002534  0.725952  0.537619  1
  Pt  Pt43  1  0.714915  0.752534  0.776582  1
  Pt  Pt44  1  0.975952  0.938333  0.223418  1
  Pt  Pt45  1  0.188333  0.464915  0.462381  1
  Pt  Pt46  1  0.247466  0.024048  0.962381  1
  Pt  Pt47  1  0.535085  0.997466  0.723418  1
  Pt  Pt48  1  0.274048  0.811667  0.276582  1
  Pt  Pt49  1  0.061667  0.285085  0.037619  1
  Pt  Pt50  1  0.693288  0.076878  0.186778  1
  Pt  Pt51  1  0.756511  0.443288  0.116410  1
  Pt  Pt52  1  0.326878  0.640100  0.883590  1
  Pt  Pt53  1  0.890100  0.506511  0.813222  1
  Pt  Pt54  1  0.556712  0.673122  0.313222  1
  Pt  Pt55  1  0.493489  0.306712  0.383590  1
  Pt  Pt56  1  0.923122  0.109900  0.616410  1
  Pt  Pt57  1  0.359900  0.243489  0.686778  1
