# generated using pymatgen
data_CsVP2S7
_symmetry_space_group_name_H-M   'P 1'
_cell_length_a   6.54141791
_cell_length_b   6.54141791
_cell_length_c   7.17018844
_cell_angle_alpha   85.08386694
_cell_angle_beta   94.91613306
_cell_angle_gamma   83.38615593
_symmetry_Int_Tables_number   1
_chemical_formula_structural   CsVP2S7
_chemical_formula_sum   'Cs1 V1 P2 S7'
_cell_volume   302.23137283
_cell_formula_units_Z   1
loop_
 _symmetry_equiv_pos_site_id
 _symmetry_equiv_pos_as_xyz
  1  'x, y, z'
loop_
 _atom_site_type_symbol
 _atom_site_label
 _atom_site_symmetry_multiplicity
 _atom_site_fract_x
 _atom_site_fract_y
 _atom_site_fract_z
 _atom_site_occupancy
  Cs  Cs0  1  0.105887  0.105887  0.500000  1
  V  V1  1  0.501530  0.501530  0.000000  1
  P  P2  1  0.658633  0.054874  0.924949  1
  P  P3  1  0.054874  0.658633  0.075051  1
  S  S4  1  0.636655  0.313720  0.742880  1
  S  S5  1  0.313720  0.636655  0.257120  1
  S  S6  1  0.529083  0.156567  0.155527  1
  S  S7  1  0.156567  0.529083  0.844473  1
  S  S8  1  0.549249  0.818045  0.799463  1
  S  S9  1  0.818045  0.549249  0.200537  1
  S  S10  1  0.987938  0.987938  0.000000  1
