# generated using pymatgen
data_MnWO4
_symmetry_space_group_name_H-M   'P 1'
_cell_length_a   4.88312539
_cell_length_b   5.85448006
_cell_length_c   5.12050263
_cell_angle_alpha   90.00000000
_cell_angle_beta   91.65787335
_cell_angle_gamma   90.00000000
_symmetry_Int_Tables_number   1
_chemical_formula_structural   MnWO4
_chemical_formula_sum   'Mn2 W2 O8'
_cell_volume   146.32447292
_cell_formula_units_Z   2
loop_
 _symmetry_equiv_pos_site_id
 _symmetry_equiv_pos_as_xyz
  1  'x, y, z'
loop_
 _atom_site_type_symbol
 _atom_site_label
 _atom_site_symmetry_multiplicity
 _atom_site_fract_x
 _atom_site_fract_y
 _atom_site_fract_z
 _atom_site_occupancy
  Mn  Mn0  1  0.000000  0.325839  0.250000  1
  Mn  Mn1  1  0.000000  0.674161  0.750000  1
  W  W2  1  0.500000  0.827924  0.250000  1
  W  W3  1  0.500000  0.172076  0.750000  1
  O  O4  1  0.753610  0.371236  0.893195  1
  O  O5  1  0.246390  0.371236  0.606805  1
  O  O6  1  0.246390  0.628764  0.106805  1
  O  O7  1  0.753610  0.628764  0.393195  1
  O  O8  1  0.709833  0.895202  0.938705  1
  O  O9  1  0.290167  0.895202  0.561295  1
  O  O10  1  0.290167  0.104798  0.061295  1
  O  O11  1  0.709833  0.104798  0.438705  1
