# generated using pymatgen
data_Mn3P
_symmetry_space_group_name_H-M   'P 1'
_cell_length_a   6.70221596
_cell_length_b   6.70221596
_cell_length_c   6.70221596
_cell_angle_alpha   96.32366555
_cell_angle_beta   96.32366555
_cell_angle_gamma   141.23405856
_symmetry_Int_Tables_number   1
_chemical_formula_structural   Mn3P
_chemical_formula_sum   'Mn12 P4'
_cell_volume   177.82247992
_cell_formula_units_Z   4
loop_
 _symmetry_equiv_pos_site_id
 _symmetry_equiv_pos_as_xyz
  1  'x, y, z'
loop_
 _atom_site_type_symbol
 _atom_site_label
 _atom_site_symmetry_multiplicity
 _atom_site_fract_x
 _atom_site_fract_y
 _atom_site_fract_z
 _atom_site_occupancy
  Mn  Mn0  1  0.957244  0.342410  0.325970  1
  Mn  Mn1  1  0.368726  0.042756  0.385166  1
  Mn  Mn2  1  0.657590  0.983560  0.614834  1
  Mn  Mn3  1  0.016440  0.631274  0.674030  1
  Mn  Mn4  1  0.536812  0.929580  0.953128  1
  Mn  Mn5  1  0.416316  0.463188  0.392768  1
  Mn  Mn6  1  0.070420  0.023548  0.607232  1
  Mn  Mn7  1  0.976452  0.583684  0.046872  1
  Mn  Mn8  1  0.324518  0.135301  0.022874  1
  Mn  Mn9  1  0.698356  0.675482  0.810783  1
  Mn  Mn10  1  0.864699  0.887574  0.189217  1
  Mn  Mn11  1  0.112426  0.301644  0.977126  1
  P  P12  1  0.532732  0.201304  0.749762  1
  P  P13  1  0.217030  0.467268  0.668572  1
  P  P14  1  0.798696  0.548458  0.331428  1
  P  P15  1  0.451542  0.782970  0.250238  1
