# generated using pymatgen
data_La5S4NO2
_symmetry_space_group_name_H-M   'P 1'
_cell_length_a   8.13279491
_cell_length_b   8.13279491
_cell_length_c   16.83536056
_cell_angle_alpha   79.27527036
_cell_angle_beta   100.72472964
_cell_angle_gamma   150.82189227
_symmetry_Int_Tables_number   1
_chemical_formula_structural   La5S4NO2
_chemical_formula_sum   'La10 S8 N2 O4'
_cell_volume   532.74397254
_cell_formula_units_Z   2
loop_
 _symmetry_equiv_pos_site_id
 _symmetry_equiv_pos_as_xyz
  1  'x, y, z'
loop_
 _atom_site_type_symbol
 _atom_site_label
 _atom_site_symmetry_multiplicity
 _atom_site_fract_x
 _atom_site_fract_y
 _atom_site_fract_z
 _atom_site_occupancy
  La  La0  1  0.875525  0.124475  0.975866  1
  La  La1  1  0.124475  0.875525  0.024134  1
  La  La2  1  0.517981  0.482019  0.168293  1
  La  La3  1  0.482019  0.517981  0.831707  1
  La  La4  1  0.767881  0.232119  0.205670  1
  La  La5  1  0.232119  0.767881  0.794330  1
  La  La6  1  0.578507  0.421493  0.592703  1
  La  La7  1  0.421493  0.578507  0.407297  1
  La  La8  1  0.859416  0.140584  0.585675  1
  La  La9  1  0.140584  0.859416  0.414325  1
  S  S10  1  0.677491  0.322509  0.900819  1
  S  S11  1  0.322509  0.677491  0.099181  1
  S  S12  1  0.840434  0.159566  0.755800  1
  S  S13  1  0.159566  0.840434  0.244200  1
  S  S14  1  0.954178  0.045822  0.284433  1
  S  S15  1  0.045822  0.954178  0.715567  1
  S  S16  1  0.787034  0.212966  0.407002  1
  S  S17  1  0.212966  0.787034  0.592998  1
  N  N18  1  0.572653  0.427347  0.450313  1
  N  N19  1  0.427347  0.572653  0.549687  1
  O  O20  1  0.997519  0.002481  0.086181  1
  O  O21  1  0.002481  0.997519  0.913819  1
  O  O22  1  0.639401  0.360599  0.096467  1
  O  O23  1  0.360599  0.639401  0.903533  1
