# generated using pymatgen
data_Na3Mn2(GeO4)3
_symmetry_space_group_name_H-M   'P 1'
_cell_length_a   10.62504526
_cell_length_b   10.62504526
_cell_length_c   10.62504526
_cell_angle_alpha   109.47122063
_cell_angle_beta   109.47122063
_cell_angle_gamma   109.47122063
_symmetry_Int_Tables_number   1
_chemical_formula_structural   Na3Mn2(GeO4)3
_chemical_formula_sum   'Na12 Mn8 Ge12 O48'
_cell_volume   923.35876281
_cell_formula_units_Z   4
loop_
 _symmetry_equiv_pos_site_id
 _symmetry_equiv_pos_as_xyz
  1  'x, y, z'
loop_
 _atom_site_type_symbol
 _atom_site_label
 _atom_site_symmetry_multiplicity
 _atom_site_fract_x
 _atom_site_fract_y
 _atom_site_fract_z
 _atom_site_occupancy
  Na  Na0  1  0.625000  0.250000  0.875000  1
  Na  Na1  1  0.875000  0.750000  0.625000  1
  Na  Na2  1  0.750000  0.625000  0.875000  1
  Na  Na3  1  0.250000  0.875000  0.625000  1
  Na  Na4  1  0.875000  0.625000  0.250000  1
  Na  Na5  1  0.625000  0.875000  0.750000  1
  Na  Na6  1  0.375000  0.750000  0.125000  1
  Na  Na7  1  0.125000  0.250000  0.375000  1
  Na  Na8  1  0.250000  0.375000  0.125000  1
  Na  Na9  1  0.750000  0.125000  0.375000  1
  Na  Na10  1  0.125000  0.375000  0.750000  1
  Na  Na11  1  0.375000  0.125000  0.250000  1
  Mn  Mn12  1  0.500000  0.500000  0.500000  1
  Mn  Mn13  1  0.500000  0.500000  0.000000  1
  Mn  Mn14  1  0.500000  1.000000  0.500000  1
  Mn  Mn15  1  1.000000  0.500000  0.500000  1
  Mn  Mn16  1  0.500000  1.000000  0.000000  1
  Mn  Mn17  1  1.000000  1.000000  0.500000  1
  Mn  Mn18  1  1.000000  0.500000  1.000000  1
  Mn  Mn19  1  1.000000  1.000000  0.000000  1
  Ge  Ge20  1  0.875000  0.125000  0.750000  1
  Ge  Ge21  1  0.125000  0.875000  0.250000  1
  Ge  Ge22  1  0.250000  0.625000  0.375000  1
  Ge  Ge23  1  0.125000  0.750000  0.875000  1
  Ge  Ge24  1  0.750000  0.875000  0.125000  1
  Ge  Ge25  1  0.375000  0.250000  0.625000  1
  Ge  Ge26  1  0.625000  0.750000  0.375000  1
  Ge  Ge27  1  0.875000  0.250000  0.125000  1
  Ge  Ge28  1  0.250000  0.125000  0.875000  1
  Ge  Ge29  1  0.750000  0.375000  0.625000  1
  Ge  Ge30  1  0.375000  0.625000  0.750000  1
  Ge  Ge31  1  0.625000  0.375000  0.250000  1
  O  O32  1  0.805382  0.417900  0.818690  1
  O  O33  1  0.082100  0.887481  0.400790  1
  O  O34  1  0.681310  0.099210  0.986692  1
  O  O35  1  0.694618  0.513308  0.612519  1
  O  O36  1  0.694618  0.681310  0.082100  1
  O  O37  1  0.513308  0.612519  0.694618  1
  O  O38  1  0.099210  0.612519  0.417900  1
  O  O39  1  0.612519  0.694618  0.513308  1
  O  O40  1  0.400789  0.818690  0.513308  1
  O  O41  1  0.887481  0.986692  0.805382  1
  O  O42  1  0.986692  0.805382  0.887481  1
  O  O43  1  0.082100  0.694618  0.681310  1
  O  O44  1  0.612519  0.417900  0.099210  1
  O  O45  1  0.513308  0.400789  0.818690  1
  O  O46  1  0.681310  0.082100  0.694618  1
  O  O47  1  0.417900  0.099210  0.612519  1
  O  O48  1  0.818690  0.513308  0.400790  1
  O  O49  1  0.400790  0.082100  0.887481  1
  O  O50  1  0.099210  0.986692  0.681310  1
  O  O51  1  0.599210  0.181310  0.486692  1
  O  O52  1  0.986692  0.681310  0.099210  1
  O  O53  1  0.818690  0.805382  0.417900  1
  O  O54  1  0.887481  0.400789  0.082100  1
  O  O55  1  0.805382  0.887481  0.986692  1
  O  O56  1  0.194618  0.582100  0.181310  1
  O  O57  1  0.917900  0.112519  0.599210  1
  O  O58  1  0.318690  0.900789  0.013308  1
  O  O59  1  0.305382  0.486692  0.387481  1
  O  O60  1  0.305382  0.318690  0.917900  1
  O  O61  1  0.486692  0.387481  0.305382  1
  O  O62  1  0.900789  0.387481  0.582100  1
  O  O63  1  0.387481  0.305382  0.486692  1
  O  O64  1  0.194618  0.112519  0.013308  1
  O  O65  1  0.112519  0.599210  0.917900  1
  O  O66  1  0.181310  0.194618  0.582100  1
  O  O67  1  0.582100  0.181310  0.194618  1
  O  O68  1  0.013308  0.318690  0.900790  1
  O  O69  1  0.900789  0.013308  0.318690  1
  O  O70  1  0.599210  0.917900  0.112519  1
  O  O71  1  0.181310  0.486692  0.599210  1
  O  O72  1  0.582100  0.900790  0.387481  1
  O  O73  1  0.318690  0.917900  0.305382  1
  O  O74  1  0.486692  0.599210  0.181310  1
  O  O75  1  0.387481  0.582100  0.900790  1
  O  O76  1  0.917900  0.305382  0.318690  1
  O  O77  1  0.013308  0.194618  0.112519  1
  O  O78  1  0.112519  0.013308  0.194618  1
  O  O79  1  0.417900  0.818690  0.805382  1
