# generated using pymatgen
data_Li4UF8
_symmetry_space_group_name_H-M   'P 1'
_cell_length_a   5.89348286
_cell_length_b   9.96480326
_cell_length_c   10.12788535
_cell_angle_alpha   90.00000000
_cell_angle_beta   90.00000000
_cell_angle_gamma   90.00000000
_symmetry_Int_Tables_number   1
_chemical_formula_structural   Li4UF8
_chemical_formula_sum   'Li16 U4 F32'
_cell_volume   594.78434591
_cell_formula_units_Z   4
loop_
 _symmetry_equiv_pos_site_id
 _symmetry_equiv_pos_as_xyz
  1  'x, y, z'
loop_
 _atom_site_type_symbol
 _atom_site_label
 _atom_site_symmetry_multiplicity
 _atom_site_fract_x
 _atom_site_fract_y
 _atom_site_fract_z
 _atom_site_occupancy
  Li  Li0  1  0.129532  0.100539  0.579628  1
  Li  Li1  1  0.629532  0.399461  0.420372  1
  Li  Li2  1  0.870468  0.899461  0.079628  1
  Li  Li3  1  0.370468  0.600539  0.920372  1
  Li  Li4  1  0.129532  0.100539  0.920372  1
  Li  Li5  1  0.629532  0.399461  0.079628  1
  Li  Li6  1  0.621224  0.127939  0.554014  1
  Li  Li7  1  0.121224  0.372061  0.445986  1
  Li  Li8  1  0.378776  0.872061  0.054014  1
  Li  Li9  1  0.878776  0.627939  0.945986  1
  Li  Li10  1  0.378776  0.872061  0.445986  1
  Li  Li11  1  0.878776  0.627939  0.554014  1
  Li  Li12  1  0.621224  0.127939  0.945986  1
  Li  Li13  1  0.121224  0.372061  0.054014  1
  Li  Li14  1  0.870468  0.899461  0.420372  1
  Li  Li15  1  0.370468  0.600539  0.579628  1
  U  U16  1  0.131163  0.637123  0.250000  1
  U  U17  1  0.631163  0.862877  0.750000  1
  U  U18  1  0.868837  0.362877  0.750000  1
  U  U19  1  0.368837  0.137123  0.250000  1
  F  F20  1  0.889595  0.518175  0.384117  1
  F  F21  1  0.889595  0.518175  0.115883  1
  F  F22  1  0.610405  0.018175  0.384117  1
  F  F23  1  0.110405  0.481825  0.615883  1
  F  F24  1  0.374200  0.238020  0.031484  1
  F  F25  1  0.874200  0.261980  0.968516  1
  F  F26  1  0.625800  0.761980  0.531484  1
  F  F27  1  0.389595  0.981825  0.884117  1
  F  F28  1  0.625800  0.761980  0.968516  1
  F  F29  1  0.125800  0.738020  0.031484  1
  F  F30  1  0.374200  0.238020  0.468516  1
  F  F31  1  0.874200  0.261980  0.531484  1
  F  F32  1  0.121867  0.302265  0.250000  1
  F  F33  1  0.621867  0.197735  0.750000  1
  F  F34  1  0.878133  0.697735  0.750000  1
  F  F35  1  0.378133  0.802265  0.250000  1
  F  F36  1  0.624561  0.297978  0.250000  1
  F  F37  1  0.124561  0.202022  0.750000  1
  F  F38  1  0.375439  0.702022  0.750000  1
  F  F39  1  0.875439  0.797978  0.250000  1
  F  F40  1  0.110405  0.481825  0.884117  1
  F  F41  1  0.610405  0.018175  0.115883  1
  F  F42  1  0.637807  0.483930  0.610651  1
  F  F43  1  0.137807  0.016070  0.389349  1
  F  F44  1  0.362193  0.516070  0.110651  1
  F  F45  1  0.862193  0.983930  0.889349  1
  F  F46  1  0.362193  0.516070  0.389349  1
  F  F47  1  0.862193  0.983930  0.610651  1
  F  F48  1  0.637807  0.483930  0.889349  1
  F  F49  1  0.137807  0.016070  0.110651  1
  F  F50  1  0.125800  0.738020  0.468516  1
  F  F51  1  0.389595  0.981825  0.615883  1
