# generated using pymatgen
data_Pr3GePO9
_symmetry_space_group_name_H-M   'P 1'
_cell_length_a   7.13440880
_cell_length_b   12.61508330
_cell_length_c   9.86478975
_cell_angle_alpha   90.00000000
_cell_angle_beta   115.92847654
_cell_angle_gamma   90.00000000
_symmetry_Int_Tables_number   1
_chemical_formula_structural   Pr3GePO9
_chemical_formula_sum   'Pr12 Ge4 P4 O36'
_cell_volume   798.47281339
_cell_formula_units_Z   4
loop_
 _symmetry_equiv_pos_site_id
 _symmetry_equiv_pos_as_xyz
  1  'x, y, z'
loop_
 _atom_site_type_symbol
 _atom_site_label
 _atom_site_symmetry_multiplicity
 _atom_site_fract_x
 _atom_site_fract_y
 _atom_site_fract_z
 _atom_site_occupancy
  Pr  Pr0  1  0.635427  0.390286  0.624818  1
  Pr  Pr1  1  0.364573  0.890286  0.875182  1
  Pr  Pr2  1  0.364573  0.609714  0.375182  1
  Pr  Pr3  1  0.635427  0.109714  0.124818  1
  Pr  Pr4  1  0.387933  0.129005  0.644115  1
  Pr  Pr5  1  0.612067  0.629005  0.855885  1
  Pr  Pr6  1  0.612067  0.870995  0.355885  1
  Pr  Pr7  1  0.387933  0.370995  0.144115  1
  Pr  Pr8  1  0.038386  0.366561  0.370666  1
  Pr  Pr9  1  0.961614  0.866561  0.129334  1
  Pr  Pr10  1  0.961614  0.633439  0.629334  1
  Pr  Pr11  1  0.038386  0.133439  0.870667  1
  Ge  Ge12  1  0.804445  0.602575  0.264526  1
  Ge  Ge13  1  0.195555  0.102575  0.235474  1
  Ge  Ge14  1  0.195555  0.397425  0.735474  1
  Ge  Ge15  1  0.804445  0.897425  0.764526  1
  P  P16  1  0.778732  0.336621  0.977138  1
  P  P17  1  0.221268  0.836621  0.522862  1
  P  P18  1  0.221268  0.663379  0.022862  1
  P  P19  1  0.778732  0.163379  0.477138  1
  O  O20  1  0.176627  0.174361  0.380562  1
  O  O21  1  0.823373  0.674361  0.119438  1
  O  O22  1  0.823373  0.825639  0.619438  1
  O  O23  1  0.176627  0.325639  0.880562  1
  O  O24  1  0.937849  0.425019  0.588443  1
  O  O25  1  0.062151  0.925019  0.911557  1
  O  O26  1  0.062151  0.574981  0.411557  1
  O  O27  1  0.937849  0.074981  0.088443  1
  O  O28  1  0.371054  0.421522  0.376496  1
  O  O29  1  0.628946  0.921522  0.123504  1
  O  O30  1  0.628946  0.578478  0.623504  1
  O  O31  1  0.371054  0.078478  0.876496  1
  O  O32  1  0.312610  0.326023  0.634009  1
  O  O33  1  0.687390  0.826023  0.865991  1
  O  O34  1  0.687390  0.673977  0.365991  1
  O  O35  1  0.312610  0.173977  0.134009  1
  O  O36  1  0.001434  0.343427  0.107899  1
  O  O37  1  0.998566  0.843427  0.392101  1
  O  O38  1  0.998566  0.656573  0.892101  1
  O  O39  1  0.001434  0.156573  0.607899  1
  O  O40  1  0.713216  0.055644  0.393353  1
  O  O41  1  0.286784  0.555644  0.106647  1
  O  O42  1  0.286784  0.944356  0.606647  1
  O  O43  1  0.713216  0.444356  0.893353  1
  O  O44  1  0.760816  0.256551  0.849889  1
  O  O45  1  0.239184  0.756551  0.650111  1
  O  O46  1  0.239184  0.743449  0.150111  1
  O  O47  1  0.760816  0.243449  0.349889  1
  O  O48  1  0.628484  0.296195  0.040989  1
  O  O49  1  0.371516  0.796195  0.459011  1
  O  O50  1  0.371516  0.703805  0.959011  1
  O  O51  1  0.628484  0.203805  0.540989  1
  O  O52  1  0.710226  0.028848  0.727138  1
  O  O53  1  0.289774  0.528848  0.772862  1
  O  O54  1  0.289774  0.971152  0.272862  1
  O  O55  1  0.710226  0.471152  0.227138  1
