# generated using pymatgen
data_Cd3As2
_symmetry_space_group_name_H-M   'P 1'
_cell_length_a   9.16922992
_cell_length_b   9.16922992
_cell_length_c   12.90797991
_cell_angle_alpha   90.00000000
_cell_angle_beta   90.00000000
_cell_angle_gamma   90.00000000
_symmetry_Int_Tables_number   1
_chemical_formula_structural   Cd3As2
_chemical_formula_sum   'Cd24 As16'
_cell_volume   1085.23553666
_cell_formula_units_Z   8
loop_
 _symmetry_equiv_pos_site_id
 _symmetry_equiv_pos_as_xyz
  1  'x, y, z'
loop_
 _atom_site_type_symbol
 _atom_site_label
 _atom_site_symmetry_multiplicity
 _atom_site_fract_x
 _atom_site_fract_y
 _atom_site_fract_z
 _atom_site_occupancy
  Cd  Cd0  1  0.500000  0.744536  0.146794  1
  Cd  Cd1  1  0.755464  0.000000  0.646794  1
  Cd  Cd2  1  0.244536  0.000000  0.646794  1
  Cd  Cd3  1  0.000000  0.755464  0.353206  1
  Cd  Cd4  1  0.000000  0.244536  0.353206  1
  Cd  Cd5  1  0.500000  0.255464  0.146794  1
  Cd  Cd6  1  0.744536  0.500000  0.853206  1
  Cd  Cd7  1  0.255464  0.500000  0.853206  1
  Cd  Cd8  1  0.214907  0.500000  0.117475  1
  Cd  Cd9  1  0.785093  0.500000  0.117475  1
  Cd  Cd10  1  0.500000  0.214907  0.882525  1
  Cd  Cd11  1  0.000000  0.285093  0.617475  1
  Cd  Cd12  1  0.000000  0.714907  0.617475  1
  Cd  Cd13  1  0.285093  0.000000  0.382525  1
  Cd  Cd14  1  0.714907  0.000000  0.382525  1
  Cd  Cd15  1  0.500000  0.785093  0.882525  1
  Cd  Cd16  1  0.282386  0.500000  0.395061  1
  Cd  Cd17  1  0.717614  0.500000  0.395061  1
  Cd  Cd18  1  0.500000  0.282386  0.604939  1
  Cd  Cd19  1  0.000000  0.217614  0.895061  1
  Cd  Cd20  1  0.000000  0.782386  0.895061  1
  Cd  Cd21  1  0.217614  0.000000  0.104939  1
  Cd  Cd22  1  0.782386  0.000000  0.104939  1
  Cd  Cd23  1  0.500000  0.717614  0.604939  1
  As  As24  1  0.255908  0.255908  0.000000  1
  As  As25  1  0.244092  0.755908  0.500000  1
  As  As26  1  0.755908  0.244092  0.500000  1
  As  As27  1  0.744092  0.744092  0.000000  1
  As  As28  1  0.244092  0.244092  0.500000  1
  As  As29  1  0.255908  0.744092  0.000000  1
  As  As30  1  0.744092  0.255908  0.000000  1
  As  As31  1  0.755908  0.755908  0.500000  1
  As  As32  1  0.000000  0.500000  0.258092  1
  As  As33  1  0.000000  0.500000  0.758092  1
  As  As34  1  0.500000  0.000000  0.241908  1
  As  As35  1  0.500000  0.000000  0.741908  1
  As  As36  1  0.500000  0.500000  0.254885  1
  As  As37  1  0.000000  0.000000  0.754885  1
  As  As38  1  0.000000  0.000000  0.245115  1
  As  As39  1  0.500000  0.500000  0.745115  1
