# generated using pymatgen
data_ScCu2
_symmetry_space_group_name_H-M   'P 1'
_cell_length_a   4.79632498
_cell_length_b   4.79632498
_cell_length_c   4.79632498
_cell_angle_alpha   139.72332896
_cell_angle_beta   139.72332896
_cell_angle_gamma   58.27362592
_symmetry_Int_Tables_number   1
_chemical_formula_structural   ScCu2
_chemical_formula_sum   'Sc1 Cu2'
_cell_volume   45.69537473
_cell_formula_units_Z   1
loop_
 _symmetry_equiv_pos_site_id
 _symmetry_equiv_pos_as_xyz
  1  'x, y, z'
loop_
 _atom_site_type_symbol
 _atom_site_label
 _atom_site_symmetry_multiplicity
 _atom_site_fract_x
 _atom_site_fract_y
 _atom_site_fract_z
 _atom_site_occupancy
  Sc  Sc0  1  0.000000  0.000000  0.000000  1
  Cu  Cu1  1  0.672247  0.672247  0.000000  1
  Cu  Cu2  1  0.327753  0.327753  0.000000  1
