# generated using pymatgen
data_Al2Co3(SiO4)3
_symmetry_space_group_name_H-M   'P 1'
_cell_length_a   10.01836667
_cell_length_b   10.01836667
_cell_length_c   10.01836667
_cell_angle_alpha   109.47122063
_cell_angle_beta   109.47122063
_cell_angle_gamma   109.47122063
_symmetry_Int_Tables_number   1
_chemical_formula_structural   Al2Co3(SiO4)3
_chemical_formula_sum   'Al8 Co12 Si12 O48'
_cell_volume   774.04975524
_cell_formula_units_Z   4
loop_
 _symmetry_equiv_pos_site_id
 _symmetry_equiv_pos_as_xyz
  1  'x, y, z'
loop_
 _atom_site_type_symbol
 _atom_site_label
 _atom_site_symmetry_multiplicity
 _atom_site_fract_x
 _atom_site_fract_y
 _atom_site_fract_z
 _atom_site_occupancy
  Al  Al0  1  0.500000  1.000000  0.500000  1
  Al  Al1  1  0.000000  0.000000  0.500000  1
  Al  Al2  1  0.500000  0.500000  0.500000  1
  Al  Al3  1  0.000000  0.000000  0.000000  1
  Al  Al4  1  0.000000  0.500000  0.500000  1
  Al  Al5  1  0.500000  0.500000  0.000000  1
  Al  Al6  1  0.500000  1.000000  0.000000  1
  Al  Al7  1  0.000000  0.500000  0.000000  1
  Co  Co8  1  0.750000  0.625000  0.875000  1
  Co  Co9  1  0.375000  0.750000  0.125000  1
  Co  Co10  1  0.875000  0.625000  0.250000  1
  Co  Co11  1  0.375000  0.125000  0.250000  1
  Co  Co12  1  0.125000  0.250000  0.375000  1
  Co  Co13  1  0.625000  0.875000  0.750000  1
  Co  Co14  1  0.250000  0.875000  0.625000  1
  Co  Co15  1  0.750000  0.125000  0.375000  1
  Co  Co16  1  0.250000  0.375000  0.125000  1
  Co  Co17  1  0.625000  0.250000  0.875000  1
  Co  Co18  1  0.875000  0.750000  0.625000  1
  Co  Co19  1  0.125000  0.375000  0.750000  1
  Si  Si20  1  0.125000  0.875000  0.250000  1
  Si  Si21  1  0.125000  0.750000  0.875000  1
  Si  Si22  1  0.875000  0.125000  0.750000  1
  Si  Si23  1  0.750000  0.375000  0.625000  1
  Si  Si24  1  0.375000  0.625000  0.750000  1
  Si  Si25  1  0.250000  0.625000  0.375000  1
  Si  Si26  1  0.625000  0.750000  0.375000  1
  Si  Si27  1  0.375000  0.250000  0.625000  1
  Si  Si28  1  0.875000  0.250000  0.125000  1
  Si  Si29  1  0.625000  0.375000  0.250000  1
  Si  Si30  1  0.250000  0.125000  0.875000  1
  Si  Si31  1  0.750000  0.875000  0.125000  1
  O  O32  1  0.880697  0.398334  0.084717  1
  O  O33  1  0.204020  0.584717  0.186382  1
  O  O34  1  0.898334  0.380697  0.584717  1
  O  O35  1  0.119303  0.601666  0.915283  1
  O  O36  1  0.119303  0.017637  0.204020  1
  O  O37  1  0.619303  0.415283  0.101666  1
  O  O38  1  0.482363  0.380697  0.295980  1
  O  O39  1  0.915283  0.119303  0.601666  1
  O  O40  1  0.084717  0.704020  0.686382  1
  O  O41  1  0.982363  0.686382  0.101666  1
  O  O42  1  0.619303  0.704020  0.517637  1
  O  O43  1  0.482363  0.601666  0.186382  1
  O  O44  1  0.880697  0.982363  0.795980  1
  O  O45  1  0.601666  0.186382  0.482363  1
  O  O46  1  0.686382  0.101666  0.982363  1
  O  O47  1  0.601666  0.915283  0.119303  1
  O  O48  1  0.704020  0.686382  0.084717  1
  O  O49  1  0.415283  0.813618  0.795980  1
  O  O50  1  0.517637  0.619303  0.704020  1
  O  O51  1  0.101666  0.982363  0.686382  1
  O  O52  1  0.795980  0.880697  0.982363  1
  O  O53  1  0.084717  0.880697  0.398334  1
  O  O54  1  0.101666  0.619303  0.415283  1
  O  O55  1  0.898334  0.017637  0.313618  1
  O  O56  1  0.813618  0.795980  0.415283  1
  O  O57  1  0.295980  0.482363  0.380697  1
  O  O58  1  0.017637  0.313618  0.898334  1
  O  O59  1  0.686382  0.084717  0.704020  1
  O  O60  1  0.398334  0.084717  0.880697  1
  O  O61  1  0.704020  0.517637  0.619303  1
  O  O62  1  0.186382  0.204020  0.584717  1
  O  O63  1  0.517637  0.398334  0.813618  1
  O  O64  1  0.584717  0.186382  0.204020  1
  O  O65  1  0.398334  0.813618  0.517637  1
  O  O66  1  0.982363  0.795980  0.880697  1
  O  O67  1  0.017637  0.204020  0.119303  1
  O  O68  1  0.295980  0.313618  0.915283  1
  O  O69  1  0.186382  0.482363  0.601666  1
  O  O70  1  0.204020  0.119303  0.017637  1
  O  O71  1  0.380697  0.584717  0.898334  1
  O  O72  1  0.313618  0.898334  0.017637  1
  O  O73  1  0.584717  0.898334  0.380697  1
  O  O74  1  0.795980  0.415283  0.813618  1
  O  O75  1  0.915283  0.295980  0.313618  1
  O  O76  1  0.415283  0.101666  0.619303  1
  O  O77  1  0.313618  0.915283  0.295980  1
  O  O78  1  0.813618  0.517637  0.398334  1
  O  O79  1  0.380697  0.295980  0.482363  1
