# generated using pymatgen
data_BaBe2Si2O7
_symmetry_space_group_name_H-M   'P 1'
_cell_length_a   4.73231301
_cell_length_b   4.97227458
_cell_length_c   11.80275433
_cell_angle_alpha   90.00000000
_cell_angle_beta   90.00000000
_cell_angle_gamma   90.00000000
_symmetry_Int_Tables_number   1
_chemical_formula_structural   BaBe2Si2O7
_chemical_formula_sum   'Ba2 Be4 Si4 O14'
_cell_volume   277.72305465
_cell_formula_units_Z   2
loop_
 _symmetry_equiv_pos_site_id
 _symmetry_equiv_pos_as_xyz
  1  'x, y, z'
loop_
 _atom_site_type_symbol
 _atom_site_label
 _atom_site_symmetry_multiplicity
 _atom_site_fract_x
 _atom_site_fract_y
 _atom_site_fract_z
 _atom_site_occupancy
  Ba  Ba0  1  0.015466  0.202169  0.000000  1
  Ba  Ba1  1  0.515466  0.797831  0.500000  1
  Be  Be2  1  0.516614  0.168660  0.251044  1
  Be  Be3  1  0.016614  0.831340  0.248956  1
  Be  Be4  1  0.516614  0.168660  0.748956  1
  Be  Be5  1  0.016614  0.831340  0.751044  1
  Si  Si6  1  0.031455  0.324283  0.371415  1
  Si  Si7  1  0.531455  0.675717  0.128585  1
  Si  Si8  1  0.531455  0.675717  0.871415  1
  Si  Si9  1  0.031455  0.324283  0.628585  1
  O  O10  1  0.419589  0.771928  0.000000  1
  O  O11  1  0.919589  0.228072  0.500000  1
  O  O12  1  0.369177  0.265696  0.633391  1
  O  O13  1  0.869177  0.734304  0.866609  1
  O  O14  1  0.369177  0.265696  0.366609  1
  O  O15  1  0.869177  0.734304  0.133391  1
  O  O16  1  0.964712  0.643783  0.640411  1
  O  O17  1  0.464712  0.356217  0.859589  1
  O  O18  1  0.464712  0.356217  0.140411  1
  O  O19  1  0.964712  0.643783  0.359589  1
  O  O20  1  0.365716  0.868397  0.778472  1
  O  O21  1  0.865716  0.131603  0.721528  1
  O  O22  1  0.865716  0.131603  0.278472  1
  O  O23  1  0.365716  0.868397  0.221528  1
