# generated using pymatgen
data_TlSe
_symmetry_space_group_name_H-M   'P 1'
_cell_length_a   6.84550719
_cell_length_b   6.84550719
_cell_length_c   6.84550719
_cell_angle_alpha   105.97866985
_cell_angle_beta   105.97866985
_cell_angle_gamma   116.70782771
_symmetry_Int_Tables_number   1
_chemical_formula_structural   TlSe
_chemical_formula_sum   'Tl4 Se4'
_cell_volume   243.95199038
_cell_formula_units_Z   4
loop_
 _symmetry_equiv_pos_site_id
 _symmetry_equiv_pos_as_xyz
  1  'x, y, z'
loop_
 _atom_site_type_symbol
 _atom_site_label
 _atom_site_symmetry_multiplicity
 _atom_site_fract_x
 _atom_site_fract_y
 _atom_site_fract_z
 _atom_site_occupancy
  Tl  Tl0  1  0.750000  0.750000  0.000000  1
  Tl  Tl1  1  0.250000  0.250000  0.000000  1
  Tl  Tl2  1  0.750000  0.250000  0.500000  1
  Tl  Tl3  1  0.250000  0.750000  0.500000  1
  Se  Se4  1  0.323440  0.823440  0.146881  1
  Se  Se5  1  0.676560  0.176560  0.853119  1
  Se  Se6  1  0.823440  0.676560  0.500000  1
  Se  Se7  1  0.176560  0.323440  0.500000  1
