# generated using pymatgen
data_Ce2(Zn2Ge)3
_symmetry_space_group_name_H-M   'P 1'
_cell_length_a   7.67755752
_cell_length_b   7.67755752
_cell_length_c   4.09040761
_cell_angle_alpha   90.00000000
_cell_angle_beta   90.00000000
_cell_angle_gamma   120.00000000
_symmetry_Int_Tables_number   1
_chemical_formula_structural   Ce2(Zn2Ge)3
_chemical_formula_sum   'Ce2 Zn6 Ge3'
_cell_volume   208.80619383
_cell_formula_units_Z   1
loop_
 _symmetry_equiv_pos_site_id
 _symmetry_equiv_pos_as_xyz
  1  'x, y, z'
loop_
 _atom_site_type_symbol
 _atom_site_label
 _atom_site_symmetry_multiplicity
 _atom_site_fract_x
 _atom_site_fract_y
 _atom_site_fract_z
 _atom_site_occupancy
  Ce  Ce0  1  0.666667  0.333333  0.000000  1
  Ce  Ce1  1  0.333333  0.666667  0.000000  1
  Zn  Zn2  1  0.718670  0.000000  0.500000  1
  Zn  Zn3  1  0.000000  0.718670  0.500000  1
  Zn  Zn4  1  0.190362  0.000000  0.000000  1
  Zn  Zn5  1  0.809638  0.809638  0.000000  1
  Zn  Zn6  1  0.281330  0.281330  0.500000  1
  Zn  Zn7  1  0.000000  0.190362  0.000000  1
  Ge  Ge8  1  0.388713  0.000000  0.500000  1
  Ge  Ge9  1  0.611287  0.611287  0.500000  1
  Ge  Ge10  1  0.000000  0.388713  0.500000  1
