# generated using pymatgen
data_Na5La(MoO4)4
_symmetry_space_group_name_H-M   'P 1'
_cell_length_a   10.17572975
_cell_length_b   10.17572975
_cell_length_c   10.17572975
_cell_angle_alpha   109.34846118
_cell_angle_beta   109.34846118
_cell_angle_gamma   109.71701951
_symmetry_Int_Tables_number   1
_chemical_formula_structural   Na5La(MoO4)4
_chemical_formula_sum   'Na10 La2 Mo8 O32'
_cell_volume   811.08954755
_cell_formula_units_Z   2
loop_
 _symmetry_equiv_pos_site_id
 _symmetry_equiv_pos_as_xyz
  1  'x, y, z'
loop_
 _atom_site_type_symbol
 _atom_site_label
 _atom_site_symmetry_multiplicity
 _atom_site_fract_x
 _atom_site_fract_y
 _atom_site_fract_z
 _atom_site_occupancy
  Na  Na0  1  0.239687  0.658777  0.827874  1
  Na  Na1  1  0.661812  0.989687  0.080909  1
  Na  Na2  1  0.908777  0.580903  0.919091  1
  Na  Na3  1  0.830903  0.411812  0.172126  1
  Na  Na4  1  0.010313  0.091223  0.672126  1
  Na  Na5  1  0.588188  0.760313  0.419091  1
  Na  Na6  1  0.341223  0.169097  0.580909  1
  Na  Na7  1  0.419097  0.338188  0.327875  1
  Na  Na8  1  0.750000  0.250000  0.500000  1
  Na  Na9  1  0.500000  0.500000  0.000000  1
  La  La10  1  1.000000  1.000000  0.000000  1
  La  La11  1  0.250000  0.750000  0.500000  1
  Mo  Mo12  1  0.172071  0.447956  0.081910  1
  Mo  Mo13  1  0.340161  0.922071  0.224115  1
  Mo  Mo14  1  0.883954  0.659839  0.581910  1
  Mo  Mo15  1  0.552044  0.633954  0.724115  1
  Mo  Mo16  1  0.909839  0.827929  0.275885  1
  Mo  Mo17  1  0.077929  0.302044  0.418090  1
  Mo  Mo18  1  0.366046  0.090161  0.918090  1
  Mo  Mo19  1  0.697956  0.116046  0.775885  1
  O  O20  1  0.970473  0.871601  0.726560  1
  O  O21  1  0.493913  0.720473  0.598872  1
  O  O22  1  0.121601  0.895040  0.401128  1
  O  O23  1  0.145040  0.243913  0.273440  1
  O  O24  1  0.279527  0.878399  0.773440  1
  O  O25  1  0.756087  0.029527  0.901128  1
  O  O26  1  0.128399  0.854960  0.098872  1
  O  O27  1  0.104960  0.506087  0.226560  1
  O  O28  1  0.964959  0.638606  0.447016  1
  O  O29  1  0.767943  0.714959  0.826353  1
  O  O30  1  0.888606  0.941590  0.173647  1
  O  O31  1  0.191590  0.517943  0.552984  1
  O  O32  1  0.285041  0.111394  0.052984  1
  O  O33  1  0.482057  0.035041  0.673647  1
  O  O34  1  0.361394  0.808410  0.326353  1
  O  O35  1  0.058410  0.232057  0.947016  1
  O  O36  1  0.922169  0.544512  0.675110  1
  O  O37  1  0.497058  0.672169  0.877657  1
  O  O38  1  0.794512  0.619401  0.122343  1
  O  O39  1  0.869401  0.247058  0.324890  1
  O  O40  1  0.142984  0.537395  0.959488  1
  O  O41  1  0.433496  0.892984  0.105590  1
  O  O42  1  0.787395  0.327907  0.894410  1
  O  O43  1  0.577907  0.183496  0.040512  1
  O  O44  1  0.107016  0.212605  0.540512  1
  O  O45  1  0.816504  0.857016  0.394410  1
  O  O46  1  0.462605  0.422093  0.605590  1
  O  O47  1  0.672093  0.566504  0.459488  1
  O  O48  1  0.380599  0.502942  0.175110  1
  O  O49  1  0.455488  0.130599  0.377657  1
  O  O50  1  0.752942  0.077831  0.622343  1
  O  O51  1  0.327831  0.205488  0.824890  1
