# generated using pymatgen
data_Dy2Sb5
_symmetry_space_group_name_H-M   'P 1'
_cell_length_a   13.20837428
_cell_length_b   4.23392983
_cell_length_c   14.69687553
_cell_angle_alpha   90.00000000
_cell_angle_beta   102.14710066
_cell_angle_gamma   90.00000000
_symmetry_Int_Tables_number   1
_chemical_formula_structural   Dy2Sb5
_chemical_formula_sum   'Dy8 Sb20'
_cell_volume   803.49639954
_cell_formula_units_Z   4
loop_
 _symmetry_equiv_pos_site_id
 _symmetry_equiv_pos_as_xyz
  1  'x, y, z'
loop_
 _atom_site_type_symbol
 _atom_site_label
 _atom_site_symmetry_multiplicity
 _atom_site_fract_x
 _atom_site_fract_y
 _atom_site_fract_z
 _atom_site_occupancy
  Dy  Dy0  1  0.393183  0.250000  0.229542  1
  Dy  Dy1  1  0.606817  0.750000  0.770458  1
  Dy  Dy2  1  0.662409  0.250000  0.145052  1
  Dy  Dy3  1  0.337591  0.750000  0.854948  1
  Dy  Dy4  1  0.669082  0.250000  0.422370  1
  Dy  Dy5  1  0.330918  0.750000  0.577630  1
  Dy  Dy6  1  0.952651  0.250000  0.638397  1
  Dy  Dy7  1  0.047349  0.750000  0.361603  1
  Sb  Sb8  1  0.141664  0.250000  0.220754  1
  Sb  Sb9  1  0.858336  0.750000  0.779246  1
  Sb  Sb10  1  0.143343  0.250000  0.518326  1
  Sb  Sb11  1  0.856657  0.750000  0.481674  1
  Sb  Sb12  1  0.152079  0.250000  0.827399  1
  Sb  Sb13  1  0.847921  0.750000  0.172601  1
  Sb  Sb14  1  0.419807  0.250000  0.024646  1
  Sb  Sb15  1  0.580193  0.750000  0.975354  1
  Sb  Sb16  1  0.030293  0.750000  0.093778  1
  Sb  Sb17  1  0.969707  0.250000  0.906222  1
  Sb  Sb18  1  0.138333  0.750000  0.677380  1
  Sb  Sb19  1  0.861667  0.250000  0.322620  1
  Sb  Sb20  1  0.278970  0.750000  0.061697  1
  Sb  Sb21  1  0.721030  0.250000  0.938303  1
  Sb  Sb22  1  0.285206  0.750000  0.347097  1
  Sb  Sb23  1  0.714794  0.250000  0.652903  1
  Sb  Sb24  1  0.575461  0.750000  0.265482  1
  Sb  Sb25  1  0.424539  0.250000  0.734518  1
  Sb  Sb26  1  0.574592  0.750000  0.550867  1
  Sb  Sb27  1  0.425408  0.250000  0.449133  1
