# generated using pymatgen
data_Sc3Al3C2O5
_symmetry_space_group_name_H-M   'P 1'
_cell_length_a   3.27649491
_cell_length_b   3.27649491
_cell_length_c   31.81193429
_cell_angle_alpha   90.00000000
_cell_angle_beta   90.00000000
_cell_angle_gamma   120.00000000
_symmetry_Int_Tables_number   1
_chemical_formula_structural   Sc3Al3C2O5
_chemical_formula_sum   'Sc6 Al6 C4 O10'
_cell_volume   295.76018153
_cell_formula_units_Z   2
loop_
 _symmetry_equiv_pos_site_id
 _symmetry_equiv_pos_as_xyz
  1  'x, y, z'
loop_
 _atom_site_type_symbol
 _atom_site_label
 _atom_site_symmetry_multiplicity
 _atom_site_fract_x
 _atom_site_fract_y
 _atom_site_fract_z
 _atom_site_occupancy
  Sc  Sc0  1  0.333333  0.666667  0.659079  1
  Sc  Sc1  1  0.666667  0.333333  0.159079  1
  Sc  Sc2  1  0.666667  0.333333  0.340921  1
  Sc  Sc3  1  0.333333  0.666667  0.840921  1
  Sc  Sc4  1  0.000000  0.000000  0.500000  1
  Sc  Sc5  1  0.000000  0.000000  0.000000  1
  Al  Al6  1  0.000000  0.000000  0.750000  1
  Al  Al7  1  0.000000  0.000000  0.250000  1
  Al  Al8  1  0.333333  0.666667  0.431455  1
  Al  Al9  1  0.666667  0.333333  0.931455  1
  Al  Al10  1  0.666667  0.333333  0.568545  1
  Al  Al11  1  0.333333  0.666667  0.068545  1
  C  C12  1  0.666667  0.333333  0.454143  1
  C  C13  1  0.333333  0.666667  0.954143  1
  C  C14  1  0.333333  0.666667  0.545857  1
  C  C15  1  0.666667  0.333333  0.045857  1
  O  O16  1  0.333333  0.666667  0.373008  1
  O  O17  1  0.666667  0.333333  0.873008  1
  O  O18  1  0.666667  0.333333  0.626992  1
  O  O19  1  0.333333  0.666667  0.126992  1
  O  O20  1  0.333333  0.666667  0.750000  1
  O  O21  1  0.666667  0.333333  0.250000  1
  O  O22  1  0.000000  0.000000  0.809086  1
  O  O23  1  0.000000  0.000000  0.309086  1
  O  O24  1  0.000000  0.000000  0.190914  1
  O  O25  1  0.000000  0.000000  0.690914  1
