# generated using pymatgen
data_AgSO4
_symmetry_space_group_name_H-M   'P 1'
_cell_length_a   4.79814227
_cell_length_b   4.89140771
_cell_length_c   8.38229043
_cell_angle_alpha   79.91525105
_cell_angle_beta   75.80805494
_cell_angle_gamma   62.78151806
_symmetry_Int_Tables_number   1
_chemical_formula_structural   AgSO4
_chemical_formula_sum   'Ag2 S2 O8'
_cell_volume   169.15315947
_cell_formula_units_Z   2
loop_
 _symmetry_equiv_pos_site_id
 _symmetry_equiv_pos_as_xyz
  1  'x, y, z'
loop_
 _atom_site_type_symbol
 _atom_site_label
 _atom_site_symmetry_multiplicity
 _atom_site_fract_x
 _atom_site_fract_y
 _atom_site_fract_z
 _atom_site_occupancy
  Ag  Ag0  1  0.000000  0.000000  0.000000  1
  Ag  Ag1  1  0.500000  0.500000  0.500000  1
  S  S2  1  0.843660  0.616017  0.748951  1
  S  S3  1  0.156340  0.383983  0.251049  1
  O  O4  1  0.749142  0.813880  0.886639  1
  O  O5  1  0.085378  0.295289  0.782255  1
  O  O6  1  0.536439  0.621075  0.731640  1
  O  O7  1  0.979557  0.742401  0.590084  1
  O  O8  1  0.020443  0.257599  0.409916  1
  O  O9  1  0.463561  0.378925  0.268360  1
  O  O10  1  0.914622  0.704711  0.217745  1
  O  O11  1  0.250858  0.186120  0.113361  1
