# generated using pymatgen
data_Sr3YbRhO6
_symmetry_space_group_name_H-M   'P 1'
_cell_length_a   6.82492454
_cell_length_b   6.82492454
_cell_length_c   6.82492454
_cell_angle_alpha   91.91760427
_cell_angle_beta   91.91760427
_cell_angle_gamma   91.91760427
_symmetry_Int_Tables_number   1
_chemical_formula_structural   Sr3YbRhO6
_chemical_formula_sum   'Sr6 Yb2 Rh2 O12'
_cell_volume   317.35589684
_cell_formula_units_Z   2
loop_
 _symmetry_equiv_pos_site_id
 _symmetry_equiv_pos_as_xyz
  1  'x, y, z'
loop_
 _atom_site_type_symbol
 _atom_site_label
 _atom_site_symmetry_multiplicity
 _atom_site_fract_x
 _atom_site_fract_y
 _atom_site_fract_z
 _atom_site_occupancy
  Sr  Sr0  1  0.250000  0.885158  0.614842  1
  Sr  Sr1  1  0.885158  0.614842  0.250000  1
  Sr  Sr2  1  0.614842  0.250000  0.885158  1
  Sr  Sr3  1  0.750000  0.114842  0.385158  1
  Sr  Sr4  1  0.385158  0.750000  0.114842  1
  Sr  Sr5  1  0.114842  0.385158  0.750000  1
  Yb  Yb6  1  0.750000  0.750000  0.750000  1
  Yb  Yb7  1  0.250000  0.250000  0.250000  1
  Rh  Rh8  1  0.500000  0.500000  0.500000  1
  Rh  Rh9  1  0.000000  0.000000  0.000000  1
  O  O10  1  0.451522  0.583485  0.786440  1
  O  O11  1  0.786440  0.451522  0.583485  1
  O  O12  1  0.583485  0.786440  0.451522  1
  O  O13  1  0.713560  0.916515  0.048478  1
  O  O14  1  0.048478  0.713560  0.916515  1
  O  O15  1  0.916515  0.048478  0.713560  1
  O  O16  1  0.548478  0.416515  0.213560  1
  O  O17  1  0.213560  0.548478  0.416515  1
  O  O18  1  0.416515  0.213560  0.548478  1
  O  O19  1  0.286440  0.083485  0.951522  1
  O  O20  1  0.083485  0.951522  0.286440  1
  O  O21  1  0.951522  0.286440  0.083485  1
