# generated using pymatgen
data_CaNiGe2
_symmetry_space_group_name_H-M   'P 1'
_cell_length_a   8.92398290
_cell_length_b   8.92398290
_cell_length_c   4.07920548
_cell_angle_alpha   90.00000000
_cell_angle_beta   90.00000000
_cell_angle_gamma   152.57115058
_symmetry_Int_Tables_number   1
_chemical_formula_structural   CaNiGe2
_chemical_formula_sum   'Ca2 Ni2 Ge4'
_cell_volume   149.64460339
_cell_formula_units_Z   2
loop_
 _symmetry_equiv_pos_site_id
 _symmetry_equiv_pos_as_xyz
  1  'x, y, z'
loop_
 _atom_site_type_symbol
 _atom_site_label
 _atom_site_symmetry_multiplicity
 _atom_site_fract_x
 _atom_site_fract_y
 _atom_site_fract_z
 _atom_site_occupancy
  Ca  Ca0  1  0.108652  0.891348  0.250000  1
  Ca  Ca1  1  0.891348  0.108652  0.750000  1
  Ni  Ni2  1  0.677842  0.322158  0.750000  1
  Ni  Ni3  1  0.322158  0.677842  0.250000  1
  Ge  Ge4  1  0.249601  0.750399  0.750000  1
  Ge  Ge5  1  0.750399  0.249601  0.250000  1
  Ge  Ge6  1  0.457016  0.542984  0.250000  1
  Ge  Ge7  1  0.542984  0.457016  0.750000  1
