# generated using pymatgen
data_Zr2Ni12P7
_symmetry_space_group_name_H-M   'P 1'
_cell_length_a   8.99908811
_cell_length_b   8.99908811
_cell_length_c   3.58738478
_cell_angle_alpha   90.00000000
_cell_angle_beta   90.00000000
_cell_angle_gamma   120.00000000
_symmetry_Int_Tables_number   1
_chemical_formula_structural   Zr2Ni12P7
_chemical_formula_sum   'Zr2 Ni12 P7'
_cell_volume   251.59708272
_cell_formula_units_Z   1
loop_
 _symmetry_equiv_pos_site_id
 _symmetry_equiv_pos_as_xyz
  1  'x, y, z'
loop_
 _atom_site_type_symbol
 _atom_site_label
 _atom_site_symmetry_multiplicity
 _atom_site_fract_x
 _atom_site_fract_y
 _atom_site_fract_z
 _atom_site_occupancy
  Zr  Zr0  1  0.000000  0.000000  0.000000  1
  Zr  Zr1  1  0.333333  0.666667  0.500000  1
  Ni  Ni2  1  0.294233  0.394160  0.000000  1
  Ni  Ni3  1  0.885676  0.461547  0.500000  1
  Ni  Ni4  1  0.099927  0.705767  0.000000  1
  Ni  Ni5  1  0.538453  0.424130  0.500000  1
  Ni  Ni6  1  0.390004  0.175551  0.000000  1
  Ni  Ni7  1  0.785547  0.609996  0.000000  1
  Ni  Ni8  1  0.824449  0.214453  0.000000  1
  Ni  Ni9  1  0.231969  0.945483  0.500000  1
  Ni  Ni10  1  0.054517  0.286486  0.500000  1
  Ni  Ni11  1  0.713514  0.768031  0.500000  1
  Ni  Ni12  1  0.575870  0.114324  0.500000  1
  Ni  Ni13  1  0.605840  0.900073  0.000000  1
  P  P14  1  0.666667  0.333333  0.000000  1
  P  P15  1  0.079516  0.452599  0.000000  1
  P  P16  1  0.255824  0.213462  0.500000  1
  P  P17  1  0.786538  0.042362  0.500000  1
  P  P18  1  0.957638  0.744176  0.500000  1
  P  P19  1  0.547401  0.626917  0.000000  1
  P  P20  1  0.373083  0.920484  0.000000  1
