# generated using pymatgen
data_C3N
_symmetry_space_group_name_H-M   'P 1'
_cell_length_a   7.42097980
_cell_length_b   7.42097980
_cell_length_c   6.09131944
_cell_angle_alpha   90.00000000
_cell_angle_beta   90.00000000
_cell_angle_gamma   90.00000000
_symmetry_Int_Tables_number   1
_chemical_formula_structural   C3N
_chemical_formula_sum   'C24 N8'
_cell_volume   335.45469466
_cell_formula_units_Z   8
loop_
 _symmetry_equiv_pos_site_id
 _symmetry_equiv_pos_as_xyz
  1  'x, y, z'
loop_
 _atom_site_type_symbol
 _atom_site_label
 _atom_site_symmetry_multiplicity
 _atom_site_fract_x
 _atom_site_fract_y
 _atom_site_fract_z
 _atom_site_occupancy
  C  C0  1  0.312675  0.500000  0.500000  1
  C  C1  1  0.687325  0.500000  0.500000  1
  C  C2  1  0.500000  0.687325  0.500000  1
  C  C3  1  0.500000  0.312675  0.500000  1
  C  C4  1  0.000000  0.500000  0.703385  1
  C  C5  1  0.500000  0.000000  0.703385  1
  C  C6  1  0.000000  0.500000  0.296615  1
  C  C7  1  0.500000  0.000000  0.296615  1
  C  C8  1  0.210630  0.000000  0.000000  1
  C  C9  1  0.789370  0.000000  0.000000  1
  C  C10  1  0.000000  0.789370  0.000000  1
  C  C11  1  0.000000  0.210630  0.000000  1
  C  C12  1  0.272692  0.500000  0.000000  1
  C  C13  1  0.727308  0.500000  0.000000  1
  C  C14  1  0.500000  0.727308  0.000000  1
  C  C15  1  0.500000  0.272692  0.000000  1
  C  C16  1  0.205715  0.205715  0.882840  1
  C  C17  1  0.794285  0.794285  0.882840  1
  C  C18  1  0.205715  0.794285  0.882840  1
  C  C19  1  0.794285  0.205715  0.882840  1
  C  C20  1  0.794285  0.794285  0.117160  1
  C  C21  1  0.205715  0.205715  0.117160  1
  C  C22  1  0.794285  0.205715  0.117160  1
  C  C23  1  0.205715  0.794285  0.117160  1
  N  N24  1  0.000000  0.000000  0.000000  1
  N  N25  1  0.000000  0.000000  0.500000  1
  N  N26  1  0.500000  0.500000  0.000000  1
  N  N27  1  0.500000  0.500000  0.500000  1
  N  N28  1  0.000000  0.500000  0.500000  1
  N  N29  1  0.500000  0.000000  0.500000  1
  N  N30  1  0.000000  0.500000  0.000000  1
  N  N31  1  0.500000  0.000000  0.000000  1
