# generated using pymatgen
data_Sm3CrSe6
_symmetry_space_group_name_H-M   'P 1'
_cell_length_a   4.01683566
_cell_length_b   14.18595028
_cell_length_c   16.92531394
_cell_angle_alpha   90.00000000
_cell_angle_beta   90.00000000
_cell_angle_gamma   90.00000000
_symmetry_Int_Tables_number   1
_chemical_formula_structural   Sm3CrSe6
_chemical_formula_sum   'Sm12 Cr4 Se24'
_cell_volume   964.44891805
_cell_formula_units_Z   4
loop_
 _symmetry_equiv_pos_site_id
 _symmetry_equiv_pos_as_xyz
  1  'x, y, z'
loop_
 _atom_site_type_symbol
 _atom_site_label
 _atom_site_symmetry_multiplicity
 _atom_site_fract_x
 _atom_site_fract_y
 _atom_site_fract_z
 _atom_site_occupancy
  Sm  Sm0  1  0.500000  0.740064  0.594930  1
  Sm  Sm1  1  0.500000  0.259936  0.405070  1
  Sm  Sm2  1  0.000000  0.240064  0.905070  1
  Sm  Sm3  1  0.000000  0.759936  0.094930  1
  Sm  Sm4  1  0.500000  0.946358  0.778592  1
  Sm  Sm5  1  0.500000  0.053642  0.221408  1
  Sm  Sm6  1  0.000000  0.446358  0.721408  1
  Sm  Sm7  1  0.000000  0.553642  0.278592  1
  Sm  Sm8  1  0.500000  0.178859  0.648489  1
  Sm  Sm9  1  0.500000  0.821141  0.351511  1
  Sm  Sm10  1  0.000000  0.678859  0.851511  1
  Sm  Sm11  1  0.000000  0.321141  0.148489  1
  Cr  Cr12  1  0.500000  0.500000  0.500000  1
  Cr  Cr13  1  0.000000  0.000000  0.000000  1
  Cr  Cr14  1  0.500000  0.500000  0.000000  1
  Cr  Cr15  1  0.000000  0.000000  0.500000  1
  Se  Se16  1  0.500000  0.975938  0.596447  1
  Se  Se17  1  0.500000  0.024062  0.403553  1
  Se  Se18  1  0.000000  0.475938  0.903553  1
  Se  Se19  1  0.000000  0.524062  0.096447  1
  Se  Se20  1  0.500000  0.078331  0.924385  1
  Se  Se21  1  0.500000  0.921669  0.075615  1
  Se  Se22  1  0.000000  0.578331  0.575615  1
  Se  Se23  1  0.000000  0.421669  0.424385  1
  Se  Se24  1  0.000000  0.101268  0.756295  1
  Se  Se25  1  0.000000  0.898732  0.243705  1
  Se  Se26  1  0.500000  0.601268  0.743705  1
  Se  Se27  1  0.500000  0.398732  0.256295  1
  Se  Se28  1  0.000000  0.122471  0.105863  1
  Se  Se29  1  0.000000  0.877529  0.894137  1
  Se  Se30  1  0.500000  0.622471  0.394137  1
  Se  Se31  1  0.500000  0.377529  0.605863  1
  Se  Se32  1  0.000000  0.190876  0.290377  1
  Se  Se33  1  0.000000  0.809124  0.709623  1
  Se  Se34  1  0.500000  0.690876  0.209623  1
  Se  Se35  1  0.500000  0.309124  0.790377  1
  Se  Se36  1  0.000000  0.178582  0.520211  1
  Se  Se37  1  0.000000  0.821418  0.479789  1
  Se  Se38  1  0.500000  0.678582  0.979789  1
  Se  Se39  1  0.500000  0.321418  0.020211  1
