# generated using pymatgen
data_Al2(WO4)3
_symmetry_space_group_name_H-M   'P 1'
_cell_length_a   9.22842880
_cell_length_b   9.30852078
_cell_length_c   12.90610159
_cell_angle_alpha   90.00000000
_cell_angle_beta   90.00000000
_cell_angle_gamma   90.00000000
_symmetry_Int_Tables_number   1
_chemical_formula_structural   Al2(WO4)3
_chemical_formula_sum   'Al8 W12 O48'
_cell_volume   1108.67311916
_cell_formula_units_Z   4
loop_
 _symmetry_equiv_pos_site_id
 _symmetry_equiv_pos_as_xyz
  1  'x, y, z'
loop_
 _atom_site_type_symbol
 _atom_site_label
 _atom_site_symmetry_multiplicity
 _atom_site_fract_x
 _atom_site_fract_y
 _atom_site_fract_z
 _atom_site_occupancy
  Al  Al0  1  0.249874  0.467291  0.381511  1
  Al  Al1  1  0.249874  0.032709  0.618489  1
  Al  Al2  1  0.250126  0.967291  0.118489  1
  Al  Al3  1  0.250126  0.532709  0.881511  1
  Al  Al4  1  0.750126  0.532709  0.618489  1
  Al  Al5  1  0.750126  0.967291  0.381511  1
  Al  Al6  1  0.749874  0.032709  0.881511  1
  Al  Al7  1  0.749874  0.467291  0.118489  1
  W  W8  1  0.974222  0.250000  0.500000  1
  W  W9  1  0.525778  0.750000  0.000000  1
  W  W10  1  0.025778  0.750000  0.500000  1
  W  W11  1  0.474222  0.250000  0.000000  1
  W  W12  1  0.393208  0.115575  0.355625  1
  W  W13  1  0.393208  0.384425  0.644375  1
  W  W14  1  0.106792  0.615575  0.144375  1
  W  W15  1  0.106792  0.884425  0.855625  1
  W  W16  1  0.606792  0.884425  0.644375  1
  W  W17  1  0.606792  0.615575  0.355625  1
  W  W18  1  0.893208  0.384425  0.855625  1
  W  W19  1  0.893208  0.115575  0.144375  1
  O  O20  1  0.858933  0.305250  0.164725  1
  O  O21  1  0.858933  0.194750  0.835275  1
  O  O22  1  0.641067  0.805250  0.335275  1
  O  O23  1  0.641067  0.694750  0.664725  1
  O  O24  1  0.141067  0.694750  0.835275  1
  O  O25  1  0.141067  0.805250  0.164725  1
  O  O26  1  0.358933  0.194750  0.664725  1
  O  O27  1  0.358933  0.305250  0.335275  1
  O  O28  1  0.814097  0.065313  0.021729  1
  O  O29  1  0.814097  0.434687  0.978271  1
  O  O30  1  0.685903  0.565313  0.478271  1
  O  O31  1  0.685903  0.934687  0.521729  1
  O  O32  1  0.185903  0.934687  0.978271  1
  O  O33  1  0.185903  0.565313  0.021729  1
  O  O34  1  0.314097  0.434687  0.521729  1
  O  O35  1  0.314097  0.065313  0.478271  1
  O  O36  1  0.411941  0.657685  0.907046  1
  O  O37  1  0.588059  0.342315  0.092954  1
  O  O38  1  0.911941  0.842315  0.407046  1
  O  O39  1  0.911941  0.657685  0.592954  1
  O  O40  1  0.087200  0.088352  0.139292  1
  O  O41  1  0.087200  0.411648  0.860708  1
  O  O42  1  0.412800  0.588352  0.360708  1
  O  O43  1  0.412800  0.911648  0.639292  1
  O  O44  1  0.912800  0.911648  0.860708  1
  O  O45  1  0.912800  0.588352  0.139292  1
  O  O46  1  0.587200  0.411648  0.639292  1
  O  O47  1  0.587200  0.088352  0.360708  1
  O  O48  1  0.361944  0.123699  0.069357  1
  O  O49  1  0.361944  0.376301  0.930643  1
  O  O50  1  0.138056  0.623699  0.430643  1
  O  O51  1  0.138056  0.876301  0.569357  1
  O  O52  1  0.638056  0.876301  0.930643  1
  O  O53  1  0.638056  0.623699  0.069357  1
  O  O54  1  0.861944  0.376301  0.569357  1
  O  O55  1  0.861944  0.123699  0.430643  1
  O  O56  1  0.313798  0.006717  0.254197  1
  O  O57  1  0.313798  0.493283  0.745803  1
  O  O58  1  0.186202  0.506717  0.245803  1
  O  O59  1  0.186202  0.993283  0.754197  1
  O  O60  1  0.686202  0.993283  0.745803  1
  O  O61  1  0.686202  0.506717  0.254197  1
  O  O62  1  0.813798  0.493283  0.754197  1
  O  O63  1  0.813798  0.006717  0.245803  1
  O  O64  1  0.088059  0.342315  0.407046  1
  O  O65  1  0.088059  0.157685  0.592954  1
  O  O66  1  0.411941  0.842315  0.092954  1
  O  O67  1  0.588059  0.157685  0.907046  1
