# generated using pymatgen
data_Mn2SiSe4
_symmetry_space_group_name_H-M   'P 1'
_cell_length_a   6.27369154
_cell_length_b   7.83630517
_cell_length_c   13.41941960
_cell_angle_alpha   90.00000000
_cell_angle_beta   90.00000000
_cell_angle_gamma   90.00000000
_symmetry_Int_Tables_number   1
_chemical_formula_structural   Mn2SiSe4
_chemical_formula_sum   'Mn8 Si4 Se16'
_cell_volume   659.73304071
_cell_formula_units_Z   4
loop_
 _symmetry_equiv_pos_site_id
 _symmetry_equiv_pos_as_xyz
  1  'x, y, z'
loop_
 _atom_site_type_symbol
 _atom_site_label
 _atom_site_symmetry_multiplicity
 _atom_site_fract_x
 _atom_site_fract_y
 _atom_site_fract_z
 _atom_site_occupancy
  Mn  Mn0  1  0.495873  0.750000  0.733516  1
  Mn  Mn1  1  0.995873  0.250000  0.766484  1
  Mn  Mn2  1  0.504127  0.250000  0.266484  1
  Mn  Mn3  1  0.004127  0.750000  0.233516  1
  Mn  Mn4  1  0.500000  0.500000  0.000000  1
  Mn  Mn5  1  0.000000  0.500000  0.500000  1
  Mn  Mn6  1  0.500000  0.000000  0.000000  1
  Mn  Mn7  1  0.000000  0.000000  0.500000  1
  Si  Si8  1  0.593606  0.750000  0.411372  1
  Si  Si9  1  0.093606  0.250000  0.088628  1
  Si  Si10  1  0.406394  0.250000  0.588628  1
  Si  Si11  1  0.906394  0.750000  0.911372  1
  Se  Se12  1  0.270763  0.750000  0.907132  1
  Se  Se13  1  0.770763  0.250000  0.592868  1
  Se  Se14  1  0.729237  0.250000  0.092868  1
  Se  Se15  1  0.229237  0.750000  0.407132  1
  Se  Se16  1  0.757313  0.750000  0.069263  1
  Se  Se17  1  0.257313  0.250000  0.430737  1
  Se  Se18  1  0.242687  0.250000  0.930737  1
  Se  Se19  1  0.742687  0.750000  0.569263  1
  Se  Se20  1  0.748787  0.980366  0.832281  1
  Se  Se21  1  0.248787  0.019634  0.667719  1
  Se  Se22  1  0.251213  0.480366  0.167719  1
  Se  Se23  1  0.751213  0.519634  0.332281  1
  Se  Se24  1  0.251213  0.019634  0.167719  1
  Se  Se25  1  0.751213  0.980366  0.332281  1
  Se  Se26  1  0.748787  0.519634  0.832281  1
  Se  Se27  1  0.248787  0.480366  0.667719  1
