# generated using pymatgen
data_PrMn7O12
_symmetry_space_group_name_H-M   'P 1'
_cell_length_a   6.56593292
_cell_length_b   6.56593292
_cell_length_c   6.56593292
_cell_angle_alpha   109.47122063
_cell_angle_beta   109.47122063
_cell_angle_gamma   109.47122063
_symmetry_Int_Tables_number   1
_chemical_formula_structural   PrMn7O12
_chemical_formula_sum   'Pr1 Mn7 O12'
_cell_volume   217.90511977
_cell_formula_units_Z   1
loop_
 _symmetry_equiv_pos_site_id
 _symmetry_equiv_pos_as_xyz
  1  'x, y, z'
loop_
 _atom_site_type_symbol
 _atom_site_label
 _atom_site_symmetry_multiplicity
 _atom_site_fract_x
 _atom_site_fract_y
 _atom_site_fract_z
 _atom_site_occupancy
  Pr  Pr0  1  0.000000  0.000000  0.000000  1
  Mn  Mn1  1  0.000000  0.000000  0.500000  1
  Mn  Mn2  1  0.000000  0.500000  1.000000  1
  Mn  Mn3  1  0.500000  0.000000  0.500000  1
  Mn  Mn4  1  0.500000  0.000000  1.000000  1
  Mn  Mn5  1  0.500000  0.500000  0.500000  1
  Mn  Mn6  1  0.500000  0.500000  0.000000  1
  Mn  Mn7  1  1.000000  0.500000  0.500000  1
  O  O8  1  0.824547  0.692749  0.517296  1
  O  O9  1  0.517296  0.824547  0.692749  1
  O  O10  1  0.131798  0.824547  0.307251  1
  O  O11  1  0.482704  0.175453  0.307251  1
  O  O12  1  0.307251  0.482704  0.175453  1
  O  O13  1  0.307251  0.131798  0.824547  1
  O  O14  1  0.692749  0.517296  0.824547  1
  O  O15  1  0.692749  0.868202  0.175453  1
  O  O16  1  0.824547  0.307251  0.131798  1
  O  O17  1  0.175453  0.692749  0.868202  1
  O  O18  1  0.868202  0.175453  0.692749  1
  O  O19  1  0.175453  0.307251  0.482704  1
