# generated using pymatgen
data_BaMnO3
_symmetry_space_group_name_H-M   'P 1'
_cell_length_a   7.89412328
_cell_length_b   7.89412328
_cell_length_c   7.89412328
_cell_angle_alpha   42.84145288
_cell_angle_beta   42.84145288
_cell_angle_gamma   42.84145288
_symmetry_Int_Tables_number   1
_chemical_formula_structural   BaMnO3
_chemical_formula_sum   'Ba3 Mn3 O9'
_cell_volume   206.09809346
_cell_formula_units_Z   3
loop_
 _symmetry_equiv_pos_site_id
 _symmetry_equiv_pos_as_xyz
  1  'x, y, z'
loop_
 _atom_site_type_symbol
 _atom_site_label
 _atom_site_symmetry_multiplicity
 _atom_site_fract_x
 _atom_site_fract_y
 _atom_site_fract_z
 _atom_site_occupancy
  Ba  Ba0  1  0.220746  0.220746  0.220746  1
  Ba  Ba1  1  0.779254  0.779254  0.779254  1
  Ba  Ba2  1  0.000000  0.000000  0.000000  1
  Mn  Mn3  1  0.381203  0.381203  0.381203  1
  Mn  Mn4  1  0.618797  0.618797  0.618797  1
  Mn  Mn5  1  0.500000  0.500000  0.500000  1
  O  O6  1  0.000000  0.500000  0.500000  1
  O  O7  1  0.500000  0.500000  0.000000  1
  O  O8  1  0.500000  0.000000  0.500000  1
  O  O9  1  0.705468  0.264211  0.705468  1
  O  O10  1  0.264211  0.705468  0.705468  1
  O  O11  1  0.705468  0.705468  0.264211  1
  O  O12  1  0.735789  0.294532  0.294532  1
  O  O13  1  0.294532  0.735789  0.294532  1
  O  O14  1  0.294532  0.294532  0.735789  1
