# generated using pymatgen
data_TmVO4
_symmetry_space_group_name_H-M   'P 1'
_cell_length_a   5.93993278
_cell_length_b   5.93993278
_cell_length_c   5.93993278
_cell_angle_alpha   106.34208124
_cell_angle_beta   106.34208124
_cell_angle_gamma   115.92898881
_symmetry_Int_Tables_number   1
_chemical_formula_structural   TmVO4
_chemical_formula_sum   'Tm2 V2 O8'
_cell_volume   159.77877514
_cell_formula_units_Z   2
loop_
 _symmetry_equiv_pos_site_id
 _symmetry_equiv_pos_as_xyz
  1  'x, y, z'
loop_
 _atom_site_type_symbol
 _atom_site_label
 _atom_site_symmetry_multiplicity
 _atom_site_fract_x
 _atom_site_fract_y
 _atom_site_fract_z
 _atom_site_occupancy
  Tm  Tm0  1  1.000000  0.000000  0.000000  1
  Tm  Tm1  1  0.250000  0.750000  0.500000  1
  V  V2  1  0.750000  0.250000  0.500000  1
  V  V3  1  0.500000  0.500000  0.000000  1
  O  O4  1  0.864514  0.677811  0.186703  1
  O  O5  1  0.927811  0.241109  0.313297  1
  O  O6  1  0.927811  0.614514  0.686703  1
  O  O7  1  0.491109  0.677811  0.813297  1
  O  O8  1  0.322189  0.508891  0.186703  1
  O  O9  1  0.385486  0.072189  0.313297  1
  O  O10  1  0.758891  0.072189  0.686703  1
  O  O11  1  0.322189  0.135486  0.813297  1
