# generated using pymatgen
data_Sm3Sb4Pt7
_symmetry_space_group_name_H-M   'P 1'
_cell_length_a   8.61516571
_cell_length_b   8.61516571
_cell_length_c   10.55649989
_cell_angle_alpha   52.43217951
_cell_angle_beta   127.56782049
_cell_angle_gamma   151.06542767
_symmetry_Int_Tables_number   1
_chemical_formula_structural   Sm3Sb4Pt7
_chemical_formula_sum   'Sm3 Sb4 Pt7'
_cell_volume   294.48854516
_cell_formula_units_Z   1
loop_
 _symmetry_equiv_pos_site_id
 _symmetry_equiv_pos_as_xyz
  1  'x, y, z'
loop_
 _atom_site_type_symbol
 _atom_site_label
 _atom_site_symmetry_multiplicity
 _atom_site_fract_x
 _atom_site_fract_y
 _atom_site_fract_z
 _atom_site_occupancy
  Sm  Sm0  1  0.500000  0.500000  0.000000  1
  Sm  Sm1  1  0.828289  0.171711  0.314715  1
  Sm  Sm2  1  0.171711  0.828289  0.685285  1
  Sb  Sb3  1  0.640517  0.359483  0.409363  1
  Sb  Sb4  1  0.171390  0.828610  0.024737  1
  Sb  Sb5  1  0.828610  0.171390  0.975263  1
  Sb  Sb6  1  0.359483  0.640517  0.590637  1
  Pt  Pt7  1  0.830836  0.169164  0.730947  1
  Pt  Pt8  1  0.622780  0.377220  0.844160  1
  Pt  Pt9  1  0.500000  0.500000  0.500000  1
  Pt  Pt10  1  0.169164  0.830836  0.269053  1
  Pt  Pt11  1  0.983078  0.016922  0.672661  1
  Pt  Pt12  1  0.016922  0.983078  0.327339  1
  Pt  Pt13  1  0.377220  0.622780  0.155840  1
