# generated using pymatgen
data_Gd2TeO6
_symmetry_space_group_name_H-M   'P 1'
_cell_length_a   5.37822267
_cell_length_b   9.26555130
_cell_length_c   10.15650108
_cell_angle_alpha   90.00000000
_cell_angle_beta   90.00000000
_cell_angle_gamma   90.00000000
_symmetry_Int_Tables_number   1
_chemical_formula_structural   Gd2TeO6
_chemical_formula_sum   'Gd8 Te4 O24'
_cell_volume   506.12077333
_cell_formula_units_Z   4
loop_
 _symmetry_equiv_pos_site_id
 _symmetry_equiv_pos_as_xyz
  1  'x, y, z'
loop_
 _atom_site_type_symbol
 _atom_site_label
 _atom_site_symmetry_multiplicity
 _atom_site_fract_x
 _atom_site_fract_y
 _atom_site_fract_z
 _atom_site_occupancy
  Gd  Gd0  1  0.479483  0.896366  0.039096  1
  Gd  Gd1  1  0.979483  0.603634  0.960904  1
  Gd  Gd2  1  0.520517  0.396366  0.460904  1
  Gd  Gd3  1  0.020517  0.103634  0.539096  1
  Gd  Gd4  1  0.463233  0.783160  0.636333  1
  Gd  Gd5  1  0.963233  0.716840  0.363667  1
  Gd  Gd6  1  0.536767  0.283160  0.863667  1
  Gd  Gd7  1  0.036767  0.216840  0.136333  1
  Te  Te8  1  0.961354  0.995354  0.853314  1
  Te  Te9  1  0.461354  0.504646  0.146686  1
  Te  Te10  1  0.038646  0.495354  0.646686  1
  Te  Te11  1  0.538646  0.004646  0.353314  1
  O  O12  1  0.243367  0.585249  0.506325  1
  O  O13  1  0.743367  0.914751  0.493675  1
  O  O14  1  0.756633  0.085249  0.993675  1
  O  O15  1  0.256633  0.414751  0.006325  1
  O  O16  1  0.270386  0.886376  0.431994  1
  O  O17  1  0.770386  0.613624  0.568006  1
  O  O18  1  0.729614  0.386376  0.068006  1
  O  O19  1  0.229614  0.113624  0.931994  1
  O  O20  1  0.185345  0.639309  0.177812  1
  O  O21  1  0.685345  0.860691  0.822188  1
  O  O22  1  0.814655  0.139309  0.322188  1
  O  O23  1  0.314655  0.360691  0.677812  1
  O  O24  1  0.315342  0.360233  0.259871  1
  O  O25  1  0.815342  0.139767  0.740129  1
  O  O26  1  0.684658  0.860233  0.240129  1
  O  O27  1  0.184658  0.639767  0.759871  1
  O  O28  1  0.332117  0.051192  0.204210  1
  O  O29  1  0.832117  0.448808  0.795790  1
  O  O30  1  0.667883  0.551192  0.295790  1
  O  O31  1  0.167883  0.948808  0.704210  1
  O  O32  1  0.415486  0.153790  0.471456  1
  O  O33  1  0.915486  0.346210  0.528544  1
  O  O34  1  0.584514  0.653790  0.028544  1
  O  O35  1  0.084514  0.846210  0.971456  1
