# generated using pymatgen
data_LaInO3
_symmetry_space_group_name_H-M   'P 1'
_cell_length_a   5.77123282
_cell_length_b   6.00910051
_cell_length_c   8.35159820
_cell_angle_alpha   90.00000000
_cell_angle_beta   90.00000000
_cell_angle_gamma   90.00000000
_symmetry_Int_Tables_number   1
_chemical_formula_structural   LaInO3
_chemical_formula_sum   'La4 In4 O12'
_cell_volume   289.63274143
_cell_formula_units_Z   4
loop_
 _symmetry_equiv_pos_site_id
 _symmetry_equiv_pos_as_xyz
  1  'x, y, z'
loop_
 _atom_site_type_symbol
 _atom_site_label
 _atom_site_symmetry_multiplicity
 _atom_site_fract_x
 _atom_site_fract_y
 _atom_site_fract_z
 _atom_site_occupancy
  La  La0  1  0.017069  0.944991  0.250000  1
  La  La1  1  0.517069  0.555009  0.750000  1
  La  La2  1  0.482931  0.444991  0.250000  1
  La  La3  1  0.982931  0.055009  0.750000  1
  In  In4  1  0.500000  0.000000  0.000000  1
  In  In5  1  0.000000  0.500000  0.000000  1
  In  In6  1  0.000000  0.500000  0.500000  1
  In  In7  1  0.500000  0.000000  0.500000  1
  O  O8  1  0.619648  0.050326  0.250000  1
  O  O9  1  0.119648  0.449674  0.750000  1
  O  O10  1  0.880352  0.550326  0.250000  1
  O  O11  1  0.380352  0.949674  0.750000  1
  O  O12  1  0.194842  0.197276  0.063505  1
  O  O13  1  0.694842  0.302724  0.936495  1
  O  O14  1  0.305158  0.697276  0.436495  1
  O  O15  1  0.805158  0.802724  0.563505  1
  O  O16  1  0.805158  0.802724  0.936495  1
  O  O17  1  0.305158  0.697276  0.063505  1
  O  O18  1  0.694842  0.302724  0.563505  1
  O  O19  1  0.194842  0.197276  0.436495  1
