# generated using pymatgen
data_LiUNbO6
_symmetry_space_group_name_H-M   'P 1'
_cell_length_a   7.62448386
_cell_length_b   6.49531512
_cell_length_c   10.42776986
_cell_angle_alpha   90.00000000
_cell_angle_beta   100.67830186
_cell_angle_gamma   90.00000000
_symmetry_Int_Tables_number   1
_chemical_formula_structural   LiUNbO6
_chemical_formula_sum   'Li4 U4 Nb4 O24'
_cell_volume   507.47607588
_cell_formula_units_Z   4
loop_
 _symmetry_equiv_pos_site_id
 _symmetry_equiv_pos_as_xyz
  1  'x, y, z'
loop_
 _atom_site_type_symbol
 _atom_site_label
 _atom_site_symmetry_multiplicity
 _atom_site_fract_x
 _atom_site_fract_y
 _atom_site_fract_z
 _atom_site_occupancy
  Li  Li0  1  0.179047  0.002396  0.998173  1
  Li  Li1  1  0.679047  0.497604  0.998173  1
  Li  Li2  1  0.820953  0.997604  0.001827  1
  Li  Li3  1  0.320953  0.502396  0.001827  1
  U  U4  1  0.579092  0.699066  0.306763  1
  U  U5  1  0.920908  0.199066  0.693237  1
  U  U6  1  0.420908  0.300934  0.693237  1
  U  U7  1  0.079092  0.800934  0.306763  1
  Nb  Nb8  1  0.819861  0.249129  0.275815  1
  Nb  Nb9  1  0.680139  0.749129  0.724185  1
  Nb  Nb10  1  0.180139  0.750871  0.724185  1
  Nb  Nb11  1  0.319861  0.250871  0.275815  1
  O  O12  1  0.784885  0.944857  0.296578  1
  O  O13  1  0.715115  0.444857  0.703422  1
  O  O14  1  0.215115  0.055143  0.703422  1
  O  O15  1  0.284885  0.555143  0.296578  1
  O  O16  1  0.775313  0.250066  0.098766  1
  O  O17  1  0.275313  0.249934  0.098766  1
  O  O18  1  0.224687  0.749934  0.901234  1
  O  O19  1  0.724687  0.750066  0.901234  1
  O  O20  1  0.033755  0.839942  0.125415  1
  O  O21  1  0.466245  0.339942  0.874585  1
  O  O22  1  0.966245  0.160058  0.874585  1
  O  O23  1  0.533755  0.660058  0.125415  1
  O  O24  1  0.124977  0.782470  0.486723  1
  O  O25  1  0.375023  0.282470  0.513277  1
  O  O26  1  0.875023  0.217530  0.513277  1
  O  O27  1  0.624977  0.717530  0.486723  1
  O  O28  1  0.079471  0.171741  0.311791  1
  O  O29  1  0.420529  0.671741  0.688209  1
  O  O30  1  0.920529  0.828259  0.688209  1
  O  O31  1  0.579471  0.328259  0.311791  1
  O  O32  1  0.370016  0.950561  0.302844  1
  O  O33  1  0.129984  0.450561  0.697156  1
  O  O34  1  0.629984  0.049439  0.697156  1
  O  O35  1  0.870016  0.549439  0.302844  1
