# generated using pymatgen
data_NdAl4Ge2Au
_symmetry_space_group_name_H-M   'P 1'
_cell_length_a   10.79187798
_cell_length_b   10.79187798
_cell_length_c   10.79187798
_cell_angle_alpha   22.85373109
_cell_angle_beta   22.85373109
_cell_angle_gamma   22.85373109
_symmetry_Int_Tables_number   1
_chemical_formula_structural   NdAl4Ge2Au
_chemical_formula_sum   'Nd1 Al4 Ge2 Au1'
_cell_volume   166.36145701
_cell_formula_units_Z   1
loop_
 _symmetry_equiv_pos_site_id
 _symmetry_equiv_pos_as_xyz
  1  'x, y, z'
loop_
 _atom_site_type_symbol
 _atom_site_label
 _atom_site_symmetry_multiplicity
 _atom_site_fract_x
 _atom_site_fract_y
 _atom_site_fract_z
 _atom_site_occupancy
  Nd  Nd0  1  0.500000  0.500000  0.500000  1
  Al  Al1  1  0.082783  0.082783  0.082783  1
  Al  Al2  1  0.308123  0.308123  0.308123  1
  Al  Al3  1  0.917217  0.917217  0.917217  1
  Al  Al4  1  0.691877  0.691877  0.691877  1
  Ge  Ge5  1  0.224446  0.224446  0.224446  1
  Ge  Ge6  1  0.775554  0.775554  0.775554  1
  Au  Au7  1  0.000000  0.000000  0.000000  1
