# generated using pymatgen
data_SrGa2(SiO4)2
_symmetry_space_group_name_H-M   'P 1'
_cell_length_a   8.50430951
_cell_length_b   9.61765926
_cell_length_c   9.13560802
_cell_angle_alpha   90.00000000
_cell_angle_beta   90.68364011
_cell_angle_gamma   90.00000000
_symmetry_Int_Tables_number   1
_chemical_formula_structural   SrGa2(SiO4)2
_chemical_formula_sum   'Sr4 Ga8 Si8 O32'
_cell_volume   747.16236184
_cell_formula_units_Z   4
loop_
 _symmetry_equiv_pos_site_id
 _symmetry_equiv_pos_as_xyz
  1  'x, y, z'
loop_
 _atom_site_type_symbol
 _atom_site_label
 _atom_site_symmetry_multiplicity
 _atom_site_fract_x
 _atom_site_fract_y
 _atom_site_fract_z
 _atom_site_occupancy
  Sr  Sr0  1  0.748536  0.085435  0.610994  1
  Sr  Sr1  1  0.251464  0.585435  0.889006  1
  Sr  Sr2  1  0.251464  0.914565  0.389006  1
  Sr  Sr3  1  0.748536  0.414565  0.110994  1
  Ga  Ga4  1  0.426931  0.309500  0.445579  1
  Ga  Ga5  1  0.573069  0.809500  0.054421  1
  Ga  Ga6  1  0.573069  0.690500  0.554421  1
  Ga  Ga7  1  0.426931  0.190500  0.945579  1
  Ga  Ga8  1  0.930077  0.075959  0.225930  1
  Ga  Ga9  1  0.069923  0.575959  0.274070  1
  Ga  Ga10  1  0.069923  0.924041  0.774070  1
  Ga  Ga11  1  0.930077  0.424041  0.725930  1
  Si  Si12  1  0.440261  0.582624  0.258099  1
  Si  Si13  1  0.559739  0.082624  0.241901  1
  Si  Si14  1  0.559739  0.417376  0.741901  1
  Si  Si15  1  0.440261  0.917376  0.758099  1
  Si  Si16  1  0.945787  0.798640  0.062967  1
  Si  Si17  1  0.054213  0.298640  0.437033  1
  Si  Si18  1  0.054213  0.201360  0.937033  1
  Si  Si19  1  0.945787  0.701360  0.562967  1
  O  O20  1  0.263683  0.575781  0.181712  1
  O  O21  1  0.736317  0.075781  0.318288  1
  O  O22  1  0.736317  0.424219  0.818288  1
  O  O23  1  0.263683  0.924219  0.681712  1
  O  O24  1  0.225592  0.353832  0.492854  1
  O  O25  1  0.774408  0.853832  0.007146  1
  O  O26  1  0.774408  0.646168  0.507146  1
  O  O27  1  0.225592  0.146168  0.992854  1
  O  O28  1  0.563503  0.305849  0.606208  1
  O  O29  1  0.436497  0.805849  0.893792  1
  O  O30  1  0.436497  0.694151  0.393792  1
  O  O31  1  0.563503  0.194151  0.106208  1
  O  O32  1  0.926953  0.301012  0.571809  1
  O  O33  1  0.073047  0.801012  0.928191  1
  O  O34  1  0.073047  0.698988  0.428191  1
  O  O35  1  0.926953  0.198988  0.071809  1
  O  O36  1  0.440916  0.128362  0.375044  1
  O  O37  1  0.559084  0.628362  0.124956  1
  O  O38  1  0.559084  0.871638  0.624956  1
  O  O39  1  0.440916  0.371638  0.875044  1
  O  O40  1  0.984347  0.097327  0.806962  1
  O  O41  1  0.015653  0.597327  0.693038  1
  O  O42  1  0.015653  0.902673  0.193038  1
  O  O43  1  0.984347  0.402673  0.306962  1
  O  O44  1  0.511428  0.068086  0.809983  1
  O  O45  1  0.488572  0.568086  0.690017  1
  O  O46  1  0.488572  0.931914  0.190017  1
  O  O47  1  0.511428  0.431914  0.309983  1
  O  O48  1  0.061617  0.363636  0.878333  1
  O  O49  1  0.938383  0.863636  0.621667  1
  O  O50  1  0.938383  0.636364  0.121667  1
  O  O51  1  0.061617  0.136364  0.378333  1
