# generated using pymatgen
data_Gd2ReO5
_symmetry_space_group_name_H-M   'P 1'
_cell_length_a   8.64164343
_cell_length_b   8.64164343
_cell_length_c   5.77725130
_cell_angle_alpha   90.00000000
_cell_angle_beta   90.00000000
_cell_angle_gamma   90.00000000
_symmetry_Int_Tables_number   1
_chemical_formula_structural   Gd2ReO5
_chemical_formula_sum   'Gd8 Re4 O20'
_cell_volume   431.43357935
_cell_formula_units_Z   4
loop_
 _symmetry_equiv_pos_site_id
 _symmetry_equiv_pos_as_xyz
  1  'x, y, z'
loop_
 _atom_site_type_symbol
 _atom_site_label
 _atom_site_symmetry_multiplicity
 _atom_site_fract_x
 _atom_site_fract_y
 _atom_site_fract_z
 _atom_site_occupancy
  Gd  Gd0  1  0.358856  0.349682  0.249774  1
  Gd  Gd1  1  0.849682  0.141144  0.249774  1
  Gd  Gd2  1  0.150318  0.858856  0.249774  1
  Gd  Gd3  1  0.641144  0.650318  0.249774  1
  Gd  Gd4  1  0.858856  0.849682  0.750226  1
  Gd  Gd5  1  0.349682  0.641144  0.750226  1
  Gd  Gd6  1  0.650318  0.358856  0.750226  1
  Gd  Gd7  1  0.141144  0.150318  0.750226  1
  Re  Re8  1  0.000000  0.500000  0.147602  1
  Re  Re9  1  0.500000  0.000000  0.852398  1
  Re  Re10  1  0.000000  0.500000  0.540386  1
  Re  Re11  1  0.500000  0.000000  0.459614  1
  O  O12  1  0.000000  0.000000  0.000000  1
  O  O13  1  0.500000  0.500000  0.000000  1
  O  O14  1  0.000000  0.000000  0.500000  1
  O  O15  1  0.500000  0.500000  0.500000  1
  O  O16  1  0.299544  0.905795  0.904785  1
  O  O17  1  0.405795  0.200456  0.904785  1
  O  O18  1  0.594205  0.799544  0.904785  1
  O  O19  1  0.700456  0.094205  0.904785  1
  O  O20  1  0.200456  0.594205  0.095215  1
  O  O21  1  0.094205  0.299544  0.095215  1
  O  O22  1  0.905795  0.700456  0.095215  1
  O  O23  1  0.799544  0.405795  0.095215  1
  O  O24  1  0.908177  0.298960  0.600714  1
  O  O25  1  0.798960  0.591823  0.600714  1
  O  O26  1  0.201040  0.408177  0.600714  1
  O  O27  1  0.091823  0.701040  0.600714  1
  O  O28  1  0.591823  0.201040  0.399286  1
  O  O29  1  0.701040  0.908177  0.399286  1
  O  O30  1  0.298960  0.091823  0.399286  1
  O  O31  1  0.408177  0.798960  0.399286  1
