# generated using pymatgen
data_LiTi(SiO3)2
_symmetry_space_group_name_H-M   'P 1'
_cell_length_a   6.61366930
_cell_length_b   6.61366930
_cell_length_c   5.32000748
_cell_angle_alpha   75.21482783
_cell_angle_beta   104.78517217
_cell_angle_gamma   98.03636272
_symmetry_Int_Tables_number   1
_chemical_formula_structural   LiTi(SiO3)2
_chemical_formula_sum   'Li2 Ti2 Si4 O12'
_cell_volume   216.85072252
_cell_formula_units_Z   2
loop_
 _symmetry_equiv_pos_site_id
 _symmetry_equiv_pos_as_xyz
  1  'x, y, z'
loop_
 _atom_site_type_symbol
 _atom_site_label
 _atom_site_symmetry_multiplicity
 _atom_site_fract_x
 _atom_site_fract_y
 _atom_site_fract_z
 _atom_site_occupancy
  Li  Li0  1  0.729119  0.729119  0.250000  1
  Li  Li1  1  0.270881  0.270881  0.750000  1
  Ti  Ti2  1  0.911952  0.911952  0.750000  1
  Ti  Ti3  1  0.088048  0.088048  0.250000  1
  Si  Si4  1  0.389817  0.795984  0.778441  1
  Si  Si5  1  0.795984  0.389817  0.721559  1
  Si  Si6  1  0.610183  0.204016  0.221559  1
  Si  Si7  1  0.204016  0.610183  0.278441  1
  O  O8  1  0.659305  0.366066  0.422885  1
  O  O9  1  0.366066  0.659305  0.077115  1
  O  O10  1  0.632711  0.886246  0.826766  1
  O  O11  1  0.886246  0.632711  0.673234  1
  O  O12  1  0.340695  0.633934  0.577115  1
  O  O13  1  0.633934  0.340695  0.922885  1
  O  O14  1  0.027814  0.785047  0.163700  1
  O  O15  1  0.785047  0.027814  0.336300  1
  O  O16  1  0.972186  0.214953  0.836300  1
  O  O17  1  0.214953  0.972186  0.663700  1
  O  O18  1  0.113754  0.367289  0.326766  1
  O  O19  1  0.367289  0.113754  0.173234  1
