# generated using pymatgen
data_Sr3Cr2O8
_symmetry_space_group_name_H-M   'P 1'
_cell_length_a   7.52184818
_cell_length_b   7.52184818
_cell_length_c   7.52184818
_cell_angle_alpha   44.21387697
_cell_angle_beta   44.21387697
_cell_angle_gamma   44.21387697
_symmetry_Int_Tables_number   1
_chemical_formula_structural   Sr3Cr2O8
_chemical_formula_sum   'Sr3 Cr2 O8'
_cell_volume   188.04876365
_cell_formula_units_Z   1
loop_
 _symmetry_equiv_pos_site_id
 _symmetry_equiv_pos_as_xyz
  1  'x, y, z'
loop_
 _atom_site_type_symbol
 _atom_site_label
 _atom_site_symmetry_multiplicity
 _atom_site_fract_x
 _atom_site_fract_y
 _atom_site_fract_z
 _atom_site_occupancy
  Sr  Sr0  1  0.202690  0.202690  0.202690  1
  Sr  Sr1  1  0.797310  0.797310  0.797310  1
  Sr  Sr2  1  0.000000  0.000000  0.000000  1
  Cr  Cr3  1  0.405914  0.405914  0.405914  1
  Cr  Cr4  1  0.594086  0.594086  0.594086  1
  O  O5  1  0.731164  0.232651  0.731164  1
  O  O6  1  0.232651  0.731164  0.731164  1
  O  O7  1  0.731164  0.731164  0.232651  1
  O  O8  1  0.268836  0.268836  0.767349  1
  O  O9  1  0.268836  0.767349  0.268836  1
  O  O10  1  0.678146  0.678146  0.678146  1
  O  O11  1  0.321854  0.321854  0.321854  1
  O  O12  1  0.767349  0.268836  0.268836  1
