# generated using pymatgen
data_La2CuSnO6
_symmetry_space_group_name_H-M   'P 1'
_cell_length_a   7.85643629
_cell_length_b   7.84485558
_cell_length_c   8.71626527
_cell_angle_alpha   90.00000000
_cell_angle_beta   91.90922469
_cell_angle_gamma   90.00000000
_symmetry_Int_Tables_number   1
_chemical_formula_structural   La2CuSnO6
_chemical_formula_sum   'La8 Cu4 Sn4 O24'
_cell_volume   536.90793894
_cell_formula_units_Z   4
loop_
 _symmetry_equiv_pos_site_id
 _symmetry_equiv_pos_as_xyz
  1  'x, y, z'
loop_
 _atom_site_type_symbol
 _atom_site_label
 _atom_site_symmetry_multiplicity
 _atom_site_fract_x
 _atom_site_fract_y
 _atom_site_fract_z
 _atom_site_occupancy
  La  La0  1  0.284651  0.750000  0.773259  1
  La  La1  1  0.715349  0.250000  0.226741  1
  La  La2  1  0.796952  0.750000  0.754454  1
  La  La3  1  0.203048  0.250000  0.245546  1
  La  La4  1  0.770736  0.750000  0.193785  1
  La  La5  1  0.229264  0.250000  0.806215  1
  La  La6  1  0.285522  0.750000  0.210497  1
  La  La7  1  0.714478  0.250000  0.789503  1
  Cu  Cu8  1  0.000000  0.000000  0.000000  1
  Cu  Cu9  1  0.000000  0.500000  0.000000  1
  Cu  Cu10  1  0.500000  0.000000  0.000000  1
  Cu  Cu11  1  0.500000  0.500000  0.000000  1
  Sn  Sn12  1  0.000000  0.000000  0.500000  1
  Sn  Sn13  1  0.000000  0.500000  0.500000  1
  Sn  Sn14  1  0.500000  0.000000  0.500000  1
  Sn  Sn15  1  0.500000  0.500000  0.500000  1
  O  O16  1  0.469678  0.750000  0.993035  1
  O  O17  1  0.530322  0.250000  0.006965  1
  O  O18  1  0.522458  0.750000  0.588632  1
  O  O19  1  0.477542  0.250000  0.411368  1
  O  O20  1  0.920233  0.750000  0.454451  1
  O  O21  1  0.079767  0.250000  0.545549  1
  O  O22  1  0.035510  0.750000  0.030249  1
  O  O23  1  0.964490  0.250000  0.969751  1
  O  O24  1  0.752292  0.458354  0.581777  1
  O  O25  1  0.247708  0.958354  0.418223  1
  O  O26  1  0.247708  0.541646  0.418223  1
  O  O27  1  0.752292  0.041646  0.581777  1
  O  O28  1  0.438092  0.445837  0.723393  1
  O  O29  1  0.561908  0.945837  0.276607  1
  O  O30  1  0.561908  0.554163  0.276607  1
  O  O31  1  0.438092  0.054163  0.723393  1
  O  O32  1  0.751253  0.964406  0.960294  1
  O  O33  1  0.248747  0.464406  0.039706  1
  O  O34  1  0.248747  0.035594  0.039706  1
  O  O35  1  0.751253  0.535594  0.960294  1
  O  O36  1  0.056116  0.942645  0.726922  1
  O  O37  1  0.943884  0.442645  0.273078  1
  O  O38  1  0.943884  0.057355  0.273078  1
  O  O39  1  0.056116  0.557355  0.726922  1
