# generated using pymatgen
data_K2MnV4O12
_symmetry_space_group_name_H-M   'P 1'
_cell_length_a   8.41777411
_cell_length_b   9.55658745
_cell_length_c   9.86466810
_cell_angle_alpha   90.00000000
_cell_angle_beta   123.83684145
_cell_angle_gamma   90.00000000
_symmetry_Int_Tables_number   1
_chemical_formula_structural   K2MnV4O12
_chemical_formula_sum   'K4 Mn2 V8 O24'
_cell_volume   659.15631398
_cell_formula_units_Z   2
loop_
 _symmetry_equiv_pos_site_id
 _symmetry_equiv_pos_as_xyz
  1  'x, y, z'
loop_
 _atom_site_type_symbol
 _atom_site_label
 _atom_site_symmetry_multiplicity
 _atom_site_fract_x
 _atom_site_fract_y
 _atom_site_fract_z
 _atom_site_occupancy
  K  K0  1  0.273059  0.289121  0.904500  1
  K  K1  1  0.726941  0.789121  0.595500  1
  K  K2  1  0.726941  0.710879  0.095500  1
  K  K3  1  0.273059  0.210879  0.404500  1
  Mn  Mn4  1  0.000000  0.500000  0.500000  1
  Mn  Mn5  1  0.000000  0.000000  0.000000  1
  V  V6  1  0.544221  0.057554  0.252081  1
  V  V7  1  0.455779  0.557554  0.247919  1
  V  V8  1  0.455779  0.942446  0.747919  1
  V  V9  1  0.544221  0.442446  0.752081  1
  V  V10  1  0.791140  0.273999  0.132256  1
  V  V11  1  0.208860  0.773999  0.367744  1
  V  V12  1  0.208860  0.726001  0.867744  1
  V  V13  1  0.791140  0.226001  0.632256  1
  O  O14  1  0.610410  0.894423  0.251424  1
  O  O15  1  0.389590  0.394423  0.248576  1
  O  O16  1  0.389590  0.105577  0.748576  1
  O  O17  1  0.610410  0.605577  0.751424  1
  O  O18  1  0.302306  0.069231  0.146703  1
  O  O19  1  0.697694  0.569231  0.353297  1
  O  O20  1  0.697694  0.930769  0.853297  1
  O  O21  1  0.302306  0.430769  0.646703  1
  O  O22  1  0.926217  0.167248  0.100239  1
  O  O23  1  0.073783  0.667248  0.399761  1
  O  O24  1  0.073783  0.832752  0.899761  1
  O  O25  1  0.926217  0.332752  0.600239  1
  O  O26  1  0.943870  0.364023  0.304716  1
  O  O27  1  0.056130  0.864023  0.195284  1
  O  O28  1  0.647157  0.104230  0.466422  1
  O  O29  1  0.352843  0.604230  0.033578  1
  O  O30  1  0.352843  0.895770  0.533578  1
  O  O31  1  0.647157  0.395770  0.966422  1
  O  O32  1  0.627460  0.326037  0.657652  1
  O  O33  1  0.372540  0.826037  0.842348  1
  O  O34  1  0.372540  0.673963  0.342348  1
  O  O35  1  0.627460  0.173963  0.157652  1
  O  O36  1  0.943870  0.135977  0.804716  1
  O  O37  1  0.056130  0.635977  0.695284  1
