# generated using pymatgen
data_CoMoO4
_symmetry_space_group_name_H-M   'P 1'
_cell_length_a   4.49050718
_cell_length_b   5.49573191
_cell_length_c   4.99155426
_cell_angle_alpha   90.00000000
_cell_angle_beta   90.31233359
_cell_angle_gamma   90.00000000
_symmetry_Int_Tables_number   1
_chemical_formula_structural   CoMoO4
_chemical_formula_sum   'Co2 Mo2 O8'
_cell_volume   123.18285846
_cell_formula_units_Z   2
loop_
 _symmetry_equiv_pos_site_id
 _symmetry_equiv_pos_as_xyz
  1  'x, y, z'
loop_
 _atom_site_type_symbol
 _atom_site_label
 _atom_site_symmetry_multiplicity
 _atom_site_fract_x
 _atom_site_fract_y
 _atom_site_fract_z
 _atom_site_occupancy
  Co  Co0  1  0.500000  0.361679  0.750000  1
  Co  Co1  1  0.500000  0.638321  0.250000  1
  Mo  Mo2  1  0.000000  0.165928  0.250000  1
  Mo  Mo3  1  0.000000  0.834072  0.750000  1
  O  O4  1  0.237142  0.877049  0.412847  1
  O  O5  1  0.762858  0.877049  0.087153  1
  O  O6  1  0.276173  0.387603  0.418595  1
  O  O7  1  0.762858  0.122951  0.587153  1
  O  O8  1  0.237142  0.122951  0.912847  1
  O  O9  1  0.723827  0.387603  0.081405  1
  O  O10  1  0.276173  0.612397  0.918595  1
  O  O11  1  0.723827  0.612397  0.581405  1
