# generated using pymatgen
data_K2MgV2O7
_symmetry_space_group_name_H-M   'P 1'
_cell_length_a   8.52608093
_cell_length_b   8.52608093
_cell_length_c   11.60697654
_cell_angle_alpha   90.00000000
_cell_angle_beta   90.00000000
_cell_angle_gamma   90.00000000
_symmetry_Int_Tables_number   1
_chemical_formula_structural   K2MgV2O7
_chemical_formula_sum   'K8 Mg4 V8 O28'
_cell_volume   843.75820288
_cell_formula_units_Z   4
loop_
 _symmetry_equiv_pos_site_id
 _symmetry_equiv_pos_as_xyz
  1  'x, y, z'
loop_
 _atom_site_type_symbol
 _atom_site_label
 _atom_site_symmetry_multiplicity
 _atom_site_fract_x
 _atom_site_fract_y
 _atom_site_fract_z
 _atom_site_occupancy
  K  K0  1  0.818452  0.818452  0.000000  1
  K  K1  1  0.681548  0.318452  0.500000  1
  K  K2  1  0.318452  0.681548  0.500000  1
  K  K3  1  0.181548  0.181548  0.000000  1
  K  K4  1  0.648130  0.351870  0.000000  1
  K  K5  1  0.148130  0.148130  0.500000  1
  K  K6  1  0.851870  0.851870  0.500000  1
  K  K7  1  0.351870  0.648130  0.000000  1
  Mg  Mg8  1  0.000000  0.500000  0.750000  1
  Mg  Mg9  1  0.000000  0.500000  0.250000  1
  Mg  Mg10  1  0.500000  0.000000  0.750000  1
  Mg  Mg11  1  0.500000  0.000000  0.250000  1
  V  V12  1  0.641936  0.641936  0.712907  1
  V  V13  1  0.358064  0.358064  0.712907  1
  V  V14  1  0.641936  0.641936  0.287093  1
  V  V15  1  0.141936  0.858064  0.212907  1
  V  V16  1  0.858064  0.141936  0.212907  1
  V  V17  1  0.858064  0.141936  0.787093  1
  V  V18  1  0.141936  0.858064  0.787093  1
  V  V19  1  0.358064  0.358064  0.287093  1
  O  O20  1  0.641126  0.641126  0.857805  1
  O  O21  1  0.358874  0.358874  0.857805  1
  O  O22  1  0.641126  0.641126  0.142195  1
  O  O23  1  0.141126  0.858874  0.357805  1
  O  O24  1  0.858874  0.141126  0.357805  1
  O  O25  1  0.858874  0.141126  0.642195  1
  O  O26  1  0.141126  0.858874  0.642195  1
  O  O27  1  0.358874  0.358874  0.142195  1
  O  O28  1  0.411023  0.175599  0.341347  1
  O  O29  1  0.588977  0.824401  0.341347  1
  O  O30  1  0.175599  0.411023  0.658653  1
  O  O31  1  0.675599  0.088977  0.841347  1
  O  O32  1  0.324401  0.911023  0.841347  1
  O  O33  1  0.088977  0.675599  0.158653  1
  O  O34  1  0.911023  0.324401  0.158653  1
  O  O35  1  0.824401  0.588977  0.658653  1
  O  O36  1  0.588977  0.824401  0.658653  1
  O  O37  1  0.411023  0.175599  0.658653  1
  O  O38  1  0.824401  0.588977  0.341347  1
  O  O39  1  0.324401  0.911023  0.158653  1
  O  O40  1  0.000000  0.000000  0.155817  1
  O  O41  1  0.500000  0.500000  0.655817  1
  O  O42  1  0.500000  0.500000  0.344183  1
  O  O43  1  0.000000  0.000000  0.844183  1
  O  O44  1  0.175599  0.411023  0.341347  1
  O  O45  1  0.088977  0.675599  0.841347  1
  O  O46  1  0.911023  0.324401  0.841347  1
  O  O47  1  0.675599  0.088977  0.158653  1
