# generated using pymatgen
data_Ba5Gd8Mn4O21
_symmetry_space_group_name_H-M   'P 1'
_cell_length_a   10.43108527
_cell_length_b   10.43108527
_cell_length_c   10.43108527
_cell_angle_alpha   94.51044952
_cell_angle_beta   94.51044952
_cell_angle_gamma   147.42827554
_symmetry_Int_Tables_number   1
_chemical_formula_structural   Ba5Gd8Mn4O21
_chemical_formula_sum   'Ba5 Gd8 Mn4 O21'
_cell_volume   586.50494004
_cell_formula_units_Z   1
loop_
 _symmetry_equiv_pos_site_id
 _symmetry_equiv_pos_as_xyz
  1  'x, y, z'
loop_
 _atom_site_type_symbol
 _atom_site_label
 _atom_site_symmetry_multiplicity
 _atom_site_fract_x
 _atom_site_fract_y
 _atom_site_fract_z
 _atom_site_occupancy
  Ba  Ba0  1  0.532751  0.137962  0.670713  1
  Ba  Ba1  1  0.467249  0.862038  0.329287  1
  Ba  Ba2  1  0.862038  0.532751  0.394789  1
  Ba  Ba3  1  0.137962  0.467249  0.605211  1
  Ba  Ba4  1  0.000000  0.000000  0.000000  1
  Gd  Gd5  1  0.830597  0.248055  0.078652  1
  Gd  Gd6  1  0.751945  0.830597  0.582542  1
  Gd  Gd7  1  0.248055  0.169403  0.417458  1
  Gd  Gd8  1  0.169403  0.751945  0.921348  1
  Gd  Gd9  1  0.641647  0.410445  0.052092  1
  Gd  Gd10  1  0.589555  0.641647  0.231202  1
  Gd  Gd11  1  0.410445  0.358353  0.768798  1
  Gd  Gd12  1  0.358353  0.589555  0.947908  1
  Mn  Mn13  1  0.249518  0.959773  0.209291  1
  Mn  Mn14  1  0.959773  0.750482  0.710255  1
  Mn  Mn15  1  0.750482  0.040227  0.790709  1
  Mn  Mn16  1  0.040227  0.249518  0.289745  1
  O  O17  1  0.506885  0.100473  0.108881  1
  O  O18  1  0.398004  0.506885  0.406413  1
  O  O19  1  0.100473  0.991592  0.593587  1
  O  O20  1  0.991592  0.398004  0.891119  1
  O  O21  1  0.493115  0.899527  0.891119  1
  O  O22  1  0.601996  0.493115  0.593587  1
  O  O23  1  0.899527  0.008408  0.406413  1
  O  O24  1  0.008408  0.601996  0.108881  1
  O  O25  1  0.702464  0.928225  0.130300  1
  O  O26  1  0.572163  0.702464  0.774239  1
  O  O27  1  0.928225  0.797925  0.225761  1
  O  O28  1  0.797925  0.572163  0.869700  1
  O  O29  1  0.297536  0.071775  0.869700  1
  O  O30  1  0.427837  0.297536  0.225761  1
  O  O31  1  0.071775  0.202075  0.774239  1
  O  O32  1  0.202075  0.427837  0.130300  1
  O  O33  1  0.964663  0.374709  0.339372  1
  O  O34  1  0.500000  0.500000  0.000000  1
  O  O35  1  0.035337  0.625291  0.660628  1
  O  O36  1  0.374709  0.035337  0.410047  1
  O  O37  1  0.625291  0.964663  0.589953  1
