# generated using pymatgen
data_Ca3HfSi2O9
_symmetry_space_group_name_H-M   'P 1'
_cell_length_a   7.42314418
_cell_length_b   10.25947471
_cell_length_c   10.50999262
_cell_angle_alpha   90.00000000
_cell_angle_beta   91.32931279
_cell_angle_gamma   90.00000000
_symmetry_Int_Tables_number   1
_chemical_formula_structural   Ca3HfSi2O9
_chemical_formula_sum   'Ca12 Hf4 Si8 O36'
_cell_volume   800.19997910
_cell_formula_units_Z   4
loop_
 _symmetry_equiv_pos_site_id
 _symmetry_equiv_pos_as_xyz
  1  'x, y, z'
loop_
 _atom_site_type_symbol
 _atom_site_label
 _atom_site_symmetry_multiplicity
 _atom_site_fract_x
 _atom_site_fract_y
 _atom_site_fract_z
 _atom_site_occupancy
  Ca  Ca0  1  0.363988  0.922102  0.888412  1
  Ca  Ca1  1  0.636012  0.422102  0.611588  1
  Ca  Ca2  1  0.636012  0.077898  0.111588  1
  Ca  Ca3  1  0.363988  0.577898  0.388412  1
  Ca  Ca4  1  0.881205  0.328753  0.912774  1
  Ca  Ca5  1  0.118795  0.828753  0.587226  1
  Ca  Ca6  1  0.118795  0.671247  0.087226  1
  Ca  Ca7  1  0.881205  0.171247  0.412774  1
  Ca  Ca8  1  0.372206  0.303798  0.901440  1
  Ca  Ca9  1  0.627794  0.803798  0.598560  1
  Ca  Ca10  1  0.627794  0.696202  0.098560  1
  Ca  Ca11  1  0.372206  0.196202  0.401440  1
  Hf  Hf12  1  0.878388  0.560783  0.384150  1
  Hf  Hf13  1  0.121612  0.060783  0.115850  1
  Hf  Hf14  1  0.121612  0.439217  0.615850  1
  Hf  Hf15  1  0.878388  0.939217  0.884150  1
  Si  Si16  1  0.598587  0.137086  0.691929  1
  Si  Si17  1  0.401413  0.637086  0.808071  1
  Si  Si18  1  0.401413  0.862914  0.308071  1
  Si  Si19  1  0.598587  0.362914  0.191929  1
  Si  Si20  1  0.167319  0.124167  0.681808  1
  Si  Si21  1  0.832681  0.624167  0.818192  1
  Si  Si22  1  0.832681  0.875833  0.318192  1
  Si  Si23  1  0.167319  0.375833  0.181808  1
  O  O24  1  0.339041  0.391989  0.516859  1
  O  O25  1  0.660959  0.891989  0.983141  1
  O  O26  1  0.660959  0.608011  0.483141  1
  O  O27  1  0.339041  0.108011  0.016859  1
  O  O28  1  0.907699  0.111043  0.989254  1
  O  O29  1  0.092301  0.611043  0.510746  1
  O  O30  1  0.092301  0.888957  0.010746  1
  O  O31  1  0.907699  0.388957  0.489254  1
  O  O32  1  0.620459  0.169030  0.542017  1
  O  O33  1  0.379541  0.669030  0.957983  1
  O  O34  1  0.379541  0.830970  0.457983  1
  O  O35  1  0.620459  0.330970  0.042017  1
  O  O36  1  0.697459  0.003089  0.738990  1
  O  O37  1  0.302541  0.503089  0.761010  1
  O  O38  1  0.856770  0.885509  0.470877  1
  O  O39  1  0.302541  0.996911  0.261010  1
  O  O40  1  0.642886  0.232054  0.275905  1
  O  O41  1  0.357114  0.732054  0.224095  1
  O  O42  1  0.357114  0.767946  0.724095  1
  O  O43  1  0.642886  0.267946  0.775905  1
  O  O44  1  0.893931  0.766612  0.762030  1
  O  O45  1  0.106069  0.266612  0.737970  1
  O  O46  1  0.106069  0.233388  0.237970  1
  O  O47  1  0.893931  0.733388  0.262030  1
  O  O48  1  0.383491  0.393703  0.227568  1
  O  O49  1  0.616509  0.893703  0.272432  1
  O  O50  1  0.616509  0.606297  0.772432  1
  O  O51  1  0.383491  0.106297  0.727568  1
  O  O52  1  0.916326  0.002282  0.245790  1
  O  O53  1  0.083674  0.502282  0.254210  1
  O  O54  1  0.083674  0.997718  0.754210  1
  O  O55  1  0.916326  0.497718  0.745790  1
  O  O56  1  0.856770  0.614491  0.970877  1
  O  O57  1  0.143230  0.114491  0.529123  1
  O  O58  1  0.143230  0.385509  0.029123  1
  O  O59  1  0.697459  0.496911  0.238990  1
