# generated using pymatgen
data_LaPd
_symmetry_space_group_name_H-M   'P 1'
_cell_length_a   5.90769795
_cell_length_b   5.90769795
_cell_length_c   4.69431024
_cell_angle_alpha   90.00000000
_cell_angle_beta   90.00000000
_cell_angle_gamma   140.69651486
_symmetry_Int_Tables_number   1
_chemical_formula_structural   LaPd
_chemical_formula_sum   'La2 Pd2'
_cell_volume   103.77806532
_cell_formula_units_Z   2
loop_
 _symmetry_equiv_pos_site_id
 _symmetry_equiv_pos_as_xyz
  1  'x, y, z'
loop_
 _atom_site_type_symbol
 _atom_site_label
 _atom_site_symmetry_multiplicity
 _atom_site_fract_x
 _atom_site_fract_y
 _atom_site_fract_z
 _atom_site_occupancy
  La  La0  1  0.135670  0.864330  0.250000  1
  La  La1  1  0.864330  0.135670  0.750000  1
  Pd  Pd2  1  0.413114  0.586886  0.250000  1
  Pd  Pd3  1  0.586886  0.413114  0.750000  1
