# generated using pymatgen
data_RbV(CuS2)2
_symmetry_space_group_name_H-M   'P 1'
_cell_length_a   9.66570978
_cell_length_b   9.66570978
_cell_length_c   7.48975841
_cell_angle_alpha   90.00000000
_cell_angle_beta   90.00000000
_cell_angle_gamma   147.39927272
_symmetry_Int_Tables_number   1
_chemical_formula_structural   RbV(CuS2)2
_chemical_formula_sum   'Rb2 V2 Cu4 S8'
_cell_volume   377.00574575
_cell_formula_units_Z   2
loop_
 _symmetry_equiv_pos_site_id
 _symmetry_equiv_pos_as_xyz
  1  'x, y, z'
loop_
 _atom_site_type_symbol
 _atom_site_label
 _atom_site_symmetry_multiplicity
 _atom_site_fract_x
 _atom_site_fract_y
 _atom_site_fract_z
 _atom_site_occupancy
  Rb  Rb0  1  0.175653  0.541281  0.750000  1
  Rb  Rb1  1  0.541281  0.175653  0.250000  1
  V  V2  1  0.709415  0.497294  0.750000  1
  V  V3  1  0.497294  0.709415  0.250000  1
  Cu  Cu4  1  0.618818  0.618818  0.500000  1
  Cu  Cu5  1  0.998743  0.206849  0.250000  1
  Cu  Cu6  1  0.206849  0.998743  0.750000  1
  Cu  Cu7  1  0.618818  0.618818  1.000000  1
  S  S8  1  0.731622  0.943210  0.010442  1
  S  S9  1  0.377178  0.363239  0.750000  1
  S  S10  1  0.363239  0.377178  0.250000  1
  S  S11  1  0.943210  0.731622  0.510442  1
  S  S12  1  0.567820  0.167029  0.750000  1
  S  S13  1  0.943210  0.731622  0.989558  1
  S  S14  1  0.167029  0.567820  0.250000  1
  S  S15  1  0.731622  0.943210  0.489558  1
