# generated using pymatgen
data_LiNi2P3O10
_symmetry_space_group_name_H-M   'P 1'
_cell_length_a   4.63217999
_cell_length_b   8.47071569
_cell_length_c   9.00151231
_cell_angle_alpha   90.00000000
_cell_angle_beta   98.01162921
_cell_angle_gamma   90.00000000
_symmetry_Int_Tables_number   1
_chemical_formula_structural   LiNi2P3O10
_chemical_formula_sum   'Li2 Ni4 P6 O20'
_cell_volume   349.75295206
_cell_formula_units_Z   2
loop_
 _symmetry_equiv_pos_site_id
 _symmetry_equiv_pos_as_xyz
  1  'x, y, z'
loop_
 _atom_site_type_symbol
 _atom_site_label
 _atom_site_symmetry_multiplicity
 _atom_site_fract_x
 _atom_site_fract_y
 _atom_site_fract_z
 _atom_site_occupancy
  Li  Li0  1  0.000000  0.500000  0.000000  1
  Li  Li1  1  0.000000  0.000000  0.000000  1
  Ni  Ni2  1  0.963748  0.569327  0.663804  1
  Ni  Ni3  1  0.036252  0.069327  0.336196  1
  Ni  Ni4  1  0.036252  0.430673  0.336196  1
  Ni  Ni5  1  0.963748  0.930673  0.663804  1
  P  P6  1  0.602036  0.250000  0.534826  1
  P  P7  1  0.397964  0.750000  0.465174  1
  P  P8  1  0.329303  0.250000  0.821184  1
  P  P9  1  0.670697  0.750000  0.178816  1
  P  P10  1  0.462152  0.250000  0.146032  1
  P  P11  1  0.537848  0.750000  0.853968  1
  O  O12  1  0.295147  0.250000  0.444778  1
  O  O13  1  0.704853  0.750000  0.555222  1
  O  O14  1  0.227925  0.597634  0.485782  1
  O  O15  1  0.772075  0.097634  0.514218  1
  O  O16  1  0.772075  0.402366  0.514218  1
  O  O17  1  0.227925  0.902366  0.485782  1
  O  O18  1  0.842482  0.598111  0.187854  1
  O  O19  1  0.157518  0.098111  0.812146  1
  O  O20  1  0.711572  0.901249  0.839720  1
  O  O21  1  0.288428  0.401249  0.160280  1
  O  O22  1  0.288428  0.098751  0.160280  1
  O  O23  1  0.711572  0.598751  0.839720  1
  O  O24  1  0.232784  0.750000  0.760972  1
  O  O25  1  0.767216  0.250000  0.239028  1
  O  O26  1  0.435079  0.750000  0.289840  1
  O  O27  1  0.564921  0.250000  0.710160  1
  O  O28  1  0.448575  0.750000  0.024590  1
  O  O29  1  0.551425  0.250000  0.975410  1
  O  O30  1  0.842482  0.901889  0.187854  1
  O  O31  1  0.157518  0.401889  0.812146  1
