# generated using pymatgen
data_LiSn
_symmetry_space_group_name_H-M   'P 1'
_cell_length_a   13.41148038
_cell_length_b   13.41148038
_cell_length_c   13.41148038
_cell_angle_alpha   160.92307366
_cell_angle_beta   160.92307366
_cell_angle_gamma   27.10648732
_symmetry_Int_Tables_number   1
_chemical_formula_structural   LiSn
_chemical_formula_sum   'Li6 Sn6'
_cell_volume   257.58483063
_cell_formula_units_Z   6
loop_
 _symmetry_equiv_pos_site_id
 _symmetry_equiv_pos_as_xyz
  1  'x, y, z'
loop_
 _atom_site_type_symbol
 _atom_site_label
 _atom_site_symmetry_multiplicity
 _atom_site_fract_x
 _atom_site_fract_y
 _atom_site_fract_z
 _atom_site_occupancy
  Li  Li0  1  0.663337  0.663337  0.000000  1
  Li  Li1  1  0.413337  0.913337  0.500000  1
  Li  Li2  1  0.086663  0.586663  0.500000  1
  Li  Li3  1  0.336663  0.336663  0.000000  1
  Li  Li4  1  0.250000  0.750000  0.500000  1
  Li  Li5  1  0.500000  0.500000  0.000000  1
  Sn  Sn6  1  0.750000  0.250000  0.500000  1
  Sn  Sn7  1  0.000000  0.000000  0.000000  1
  Sn  Sn8  1  0.830073  0.830073  0.000000  1
  Sn  Sn9  1  0.580073  0.080073  0.500000  1
  Sn  Sn10  1  0.919927  0.419927  0.500000  1
  Sn  Sn11  1  0.169927  0.169927  0.000000  1
