# generated using pymatgen
data_HoP5O14
_symmetry_space_group_name_H-M   'P 1'
_cell_length_a   9.19207978
_cell_length_b   9.19207978
_cell_length_c   12.57842512
_cell_angle_alpha   88.89024463
_cell_angle_beta   91.10975537
_cell_angle_gamma   90.41094934
_symmetry_Int_Tables_number   1
_chemical_formula_structural   HoP5O14
_chemical_formula_sum   'Ho4 P20 O56'
_cell_volume   1062.38238492
_cell_formula_units_Z   4
loop_
 _symmetry_equiv_pos_site_id
 _symmetry_equiv_pos_as_xyz
  1  'x, y, z'
loop_
 _atom_site_type_symbol
 _atom_site_label
 _atom_site_symmetry_multiplicity
 _atom_site_fract_x
 _atom_site_fract_y
 _atom_site_fract_z
 _atom_site_occupancy
  Ho  Ho0  1  0.479497  0.479497  0.250000  1
  Ho  Ho1  1  0.520503  0.520503  0.750000  1
  Ho  Ho2  1  0.033831  0.033831  0.250000  1
  Ho  Ho3  1  0.966169  0.966169  0.750000  1
  P  P4  1  0.324158  0.615800  0.498720  1
  P  P5  1  0.615800  0.324158  0.001280  1
  P  P6  1  0.675842  0.384200  0.501280  1
  P  P7  1  0.384200  0.675842  0.998720  1
  P  P8  1  0.817634  0.522071  0.107064  1
  P  P9  1  0.522071  0.817634  0.392936  1
  P  P10  1  0.182366  0.477929  0.892936  1
  P  P11  1  0.477929  0.182366  0.607064  1
  P  P12  1  0.873693  0.827686  0.034136  1
  P  P13  1  0.827686  0.873693  0.465864  1
  P  P14  1  0.126307  0.172314  0.965864  1
  P  P15  1  0.172314  0.126307  0.534136  1
  P  P16  1  0.049104  0.683353  0.390129  1
  P  P17  1  0.683353  0.049104  0.109871  1
  P  P18  1  0.950896  0.316647  0.609871  1
  P  P19  1  0.316647  0.950896  0.890129  1
  P  P20  1  0.075821  0.429511  0.241910  1
  P  P21  1  0.429511  0.075821  0.258090  1
  P  P22  1  0.924179  0.570489  0.758090  1
  P  P23  1  0.570489  0.924179  0.741910  1
  O  O24  1  0.354087  0.578890  0.611907  1
  O  O25  1  0.578890  0.354087  0.888093  1
  O  O26  1  0.645913  0.421110  0.388093  1
  O  O27  1  0.421110  0.645913  0.111907  1
  O  O28  1  0.359045  0.515430  0.411099  1
  O  O29  1  0.515430  0.359045  0.088901  1
  O  O30  1  0.640955  0.484570  0.588901  1
  O  O31  1  0.484570  0.640955  0.911099  1
  O  O32  1  0.717970  0.537842  0.196445  1
  O  O33  1  0.537842  0.717970  0.303555  1
  O  O34  1  0.282030  0.462158  0.803555  1
  O  O35  1  0.462158  0.282030  0.696445  1
  O  O36  1  0.920944  0.870945  0.926133  1
  O  O37  1  0.870945  0.920944  0.573867  1
  O  O38  1  0.079056  0.129055  0.073867  1
  O  O39  1  0.129055  0.079056  0.426133  1
  O  O40  1  0.965779  0.850014  0.131640  1
  O  O41  1  0.850014  0.965779  0.368360  1
  O  O42  1  0.034221  0.149986  0.868360  1
  O  O43  1  0.022960  0.280520  0.268943  1
  O  O44  1  0.149986  0.034221  0.631640  1
  O  O45  1  0.799665  0.104017  0.181233  1
  O  O46  1  0.895983  0.200335  0.681233  1
  O  O47  1  0.200335  0.895983  0.818767  1
  O  O48  1  0.469104  0.979983  0.838336  1
  O  O49  1  0.979983  0.469104  0.661664  1
  O  O50  1  0.530896  0.020017  0.161664  1
  O  O51  1  0.020017  0.530896  0.338336  1
  O  O52  1  0.503134  0.017945  0.640051  1
  O  O53  1  0.017945  0.503134  0.859949  1
  O  O54  1  0.496866  0.982055  0.359949  1
  O  O55  1  0.982055  0.496866  0.140051  1
  O  O56  1  0.102029  0.288286  0.556079  1
  O  O57  1  0.288286  0.102029  0.943921  1
  O  O58  1  0.897971  0.711714  0.443921  1
  O  O59  1  0.711714  0.897971  0.056079  1
  O  O60  1  0.346153  0.848833  0.991267  1
  O  O61  1  0.848833  0.346153  0.508733  1
  O  O62  1  0.653847  0.151167  0.008733  1
  O  O63  1  0.151167  0.653847  0.491267  1
  O  O64  1  0.342779  0.175138  0.527475  1
  O  O65  1  0.175138  0.342779  0.972525  1
  O  O66  1  0.657221  0.824862  0.472525  1
  O  O67  1  0.824862  0.657221  0.027475  1
  O  O68  1  0.221186  0.606632  0.970598  1
  O  O69  1  0.606632  0.221186  0.529402  1
  O  O70  1  0.778814  0.393368  0.029402  1
  O  O71  1  0.393368  0.778814  0.470598  1
  O  O72  1  0.540542  0.769701  0.716929  1
  O  O73  1  0.769701  0.540542  0.783071  1
  O  O74  1  0.459458  0.230299  0.283071  1
  O  O75  1  0.230299  0.459458  0.216929  1
  O  O76  1  0.719480  0.977040  0.768943  1
  O  O77  1  0.977040  0.719480  0.731057  1
  O  O78  1  0.280520  0.022960  0.231057  1
  O  O79  1  0.104017  0.799665  0.318767  1
