# generated using pymatgen
data_BaLaAlO4
_symmetry_space_group_name_H-M   'P 1'
_cell_length_a   5.88119585
_cell_length_b   7.34188167
_cell_length_c   9.92757971
_cell_angle_alpha   90.00000000
_cell_angle_beta   90.00000000
_cell_angle_gamma   90.00000000
_symmetry_Int_Tables_number   1
_chemical_formula_structural   BaLaAlO4
_chemical_formula_sum   'Ba4 La4 Al4 O16'
_cell_volume   428.66340120
_cell_formula_units_Z   4
loop_
 _symmetry_equiv_pos_site_id
 _symmetry_equiv_pos_as_xyz
  1  'x, y, z'
loop_
 _atom_site_type_symbol
 _atom_site_label
 _atom_site_symmetry_multiplicity
 _atom_site_fract_x
 _atom_site_fract_y
 _atom_site_fract_z
 _atom_site_occupancy
  Ba  Ba0  1  0.013451  0.082668  0.919475  1
  Ba  Ba1  1  0.486549  0.917332  0.419475  1
  Ba  Ba2  1  0.513451  0.417332  0.080525  1
  Ba  Ba3  1  0.986549  0.582668  0.580525  1
  La  La4  1  0.512886  0.253680  0.698117  1
  La  La5  1  0.487114  0.753680  0.801883  1
  La  La6  1  0.987114  0.746320  0.198117  1
  La  La7  1  0.012886  0.246320  0.301883  1
  Al  Al8  1  0.018849  0.526456  0.916250  1
  Al  Al9  1  0.518849  0.973544  0.083750  1
  Al  Al10  1  0.981151  0.026456  0.583750  1
  Al  Al11  1  0.481151  0.473544  0.416250  1
  O  O12  1  0.759091  0.490647  0.826790  1
  O  O13  1  0.259091  0.009353  0.173210  1
  O  O14  1  0.240909  0.990647  0.673210  1
  O  O15  1  0.740909  0.509353  0.326790  1
  O  O16  1  0.128421  0.745803  0.951996  1
  O  O17  1  0.628421  0.754197  0.048004  1
  O  O18  1  0.871579  0.245803  0.548004  1
  O  O19  1  0.371579  0.254197  0.451996  1
  O  O20  1  0.239986  0.433997  0.813426  1
  O  O21  1  0.739986  0.066003  0.186574  1
  O  O22  1  0.760014  0.933997  0.686574  1
  O  O23  1  0.260014  0.566003  0.313426  1
  O  O24  1  0.494094  0.587319  0.575303  1
  O  O25  1  0.994094  0.912681  0.424697  1
  O  O26  1  0.505906  0.087319  0.924697  1
  O  O27  1  0.005906  0.412681  0.075303  1
