# generated using pymatgen
data_Pr3(NiGe)4
_symmetry_space_group_name_H-M   'P 1'
_cell_length_a   12.43298046
_cell_length_b   12.43298046
_cell_length_c   12.43298046
_cell_angle_alpha   160.77218520
_cell_angle_beta   160.60804415
_cell_angle_gamma   27.44099445
_symmetry_Int_Tables_number   1
_chemical_formula_structural   Pr3(NiGe)4
_chemical_formula_sum   'Pr3 Ni4 Ge4'
_cell_volume   210.06040857
_cell_formula_units_Z   1
loop_
 _symmetry_equiv_pos_site_id
 _symmetry_equiv_pos_as_xyz
  1  'x, y, z'
loop_
 _atom_site_type_symbol
 _atom_site_label
 _atom_site_symmetry_multiplicity
 _atom_site_fract_x
 _atom_site_fract_y
 _atom_site_fract_z
 _atom_site_occupancy
  Pr  Pr0  1  0.000000  0.000000  0.000000  1
  Pr  Pr1  1  0.148518  0.648518  0.500000  1
  Pr  Pr2  1  0.851482  0.351482  0.500000  1
  Ni  Ni3  1  0.450268  0.450268  0.000000  1
  Ni  Ni4  1  0.549732  0.549732  0.000000  1
  Ni  Ni5  1  0.300845  0.800845  0.500000  1
  Ni  Ni6  1  0.699155  0.199155  0.500000  1
  Ge  Ge7  1  0.750035  0.750035  0.000000  1
  Ge  Ge8  1  0.400338  0.900338  0.500000  1
  Ge  Ge9  1  0.599662  0.099662  0.500000  1
  Ge  Ge10  1  0.249965  0.249965  0.000000  1
