# generated using pymatgen
data_Ni3(AsO4)2
_symmetry_space_group_name_H-M   'P 1'
_cell_length_a   5.83946682
_cell_length_b   9.69530658
_cell_length_c   10.33905481
_cell_angle_alpha   90.00000000
_cell_angle_beta   92.96398557
_cell_angle_gamma   90.00000000
_symmetry_Int_Tables_number   1
_chemical_formula_structural   Ni3(AsO4)2
_chemical_formula_sum   'Ni12 As8 O32'
_cell_volume   584.56688050
_cell_formula_units_Z   4
loop_
 _symmetry_equiv_pos_site_id
 _symmetry_equiv_pos_as_xyz
  1  'x, y, z'
loop_
 _atom_site_type_symbol
 _atom_site_label
 _atom_site_symmetry_multiplicity
 _atom_site_fract_x
 _atom_site_fract_y
 _atom_site_fract_z
 _atom_site_occupancy
  Ni  Ni0  1  0.615036  0.864641  0.965364  1
  Ni  Ni1  1  0.384964  0.364641  0.534636  1
  Ni  Ni2  1  0.384964  0.135359  0.034636  1
  Ni  Ni3  1  0.615036  0.635359  0.465364  1
  Ni  Ni4  1  0.857975  0.863436  0.715768  1
  Ni  Ni5  1  0.142025  0.363436  0.784232  1
  Ni  Ni6  1  0.142025  0.136564  0.284232  1
  Ni  Ni7  1  0.857975  0.636564  0.215768  1
  Ni  Ni8  1  0.137039  0.623403  0.941786  1
  Ni  Ni9  1  0.862961  0.123403  0.558214  1
  Ni  Ni10  1  0.137039  0.876597  0.441786  1
  Ni  Ni11  1  0.862961  0.376597  0.058214  1
  As  As12  1  0.131844  0.844587  0.118077  1
  As  As13  1  0.868156  0.344587  0.381923  1
  As  As14  1  0.868156  0.155413  0.881923  1
  As  As15  1  0.131844  0.655413  0.618077  1
  As  As16  1  0.624094  0.943020  0.295078  1
  As  As17  1  0.375906  0.443020  0.204922  1
  As  As18  1  0.375906  0.056980  0.704922  1
  As  As19  1  0.624094  0.556980  0.795078  1
  O  O20  1  0.383265  0.008073  0.865504  1
  O  O21  1  0.616735  0.508073  0.634496  1
  O  O22  1  0.616735  0.991927  0.134496  1
  O  O23  1  0.383265  0.491927  0.365504  1
  O  O24  1  0.383390  0.495984  0.867728  1
  O  O25  1  0.616610  0.995984  0.632272  1
  O  O26  1  0.616610  0.504016  0.132272  1
  O  O27  1  0.383390  0.004016  0.367728  1
  O  O28  1  0.630452  0.734783  0.805119  1
  O  O29  1  0.369548  0.234783  0.694881  1
  O  O30  1  0.369548  0.265217  0.194881  1
  O  O31  1  0.630452  0.765217  0.305119  1
  O  O32  1  0.126935  0.988762  0.622310  1
  O  O33  1  0.873065  0.488762  0.877690  1
  O  O34  1  0.873065  0.011238  0.377690  1
  O  O35  1  0.126935  0.511238  0.122310  1
  O  O36  1  0.869072  0.521217  0.381957  1
  O  O37  1  0.130928  0.021217  0.118043  1
  O  O38  1  0.130928  0.478783  0.618043  1
  O  O39  1  0.869072  0.978783  0.881957  1
  O  O40  1  0.112958  0.775214  0.270721  1
  O  O41  1  0.887042  0.275214  0.229279  1
  O  O42  1  0.887042  0.224786  0.729279  1
  O  O43  1  0.112958  0.724786  0.770721  1
  O  O44  1  0.894507  0.754245  0.046177  1
  O  O45  1  0.105493  0.254245  0.453823  1
  O  O46  1  0.342746  0.732257  0.532908  1
  O  O47  1  0.894507  0.745755  0.546177  1
  O  O48  1  0.342746  0.767743  0.032908  1
  O  O49  1  0.657254  0.267743  0.467092  1
  O  O50  1  0.657254  0.232257  0.967092  1
  O  O51  1  0.105493  0.245755  0.953823  1
