# generated using pymatgen
data_CeY3
_symmetry_space_group_name_H-M   'P 1'
_cell_length_a   7.19720110
_cell_length_b   7.19720110
_cell_length_c   5.70336908
_cell_angle_alpha   90.00000000
_cell_angle_beta   90.00000000
_cell_angle_gamma   120.00000000
_symmetry_Int_Tables_number   1
_chemical_formula_structural   CeY3
_chemical_formula_sum   'Ce2 Y6'
_cell_volume   255.85233415
_cell_formula_units_Z   2
loop_
 _symmetry_equiv_pos_site_id
 _symmetry_equiv_pos_as_xyz
  1  'x, y, z'
loop_
 _atom_site_type_symbol
 _atom_site_label
 _atom_site_symmetry_multiplicity
 _atom_site_fract_x
 _atom_site_fract_y
 _atom_site_fract_z
 _atom_site_occupancy
  Ce  Ce0  1  0.333333  0.666667  0.750000  1
  Ce  Ce1  1  0.666667  0.333333  0.250000  1
  Y  Y2  1  0.166338  0.332675  0.250000  1
  Y  Y3  1  0.667325  0.833662  0.250000  1
  Y  Y4  1  0.166338  0.833662  0.250000  1
  Y  Y5  1  0.833662  0.667325  0.750000  1
  Y  Y6  1  0.332675  0.166338  0.750000  1
  Y  Y7  1  0.833662  0.166338  0.750000  1
