# generated using pymatgen
data_Ho2AlSi2
_symmetry_space_group_name_H-M   'P 1'
_cell_length_a   5.58086406
_cell_length_b   5.58086406
_cell_length_c   5.58086406
_cell_angle_alpha   137.48467613
_cell_angle_beta   117.26227177
_cell_angle_gamma   78.74587463
_symmetry_Int_Tables_number   1
_chemical_formula_structural   Ho2AlSi2
_chemical_formula_sum   'Ho2 Al1 Si2'
_cell_volume   101.43888827
_cell_formula_units_Z   1
loop_
 _symmetry_equiv_pos_site_id
 _symmetry_equiv_pos_as_xyz
  1  'x, y, z'
loop_
 _atom_site_type_symbol
 _atom_site_label
 _atom_site_symmetry_multiplicity
 _atom_site_fract_x
 _atom_site_fract_y
 _atom_site_fract_z
 _atom_site_occupancy
  Ho  Ho0  1  0.288877  0.788877  0.500000  1
  Ho  Ho1  1  0.711123  0.211123  0.500000  1
  Al  Al2  1  0.000000  0.000000  0.000000  1
  Si  Si3  1  0.289125  0.500000  0.789125  1
  Si  Si4  1  0.710875  0.500000  0.210875  1
