# generated using pymatgen
data_BaV2(NiO4)2
_symmetry_space_group_name_H-M   'P 1'
_cell_length_a   8.24997355
_cell_length_b   8.24997355
_cell_length_c   8.24997355
_cell_angle_alpha   35.91454876
_cell_angle_beta   35.91454876
_cell_angle_gamma   35.91454876
_symmetry_Int_Tables_number   1
_chemical_formula_structural   BaV2(NiO4)2
_chemical_formula_sum   'Ba1 V2 Ni2 O8'
_cell_volume   172.77833207
_cell_formula_units_Z   1
loop_
 _symmetry_equiv_pos_site_id
 _symmetry_equiv_pos_as_xyz
  1  'x, y, z'
loop_
 _atom_site_type_symbol
 _atom_site_label
 _atom_site_symmetry_multiplicity
 _atom_site_fract_x
 _atom_site_fract_y
 _atom_site_fract_z
 _atom_site_occupancy
  Ba  Ba0  1  0.000000  0.000000  0.000000  1
  V  V1  1  0.425841  0.425841  0.425841  1
  V  V2  1  0.574159  0.574159  0.574159  1
  Ni  Ni3  1  0.169422  0.169422  0.169422  1
  Ni  Ni4  1  0.830578  0.830578  0.830578  1
  O  O5  1  0.214079  0.878033  0.563305  1
  O  O6  1  0.878033  0.563305  0.214079  1
  O  O7  1  0.563305  0.214079  0.878033  1
  O  O8  1  0.785921  0.121967  0.436695  1
  O  O9  1  0.121967  0.436695  0.785921  1
  O  O10  1  0.647582  0.647582  0.647582  1
  O  O11  1  0.352418  0.352418  0.352418  1
  O  O12  1  0.436695  0.785921  0.121967  1
