# generated using pymatgen
data_Al17(Re2Si)2
_symmetry_space_group_name_H-M   'P 1'
_cell_length_a   12.92717391
_cell_length_b   12.92717391
_cell_length_c   12.92717391
_cell_angle_alpha   90.00000000
_cell_angle_beta   90.00000000
_cell_angle_gamma   90.00000000
_symmetry_Int_Tables_number   1
_chemical_formula_structural   Al17(Re2Si)2
_chemical_formula_sum   'Al102 Re24 Si12'
_cell_volume   2160.28362806
_cell_formula_units_Z   6
loop_
 _symmetry_equiv_pos_site_id
 _symmetry_equiv_pos_as_xyz
  1  'x, y, z'
loop_
 _atom_site_type_symbol
 _atom_site_label
 _atom_site_symmetry_multiplicity
 _atom_site_fract_x
 _atom_site_fract_y
 _atom_site_fract_z
 _atom_site_occupancy
  Al  Al0  1  0.165595  0.100575  0.000000  1
  Al  Al1  1  0.000000  0.165595  0.100575  1
  Al  Al2  1  0.100575  0.000000  0.165595  1
  Al  Al3  1  0.899425  0.000000  0.165595  1
  Al  Al4  1  0.000000  0.834405  0.899425  1
  Al  Al5  1  0.899425  0.000000  0.834405  1
  Al  Al6  1  0.000000  0.834405  0.100575  1
  Al  Al7  1  0.000000  0.165595  0.899425  1
  Al  Al8  1  0.100575  0.000000  0.834405  1
  Al  Al9  1  0.165595  0.899425  0.000000  1
  Al  Al10  1  0.834405  0.100575  0.000000  1
  Al  Al11  1  0.834405  0.899425  0.000000  1
  Al  Al12  1  0.332149  0.399258  0.500000  1
  Al  Al13  1  0.500000  0.332149  0.399258  1
  Al  Al14  1  0.399258  0.500000  0.332149  1
  Al  Al15  1  0.600742  0.500000  0.332149  1
  Al  Al16  1  0.500000  0.667851  0.600742  1
  Al  Al17  1  0.600742  0.500000  0.667851  1
  Al  Al18  1  0.500000  0.667851  0.399258  1
  Al  Al19  1  0.500000  0.332149  0.600742  1
  Al  Al20  1  0.399258  0.500000  0.667851  1
  Al  Al21  1  0.332149  0.600742  0.500000  1
  Al  Al22  1  0.667851  0.399258  0.500000  1
  Al  Al23  1  0.667851  0.600742  0.500000  1
  Al  Al24  1  0.364234  0.000000  0.000000  1
  Al  Al25  1  0.000000  0.364234  0.000000  1
  Al  Al26  1  0.000000  0.000000  0.364234  1
  Al  Al27  1  0.000000  0.635766  0.000000  1
  Al  Al28  1  0.000000  0.000000  0.635766  1
  Al  Al29  1  0.635766  0.000000  0.000000  1
  Al  Al30  1  0.111227  0.500000  0.500000  1
  Al  Al31  1  0.500000  0.111227  0.500000  1
  Al  Al32  1  0.500000  0.500000  0.111227  1
  Al  Al33  1  0.500000  0.888772  0.500000  1
  Al  Al34  1  0.500000  0.500000  0.888772  1
  Al  Al35  1  0.888772  0.500000  0.500000  1
  Al  Al36  1  0.120272  0.186921  0.303993  1
  Al  Al37  1  0.303993  0.120272  0.186921  1
  Al  Al38  1  0.186921  0.303993  0.120272  1
  Al  Al39  1  0.813079  0.696007  0.120272  1
  Al  Al40  1  0.303993  0.879728  0.813079  1
  Al  Al41  1  0.813079  0.303993  0.879728  1
  Al  Al42  1  0.696007  0.879728  0.186921  1
  Al  Al43  1  0.696007  0.120272  0.813079  1
  Al  Al44  1  0.186921  0.696007  0.879728  1
  Al  Al45  1  0.120272  0.813079  0.696007  1
  Al  Al46  1  0.879728  0.186921  0.696007  1
  Al  Al47  1  0.879728  0.813079  0.303993  1
  Al  Al48  1  0.879728  0.813079  0.696007  1
  Al  Al49  1  0.696007  0.879728  0.813079  1
  Al  Al50  1  0.813079  0.696007  0.879728  1
  Al  Al51  1  0.186921  0.303993  0.879728  1
  Al  Al52  1  0.696007  0.120272  0.186921  1
  Al  Al53  1  0.186921  0.696007  0.120272  1
  Al  Al54  1  0.303993  0.120272  0.813079  1
  Al  Al55  1  0.303993  0.879728  0.186921  1
  Al  Al56  1  0.813079  0.303993  0.120272  1
  Al  Al57  1  0.879728  0.186921  0.303993  1
  Al  Al58  1  0.120272  0.813079  0.303993  1
  Al  Al59  1  0.120272  0.186921  0.696007  1
  Al  Al60  1  0.391523  0.314874  0.193176  1
  Al  Al61  1  0.193176  0.391523  0.314874  1
  Al  Al62  1  0.314874  0.193176  0.391523  1
  Al  Al63  1  0.685126  0.806824  0.391523  1
  Al  Al64  1  0.193176  0.608477  0.685126  1
  Al  Al65  1  0.685126  0.193176  0.608477  1
  Al  Al66  1  0.806824  0.608477  0.314874  1
  Al  Al67  1  0.806824  0.391523  0.685126  1
  Al  Al68  1  0.314874  0.806824  0.608477  1
  Al  Al69  1  0.391523  0.685126  0.806824  1
  Al  Al70  1  0.608477  0.314874  0.806824  1
  Al  Al71  1  0.608477  0.685126  0.193176  1
  Al  Al72  1  0.608477  0.685126  0.806824  1
  Al  Al73  1  0.806824  0.608477  0.685126  1
  Al  Al74  1  0.685126  0.806824  0.608477  1
  Al  Al75  1  0.314874  0.193176  0.608477  1
  Al  Al76  1  0.806824  0.391523  0.314874  1
  Al  Al77  1  0.314874  0.806824  0.391523  1
  Al  Al78  1  0.193176  0.391523  0.685126  1
  Al  Al79  1  0.193176  0.608477  0.314874  1
  Al  Al80  1  0.685126  0.193176  0.391523  1
  Al  Al81  1  0.608477  0.314874  0.193176  1
  Al  Al82  1  0.391523  0.685126  0.193176  1
  Al  Al83  1  0.391523  0.314874  0.806824  1
  Al  Al84  1  0.871060  0.896267  0.500000  1
  Al  Al85  1  0.871060  0.103733  0.500000  1
  Al  Al86  1  0.128940  0.896267  0.500000  1
  Al  Al87  1  0.103733  0.500000  0.871060  1
  Al  Al88  1  0.500000  0.128940  0.896267  1
  Al  Al89  1  0.500000  0.871060  0.103733  1
  Al  Al90  1  0.896267  0.500000  0.871060  1
  Al  Al91  1  0.500000  0.871060  0.896267  1
  Al  Al92  1  0.896267  0.500000  0.128940  1
  Al  Al93  1  0.103733  0.500000  0.128940  1
  Al  Al94  1  0.500000  0.128940  0.103733  1
  Al  Al95  1  0.128940  0.103733  0.500000  1
  Al  Al96  1  0.686647  0.000000  0.500000  1
  Al  Al97  1  0.000000  0.500000  0.686647  1
  Al  Al98  1  0.500000  0.686647  0.000000  1
  Al  Al99  1  0.000000  0.500000  0.313353  1
  Al  Al100  1  0.500000  0.313353  0.000000  1
  Al  Al101  1  0.313353  0.000000  0.500000  1
  Re  Re102  1  0.165552  0.298909  0.500000  1
  Re  Re103  1  0.500000  0.165552  0.298909  1
  Re  Re104  1  0.298909  0.500000  0.165552  1
  Re  Re105  1  0.701091  0.500000  0.165552  1
  Re  Re106  1  0.500000  0.834448  0.701091  1
  Re  Re107  1  0.701091  0.500000  0.834448  1
  Re  Re108  1  0.500000  0.834448  0.298909  1
  Re  Re109  1  0.834448  0.701091  0.500000  1
  Re  Re110  1  0.834448  0.298909  0.500000  1
  Re  Re111  1  0.165552  0.701091  0.500000  1
  Re  Re112  1  0.298909  0.500000  0.834448  1
  Re  Re113  1  0.500000  0.165552  0.701091  1
  Re  Re114  1  0.672574  0.791134  0.000000  1
  Re  Re115  1  0.672574  0.208866  0.000000  1
  Re  Re116  1  0.327426  0.791134  0.000000  1
  Re  Re117  1  0.208866  0.000000  0.672574  1
  Re  Re118  1  0.000000  0.327426  0.791134  1
  Re  Re119  1  0.000000  0.672574  0.208866  1
  Re  Re120  1  0.791134  0.000000  0.672574  1
  Re  Re121  1  0.000000  0.672574  0.791134  1
  Re  Re122  1  0.791134  0.000000  0.327426  1
  Re  Re123  1  0.208866  0.000000  0.327426  1
  Re  Re124  1  0.000000  0.327426  0.208866  1
  Re  Re125  1  0.327426  0.208866  0.000000  1
  Si  Si126  1  0.000000  0.679223  0.403331  1
  Si  Si127  1  0.679223  0.596669  0.000000  1
  Si  Si128  1  0.679223  0.403331  0.000000  1
  Si  Si129  1  0.320777  0.596669  0.000000  1
  Si  Si130  1  0.403331  0.000000  0.679223  1
  Si  Si131  1  0.000000  0.320777  0.596669  1
  Si  Si132  1  0.596669  0.000000  0.679223  1
  Si  Si133  1  0.000000  0.679223  0.596669  1
  Si  Si134  1  0.596669  0.000000  0.320777  1
  Si  Si135  1  0.403331  0.000000  0.320777  1
  Si  Si136  1  0.000000  0.320777  0.403331  1
  Si  Si137  1  0.320777  0.403331  0.000000  1
