# generated using pymatgen
data_KB(S2O7)2
_symmetry_space_group_name_H-M   'P 1'
_cell_length_a   9.57949507
_cell_length_b   9.57949507
_cell_length_c   14.10173870
_cell_angle_alpha   87.42833342
_cell_angle_beta   92.57166658
_cell_angle_gamma   75.90846305
_symmetry_Int_Tables_number   1
_chemical_formula_structural   KB(S2O7)2
_chemical_formula_sum   'K4 B4 S16 O56'
_cell_volume   1251.78468178
_cell_formula_units_Z   4
loop_
 _symmetry_equiv_pos_site_id
 _symmetry_equiv_pos_as_xyz
  1  'x, y, z'
loop_
 _atom_site_type_symbol
 _atom_site_label
 _atom_site_symmetry_multiplicity
 _atom_site_fract_x
 _atom_site_fract_y
 _atom_site_fract_z
 _atom_site_occupancy
  K  K0  1  0.851194  0.088284  0.327898  1
  K  K1  1  0.911716  0.148806  0.827898  1
  K  K2  1  0.281550  0.688296  0.248960  1
  K  K3  1  0.311704  0.718450  0.748960  1
  B  B4  1  0.386926  0.179401  0.543753  1
  B  B5  1  0.820599  0.613074  0.043753  1
  B  B6  1  0.794790  0.676765  0.555276  1
  B  B7  1  0.323235  0.205210  0.055276  1
  S  S8  1  0.692262  0.740063  0.197506  1
  S  S9  1  0.259937  0.307738  0.697506  1
  S  S10  1  0.925049  0.480021  0.208789  1
  S  S11  1  0.519979  0.074951  0.708789  1
  S  S12  1  0.421742  0.261020  0.365498  1
  S  S13  1  0.738980  0.578258  0.865498  1
  S  S14  1  0.270300  0.044387  0.406708  1
  S  S15  1  0.955613  0.729700  0.906708  1
  S  S16  1  0.929412  0.880338  0.597333  1
  S  S17  1  0.119662  0.070588  0.097333  1
  S  S18  1  0.024682  0.688319  0.451680  1
  S  S19  1  0.311681  0.975318  0.951680  1
  S  S20  1  0.597801  0.224351  0.071119  1
  S  S21  1  0.775649  0.402199  0.571119  1
  S  S22  1  0.367784  0.470527  0.011558  1
  S  S23  1  0.529473  0.632216  0.511558  1
  O  O24  1  0.718387  0.856692  0.249131  1
  O  O25  1  0.143308  0.281613  0.749131  1
  O  O26  1  0.549915  0.719598  0.184944  1
  O  O27  1  0.280402  0.450085  0.684944  1
  O  O28  1  0.045187  0.544598  0.211838  1
  O  O29  1  0.455402  0.954813  0.711838  1
  O  O30  1  0.934482  0.343507  0.256117  1
  O  O31  1  0.656493  0.065518  0.756117  1
  O  O32  1  0.554968  0.157741  0.354644  1
  O  O33  1  0.842259  0.445032  0.854644  1
  O  O34  1  0.382449  0.392708  0.308650  1
  O  O35  1  0.607292  0.617551  0.808650  1
  O  O36  1  0.120868  0.077031  0.425590  1
  O  O37  1  0.922969  0.879132  0.925590  1
  O  O38  1  0.334760  0.918953  0.358371  1
  O  O39  1  0.081047  0.665240  0.858371  1
  O  O40  1  0.998185  0.914818  0.682123  1
  O  O41  1  0.085182  0.001815  0.182123  1
  O  O42  1  0.855196  0.990596  0.528529  1
  O  O43  1  0.009404  0.144804  0.028529  1
  O  O44  1  0.118042  0.547456  0.462643  1
  O  O45  1  0.452544  0.881958  0.962643  1
  O  O46  1  0.031751  0.782197  0.370834  1
  O  O47  1  0.217803  0.968249  0.870834  1
  O  O48  1  0.703766  0.197282  0.148299  1
  O  O49  1  0.802718  0.296234  0.648299  1
  O  O50  1  0.804913  0.364598  0.476002  1
  O  O51  1  0.635402  0.195087  0.976002  1
  O  O52  1  0.396282  0.471469  0.913071  1
  O  O53  1  0.528531  0.603718  0.413071  1
  O  O54  1  0.310198  0.601904  0.055738  1
  O  O55  1  0.398096  0.689802  0.555738  1
  O  O56  1  0.767449  0.738399  0.102121  1
  O  O57  1  0.261601  0.232551  0.602121  1
  O  O58  1  0.862504  0.478641  0.104773  1
  O  O59  1  0.521359  0.137496  0.604773  1
  O  O60  1  0.399215  0.292508  0.471818  1
  O  O61  1  0.707492  0.600785  0.971818  1
  O  O62  1  0.367332  0.049287  0.496671  1
  O  O63  1  0.950713  0.632668  0.996671  1
  O  O64  1  0.836616  0.773797  0.624443  1
  O  O65  1  0.226203  0.163384  0.124443  1
  O  O66  1  0.864075  0.691306  0.463782  1
  O  O67  1  0.308694  0.135925  0.963782  1
  O  O68  1  0.840577  0.529422  0.600388  1
  O  O69  1  0.470578  0.159423  0.100388  1
  O  O70  1  0.276042  0.362208  0.037085  1
  O  O71  1  0.637792  0.723958  0.537085  1
  O  O72  1  0.788316  0.589022  0.255271  1
  O  O73  1  0.410978  0.211684  0.755271  1
  O  O74  1  0.287512  0.186566  0.341697  1
  O  O75  1  0.813434  0.712488  0.841697  1
  O  O76  1  0.062912  0.769863  0.548064  1
  O  O77  1  0.230137  0.937088  0.048064  1
  O  O78  1  0.519652  0.399042  0.075462  1
  O  O79  1  0.600958  0.480348  0.575462  1
