# generated using pymatgen
data_Tl2SiSe3
_symmetry_space_group_name_H-M   'P 1'
_cell_length_a   7.08311688
_cell_length_b   7.17421860
_cell_length_c   8.91911835
_cell_angle_alpha   89.45585337
_cell_angle_beta   112.04991002
_cell_angle_gamma   112.91172759
_symmetry_Int_Tables_number   1
_chemical_formula_structural   Tl2SiSe3
_chemical_formula_sum   'Tl4 Si2 Se6'
_cell_volume   381.95038667
_cell_formula_units_Z   2
loop_
 _symmetry_equiv_pos_site_id
 _symmetry_equiv_pos_as_xyz
  1  'x, y, z'
loop_
 _atom_site_type_symbol
 _atom_site_label
 _atom_site_symmetry_multiplicity
 _atom_site_fract_x
 _atom_site_fract_y
 _atom_site_fract_z
 _atom_site_occupancy
  Tl  Tl0  1  0.727795  0.320596  0.099330  1
  Tl  Tl1  1  0.272205  0.679404  0.900670  1
  Tl  Tl2  1  0.864800  0.041925  0.665935  1
  Tl  Tl3  1  0.135200  0.958075  0.334065  1
  Si  Si4  1  0.432079  0.548201  0.322341  1
  Si  Si5  1  0.567921  0.451799  0.677659  1
  Se  Se6  1  0.752190  0.696543  0.901229  1
  Se  Se7  1  0.247810  0.303457  0.098771  1
  Se  Se8  1  0.514005  0.873497  0.270445  1
  Se  Se9  1  0.485995  0.126503  0.729555  1
  Se  Se10  1  0.238524  0.470686  0.494131  1
  Se  Se11  1  0.761476  0.529314  0.505869  1
