# generated using pymatgen
data_Lu(BRh)4
_symmetry_space_group_name_H-M   'P 1'
_cell_length_a   9.15010284
_cell_length_b   9.15010284
_cell_length_c   9.15010284
_cell_angle_alpha   131.49654355
_cell_angle_beta   131.49654355
_cell_angle_gamma   71.02535341
_symmetry_Int_Tables_number   1
_chemical_formula_structural   Lu(BRh)4
_chemical_formula_sum   'Lu4 B16 Rh16'
_cell_volume   420.82625709
_cell_formula_units_Z   4
loop_
 _symmetry_equiv_pos_site_id
 _symmetry_equiv_pos_as_xyz
  1  'x, y, z'
loop_
 _atom_site_type_symbol
 _atom_site_label
 _atom_site_symmetry_multiplicity
 _atom_site_fract_x
 _atom_site_fract_y
 _atom_site_fract_z
 _atom_site_occupancy
  Lu  Lu0  1  1.000000  0.500000  0.500000  1
  Lu  Lu1  1  0.250000  0.250000  0.000000  1
  Lu  Lu2  1  0.750000  0.750000  0.000000  1
  Lu  Lu3  1  0.500000  0.000000  0.500000  1
  B  B4  1  0.304828  0.837777  0.807185  1
  B  B5  1  0.030591  0.497642  0.192815  1
  B  B6  1  0.219409  0.912223  0.967051  1
  B  B7  1  0.945172  0.252358  0.032949  1
  B  B8  1  0.002358  0.469409  0.807185  1
  B  B9  1  0.662223  0.195172  0.192815  1
  B  B10  1  0.247642  0.554828  0.967051  1
  B  B11  1  0.587777  0.280591  0.032949  1
  B  B12  1  0.445172  0.412223  0.692815  1
  B  B13  1  0.719409  0.752358  0.307185  1
  B  B14  1  0.530591  0.337777  0.532949  1
  B  B15  1  0.804828  0.997642  0.467051  1
  B  B16  1  0.747642  0.780591  0.692815  1
  B  B17  1  0.087777  0.054828  0.307185  1
  B  B18  1  0.502358  0.695172  0.532949  1
  B  B19  1  0.162223  0.969409  0.467051  1
  Rh  Rh20  1  0.409075  0.679805  0.962292  1
  Rh  Rh21  1  0.717513  0.446783  0.037708  1
  Rh  Rh22  1  0.532487  0.070195  0.229270  1
  Rh  Rh23  1  0.840925  0.303217  0.770730  1
  Rh  Rh24  1  0.053217  0.782487  0.962292  1
  Rh  Rh25  1  0.820195  0.090925  0.037708  1
  Rh  Rh26  1  0.196783  0.659075  0.229270  1
  Rh  Rh27  1  0.429805  0.967513  0.770730  1
  Rh  Rh28  1  0.340925  0.570195  0.537708  1
  Rh  Rh29  1  0.032487  0.803217  0.462292  1
  Rh  Rh30  1  0.217513  0.179805  0.270730  1
  Rh  Rh31  1  0.909075  0.946783  0.729270  1
  Rh  Rh32  1  0.696783  0.467513  0.537708  1
  Rh  Rh33  1  0.929805  0.159075  0.462292  1
  Rh  Rh34  1  0.553217  0.590925  0.270730  1
  Rh  Rh35  1  0.320195  0.282487  0.729270  1
