# generated using pymatgen
data_YbB4Rh
_symmetry_space_group_name_H-M   'P 1'
_cell_length_a   3.53267253
_cell_length_b   5.94905078
_cell_length_c   11.51734815
_cell_angle_alpha   90.00000000
_cell_angle_beta   90.00000000
_cell_angle_gamma   90.00000000
_symmetry_Int_Tables_number   1
_chemical_formula_structural   YbB4Rh
_chemical_formula_sum   'Yb4 B16 Rh4'
_cell_volume   242.04914466
_cell_formula_units_Z   4
loop_
 _symmetry_equiv_pos_site_id
 _symmetry_equiv_pos_as_xyz
  1  'x, y, z'
loop_
 _atom_site_type_symbol
 _atom_site_label
 _atom_site_symmetry_multiplicity
 _atom_site_fract_x
 _atom_site_fract_y
 _atom_site_fract_z
 _atom_site_occupancy
  Yb  Yb0  1  0.000000  0.130272  0.649941  1
  Yb  Yb1  1  0.000000  0.869728  0.350059  1
  Yb  Yb2  1  0.000000  0.630272  0.850059  1
  Yb  Yb3  1  0.000000  0.369728  0.149941  1
  B  B4  1  0.500000  0.789349  0.685363  1
  B  B5  1  0.500000  0.210651  0.314637  1
  B  B6  1  0.500000  0.289349  0.814637  1
  B  B7  1  0.500000  0.710651  0.185363  1
  B  B8  1  0.500000  0.864046  0.529943  1
  B  B9  1  0.500000  0.135954  0.470057  1
  B  B10  1  0.500000  0.364046  0.970057  1
  B  B11  1  0.500000  0.635954  0.029943  1
  B  B12  1  0.500000  0.025215  0.191708  1
  B  B13  1  0.500000  0.974785  0.808292  1
  B  B14  1  0.500000  0.525215  0.308292  1
  B  B15  1  0.500000  0.474785  0.691708  1
  B  B16  1  0.500000  0.112337  0.046835  1
  B  B17  1  0.500000  0.887663  0.953165  1
  B  B18  1  0.500000  0.612337  0.453165  1
  B  B19  1  0.500000  0.387663  0.546835  1
  Rh  Rh20  1  0.000000  0.641934  0.593280  1
  Rh  Rh21  1  0.000000  0.358066  0.406720  1
  Rh  Rh22  1  0.000000  0.141934  0.906720  1
  Rh  Rh23  1  0.000000  0.858066  0.093280  1
