# generated using pymatgen
data_Cu2GeTe3
_symmetry_space_group_name_H-M   'P 1'
_cell_length_a   7.36962577
_cell_length_b   7.36962577
_cell_length_c   7.36962577
_cell_angle_alpha   145.65293336
_cell_angle_beta   132.36473128
_cell_angle_gamma   60.03421197
_symmetry_Int_Tables_number   1
_chemical_formula_structural   Cu2GeTe3
_chemical_formula_sum   'Cu2 Ge1 Te3'
_cell_volume   165.29579475
_cell_formula_units_Z   1
loop_
 _symmetry_equiv_pos_site_id
 _symmetry_equiv_pos_as_xyz
  1  'x, y, z'
loop_
 _atom_site_type_symbol
 _atom_site_label
 _atom_site_symmetry_multiplicity
 _atom_site_fract_x
 _atom_site_fract_y
 _atom_site_fract_z
 _atom_site_occupancy
  Cu  Cu0  1  0.095660  0.832373  0.263287  1
  Cu  Cu1  1  0.430914  0.167627  0.263287  1
  Ge  Ge2  1  0.739415  0.500000  0.239415  1
  Te  Te3  1  0.666913  0.673296  0.993617  1
  Te  Te4  1  0.320321  0.326704  0.993617  1
  Te  Te5  1  0.019777  0.000000  0.019777  1
