# generated using pymatgen
data_Li2PNO2
_symmetry_space_group_name_H-M   'P 1'
_cell_length_a   5.33040181
_cell_length_b   5.33040181
_cell_length_c   4.74896882
_cell_angle_alpha   90.00000000
_cell_angle_beta   90.00000000
_cell_angle_gamma   118.37199812
_symmetry_Int_Tables_number   1
_chemical_formula_structural   Li2PNO2
_chemical_formula_sum   'Li4 P2 N2 O4'
_cell_volume   118.72525534
_cell_formula_units_Z   2
loop_
 _symmetry_equiv_pos_site_id
 _symmetry_equiv_pos_as_xyz
  1  'x, y, z'
loop_
 _atom_site_type_symbol
 _atom_site_label
 _atom_site_symmetry_multiplicity
 _atom_site_fract_x
 _atom_site_fract_y
 _atom_site_fract_z
 _atom_site_occupancy
  Li  Li0  1  0.325136  0.993793  0.501556  1
  Li  Li1  1  0.993793  0.325136  0.501556  1
  Li  Li2  1  0.674864  0.006207  0.001556  1
  Li  Li3  1  0.006207  0.674864  0.001556  1
  P  P4  1  0.653750  0.653750  0.498511  1
  P  P5  1  0.346250  0.346250  0.998511  1
  N  N6  1  0.387000  0.387000  0.341176  1
  N  N7  1  0.613000  0.613000  0.841176  1
  O  O8  1  0.944497  0.666403  0.419101  1
  O  O9  1  0.666403  0.944497  0.419101  1
  O  O10  1  0.055503  0.333597  0.919101  1
  O  O11  1  0.333597  0.055503  0.919101  1
