# generated using pymatgen
data_Ce(PO3)4
_symmetry_space_group_name_H-M   'P 1'
_cell_length_a   16.64961643
_cell_length_b   16.64961643
_cell_length_c   9.13782300
_cell_angle_alpha   89.96271042
_cell_angle_beta   90.03728958
_cell_angle_gamma   49.72675218
_symmetry_Int_Tables_number   1
_chemical_formula_structural   Ce(PO3)4
_chemical_formula_sum   'Ce8 P32 O96'
_cell_volume   1932.67258464
_cell_formula_units_Z   8
loop_
 _symmetry_equiv_pos_site_id
 _symmetry_equiv_pos_as_xyz
  1  'x, y, z'
loop_
 _atom_site_type_symbol
 _atom_site_label
 _atom_site_symmetry_multiplicity
 _atom_site_fract_x
 _atom_site_fract_y
 _atom_site_fract_z
 _atom_site_occupancy
  Ce  Ce0  1  0.069459  0.069459  0.250000  1
  Ce  Ce1  1  0.930541  0.930541  0.750000  1
  Ce  Ce2  1  0.579092  0.059521  0.250365  1
  Ce  Ce3  1  0.059521  0.579092  0.249635  1
  Ce  Ce4  1  0.420908  0.940479  0.749635  1
  Ce  Ce5  1  0.940479  0.420908  0.750365  1
  Ce  Ce6  1  0.568151  0.568151  0.250000  1
  Ce  Ce7  1  0.431849  0.431849  0.750000  1
  P  P8  1  0.635067  0.846902  0.011942  1
  P  P9  1  0.846902  0.635067  0.488058  1
  P  P10  1  0.364933  0.153098  0.988058  1
  P  P11  1  0.153098  0.364933  0.511942  1
  P  P12  1  0.134335  0.348094  0.027449  1
  P  P13  1  0.348094  0.134335  0.472551  1
  P  P14  1  0.865665  0.651906  0.972551  1
  P  P15  1  0.651906  0.865665  0.527449  1
  P  P16  1  0.849567  0.137157  0.017050  1
  P  P17  1  0.137157  0.849567  0.482950  1
  P  P18  1  0.150433  0.862843  0.982950  1
  P  P19  1  0.862843  0.150433  0.517050  1
  P  P20  1  0.344443  0.633027  0.022126  1
  P  P21  1  0.633027  0.344443  0.477874  1
  P  P22  1  0.655557  0.366973  0.977874  1
  P  P23  1  0.366973  0.655557  0.522126  1
  P  P24  1  0.669671  0.016476  0.639865  1
  P  P25  1  0.016476  0.669671  0.860135  1
  P  P26  1  0.330329  0.983524  0.360135  1
  P  P27  1  0.983524  0.330329  0.139865  1
  P  P28  1  0.170743  0.515541  0.633449  1
  P  P29  1  0.515541  0.170743  0.866551  1
  P  P30  1  0.829257  0.484459  0.366551  1
  P  P31  1  0.484459  0.829257  0.133449  1
  P  P32  1  0.483511  0.326521  0.361880  1
  P  P33  1  0.326521  0.483511  0.138120  1
  P  P34  1  0.516489  0.673479  0.638120  1
  P  P35  1  0.673479  0.516489  0.861880  1
  P  P36  1  0.984972  0.833453  0.365151  1
  P  P37  1  0.833453  0.984972  0.134849  1
  P  P38  1  0.015028  0.166547  0.634849  1
  P  P39  1  0.166547  0.015028  0.865151  1
  O  O40  1  0.258405  0.260358  0.048352  1
  O  O41  1  0.260358  0.258405  0.451648  1
  O  O42  1  0.741595  0.739642  0.951648  1
  O  O43  1  0.739642  0.741595  0.548352  1
  O  O44  1  0.919801  0.432157  0.244109  1
  O  O45  1  0.432157  0.919801  0.255891  1
  O  O46  1  0.080199  0.567843  0.755891  1
  O  O47  1  0.567843  0.080199  0.744109  1
  O  O48  1  0.928509  0.928509  0.250000  1
  O  O49  1  0.071491  0.071491  0.750000  1
  O  O50  1  0.424598  0.424598  0.250000  1
  O  O51  1  0.575402  0.575402  0.750000  1
  O  O52  1  0.402896  0.702929  0.632681  1
  O  O53  1  0.702929  0.402896  0.867319  1
  O  O54  1  0.597104  0.297071  0.367319  1
  O  O55  1  0.297071  0.597104  0.132681  1
  O  O56  1  0.902530  0.195565  0.624738  1
  O  O57  1  0.195565  0.902530  0.875262  1
  O  O58  1  0.097470  0.804435  0.375262  1
  O  O59  1  0.804435  0.097470  0.124738  1
  O  O60  1  0.402673  0.199208  0.878163  1
  O  O61  1  0.199208  0.402673  0.621837  1
  O  O62  1  0.597327  0.800792  0.121837  1
  O  O63  1  0.800792  0.597327  0.378163  1
  O  O64  1  0.904093  0.696983  0.862372  1
  O  O65  1  0.696983  0.904093  0.637628  1
  O  O66  1  0.095907  0.303017  0.137628  1
  O  O67  1  0.303017  0.095907  0.362372  1
  O  O68  1  0.740728  0.242481  0.956579  1
  O  O69  1  0.242481  0.740728  0.543421  1
  O  O70  1  0.259272  0.757519  0.043421  1
  O  O71  1  0.757519  0.259272  0.456579  1
  O  O72  1  0.561413  0.898405  0.882622  1
  O  O73  1  0.898405  0.561413  0.617378  1
  O  O74  1  0.438587  0.101595  0.117378  1
  O  O75  1  0.101595  0.438587  0.382622  1
  O  O76  1  0.344296  0.089579  0.909187  1
  O  O77  1  0.089579  0.344296  0.590813  1
  O  O78  1  0.655704  0.910421  0.090813  1
  O  O79  1  0.910421  0.655704  0.409187  1
  O  O80  1  0.099241  0.350151  0.875002  1
  O  O81  1  0.350151  0.099241  0.624998  1
  O  O82  1  0.900759  0.649849  0.124998  1
  O  O83  1  0.649849  0.900759  0.375002  1
  O  O84  1  0.105984  0.448148  0.083933  1
  O  O85  1  0.448148  0.105984  0.416067  1
  O  O86  1  0.894016  0.551852  0.916067  1
  O  O87  1  0.551852  0.894016  0.583933  1
  O  O88  1  0.062395  0.903735  0.610781  1
  O  O89  1  0.903735  0.062395  0.889219  1
  O  O90  1  0.937605  0.096265  0.389219  1
  O  O91  1  0.096265  0.937605  0.110781  1
  O  O92  1  0.159571  0.910073  0.398879  1
  O  O93  1  0.910074  0.159571  0.101121  1
  O  O94  1  0.840429  0.089926  0.601121  1
  O  O95  1  0.089927  0.840429  0.898879  1
  O  O96  1  0.600115  0.345537  0.631520  1
  O  O97  1  0.345537  0.600115  0.868480  1
  O  O98  1  0.399885  0.654463  0.368480  1
  O  O99  1  0.654463  0.399885  0.131520  1
  O  O100  1  0.600476  0.446376  0.419395  1
  O  O101  1  0.446376  0.600476  0.080605  1
  O  O102  1  0.399524  0.553624  0.580605  1
  O  O103  1  0.553624  0.399524  0.919395  1
  O  O104  1  0.639865  0.065158  0.490557  1
  O  O105  1  0.065158  0.639865  0.009443  1
  O  O106  1  0.360135  0.934842  0.509443  1
  O  O107  1  0.934842  0.360135  0.990557  1
  O  O108  1  0.999262  0.758721  0.779746  1
  O  O109  1  0.758721  0.999262  0.720254  1
  O  O110  1  0.000738  0.241279  0.220254  1
  O  O111  1  0.241279  0.000738  0.279746  1
  O  O112  1  0.128568  0.574082  0.491613  1
  O  O113  1  0.574082  0.128568  0.008387  1
  O  O114  1  0.871432  0.425918  0.508387  1
  O  O115  1  0.425918  0.871432  0.991613  1
  O  O116  1  0.497944  0.263577  0.798694  1
  O  O117  1  0.263577  0.497944  0.701306  1
  O  O118  1  0.502056  0.736423  0.201306  1
  O  O119  1  0.736423  0.502056  0.298694  1
  O  O120  1  0.637311  0.567973  0.009324  1
  O  O121  1  0.567973  0.637311  0.490676  1
  O  O122  1  0.362689  0.432027  0.990676  1
  O  O123  1  0.432027  0.362689  0.509324  1
  O  O124  1  0.501154  0.763374  0.711907  1
  O  O125  1  0.763374  0.501154  0.788093  1
  O  O126  1  0.498846  0.236626  0.288093  1
  O  O127  1  0.236626  0.498846  0.211907  1
  O  O128  1  0.129735  0.070580  0.009743  1
  O  O129  1  0.070580  0.129735  0.490257  1
  O  O130  1  0.870265  0.929420  0.990257  1
  O  O131  1  0.929420  0.870265  0.509743  1
  O  O132  1  0.997222  0.257332  0.709334  1
  O  O133  1  0.257332  0.997222  0.790666  1
  O  O134  1  0.002778  0.742668  0.290666  1
  O  O135  1  0.742668  0.002778  0.209334  1
