# generated using pymatgen
data_Ba3Te2O9
_symmetry_space_group_name_H-M   'P 1'
_cell_length_a   5.95466409
_cell_length_b   5.95466409
_cell_length_c   14.62747189
_cell_angle_alpha   90.00000000
_cell_angle_beta   90.00000000
_cell_angle_gamma   120.00000000
_symmetry_Int_Tables_number   1
_chemical_formula_structural   Ba3Te2O9
_chemical_formula_sum   'Ba6 Te4 O18'
_cell_volume   449.17382326
_cell_formula_units_Z   2
loop_
 _symmetry_equiv_pos_site_id
 _symmetry_equiv_pos_as_xyz
  1  'x, y, z'
loop_
 _atom_site_type_symbol
 _atom_site_label
 _atom_site_symmetry_multiplicity
 _atom_site_fract_x
 _atom_site_fract_y
 _atom_site_fract_z
 _atom_site_occupancy
  Ba  Ba0  1  0.333333  0.666667  0.440244  1
  Ba  Ba1  1  0.666667  0.333333  0.940244  1
  Ba  Ba2  1  0.666667  0.333333  0.559756  1
  Ba  Ba3  1  0.333333  0.666667  0.059756  1
  Ba  Ba4  1  0.666667  0.333333  0.250000  1
  Ba  Ba5  1  0.333333  0.666667  0.750000  1
  Te  Te6  1  0.000000  0.000000  0.349848  1
  Te  Te7  1  0.000000  0.000000  0.849848  1
  Te  Te8  1  0.000000  0.000000  0.650152  1
  Te  Te9  1  0.000000  0.000000  0.150152  1
  O  O10  1  0.836292  0.163708  0.408117  1
  O  O11  1  0.836292  0.672584  0.408117  1
  O  O12  1  0.327416  0.163708  0.408117  1
  O  O13  1  0.672584  0.836292  0.908117  1
  O  O14  1  0.163708  0.327416  0.591883  1
  O  O15  1  0.163708  0.836292  0.908117  1
  O  O16  1  0.163708  0.327416  0.908117  1
  O  O17  1  0.836292  0.163708  0.091883  1
  O  O18  1  0.327416  0.163708  0.091883  1
  O  O19  1  0.672584  0.836292  0.591883  1
  O  O20  1  0.143031  0.286062  0.250000  1
  O  O21  1  0.856969  0.143031  0.750000  1
  O  O22  1  0.286062  0.143031  0.750000  1
  O  O23  1  0.713938  0.856969  0.250000  1
  O  O24  1  0.143031  0.856969  0.250000  1
  O  O25  1  0.856969  0.713938  0.750000  1
  O  O26  1  0.836292  0.672584  0.091883  1
  O  O27  1  0.163708  0.836292  0.591883  1
