# generated using pymatgen
data_Sr3TaAs3O
_symmetry_space_group_name_H-M   'P 1'
_cell_length_a   6.45376414
_cell_length_b   10.78407009
_cell_length_c   13.08003677
_cell_angle_alpha   90.00000000
_cell_angle_beta   90.00000000
_cell_angle_gamma   90.00000000
_symmetry_Int_Tables_number   1
_chemical_formula_structural   Sr3TaAs3O
_chemical_formula_sum   'Sr12 Ta4 As12 O4'
_cell_volume   910.34236949
_cell_formula_units_Z   4
loop_
 _symmetry_equiv_pos_site_id
 _symmetry_equiv_pos_as_xyz
  1  'x, y, z'
loop_
 _atom_site_type_symbol
 _atom_site_label
 _atom_site_symmetry_multiplicity
 _atom_site_fract_x
 _atom_site_fract_y
 _atom_site_fract_z
 _atom_site_occupancy
  Sr  Sr0  1  0.245652  0.042946  0.628099  1
  Sr  Sr1  1  0.745652  0.457054  0.871901  1
  Sr  Sr2  1  0.754348  0.542946  0.371901  1
  Sr  Sr3  1  0.254348  0.957054  0.128099  1
  Sr  Sr4  1  0.245652  0.457054  0.628099  1
  Sr  Sr5  1  0.754348  0.957054  0.371901  1
  Sr  Sr6  1  0.767784  0.250000  0.128709  1
  Sr  Sr7  1  0.267784  0.250000  0.371291  1
  Sr  Sr8  1  0.232216  0.750000  0.871291  1
  Sr  Sr9  1  0.732216  0.750000  0.628709  1
  Sr  Sr10  1  0.254348  0.542946  0.128099  1
  Sr  Sr11  1  0.745652  0.042946  0.871901  1
  Ta  Ta12  1  0.341876  0.250000  0.951649  1
  Ta  Ta13  1  0.841876  0.250000  0.548351  1
  Ta  Ta14  1  0.658124  0.750000  0.048351  1
  Ta  Ta15  1  0.158124  0.750000  0.451649  1
  As  As16  1  0.236338  0.750000  0.636262  1
  As  As17  1  0.736338  0.750000  0.863738  1
  As  As18  1  0.763662  0.250000  0.363738  1
  As  As19  1  0.263662  0.250000  0.136262  1
  As  As20  1  0.236834  0.451538  0.876268  1
  As  As21  1  0.736834  0.048462  0.623732  1
  As  As22  1  0.236834  0.048462  0.876268  1
  As  As23  1  0.736834  0.451538  0.623732  1
  As  As24  1  0.763166  0.548462  0.123732  1
  As  As25  1  0.263166  0.548462  0.376268  1
  As  As26  1  0.263166  0.951538  0.376268  1
  As  As27  1  0.763166  0.951538  0.123732  1
  O  O28  1  0.634610  0.250000  0.945468  1
  O  O29  1  0.134610  0.250000  0.554532  1
  O  O30  1  0.365390  0.750000  0.054532  1
  O  O31  1  0.865390  0.750000  0.445468  1
