# generated using pymatgen
data_Ta2Ni
_symmetry_space_group_name_H-M   'P 1'
_cell_length_a   5.03258739
_cell_length_b   5.03258739
_cell_length_c   5.03258739
_cell_angle_alpha   103.53903484
_cell_angle_beta   103.53903484
_cell_angle_gamma   122.12610279
_symmetry_Int_Tables_number   1
_chemical_formula_structural   Ta2Ni
_chemical_formula_sum   'Ta4 Ni2'
_cell_volume   94.46687493
_cell_formula_units_Z   2
loop_
 _symmetry_equiv_pos_site_id
 _symmetry_equiv_pos_as_xyz
  1  'x, y, z'
loop_
 _atom_site_type_symbol
 _atom_site_label
 _atom_site_symmetry_multiplicity
 _atom_site_fract_x
 _atom_site_fract_y
 _atom_site_fract_z
 _atom_site_occupancy
  Ta  Ta0  1  0.341330  0.158670  0.500000  1
  Ta  Ta1  1  0.841330  0.341330  0.182660  1
  Ta  Ta2  1  0.158670  0.658670  0.817340  1
  Ta  Ta3  1  0.658670  0.841330  0.500000  1
  Ni  Ni4  1  0.250000  0.250000  0.000000  1
  Ni  Ni5  1  0.750000  0.750000  0.000000  1
