# generated using pymatgen
data_Ho2Si2O7
_symmetry_space_group_name_H-M   'P 1'
_cell_length_a   5.07739521
_cell_length_b   8.15874857
_cell_length_c   13.75106833
_cell_angle_alpha   90.00000000
_cell_angle_beta   90.00000000
_cell_angle_gamma   90.00000000
_symmetry_Int_Tables_number   1
_chemical_formula_structural   Ho2Si2O7
_chemical_formula_sum   'Ho8 Si8 O28'
_cell_volume   569.64063077
_cell_formula_units_Z   4
loop_
 _symmetry_equiv_pos_site_id
 _symmetry_equiv_pos_as_xyz
  1  'x, y, z'
loop_
 _atom_site_type_symbol
 _atom_site_label
 _atom_site_symmetry_multiplicity
 _atom_site_fract_x
 _atom_site_fract_y
 _atom_site_fract_z
 _atom_site_occupancy
  Ho  Ho0  1  0.842542  0.510046  0.625609  1
  Ho  Ho1  1  0.157458  0.010046  0.374391  1
  Ho  Ho2  1  0.657458  0.510046  0.125609  1
  Ho  Ho3  1  0.342542  0.010046  0.874391  1
  Ho  Ho4  1  0.842542  0.989954  0.625609  1
  Ho  Ho5  1  0.157458  0.489954  0.374391  1
  Ho  Ho6  1  0.657458  0.989954  0.125609  1
  Ho  Ho7  1  0.342542  0.489954  0.874391  1
  Si  Si8  1  0.125815  0.250000  0.040817  1
  Si  Si9  1  0.874185  0.750000  0.959183  1
  Si  Si10  1  0.374185  0.250000  0.540817  1
  Si  Si11  1  0.625815  0.750000  0.459183  1
  Si  Si12  1  0.880164  0.250000  0.818213  1
  Si  Si13  1  0.119836  0.750000  0.181787  1
  Si  Si14  1  0.619836  0.250000  0.318213  1
  Si  Si15  1  0.380164  0.750000  0.681787  1
  O  O16  1  0.847836  0.250000  0.100179  1
  O  O17  1  0.152164  0.750000  0.899821  1
  O  O18  1  0.652164  0.250000  0.600179  1
  O  O19  1  0.347836  0.750000  0.399821  1
  O  O20  1  0.294003  0.419672  0.047661  1
  O  O21  1  0.705997  0.919672  0.952339  1
  O  O22  1  0.205997  0.419672  0.547661  1
  O  O23  1  0.794003  0.919672  0.452339  1
  O  O24  1  0.294003  0.080328  0.047661  1
  O  O25  1  0.705997  0.580328  0.952339  1
  O  O26  1  0.205997  0.080328  0.547661  1
  O  O27  1  0.794003  0.580328  0.452339  1
  O  O28  1  0.066449  0.250000  0.919511  1
  O  O29  1  0.933551  0.750000  0.080489  1
  O  O30  1  0.433551  0.250000  0.419511  1
  O  O31  1  0.566449  0.750000  0.580489  1
  O  O32  1  0.491523  0.584426  0.733505  1
  O  O33  1  0.508477  0.084426  0.266495  1
  O  O34  1  0.008477  0.584426  0.233505  1
  O  O35  1  0.991523  0.084426  0.766495  1
  O  O36  1  0.491523  0.915574  0.733505  1
  O  O37  1  0.508477  0.415574  0.266495  1
  O  O38  1  0.008477  0.915574  0.233505  1
  O  O39  1  0.991523  0.415574  0.766495  1
  O  O40  1  0.068740  0.750000  0.655098  1
  O  O41  1  0.931260  0.250000  0.344902  1
  O  O42  1  0.431260  0.750000  0.155098  1
  O  O43  1  0.568740  0.250000  0.844902  1
