# generated using pymatgen
data_MnCoSi
_symmetry_space_group_name_H-M   'P 1'
_cell_length_a   3.66037994
_cell_length_b   5.72787072
_cell_length_c   6.86812959
_cell_angle_alpha   90.00000000
_cell_angle_beta   90.00000000
_cell_angle_gamma   90.00000000
_symmetry_Int_Tables_number   1
_chemical_formula_structural   MnCoSi
_chemical_formula_sum   'Mn4 Co4 Si4'
_cell_volume   143.99846242
_cell_formula_units_Z   4
loop_
 _symmetry_equiv_pos_site_id
 _symmetry_equiv_pos_as_xyz
  1  'x, y, z'
loop_
 _atom_site_type_symbol
 _atom_site_label
 _atom_site_symmetry_multiplicity
 _atom_site_fract_x
 _atom_site_fract_y
 _atom_site_fract_z
 _atom_site_occupancy
  Mn  Mn0  1  0.750000  0.972744  0.184034  1
  Mn  Mn1  1  0.250000  0.027256  0.815966  1
  Mn  Mn2  1  0.750000  0.472744  0.315966  1
  Mn  Mn3  1  0.250000  0.527256  0.684034  1
  Co  Co4  1  0.250000  0.657866  0.059737  1
  Co  Co5  1  0.750000  0.342134  0.940263  1
  Co  Co6  1  0.250000  0.157866  0.440263  1
  Co  Co7  1  0.750000  0.842134  0.559737  1
  Si  Si8  1  0.250000  0.266565  0.123202  1
  Si  Si9  1  0.750000  0.733435  0.876798  1
  Si  Si10  1  0.250000  0.766565  0.376798  1
  Si  Si11  1  0.750000  0.233435  0.623202  1
