# generated using pymatgen
data_HoPtF7
_symmetry_space_group_name_H-M   'P 1'
_cell_length_a   8.85554933
_cell_length_b   5.53290255
_cell_length_c   11.96289461
_cell_angle_alpha   90.00000000
_cell_angle_beta   117.50541738
_cell_angle_gamma   90.00000000
_symmetry_Int_Tables_number   1
_chemical_formula_structural   HoPtF7
_chemical_formula_sum   'Ho4 Pt4 F28'
_cell_volume   519.89106043
_cell_formula_units_Z   4
loop_
 _symmetry_equiv_pos_site_id
 _symmetry_equiv_pos_as_xyz
  1  'x, y, z'
loop_
 _atom_site_type_symbol
 _atom_site_label
 _atom_site_symmetry_multiplicity
 _atom_site_fract_x
 _atom_site_fract_y
 _atom_site_fract_z
 _atom_site_occupancy
  Ho  Ho0  1  0.814226  0.761000  0.235666  1
  Ho  Ho1  1  0.185774  0.261000  0.264334  1
  Ho  Ho2  1  0.185774  0.239000  0.764334  1
  Ho  Ho3  1  0.814226  0.739000  0.735666  1
  Pt  Pt4  1  0.272328  0.759025  0.043124  1
  Pt  Pt5  1  0.727672  0.259025  0.456876  1
  Pt  Pt6  1  0.727672  0.240975  0.956876  1
  Pt  Pt7  1  0.272328  0.740975  0.543124  1
  F  F8  1  0.703022  0.436722  0.084633  1
  F  F9  1  0.296978  0.936722  0.415367  1
  F  F10  1  0.296978  0.563278  0.915367  1
  F  F11  1  0.703022  0.063278  0.584633  1
  F  F12  1  0.277640  0.439305  0.456957  1
  F  F13  1  0.722360  0.939305  0.043043  1
  F  F14  1  0.722360  0.560695  0.543043  1
  F  F15  1  0.277640  0.060695  0.956957  1
  F  F16  1  0.522159  0.774965  0.141797  1
  F  F17  1  0.477841  0.274965  0.358203  1
  F  F18  1  0.477841  0.225035  0.858203  1
  F  F19  1  0.522159  0.725035  0.641797  1
  F  F20  1  0.022653  0.754137  0.949417  1
  F  F21  1  0.977347  0.254137  0.550583  1
  F  F22  1  0.977347  0.245863  0.050583  1
  F  F23  1  0.022653  0.745863  0.449417  1
  F  F24  1  0.725120  0.965459  0.363342  1
  F  F25  1  0.274880  0.465459  0.136658  1
  F  F26  1  0.274880  0.034541  0.636658  1
  F  F27  1  0.725120  0.534541  0.863342  1
  F  F28  1  0.746109  0.051030  0.824222  1
  F  F29  1  0.253891  0.551030  0.675778  1
  F  F30  1  0.253891  0.948970  0.175778  1
  F  F31  1  0.746109  0.448970  0.324222  1
  F  F32  1  0.970184  0.415942  0.767271  1
  F  F33  1  0.029816  0.915942  0.732729  1
  F  F34  1  0.029816  0.584058  0.232729  1
  F  F35  1  0.970184  0.084058  0.267271  1
