# generated using pymatgen
data_BaCe2FeS5
_symmetry_space_group_name_H-M   'P 1'
_cell_length_a   8.68659509
_cell_length_b   8.68659509
_cell_length_c   8.68659509
_cell_angle_alpha   126.57917728
_cell_angle_beta   126.57917728
_cell_angle_gamma   78.93828974
_symmetry_Int_Tables_number   1
_chemical_formula_structural   BaCe2FeS5
_chemical_formula_sum   'Ba2 Ce4 Fe2 S10'
_cell_volume   408.91287109
_cell_formula_units_Z   2
loop_
 _symmetry_equiv_pos_site_id
 _symmetry_equiv_pos_as_xyz
  1  'x, y, z'
loop_
 _atom_site_type_symbol
 _atom_site_label
 _atom_site_symmetry_multiplicity
 _atom_site_fract_x
 _atom_site_fract_y
 _atom_site_fract_z
 _atom_site_occupancy
  Ba  Ba0  1  0.750000  0.750000  0.000000  1
  Ba  Ba1  1  0.250000  0.250000  0.000000  1
  Ce  Ce2  1  0.839186  0.660814  0.500000  1
  Ce  Ce3  1  0.660814  0.160814  0.821627  1
  Ce  Ce4  1  0.339186  0.839186  0.178373  1
  Ce  Ce5  1  0.160814  0.339186  0.500000  1
  Fe  Fe6  1  0.250000  0.750000  0.500000  1
  Fe  Fe7  1  0.750000  0.250000  0.500000  1
  S  S8  1  0.985473  0.485473  0.201066  1
  S  S9  1  0.715593  0.215593  0.201066  1
  S  S10  1  0.014527  0.514527  0.798934  1
  S  S11  1  0.514527  0.715593  0.500000  1
  S  S12  1  0.215593  0.014527  0.500000  1
  S  S13  1  0.485473  0.284407  0.500000  1
  S  S14  1  0.784407  0.985473  0.500000  1
  S  S15  1  0.284407  0.784407  0.798934  1
  S  S16  1  0.000000  0.000000  0.000000  1
  S  S17  1  0.500000  0.500000  0.000000  1
