# generated using pymatgen
data_LaSnPd
_symmetry_space_group_name_H-M   'P 1'
_cell_length_a   7.73637769
_cell_length_b   7.73637769
_cell_length_c   4.22911393
_cell_angle_alpha   90.00000000
_cell_angle_beta   90.00000000
_cell_angle_gamma   120.00000000
_symmetry_Int_Tables_number   1
_chemical_formula_structural   LaSnPd
_chemical_formula_sum   'La3 Sn3 Pd3'
_cell_volume   219.20746719
_cell_formula_units_Z   3
loop_
 _symmetry_equiv_pos_site_id
 _symmetry_equiv_pos_as_xyz
  1  'x, y, z'
loop_
 _atom_site_type_symbol
 _atom_site_label
 _atom_site_symmetry_multiplicity
 _atom_site_fract_x
 _atom_site_fract_y
 _atom_site_fract_z
 _atom_site_occupancy
  La  La0  1  0.000000  0.585557  0.000000  1
  La  La1  1  0.414443  0.414443  0.000000  1
  La  La2  1  0.585557  0.000000  0.000000  1
  Sn  Sn3  1  0.752131  0.752131  0.500000  1
  Sn  Sn4  1  0.000000  0.247869  0.500000  1
  Sn  Sn5  1  0.247869  0.000000  0.500000  1
  Pd  Pd6  1  0.666667  0.333333  0.500000  1
  Pd  Pd7  1  0.000000  0.000000  0.000000  1
  Pd  Pd8  1  0.333333  0.666667  0.500000  1
