# generated using pymatgen
data_Na3AlP8O23
_symmetry_space_group_name_H-M   'P 1'
_cell_length_a   12.09100746
_cell_length_b   12.09100746
_cell_length_c   12.09100746
_cell_angle_alpha   90.00000000
_cell_angle_beta   90.00000000
_cell_angle_gamma   90.00000000
_symmetry_Int_Tables_number   1
_chemical_formula_structural   Na3AlP8O23
_chemical_formula_sum   'Na12 Al4 P32 O92'
_cell_volume   1767.61414136
_cell_formula_units_Z   4
loop_
 _symmetry_equiv_pos_site_id
 _symmetry_equiv_pos_as_xyz
  1  'x, y, z'
loop_
 _atom_site_type_symbol
 _atom_site_label
 _atom_site_symmetry_multiplicity
 _atom_site_fract_x
 _atom_site_fract_y
 _atom_site_fract_z
 _atom_site_occupancy
  Na  Na0  1  0.375000  0.956076  0.793924  1
  Na  Na1  1  0.293924  0.125000  0.043924  1
  Na  Na2  1  0.456076  0.706076  0.625000  1
  Na  Na3  1  0.543924  0.206076  0.875000  1
  Na  Na4  1  0.875000  0.543924  0.206076  1
  Na  Na5  1  0.125000  0.043924  0.293924  1
  Na  Na6  1  0.625000  0.456076  0.706076  1
  Na  Na7  1  0.956076  0.793924  0.375000  1
  Na  Na8  1  0.043924  0.293924  0.125000  1
  Na  Na9  1  0.706076  0.625000  0.456076  1
  Na  Na10  1  0.793924  0.375000  0.956076  1
  Na  Na11  1  0.206076  0.875000  0.543924  1
  Al  Al12  1  0.125000  0.625000  0.875000  1
  Al  Al13  1  0.375000  0.375000  0.375000  1
  Al  Al14  1  0.875000  0.125000  0.625000  1
  Al  Al15  1  0.625000  0.875000  0.125000  1
  P  P16  1  0.635374  0.354492  0.430844  1
  P  P17  1  0.645508  0.930844  0.864626  1
  P  P18  1  0.430844  0.635374  0.354492  1
  P  P19  1  0.930844  0.864626  0.645508  1
  P  P20  1  0.854492  0.069156  0.364626  1
  P  P21  1  0.069156  0.364626  0.854492  1
  P  P22  1  0.354492  0.430844  0.635374  1
  P  P23  1  0.145508  0.569156  0.135374  1
  P  P24  1  0.569156  0.135374  0.145508  1
  P  P25  1  0.395508  0.114626  0.319156  1
  P  P26  1  0.104492  0.885374  0.819156  1
  P  P27  1  0.680844  0.895508  0.385374  1
  P  P28  1  0.319156  0.395508  0.114626  1
  P  P29  1  0.885374  0.819156  0.104492  1
  P  P30  1  0.385374  0.680844  0.895508  1
  P  P31  1  0.135374  0.145508  0.569156  1
  P  P32  1  0.864626  0.645508  0.930844  1
  P  P33  1  0.364626  0.854492  0.069156  1
  P  P34  1  0.895508  0.385374  0.680844  1
  P  P35  1  0.604492  0.614626  0.180844  1
  P  P36  1  0.819156  0.104492  0.885374  1
  P  P37  1  0.180844  0.604492  0.614626  1
  P  P38  1  0.114626  0.319156  0.395508  1
  P  P39  1  0.614626  0.180844  0.604492  1
  P  P40  1  0.017749  0.017749  0.017749  1
  P  P41  1  0.267749  0.232251  0.767749  1
  P  P42  1  0.767749  0.267749  0.232251  1
  P  P43  1  0.232251  0.767749  0.267749  1
  P  P44  1  0.482251  0.982251  0.517749  1
  P  P45  1  0.517749  0.482251  0.982251  1
  P  P46  1  0.982251  0.517749  0.482251  1
  P  P47  1  0.732251  0.732251  0.732251  1
  O  O48  1  0.661467  0.661467  0.661467  1
  O  O49  1  0.911467  0.588533  0.411467  1
  O  O50  1  0.588533  0.411467  0.911467  1
  O  O51  1  0.411467  0.911467  0.588533  1
  O  O52  1  0.161467  0.838533  0.338533  1
  O  O53  1  0.838533  0.338533  0.161467  1
  O  O54  1  0.338533  0.161467  0.838533  1
  O  O55  1  0.088533  0.088533  0.088533  1
  O  O56  1  0.437388  0.511078  0.677488  1
  O  O57  1  0.937388  0.988922  0.322512  1
  O  O58  1  0.511078  0.677488  0.437388  1
  O  O59  1  0.488922  0.177488  0.062612  1
  O  O60  1  0.677488  0.437388  0.511078  1
  O  O61  1  0.822512  0.562612  0.011078  1
  O  O62  1  0.187388  0.927488  0.738922  1
  O  O63  1  0.687388  0.572512  0.261078  1
  O  O64  1  0.812612  0.427488  0.761078  1
  O  O65  1  0.572512  0.261078  0.687388  1
  O  O66  1  0.761078  0.812612  0.427488  1
  O  O67  1  0.261078  0.687388  0.572512  1
  O  O68  1  0.927488  0.738922  0.187388  1
  O  O69  1  0.738922  0.187388  0.927488  1
  O  O70  1  0.427488  0.761078  0.812612  1
  O  O71  1  0.072512  0.238922  0.312612  1
  O  O72  1  0.238922  0.312612  0.072512  1
  O  O73  1  0.322512  0.937388  0.988922  1
  O  O74  1  0.177488  0.062612  0.488922  1
  O  O75  1  0.011078  0.822512  0.562612  1
  O  O76  1  0.988922  0.322512  0.937388  1
  O  O77  1  0.062612  0.488922  0.177488  1
  O  O78  1  0.562612  0.011078  0.822512  1
  O  O79  1  0.312612  0.072512  0.238922  1
  O  O80  1  0.375000  0.732420  0.017580  1
  O  O81  1  0.517580  0.125000  0.267580  1
  O  O82  1  0.734343  0.329781  0.341884  1
  O  O83  1  0.232420  0.482420  0.625000  1
  O  O84  1  0.982420  0.875000  0.767580  1
  O  O85  1  0.017580  0.375000  0.732420  1
  O  O86  1  0.482420  0.625000  0.232420  1
  O  O87  1  0.267580  0.517580  0.125000  1
  O  O88  1  0.732420  0.017580  0.375000  1
  O  O89  1  0.625000  0.232420  0.482420  1
  O  O90  1  0.125000  0.267580  0.517580  1
  O  O91  1  0.875000  0.767580  0.982420  1
  O  O92  1  0.329781  0.341884  0.734343  1
  O  O93  1  0.829781  0.158116  0.265657  1
  O  O94  1  0.341884  0.734343  0.329781  1
  O  O95  1  0.658116  0.234343  0.170219  1
  O  O96  1  0.031859  0.122460  0.633455  1
  O  O97  1  0.281859  0.616545  0.872460  1
  O  O98  1  0.781859  0.883455  0.127540  1
  O  O99  1  0.383455  0.372460  0.218141  1
  O  O100  1  0.616545  0.872460  0.281859  1
  O  O101  1  0.127540  0.781859  0.883455  1
  O  O102  1  0.372460  0.218141  0.383455  1
  O  O103  1  0.633455  0.031859  0.122460  1
  O  O104  1  0.122460  0.633455  0.031859  1
  O  O105  1  0.377540  0.366545  0.531859  1
  O  O106  1  0.133455  0.468141  0.877540  1
  O  O107  1  0.877540  0.133455  0.468141  1
  O  O108  1  0.866545  0.968141  0.622460  1
  O  O109  1  0.366545  0.531859  0.377540  1
  O  O110  1  0.622460  0.866545  0.968141  1
  O  O111  1  0.531859  0.377540  0.366545  1
  O  O112  1  0.968141  0.622460  0.866545  1
  O  O113  1  0.468141  0.877540  0.133455  1
  O  O114  1  0.872460  0.281859  0.616545  1
  O  O115  1  0.627540  0.718141  0.116545  1
  O  O116  1  0.883455  0.127540  0.781859  1
  O  O117  1  0.116545  0.627540  0.718141  1
  O  O118  1  0.218141  0.383455  0.372460  1
  O  O119  1  0.718141  0.116545  0.627540  1
  O  O120  1  0.420219  0.015657  0.408116  1
  O  O121  1  0.670219  0.841884  0.765657  1
  O  O122  1  0.170219  0.658116  0.234343  1
  O  O123  1  0.158116  0.265657  0.829781  1
  O  O124  1  0.841884  0.765657  0.670219  1
  O  O125  1  0.234343  0.170219  0.658116  1
  O  O126  1  0.265657  0.829781  0.158116  1
  O  O127  1  0.408116  0.420219  0.015657  1
  O  O128  1  0.015657  0.408116  0.420219  1
  O  O129  1  0.484343  0.591884  0.920219  1
  O  O130  1  0.908116  0.079781  0.984343  1
  O  O131  1  0.984343  0.908116  0.079781  1
  O  O132  1  0.091884  0.579781  0.515657  1
  O  O133  1  0.591884  0.920219  0.484343  1
  O  O134  1  0.515657  0.091884  0.579781  1
  O  O135  1  0.920219  0.484343  0.591884  1
  O  O136  1  0.579781  0.515657  0.091884  1
  O  O137  1  0.079781  0.984343  0.908116  1
  O  O138  1  0.765657  0.670219  0.841884  1
  O  O139  1  0.767580  0.982420  0.875000  1
