# generated using pymatgen
data_Mg(As2Rh3)2
_symmetry_space_group_name_H-M   'P 1'
_cell_length_a   7.38900041
_cell_length_b   7.38900041
_cell_length_c   3.63731842
_cell_angle_alpha   90.00000000
_cell_angle_beta   90.00000000
_cell_angle_gamma   120.00000000
_symmetry_Int_Tables_number   1
_chemical_formula_structural   Mg(As2Rh3)2
_chemical_formula_sum   'Mg1 As4 Rh6'
_cell_volume   171.98213445
_cell_formula_units_Z   1
loop_
 _symmetry_equiv_pos_site_id
 _symmetry_equiv_pos_as_xyz
  1  'x, y, z'
loop_
 _atom_site_type_symbol
 _atom_site_label
 _atom_site_symmetry_multiplicity
 _atom_site_fract_x
 _atom_site_fract_y
 _atom_site_fract_z
 _atom_site_occupancy
  Mg  Mg0  1  0.000000  0.000000  0.000000  1
  As  As1  1  0.812013  0.187987  0.500000  1
  As  As2  1  0.375973  0.187987  0.500000  1
  As  As3  1  0.333333  0.666667  0.000000  1
  As  As4  1  0.812013  0.624027  0.500000  1
  Rh  Rh5  1  0.192133  0.807867  0.500000  1
  Rh  Rh6  1  0.192133  0.384267  0.500000  1
  Rh  Rh7  1  0.534368  0.068736  0.000000  1
  Rh  Rh8  1  0.931264  0.465632  0.000000  1
  Rh  Rh9  1  0.534368  0.465632  0.000000  1
  Rh  Rh10  1  0.615733  0.807867  0.500000  1
