# generated using pymatgen
data_Mn3(BO3)2
_symmetry_space_group_name_H-M   'P 1'
_cell_length_a   4.69792438
_cell_length_b   5.76365521
_cell_length_c   8.83175317
_cell_angle_alpha   90.00000000
_cell_angle_beta   90.00000000
_cell_angle_gamma   90.00000000
_symmetry_Int_Tables_number   1
_chemical_formula_structural   Mn3(BO3)2
_chemical_formula_sum   'Mn6 B4 O12'
_cell_volume   239.13929115
_cell_formula_units_Z   2
loop_
 _symmetry_equiv_pos_site_id
 _symmetry_equiv_pos_as_xyz
  1  'x, y, z'
loop_
 _atom_site_type_symbol
 _atom_site_label
 _atom_site_symmetry_multiplicity
 _atom_site_fract_x
 _atom_site_fract_y
 _atom_site_fract_z
 _atom_site_occupancy
  Mn  Mn0  1  0.000000  0.500000  0.811969  1
  Mn  Mn1  1  0.500000  0.000000  0.688031  1
  Mn  Mn2  1  0.000000  0.500000  0.188031  1
  Mn  Mn3  1  0.500000  0.000000  0.311969  1
  Mn  Mn4  1  0.500000  0.500000  0.500000  1
  Mn  Mn5  1  0.000000  0.000000  0.000000  1
  B  B6  1  0.038392  0.243133  0.500000  1
  B  B7  1  0.461608  0.743133  0.000000  1
  B  B8  1  0.961608  0.756867  0.500000  1
  B  B9  1  0.538392  0.256867  0.000000  1
  O  O10  1  0.311777  0.787648  0.134343  1
  O  O11  1  0.811777  0.712352  0.365657  1
  O  O12  1  0.311777  0.787648  0.865657  1
  O  O13  1  0.688223  0.212352  0.865657  1
  O  O14  1  0.811777  0.712352  0.634343  1
  O  O15  1  0.188223  0.287648  0.634343  1
  O  O16  1  0.253320  0.318090  0.000000  1
  O  O17  1  0.753320  0.181910  0.500000  1
  O  O18  1  0.246680  0.818090  0.500000  1
  O  O19  1  0.746680  0.681910  0.000000  1
  O  O20  1  0.688223  0.212352  0.134343  1
  O  O21  1  0.188223  0.287648  0.365657  1
