# generated using pymatgen
data_EuFeO3
_symmetry_space_group_name_H-M   'P 1'
_cell_length_a   5.52242725
_cell_length_b   5.52242725
_cell_length_c   5.52242725
_cell_angle_alpha   120.33490169
_cell_angle_beta   119.50902804
_cell_angle_gamma   90.13669857
_symmetry_Int_Tables_number   1
_chemical_formula_structural   EuFeO3
_chemical_formula_sum   'Eu2 Fe2 O6'
_cell_volume   119.22230258
_cell_formula_units_Z   2
loop_
 _symmetry_equiv_pos_site_id
 _symmetry_equiv_pos_as_xyz
  1  'x, y, z'
loop_
 _atom_site_type_symbol
 _atom_site_label
 _atom_site_symmetry_multiplicity
 _atom_site_fract_x
 _atom_site_fract_y
 _atom_site_fract_z
 _atom_site_occupancy
  Eu  Eu0  1  0.260913  0.750000  0.510913  1
  Eu  Eu1  1  0.739087  0.250000  0.489087  1
  Fe  Fe2  1  0.000000  0.000000  1.000000  1
  Fe  Fe3  1  0.500000  0.500000  1.000000  1
  O  O4  1  0.297859  0.297859  0.500000  1
  O  O5  1  0.702141  0.202141  0.000000  1
  O  O6  1  0.702141  0.702141  0.500000  1
  O  O7  1  0.297859  0.797859  1.000000  1
  O  O8  1  0.163929  0.250000  0.913929  1
  O  O9  1  0.836071  0.750000  0.086071  1
