# generated using pymatgen
data_K2Al2Si3O10
_symmetry_space_group_name_H-M   'P 1'
_cell_length_a   12.68126012
_cell_length_b   9.85403583
_cell_length_c   9.26554697
_cell_angle_alpha   83.03668673
_cell_angle_beta   50.47287546
_cell_angle_gamma   46.49043780
_symmetry_Int_Tables_number   1
_chemical_formula_structural   K2Al2Si3O10
_chemical_formula_sum   'K4 Al4 Si6 O20'
_cell_volume   533.72019367
_cell_formula_units_Z   2
loop_
 _symmetry_equiv_pos_site_id
 _symmetry_equiv_pos_as_xyz
  1  'x, y, z'
loop_
 _atom_site_type_symbol
 _atom_site_label
 _atom_site_symmetry_multiplicity
 _atom_site_fract_x
 _atom_site_fract_y
 _atom_site_fract_z
 _atom_site_occupancy
  K  K0  1  0.967506  0.157633  0.614810  1
  K  K1  1  0.260052  0.614810  0.157633  1
  K  K2  1  0.635190  0.989948  0.282494  1
  K  K3  1  0.092367  0.282494  0.989948  1
  Al  Al4  1  0.573849  0.730526  0.996575  1
  Al  Al5  1  0.699050  0.996575  0.730526  1
  Al  Al6  1  0.253425  0.550950  0.676151  1
  Al  Al7  1  0.519474  0.676151  0.550950  1
  Si  Si8  1  0.255189  0.244811  0.244811  1
  Si  Si9  1  0.005189  0.994811  0.994811  1
  Si  Si10  1  0.551797  0.504831  0.236794  1
  Si  Si11  1  0.706579  0.236794  0.504831  1
  Si  Si12  1  0.013206  0.543421  0.698203  1
  Si  Si13  1  0.745169  0.698203  0.543421  1
  O  O14  1  0.343803  0.017659  0.213055  1
  O  O15  1  0.425483  0.213055  0.017659  1
  O  O16  1  0.036945  0.824517  0.906197  1
  O  O17  1  0.232341  0.906197  0.824517  1
  O  O18  1  0.507736  0.608579  0.102390  1
  O  O19  1  0.781295  0.102390  0.608579  1
  O  O20  1  0.147610  0.468705  0.742264  1
  O  O21  1  0.641421  0.742264  0.468705  1
  O  O22  1  0.835865  0.559373  0.875815  1
  O  O23  1  0.728946  0.875815  0.559373  1
  O  O24  1  0.374185  0.521054  0.414135  1
  O  O25  1  0.690627  0.414135  0.521054  1
  O  O26  1  0.529973  0.640167  0.360042  1
  O  O27  1  0.469818  0.360042  0.640167  1
  O  O28  1  0.889958  0.780182  0.720027  1
  O  O29  1  0.609833  0.720027  0.780182  1
  O  O30  1  0.816633  0.234270  0.035971  1
  O  O31  1  0.913127  0.035971  0.234270  1
  O  O32  1  0.214029  0.336873  0.433367  1
  O  O33  1  0.015730  0.433367  0.336873  1
