# generated using pymatgen
data_HoVO4
_symmetry_space_group_name_H-M   'P 1'
_cell_length_a   5.98177284
_cell_length_b   5.98177284
_cell_length_c   5.98177284
_cell_angle_alpha   106.30846470
_cell_angle_beta   106.30846470
_cell_angle_gamma   116.00075504
_symmetry_Int_Tables_number   1
_chemical_formula_structural   HoVO4
_chemical_formula_sum   'Ho2 V2 O8'
_cell_volume   163.14336573
_cell_formula_units_Z   2
loop_
 _symmetry_equiv_pos_site_id
 _symmetry_equiv_pos_as_xyz
  1  'x, y, z'
loop_
 _atom_site_type_symbol
 _atom_site_label
 _atom_site_symmetry_multiplicity
 _atom_site_fract_x
 _atom_site_fract_y
 _atom_site_fract_z
 _atom_site_occupancy
  Ho  Ho0  1  0.250000  0.750000  0.500000  1
  Ho  Ho1  1  1.000000  1.000000  0.000000  1
  V  V2  1  0.500000  0.500000  0.000000  1
  V  V3  1  0.750000  0.250000  0.500000  1
  O  O4  1  0.323197  0.137927  0.814730  1
  O  O5  1  0.387927  0.073197  0.314730  1
  O  O6  1  0.758468  0.073197  0.685270  1
  O  O7  1  0.323197  0.508468  0.185270  1
  O  O8  1  0.926803  0.612073  0.685270  1
  O  O9  1  0.862073  0.676803  0.185270  1
  O  O10  1  0.491532  0.676803  0.814730  1
  O  O11  1  0.926803  0.241532  0.314730  1
