# generated using pymatgen
data_TbInCu
_symmetry_space_group_name_H-M   'P 1'
_cell_length_a   7.46304080
_cell_length_b   7.46304080
_cell_length_c   3.97729751
_cell_angle_alpha   90.00000000
_cell_angle_beta   90.00000000
_cell_angle_gamma   120.00000000
_symmetry_Int_Tables_number   1
_chemical_formula_structural   TbInCu
_chemical_formula_sum   'Tb3 In3 Cu3'
_cell_volume   191.84493678
_cell_formula_units_Z   3
loop_
 _symmetry_equiv_pos_site_id
 _symmetry_equiv_pos_as_xyz
  1  'x, y, z'
loop_
 _atom_site_type_symbol
 _atom_site_label
 _atom_site_symmetry_multiplicity
 _atom_site_fract_x
 _atom_site_fract_y
 _atom_site_fract_z
 _atom_site_occupancy
  Tb  Tb0  1  0.000000  0.589463  0.500000  1
  Tb  Tb1  1  0.410537  0.410537  0.500000  1
  Tb  Tb2  1  0.589463  0.000000  0.500000  1
  In  In3  1  0.746597  0.746597  0.000000  1
  In  In4  1  0.000000  0.253403  0.000000  1
  In  In5  1  0.253403  0.000000  0.000000  1
  Cu  Cu6  1  0.333333  0.666667  0.000000  1
  Cu  Cu7  1  0.000000  0.000000  0.500000  1
  Cu  Cu8  1  0.666667  0.333333  0.000000  1
