# generated using pymatgen
data_Zr5Ge3
_symmetry_space_group_name_H-M   'P 1'
_cell_length_a   8.10713285
_cell_length_b   8.10713285
_cell_length_c   5.64891208
_cell_angle_alpha   90.00000000
_cell_angle_beta   90.00000000
_cell_angle_gamma   120.00000000
_symmetry_Int_Tables_number   1
_chemical_formula_structural   Zr5Ge3
_chemical_formula_sum   'Zr10 Ge6'
_cell_volume   321.53631229
_cell_formula_units_Z   2
loop_
 _symmetry_equiv_pos_site_id
 _symmetry_equiv_pos_as_xyz
  1  'x, y, z'
loop_
 _atom_site_type_symbol
 _atom_site_label
 _atom_site_symmetry_multiplicity
 _atom_site_fract_x
 _atom_site_fract_y
 _atom_site_fract_z
 _atom_site_occupancy
  Zr  Zr0  1  0.000000  0.746230  0.750000  1
  Zr  Zr1  1  0.000000  0.253770  0.250000  1
  Zr  Zr2  1  0.746230  0.746230  0.250000  1
  Zr  Zr3  1  0.746230  0.000000  0.750000  1
  Zr  Zr4  1  0.253770  0.253770  0.750000  1
  Zr  Zr5  1  0.253770  0.000000  0.250000  1
  Zr  Zr6  1  0.333333  0.666667  0.500000  1
  Zr  Zr7  1  0.666667  0.333333  0.000000  1
  Zr  Zr8  1  0.666667  0.333333  0.500000  1
  Zr  Zr9  1  0.333333  0.666667  0.000000  1
  Ge  Ge10  1  0.388503  0.000000  0.750000  1
  Ge  Ge11  1  0.388503  0.388503  0.250000  1
  Ge  Ge12  1  0.000000  0.611497  0.250000  1
  Ge  Ge13  1  0.000000  0.388503  0.750000  1
  Ge  Ge14  1  0.611497  0.611497  0.750000  1
  Ge  Ge15  1  0.611497  0.000000  0.250000  1
