# generated using pymatgen
data_Y3Fe29
_symmetry_space_group_name_H-M   'P 1'
_cell_length_a   6.41619741
_cell_length_b   6.41619741
_cell_length_c   10.47133245
_cell_angle_alpha   85.13818192
_cell_angle_beta   94.86181808
_cell_angle_gamma   97.32720938
_symmetry_Int_Tables_number   1
_chemical_formula_structural   Y3Fe29
_chemical_formula_sum   'Y3 Fe29'
_cell_volume   424.82677814
_cell_formula_units_Z   1
loop_
 _symmetry_equiv_pos_site_id
 _symmetry_equiv_pos_as_xyz
  1  'x, y, z'
loop_
 _atom_site_type_symbol
 _atom_site_label
 _atom_site_symmetry_multiplicity
 _atom_site_fract_x
 _atom_site_fract_y
 _atom_site_fract_z
 _atom_site_occupancy
  Y  Y0  1  0.000000  0.000000  0.000000  1
  Y  Y1  1  0.187941  0.812059  0.598177  1
  Y  Y2  1  0.812059  0.187941  0.401823  1
  Fe  Fe3  1  0.500000  0.500000  0.500000  1
  Fe  Fe4  1  0.290472  0.709528  0.140591  1
  Fe  Fe5  1  0.709528  0.290472  0.859409  1
  Fe  Fe6  1  0.520294  0.479706  0.254172  1
  Fe  Fe7  1  0.479706  0.520294  0.745828  1
  Fe  Fe8  1  0.126873  0.310985  0.197570  1
  Fe  Fe9  1  0.310985  0.126873  0.802430  1
  Fe  Fe10  1  0.873127  0.689015  0.802430  1
  Fe  Fe11  1  0.689015  0.873127  0.197570  1
  Fe  Fe12  1  0.164681  0.539337  0.378141  1
  Fe  Fe13  1  0.539337  0.164681  0.621859  1
  Fe  Fe14  1  0.835319  0.460663  0.621859  1
  Fe  Fe15  1  0.460663  0.835319  0.378141  1
  Fe  Fe16  1  0.641615  0.641615  0.000000  1
  Fe  Fe17  1  0.358385  0.358385  0.000000  1
  Fe  Fe18  1  0.277964  0.722036  0.891984  1
  Fe  Fe19  1  0.722036  0.277964  0.108016  1
  Fe  Fe20  1  0.407292  0.097781  0.198133  1
  Fe  Fe21  1  0.097781  0.407292  0.801867  1
  Fe  Fe22  1  0.592708  0.902219  0.801867  1
  Fe  Fe23  1  0.902219  0.592708  0.198133  1
  Fe  Fe24  1  0.907819  0.092181  0.708342  1
  Fe  Fe25  1  0.092181  0.907819  0.291658  1
  Fe  Fe26  1  0.313986  0.187466  0.404858  1
  Fe  Fe27  1  0.187466  0.313986  0.595142  1
  Fe  Fe28  1  0.686014  0.812534  0.595142  1
  Fe  Fe29  1  0.812534  0.686014  0.404858  1
  Fe  Fe30  1  0.500000  0.000000  0.000000  1
  Fe  Fe31  1  0.000000  0.500000  0.000000  1
