# generated using pymatgen
data_Ce(BRu)2
_symmetry_space_group_name_H-M   'P 1'
_cell_length_a   6.71765368
_cell_length_b   5.98982145
_cell_length_c   5.55951478
_cell_angle_alpha   71.02171730
_cell_angle_beta   57.47801396
_cell_angle_gamma   51.50026874
_symmetry_Int_Tables_number   1
_chemical_formula_structural   Ce(BRu)2
_chemical_formula_sum   'Ce2 B4 Ru4'
_cell_volume   147.60213900
_cell_formula_units_Z   2
loop_
 _symmetry_equiv_pos_site_id
 _symmetry_equiv_pos_as_xyz
  1  'x, y, z'
loop_
 _atom_site_type_symbol
 _atom_site_label
 _atom_site_symmetry_multiplicity
 _atom_site_fract_x
 _atom_site_fract_y
 _atom_site_fract_z
 _atom_site_occupancy
  Ce  Ce0  1  0.750000  0.750000  0.750000  1
  Ce  Ce1  1  0.500000  0.500000  0.500000  1
  B  B2  1  0.066344  0.433656  0.066344  1
  B  B3  1  0.433656  0.066344  0.433656  1
  B  B4  1  0.816344  0.183656  0.816344  1
  B  B5  1  0.183656  0.816344  0.183656  1
  Ru  Ru6  1  0.111940  0.111940  0.388060  1
  Ru  Ru7  1  0.388060  0.388060  0.111940  1
  Ru  Ru8  1  0.861940  0.861940  0.138060  1
  Ru  Ru9  1  0.138060  0.138060  0.861940  1
