# generated using pymatgen
data_UF5
_symmetry_space_group_name_H-M   'P 1'
_cell_length_a   5.36763942
_cell_length_b   5.36763942
_cell_length_c   5.36763942
_cell_angle_alpha   100.27984058
_cell_angle_beta   100.27984058
_cell_angle_gamma   130.02246732
_symmetry_Int_Tables_number   1
_chemical_formula_structural   UF5
_chemical_formula_sum   'U1 F5'
_cell_volume   107.34366521
_cell_formula_units_Z   1
loop_
 _symmetry_equiv_pos_site_id
 _symmetry_equiv_pos_as_xyz
  1  'x, y, z'
loop_
 _atom_site_type_symbol
 _atom_site_label
 _atom_site_symmetry_multiplicity
 _atom_site_fract_x
 _atom_site_fract_y
 _atom_site_fract_z
 _atom_site_occupancy
  U  U0  1  0.000000  0.000000  0.000000  1
  F  F1  1  0.104314  0.724247  0.828561  1
  F  F2  1  0.500000  0.500000  0.000000  1
  F  F3  1  0.895686  0.275753  0.171439  1
  F  F4  1  0.724247  0.895686  0.619933  1
  F  F5  1  0.275753  0.104314  0.380067  1
