# generated using pymatgen
data_Ca6MnN5
_symmetry_space_group_name_H-M   'P 1'
_cell_length_a   6.23311130
_cell_length_b   6.23311130
_cell_length_c   12.35204361
_cell_angle_alpha   90.00000000
_cell_angle_beta   90.00000000
_cell_angle_gamma   120.00000000
_symmetry_Int_Tables_number   1
_chemical_formula_structural   Ca6MnN5
_chemical_formula_sum   'Ca12 Mn2 N10'
_cell_volume   415.60351468
_cell_formula_units_Z   2
loop_
 _symmetry_equiv_pos_site_id
 _symmetry_equiv_pos_as_xyz
  1  'x, y, z'
loop_
 _atom_site_type_symbol
 _atom_site_label
 _atom_site_symmetry_multiplicity
 _atom_site_fract_x
 _atom_site_fract_y
 _atom_site_fract_z
 _atom_site_occupancy
  Ca  Ca0  1  0.000000  0.394449  0.881687  1
  Ca  Ca1  1  0.605551  0.605551  0.881687  1
  Ca  Ca2  1  0.605551  0.000000  0.118313  1
  Ca  Ca3  1  0.394449  0.000000  0.618313  1
  Ca  Ca4  1  0.394449  0.394449  0.381687  1
  Ca  Ca5  1  0.605551  0.000000  0.381687  1
  Ca  Ca6  1  0.394449  0.394449  0.118313  1
  Ca  Ca7  1  0.000000  0.605551  0.118313  1
  Ca  Ca8  1  0.000000  0.394449  0.618313  1
  Ca  Ca9  1  0.605551  0.605551  0.618313  1
  Ca  Ca10  1  0.394449  0.000000  0.881687  1
  Ca  Ca11  1  0.000000  0.605551  0.381687  1
  Mn  Mn12  1  0.000000  0.000000  0.750000  1
  Mn  Mn13  1  0.000000  0.000000  0.250000  1
  N  N14  1  0.713781  0.000000  0.750000  1
  N  N15  1  0.286219  0.286219  0.750000  1
  N  N16  1  0.286219  0.000000  0.250000  1
  N  N17  1  0.666667  0.333333  0.500000  1
  N  N18  1  0.333333  0.666667  0.000000  1
  N  N19  1  0.333333  0.666667  0.500000  1
  N  N20  1  0.666667  0.333333  0.000000  1
  N  N21  1  0.713781  0.713781  0.250000  1
  N  N22  1  0.000000  0.286219  0.250000  1
  N  N23  1  0.000000  0.713781  0.750000  1
