# generated using pymatgen
data_CeAlNi
_symmetry_space_group_name_H-M   'P 1'
_cell_length_a   6.88936328
_cell_length_b   6.88936328
_cell_length_c   4.04272369
_cell_angle_alpha   90.00000000
_cell_angle_beta   90.00000000
_cell_angle_gamma   120.00000000
_symmetry_Int_Tables_number   1
_chemical_formula_structural   CeAlNi
_chemical_formula_sum   'Ce3 Al3 Ni3'
_cell_volume   166.17391936
_cell_formula_units_Z   3
loop_
 _symmetry_equiv_pos_site_id
 _symmetry_equiv_pos_as_xyz
  1  'x, y, z'
loop_
 _atom_site_type_symbol
 _atom_site_label
 _atom_site_symmetry_multiplicity
 _atom_site_fract_x
 _atom_site_fract_y
 _atom_site_fract_z
 _atom_site_occupancy
  Ce  Ce0  1  0.000000  0.576324  0.500000  1
  Ce  Ce1  1  0.576324  0.000000  0.500000  1
  Ce  Ce2  1  0.423676  0.423676  0.500000  1
  Al  Al3  1  0.232306  0.000000  0.000000  1
  Al  Al4  1  0.767694  0.767694  0.000000  1
  Al  Al5  1  0.000000  0.232306  0.000000  1
  Ni  Ni6  1  0.333333  0.666667  0.000000  1
  Ni  Ni7  1  0.666667  0.333333  0.000000  1
  Ni  Ni8  1  0.000000  0.000000  0.500000  1
