# generated using pymatgen
data_Nd2MnNiO6
_symmetry_space_group_name_H-M   'P 1'
_cell_length_a   5.44420726
_cell_length_b   5.59806804
_cell_length_c   9.47412830
_cell_angle_alpha   90.00000000
_cell_angle_beta   125.11126174
_cell_angle_gamma   90.00000000
_symmetry_Int_Tables_number   1
_chemical_formula_structural   Nd2MnNiO6
_chemical_formula_sum   'Nd4 Mn2 Ni2 O12'
_cell_volume   236.20270292
_cell_formula_units_Z   2
loop_
 _symmetry_equiv_pos_site_id
 _symmetry_equiv_pos_as_xyz
  1  'x, y, z'
loop_
 _atom_site_type_symbol
 _atom_site_label
 _atom_site_symmetry_multiplicity
 _atom_site_fract_x
 _atom_site_fract_y
 _atom_site_fract_z
 _atom_site_occupancy
  Nd  Nd0  1  0.261951  0.446199  0.749397  1
  Nd  Nd1  1  0.738049  0.946199  0.750603  1
  Nd  Nd2  1  0.738049  0.553801  0.250603  1
  Nd  Nd3  1  0.261951  0.053801  0.249397  1
  Mn  Mn4  1  0.500000  0.000000  0.000000  1
  Mn  Mn5  1  0.500000  0.500000  0.500000  1
  Ni  Ni6  1  0.000000  0.000000  0.500000  1
  Ni  Ni7  1  0.000000  0.500000  0.000000  1
  O  O8  1  0.740606  0.199841  0.955831  1
  O  O9  1  0.259394  0.699841  0.544169  1
  O  O10  1  0.259394  0.800159  0.044169  1
  O  O11  1  0.740606  0.300159  0.455831  1
  O  O12  1  0.348258  0.216003  0.546510  1
  O  O13  1  0.651742  0.716003  0.953490  1
  O  O14  1  0.651742  0.783997  0.453490  1
  O  O15  1  0.348258  0.283997  0.046510  1
  O  O16  1  0.172580  0.478237  0.257730  1
  O  O17  1  0.827420  0.978237  0.242270  1
  O  O18  1  0.827420  0.521763  0.742270  1
  O  O19  1  0.172580  0.021763  0.757730  1
