# generated using pymatgen
data_LaP5
_symmetry_space_group_name_H-M   'P 1'
_cell_length_a   5.61140667
_cell_length_b   9.73887212
_cell_length_c   9.83017654
_cell_angle_alpha   90.00000000
_cell_angle_beta   105.38446616
_cell_angle_gamma   90.00000000
_symmetry_Int_Tables_number   1
_chemical_formula_structural   LaP5
_chemical_formula_sum   'La4 P20'
_cell_volume   517.95753121
_cell_formula_units_Z   4
loop_
 _symmetry_equiv_pos_site_id
 _symmetry_equiv_pos_as_xyz
  1  'x, y, z'
loop_
 _atom_site_type_symbol
 _atom_site_label
 _atom_site_symmetry_multiplicity
 _atom_site_fract_x
 _atom_site_fract_y
 _atom_site_fract_z
 _atom_site_occupancy
  La  La0  1  0.638350  0.750000  0.487015  1
  La  La1  1  0.610131  0.750000  0.965089  1
  La  La2  1  0.389869  0.250000  0.034911  1
  La  La3  1  0.361650  0.250000  0.512985  1
  P  P4  1  0.025611  0.594427  0.188936  1
  P  P5  1  0.974389  0.094427  0.811064  1
  P  P6  1  0.025611  0.905573  0.188936  1
  P  P7  1  0.588732  0.038776  0.343503  1
  P  P8  1  0.588732  0.461224  0.343503  1
  P  P9  1  0.411268  0.538776  0.656497  1
  P  P10  1  0.950419  0.414327  0.310469  1
  P  P11  1  0.629840  0.455485  0.862695  1
  P  P12  1  0.370160  0.955485  0.137305  1
  P  P13  1  0.974389  0.405573  0.811064  1
  P  P14  1  0.049581  0.914327  0.689531  1
  P  P15  1  0.370160  0.544515  0.137305  1
  P  P16  1  0.057319  0.750000  0.848230  1
  P  P17  1  0.083308  0.750000  0.360680  1
  P  P18  1  0.411268  0.961224  0.656497  1
  P  P19  1  0.942681  0.250000  0.151770  1
  P  P20  1  0.629840  0.044515  0.862695  1
  P  P21  1  0.950419  0.085673  0.310469  1
  P  P22  1  0.049581  0.585673  0.689531  1
  P  P23  1  0.916692  0.250000  0.639320  1
