# generated using pymatgen
data_Er3Ga5O12
_symmetry_space_group_name_H-M   'P 1'
_cell_length_a   10.69694501
_cell_length_b   10.69694501
_cell_length_c   10.69694501
_cell_angle_alpha   109.47122063
_cell_angle_beta   109.47122063
_cell_angle_gamma   109.47122063
_symmetry_Int_Tables_number   1
_chemical_formula_structural   Er3Ga5O12
_chemical_formula_sum   'Er12 Ga20 O48'
_cell_volume   942.23102115
_cell_formula_units_Z   4
loop_
 _symmetry_equiv_pos_site_id
 _symmetry_equiv_pos_as_xyz
  1  'x, y, z'
loop_
 _atom_site_type_symbol
 _atom_site_label
 _atom_site_symmetry_multiplicity
 _atom_site_fract_x
 _atom_site_fract_y
 _atom_site_fract_z
 _atom_site_occupancy
  Er  Er0  1  0.250000  0.875000  0.625000  1
  Er  Er1  1  0.875000  0.625000  0.250000  1
  Er  Er2  1  0.625000  0.875000  0.750000  1
  Er  Er3  1  0.875000  0.750000  0.625000  1
  Er  Er4  1  0.625000  0.250000  0.875000  1
  Er  Er5  1  0.750000  0.625000  0.875000  1
  Er  Er6  1  0.750000  0.125000  0.375000  1
  Er  Er7  1  0.125000  0.375000  0.750000  1
  Er  Er8  1  0.375000  0.125000  0.250000  1
  Er  Er9  1  0.125000  0.250000  0.375000  1
  Er  Er10  1  0.375000  0.750000  0.125000  1
  Er  Er11  1  0.250000  0.375000  0.125000  1
  Ga  Ga12  1  0.250000  0.125000  0.875000  1
  Ga  Ga13  1  0.750000  0.875000  0.125000  1
  Ga  Ga14  1  0.375000  0.250000  0.625000  1
  Ga  Ga15  1  0.625000  0.375000  0.250000  1
  Ga  Ga16  1  0.125000  0.750000  0.875000  1
  Ga  Ga17  1  0.875000  0.125000  0.750000  1
  Ga  Ga18  1  0.750000  0.375000  0.625000  1
  Ga  Ga19  1  0.375000  0.625000  0.750000  1
  Ga  Ga20  1  0.125000  0.875000  0.250000  1
  Ga  Ga21  1  0.875000  0.250000  0.125000  1
  Ga  Ga22  1  0.625000  0.750000  0.375000  1
  Ga  Ga23  1  0.250000  0.625000  0.375000  1
  Ga  Ga24  1  0.500000  0.500000  0.500000  1
  Ga  Ga25  1  0.500000  0.500000  0.000000  1
  Ga  Ga26  1  0.500000  1.000000  0.500000  1
  Ga  Ga27  1  1.000000  0.500000  0.500000  1
  Ga  Ga28  1  0.500000  1.000000  1.000000  1
  Ga  Ga29  1  1.000000  1.000000  0.500000  1
  Ga  Ga30  1  0.000000  0.500000  0.000000  1
  Ga  Ga31  1  0.000000  0.000000  0.000000  1
  O  O32  1  0.292626  0.469782  0.375557  1
  O  O33  1  0.030218  0.322844  0.905775  1
  O  O34  1  0.124443  0.594225  0.917069  1
  O  O35  1  0.207374  0.582931  0.177156  1
  O  O36  1  0.207374  0.124443  0.030218  1
  O  O37  1  0.582931  0.177156  0.207374  1
  O  O38  1  0.594225  0.177156  0.469782  1
  O  O39  1  0.177156  0.207374  0.582931  1
  O  O40  1  0.905775  0.375557  0.582931  1
  O  O41  1  0.322844  0.917069  0.292626  1
  O  O42  1  0.917069  0.292626  0.322844  1
  O  O43  1  0.030218  0.207374  0.124443  1
  O  O44  1  0.177156  0.469782  0.594225  1
  O  O45  1  0.582931  0.905775  0.375557  1
  O  O46  1  0.124443  0.030218  0.207374  1
  O  O47  1  0.469782  0.594225  0.177156  1
  O  O48  1  0.375557  0.582931  0.905775  1
  O  O49  1  0.905775  0.030218  0.322844  1
  O  O50  1  0.594225  0.917069  0.124443  1
  O  O51  1  0.094225  0.624443  0.417069  1
  O  O52  1  0.917069  0.124443  0.594225  1
  O  O53  1  0.375557  0.292626  0.469782  1
  O  O54  1  0.322844  0.905775  0.030218  1
  O  O55  1  0.292626  0.322844  0.917069  1
  O  O56  1  0.707374  0.530218  0.624443  1
  O  O57  1  0.969782  0.677156  0.094225  1
  O  O58  1  0.875557  0.405775  0.082931  1
  O  O59  1  0.792626  0.417069  0.822844  1
  O  O60  1  0.792626  0.875557  0.969782  1
  O  O61  1  0.417069  0.822844  0.792626  1
  O  O62  1  0.405775  0.822844  0.530218  1
  O  O63  1  0.822844  0.792626  0.417069  1
  O  O64  1  0.707374  0.677156  0.082931  1
  O  O65  1  0.677156  0.094225  0.969782  1
  O  O66  1  0.624443  0.707374  0.530218  1
  O  O67  1  0.530218  0.624443  0.707374  1
  O  O68  1  0.082931  0.875557  0.405775  1
  O  O69  1  0.405775  0.082931  0.875557  1
  O  O70  1  0.094225  0.969782  0.677156  1
  O  O71  1  0.624443  0.417069  0.094225  1
  O  O72  1  0.530218  0.405775  0.822844  1
  O  O73  1  0.875557  0.969782  0.792626  1
  O  O74  1  0.417069  0.094225  0.624443  1
  O  O75  1  0.822844  0.530218  0.405775  1
  O  O76  1  0.969782  0.792626  0.875557  1
  O  O77  1  0.082931  0.707374  0.677156  1
  O  O78  1  0.677156  0.082931  0.707374  1
  O  O79  1  0.469782  0.375557  0.292626  1
