# generated using pymatgen
data_Dy2Si5Ni3
_symmetry_space_group_name_H-M   'P 1'
_cell_length_a   7.86499896
_cell_length_b   7.86499896
_cell_length_c   7.86499896
_cell_angle_alpha   137.92547585
_cell_angle_beta   105.00798865
_cell_angle_gamma   89.92966458
_symmetry_Int_Tables_number   1
_chemical_formula_structural   Dy2Si5Ni3
_chemical_formula_sum   'Dy4 Si10 Ni6'
_cell_volume   300.87029065
_cell_formula_units_Z   2
loop_
 _symmetry_equiv_pos_site_id
 _symmetry_equiv_pos_as_xyz
  1  'x, y, z'
loop_
 _atom_site_type_symbol
 _atom_site_label
 _atom_site_symmetry_multiplicity
 _atom_site_fract_x
 _atom_site_fract_y
 _atom_site_fract_z
 _atom_site_occupancy
  Dy  Dy0  1  0.894714  0.131271  0.763443  1
  Dy  Dy1  1  0.105286  0.868729  0.236557  1
  Dy  Dy2  1  0.632172  0.368729  0.263443  1
  Dy  Dy3  1  0.367828  0.631271  0.736557  1
  Si  Si4  1  1.000000  0.750000  0.750000  1
  Si  Si5  1  1.000000  0.250000  0.250000  1
  Si  Si6  1  0.733200  0.483200  0.750000  1
  Si  Si7  1  0.266800  0.016800  0.750000  1
  Si  Si8  1  0.266800  0.516800  0.250000  1
  Si  Si9  1  0.733200  0.983200  0.250000  1
  Si  Si10  1  0.240016  0.392699  0.847316  1
  Si  Si11  1  0.545383  0.892699  0.652684  1
  Si  Si12  1  0.454617  0.107301  0.347316  1
  Si  Si13  1  0.759984  0.607301  0.152684  1
  Ni  Ni14  1  0.753491  0.865602  0.887889  1
  Ni  Ni15  1  0.500000  0.250000  0.750000  1
  Ni  Ni16  1  0.977713  0.365602  0.612111  1
  Ni  Ni17  1  0.022287  0.634398  0.387889  1
  Ni  Ni18  1  0.246509  0.134398  0.112111  1
  Ni  Ni19  1  0.500000  0.750000  0.250000  1
