# generated using pymatgen
data_Y(BIr)2
_symmetry_space_group_name_H-M   'P 1'
_cell_length_a   7.13898464
_cell_length_b   6.15978922
_cell_length_c   5.50696135
_cell_angle_alpha   75.22253074
_cell_angle_beta   56.54289867
_cell_angle_gamma   48.23457060
_symmetry_Int_Tables_number   1
_chemical_formula_structural   Y(BIr)2
_chemical_formula_sum   'Y2 B4 Ir4'
_cell_volume   148.22899560
_cell_formula_units_Z   2
loop_
 _symmetry_equiv_pos_site_id
 _symmetry_equiv_pos_as_xyz
  1  'x, y, z'
loop_
 _atom_site_type_symbol
 _atom_site_label
 _atom_site_symmetry_multiplicity
 _atom_site_fract_x
 _atom_site_fract_y
 _atom_site_fract_z
 _atom_site_occupancy
  Y  Y0  1  0.750000  0.750000  0.750000  1
  Y  Y1  1  0.500000  0.500000  0.500000  1
  B  B2  1  0.068493  0.431507  0.068493  1
  B  B3  1  0.818493  0.181507  0.818493  1
  B  B4  1  0.431507  0.068493  0.431507  1
  B  B5  1  0.181507  0.818493  0.181507  1
  Ir  Ir6  1  0.378025  0.378025  0.121975  1
  Ir  Ir7  1  0.128025  0.128025  0.871975  1
  Ir  Ir8  1  0.871975  0.871975  0.128025  1
  Ir  Ir9  1  0.121975  0.121975  0.378025  1
