# generated using pymatgen
data_UCrO4
_symmetry_space_group_name_H-M   'P 1'
_cell_length_a   4.89517011
_cell_length_b   5.16414924
_cell_length_c   11.96907352
_cell_angle_alpha   90.00000000
_cell_angle_beta   90.00000000
_cell_angle_gamma   90.00000000
_symmetry_Int_Tables_number   1
_chemical_formula_structural   UCrO4
_chemical_formula_sum   'U4 Cr4 O16'
_cell_volume   302.57086563
_cell_formula_units_Z   4
loop_
 _symmetry_equiv_pos_site_id
 _symmetry_equiv_pos_as_xyz
  1  'x, y, z'
loop_
 _atom_site_type_symbol
 _atom_site_label
 _atom_site_symmetry_multiplicity
 _atom_site_fract_x
 _atom_site_fract_y
 _atom_site_fract_z
 _atom_site_occupancy
  U  U0  1  0.500000  0.750000  0.330685  1
  U  U1  1  0.500000  0.250000  0.669315  1
  U  U2  1  0.000000  0.750000  0.830685  1
  U  U3  1  0.000000  0.250000  0.169315  1
  Cr  Cr4  1  0.000000  0.750000  0.562481  1
  Cr  Cr5  1  0.500000  0.750000  0.062481  1
  Cr  Cr6  1  0.500000  0.250000  0.937519  1
  Cr  Cr7  1  0.000000  0.250000  0.437519  1
  O  O8  1  0.719574  0.091255  0.810855  1
  O  O9  1  0.228460  0.427112  0.554032  1
  O  O10  1  0.780426  0.091255  0.310855  1
  O  O11  1  0.780426  0.591255  0.689145  1
  O  O12  1  0.280426  0.408745  0.810855  1
  O  O13  1  0.728460  0.072888  0.054032  1
  O  O14  1  0.728460  0.572888  0.945968  1
  O  O15  1  0.271540  0.927112  0.945968  1
  O  O16  1  0.280426  0.908745  0.189145  1
  O  O17  1  0.271540  0.427112  0.054032  1
  O  O18  1  0.771540  0.072888  0.554032  1
  O  O19  1  0.219574  0.408745  0.310855  1
  O  O20  1  0.228460  0.927112  0.445968  1
  O  O21  1  0.219574  0.908745  0.689145  1
  O  O22  1  0.719574  0.591255  0.189145  1
  O  O23  1  0.771540  0.572888  0.445968  1
