# generated using pymatgen
data_K2Ca3Si3O10
_symmetry_space_group_name_H-M   'P 1'
_cell_length_a   7.49887451
_cell_length_b   7.49887451
_cell_length_c   9.92870359
_cell_angle_alpha   71.04156927
_cell_angle_beta   108.95843073
_cell_angle_gamma   88.31802392
_symmetry_Int_Tables_number   1
_chemical_formula_structural   K2Ca3Si3O10
_chemical_formula_sum   'K4 Ca6 Si6 O20'
_cell_volume   493.67966292
_cell_formula_units_Z   2
loop_
 _symmetry_equiv_pos_site_id
 _symmetry_equiv_pos_as_xyz
  1  'x, y, z'
loop_
 _atom_site_type_symbol
 _atom_site_label
 _atom_site_symmetry_multiplicity
 _atom_site_fract_x
 _atom_site_fract_y
 _atom_site_fract_z
 _atom_site_occupancy
  K  K0  1  0.526451  0.230733  0.011023  1
  K  K1  1  0.230733  0.526451  0.488977  1
  K  K2  1  0.473549  0.769267  0.988977  1
  K  K3  1  0.769267  0.473549  0.511023  1
  Ca  Ca4  1  0.369689  0.369689  0.250000  1
  Ca  Ca5  1  0.630311  0.630311  0.750000  1
  Ca  Ca6  1  0.016091  0.221704  0.022082  1
  Ca  Ca7  1  0.221704  0.016091  0.477918  1
  Ca  Ca8  1  0.983909  0.778296  0.977918  1
  Ca  Ca9  1  0.778296  0.983909  0.522082  1
  Si  Si10  1  0.147525  0.575908  0.792447  1
  Si  Si11  1  0.575908  0.147525  0.707553  1
  Si  Si12  1  0.852475  0.424092  0.207553  1
  Si  Si13  1  0.424092  0.852475  0.292447  1
  Si  Si14  1  0.159302  0.159302  0.750000  1
  Si  Si15  1  0.840698  0.840698  0.250000  1
  O  O16  1  0.319811  0.689685  0.233355  1
  O  O17  1  0.689685  0.319811  0.266645  1
  O  O18  1  0.680189  0.310315  0.766645  1
  O  O19  1  0.310315  0.680189  0.733355  1
  O  O20  1  0.385030  0.119858  0.763046  1
  O  O21  1  0.119858  0.385030  0.736954  1
  O  O22  1  0.614970  0.880142  0.236954  1
  O  O23  1  0.880142  0.614970  0.263046  1
  O  O24  1  0.212918  0.493719  0.980905  1
  O  O25  1  0.493719  0.212918  0.519095  1
  O  O26  1  0.787082  0.506281  0.019095  1
  O  O27  1  0.506281  0.787082  0.480905  1
  O  O28  1  0.303759  0.066156  0.227099  1
  O  O29  1  0.066156  0.303759  0.272901  1
  O  O30  1  0.696241  0.933844  0.772901  1
  O  O31  1  0.933844  0.696241  0.727099  1
  O  O32  1  0.028230  0.139448  0.592369  1
  O  O33  1  0.139448  0.028230  0.907631  1
  O  O34  1  0.971770  0.860552  0.407631  1
  O  O35  1  0.860552  0.971770  0.092369  1
