# generated using pymatgen
data_Y5Ge4
_symmetry_space_group_name_H-M   'P 1'
_cell_length_a   7.68036478
_cell_length_b   7.74727332
_cell_length_c   14.76830541
_cell_angle_alpha   90.00000000
_cell_angle_beta   90.00000000
_cell_angle_gamma   90.00000000
_symmetry_Int_Tables_number   1
_chemical_formula_structural   Y5Ge4
_chemical_formula_sum   'Y20 Ge16'
_cell_volume   878.74201234
_cell_formula_units_Z   4
loop_
 _symmetry_equiv_pos_site_id
 _symmetry_equiv_pos_as_xyz
  1  'x, y, z'
loop_
 _atom_site_type_symbol
 _atom_site_label
 _atom_site_symmetry_multiplicity
 _atom_site_fract_x
 _atom_site_fract_y
 _atom_site_fract_z
 _atom_site_occupancy
  Y  Y0  1  0.785074  0.501608  0.750000  1
  Y  Y1  1  0.285074  0.998392  0.750000  1
  Y  Y2  1  0.714926  0.001608  0.250000  1
  Y  Y3  1  0.214926  0.498392  0.250000  1
  Y  Y4  1  0.379122  0.160635  0.116991  1
  Y  Y5  1  0.879122  0.339365  0.383009  1
  Y  Y6  1  0.120878  0.660635  0.883009  1
  Y  Y7  1  0.620878  0.839365  0.616991  1
  Y  Y8  1  0.620878  0.839365  0.883009  1
  Y  Y9  1  0.120878  0.660635  0.616991  1
  Y  Y10  1  0.879122  0.339365  0.116991  1
  Y  Y11  1  0.379122  0.160635  0.383009  1
  Y  Y12  1  0.029431  0.824056  0.101496  1
  Y  Y13  1  0.529431  0.675944  0.398504  1
  Y  Y14  1  0.470569  0.324056  0.898504  1
  Y  Y15  1  0.970569  0.175944  0.601496  1
  Y  Y16  1  0.970569  0.175944  0.898504  1
  Y  Y17  1  0.470569  0.324056  0.601496  1
  Y  Y18  1  0.529431  0.675944  0.101496  1
  Y  Y19  1  0.029431  0.824056  0.398504  1
  Ge  Ge20  1  0.335239  0.862541  0.250000  1
  Ge  Ge21  1  0.835239  0.637459  0.250000  1
  Ge  Ge22  1  0.164761  0.362541  0.750000  1
  Ge  Ge23  1  0.664761  0.137459  0.750000  1
  Ge  Ge24  1  0.084441  0.117157  0.250000  1
  Ge  Ge25  1  0.584441  0.382843  0.250000  1
  Ge  Ge26  1  0.415559  0.617157  0.750000  1
  Ge  Ge27  1  0.915559  0.882843  0.750000  1
  Ge  Ge28  1  0.220614  0.468354  0.044281  1
  Ge  Ge29  1  0.720614  0.031646  0.455719  1
  Ge  Ge30  1  0.279386  0.968354  0.955719  1
  Ge  Ge31  1  0.779386  0.531646  0.544281  1
  Ge  Ge32  1  0.779386  0.531646  0.955719  1
  Ge  Ge33  1  0.279386  0.968354  0.544281  1
  Ge  Ge34  1  0.720614  0.031646  0.044281  1
  Ge  Ge35  1  0.220614  0.468354  0.455719  1
