# generated using pymatgen
data_AlPO4
_symmetry_space_group_name_H-M   'P 1'
_cell_length_a   16.59316371
_cell_length_b   16.59316371
_cell_length_c   16.59316371
_cell_angle_alpha   149.84104869
_cell_angle_beta   126.03652771
_cell_angle_gamma   63.06779736
_symmetry_Int_Tables_number   1
_chemical_formula_structural   AlPO4
_chemical_formula_sum   'Al16 P16 O64'
_cell_volume   1838.52282656
_cell_formula_units_Z   16
loop_
 _symmetry_equiv_pos_site_id
 _symmetry_equiv_pos_as_xyz
  1  'x, y, z'
loop_
 _atom_site_type_symbol
 _atom_site_label
 _atom_site_symmetry_multiplicity
 _atom_site_fract_x
 _atom_site_fract_y
 _atom_site_fract_z
 _atom_site_occupancy
  Al  Al0  1  0.129564  0.382042  0.067138  1
  Al  Al1  1  0.870436  0.937574  0.252478  1
  Al  Al2  1  0.314904  0.882042  0.752478  1
  Al  Al3  1  0.685096  0.437574  0.567138  1
  Al  Al4  1  0.224566  0.984227  0.555375  1
  Al  Al5  1  0.775434  0.330809  0.759661  1
  Al  Al6  1  0.428852  0.484227  0.259661  1
  Al  Al7  1  0.571148  0.830809  0.055375  1
  Al  Al8  1  0.040100  0.100410  0.249707  1
  Al  Al9  1  0.959900  0.209606  0.060310  1
  Al  Al10  1  0.850703  0.600410  0.560310  1
  Al  Al11  1  0.149297  0.709606  0.749707  1
  Al  Al12  1  0.639715  0.018375  0.932957  1
  Al  Al13  1  0.360285  0.293242  0.378660  1
  Al  Al14  1  0.085418  0.518375  0.878660  1
  Al  Al15  1  0.914582  0.793242  0.432957  1
  P  P16  1  0.121580  0.753990  0.433555  1
  P  P17  1  0.878420  0.311975  0.632410  1
  P  P18  1  0.320435  0.253990  0.132410  1
  P  P19  1  0.679565  0.811975  0.933555  1
  P  P20  1  0.232687  0.360277  0.935840  1
  P  P21  1  0.767313  0.703153  0.127590  1
  P  P22  1  0.424437  0.860277  0.627590  1
  P  P23  1  0.575563  0.203153  0.435840  1
  P  P24  1  0.078490  0.890163  0.246418  1
  P  P25  1  0.921510  0.167929  0.811673  1
  P  P26  1  0.643744  0.390163  0.311673  1
  P  P27  1  0.356256  0.667929  0.746418  1
  P  P28  1  0.845336  0.980037  0.932227  1
  P  P29  1  0.154664  0.086891  0.134701  1
  P  P30  1  0.047810  0.480037  0.634701  1
  P  P31  1  0.952190  0.586891  0.432227  1
  O  O32  1  0.142247  0.885701  0.494417  1
  O  O33  1  0.857753  0.352170  0.743453  1
  O  O34  1  0.391283  0.385701  0.243453  1
  O  O35  1  0.608717  0.852170  0.994417  1
  O  O36  1  0.190064  0.798158  0.585672  1
  O  O37  1  0.809936  0.395608  0.608094  1
  O  O38  1  0.212486  0.298158  0.108094  1
  O  O39  1  0.787514  0.895608  0.085672  1
  O  O40  1  0.011507  0.739540  0.382776  1
  O  O41  1  0.988493  0.371269  0.728033  1
  O  O42  1  0.356764  0.239540  0.228033  1
  O  O43  1  0.643236  0.871269  0.882776  1
  O  O44  1  0.142220  0.591401  0.269817  1
  O  O45  1  0.857780  0.127596  0.449181  1
  O  O46  1  0.321585  0.091401  0.949181  1
  O  O47  1  0.678415  0.627596  0.769817  1
  O  O48  1  0.161044  0.346831  0.955099  1
  O  O49  1  0.838956  0.794055  0.185787  1
  O  O50  1  0.391732  0.846831  0.685787  1
  O  O51  1  0.608268  0.294055  0.455099  1
  O  O52  1  0.197659  0.475016  0.951029  1
  O  O53  1  0.802341  0.753370  0.277356  1
  O  O54  1  0.523986  0.975016  0.777356  1
  O  O55  1  0.476014  0.253370  0.451029  1
  O  O56  1  0.231942  0.192375  0.752827  1
  O  O57  1  0.768058  0.520885  0.960433  1
  O  O58  1  0.439548  0.692375  0.460433  1
  O  O59  1  0.560452  0.020885  0.252827  1
  O  O60  1  0.344526  0.927108  0.586729  1
  O  O61  1  0.655474  0.242203  0.582581  1
  O  O62  1  0.340378  0.427108  0.082581  1
  O  O63  1  0.659622  0.742203  0.086729  1
  O  O64  1  0.178882  0.932867  0.387292  1
  O  O65  1  0.821118  0.208410  0.753984  1
  O  O66  1  0.545574  0.432867  0.253984  1
  O  O67  1  0.454426  0.708410  0.887292  1
  O  O68  1  0.992760  0.933594  0.287249  1
  O  O69  1  0.007240  0.294488  0.940834  1
  O  O70  1  0.646346  0.433594  0.440834  1
  O  O71  1  0.353654  0.794488  0.787249  1
  O  O72  1  0.060569  0.708561  0.059801  1
  O  O73  1  0.939431  0.999231  0.647992  1
  O  O74  1  0.648761  0.208561  0.147992  1
  O  O75  1  0.351239  0.499231  0.559801  1
  O  O76  1  0.083099  0.986769  0.253981  1
  O  O77  1  0.916901  0.170883  0.903670  1
  O  O78  1  0.732787  0.486769  0.403670  1
  O  O79  1  0.267213  0.670883  0.753981  1
  O  O80  1  0.915133  0.024895  0.084962  1
  O  O81  1  0.084867  0.169829  0.109762  1
  O  O82  1  0.939933  0.524895  0.609762  1
  O  O83  1  0.060067  0.669829  0.584962  1
  O  O84  1  0.881963  0.083182  0.969547  1
  O  O85  1  0.118037  0.087584  0.201219  1
  O  O86  1  0.113635  0.583182  0.701219  1
  O  O87  1  0.886365  0.587584  0.469547  1
  O  O88  1  0.738376  0.011782  0.917182  1
  O  O89  1  0.261624  0.178805  0.273405  1
  O  O90  1  0.094600  0.511782  0.773405  1
  O  O91  1  0.905400  0.678805  0.417182  1
  O  O92  1  0.844441  0.800612  0.756362  1
  O  O93  1  0.155559  0.911921  0.956171  1
  O  O94  1  0.044250  0.300612  0.456171  1
  O  O95  1  0.955750  0.411921  0.256362  1
