# generated using pymatgen
data_V6O13
_symmetry_space_group_name_H-M   'P 1'
_cell_length_a   6.36678130
_cell_length_b   6.36678130
_cell_length_c   10.29310353
_cell_angle_alpha   79.55377627
_cell_angle_beta   100.44622373
_cell_angle_gamma   145.82028048
_symmetry_Int_Tables_number   1
_chemical_formula_structural   V6O13
_chemical_formula_sum   'V6 O13'
_cell_volume   230.14593955
_cell_formula_units_Z   1
loop_
 _symmetry_equiv_pos_site_id
 _symmetry_equiv_pos_as_xyz
  1  'x, y, z'
loop_
 _atom_site_type_symbol
 _atom_site_label
 _atom_site_symmetry_multiplicity
 _atom_site_fract_x
 _atom_site_fract_y
 _atom_site_fract_z
 _atom_site_occupancy
  V  V0  1  0.659089  0.340911  0.367759  1
  V  V1  1  0.833406  0.166594  0.640005  1
  V  V2  1  0.959766  0.040234  0.369124  1
  V  V3  1  0.532666  0.467334  0.638766  1
  V  V4  1  0.890963  0.109037  0.005259  1
  V  V5  1  0.593065  0.406935  0.001814  1
  O  O6  1  0.806327  0.193673  0.413472  1
  O  O7  1  0.861555  0.138445  0.806518  1
  O  O8  1  0.068373  0.931627  0.004168  1
  O  O9  1  0.924156  0.075844  0.201693  1
  O  O10  1  0.686382  0.313618  0.595765  1
  O  O11  1  0.125993  0.874007  0.388466  1
  O  O12  1  0.633816  0.366184  0.201961  1
  O  O13  1  0.570332  0.429668  0.806009  1
  O  O14  1  0.365922  0.634078  0.619376  1
  O  O15  1  0.499669  0.500331  0.414425  1
  O  O16  1  0.992640  0.007360  0.593348  1
  O  O17  1  0.750856  0.249144  0.003402  1
  O  O18  1  0.428576  0.571424  0.003919  1
