# generated using pymatgen
data_KEuPSe4
_symmetry_space_group_name_H-M   'P 1'
_cell_length_a   6.95595877
_cell_length_b   7.00099447
_cell_length_c   9.25682271
_cell_angle_alpha   90.00000000
_cell_angle_beta   107.02944166
_cell_angle_gamma   90.00000000
_symmetry_Int_Tables_number   1
_chemical_formula_structural   KEuPSe4
_chemical_formula_sum   'K2 Eu2 P2 Se8'
_cell_volume   431.02921251
_cell_formula_units_Z   2
loop_
 _symmetry_equiv_pos_site_id
 _symmetry_equiv_pos_as_xyz
  1  'x, y, z'
loop_
 _atom_site_type_symbol
 _atom_site_label
 _atom_site_symmetry_multiplicity
 _atom_site_fract_x
 _atom_site_fract_y
 _atom_site_fract_z
 _atom_site_occupancy
  K  K0  1  0.753767  0.250000  0.062503  1
  K  K1  1  0.246233  0.750000  0.937497  1
  Eu  Eu2  1  0.732286  0.250000  0.549052  1
  Eu  Eu3  1  0.267714  0.750000  0.450948  1
  P  P4  1  0.294701  0.250000  0.687464  1
  P  P5  1  0.705299  0.750000  0.312536  1
  Se  Se6  1  0.096540  0.250000  0.837322  1
  Se  Se7  1  0.879974  0.750000  0.556644  1
  Se  Se8  1  0.501058  0.997172  0.730621  1
  Se  Se9  1  0.498942  0.497172  0.269379  1
  Se  Se10  1  0.498942  0.002828  0.269379  1
  Se  Se11  1  0.501058  0.502828  0.730621  1
  Se  Se12  1  0.120026  0.250000  0.443356  1
  Se  Se13  1  0.903460  0.750000  0.162678  1
