# generated using pymatgen
data_NaBS2
_symmetry_space_group_name_H-M   'P 1'
_cell_length_a   9.14413288
_cell_length_b   9.14413288
_cell_length_c   9.14413288
_cell_angle_alpha   112.56690413
_cell_angle_beta   112.56690413
_cell_angle_gamma   112.56690413
_symmetry_Int_Tables_number   1
_chemical_formula_structural   NaBS2
_chemical_formula_sum   'Na6 B6 S12'
_cell_volume   510.12672212
_cell_formula_units_Z   6
loop_
 _symmetry_equiv_pos_site_id
 _symmetry_equiv_pos_as_xyz
  1  'x, y, z'
loop_
 _atom_site_type_symbol
 _atom_site_label
 _atom_site_symmetry_multiplicity
 _atom_site_fract_x
 _atom_site_fract_y
 _atom_site_fract_z
 _atom_site_occupancy
  Na  Na0  1  0.750000  0.214673  0.285327  1
  Na  Na1  1  0.285327  0.750000  0.214673  1
  Na  Na2  1  0.785327  0.714673  0.250000  1
  Na  Na3  1  0.250000  0.785327  0.714673  1
  Na  Na4  1  0.214673  0.285327  0.750000  1
  Na  Na5  1  0.714673  0.250000  0.785327  1
  B  B6  1  0.867441  0.632559  0.750000  1
  B  B7  1  0.250000  0.132559  0.367441  1
  B  B8  1  0.132559  0.367441  0.250000  1
  B  B9  1  0.632559  0.750000  0.867441  1
  B  B10  1  0.750000  0.867441  0.632559  1
  B  B11  1  0.367441  0.250000  0.132559  1
  S  S12  1  0.627077  0.872923  0.750000  1
  S  S13  1  0.250000  0.015855  0.484145  1
  S  S14  1  0.015855  0.484145  0.250000  1
  S  S15  1  0.515855  0.750000  0.984145  1
  S  S16  1  0.750000  0.984145  0.515855  1
  S  S17  1  0.984145  0.515855  0.750000  1
  S  S18  1  0.750000  0.627077  0.872923  1
  S  S19  1  0.872923  0.750000  0.627077  1
  S  S20  1  0.372923  0.127077  0.250000  1
  S  S21  1  0.250000  0.372923  0.127077  1
  S  S22  1  0.127077  0.250000  0.372923  1
  S  S23  1  0.484145  0.250000  0.015855  1
