# generated using pymatgen
data_KAl9O14
_symmetry_space_group_name_H-M   'P 1'
_cell_length_a   8.27819151
_cell_length_b   7.75653865
_cell_length_c   9.78991136
_cell_angle_alpha   90.00000000
_cell_angle_beta   121.73131178
_cell_angle_gamma   90.00000000
_symmetry_Int_Tables_number   1
_chemical_formula_structural   KAl9O14
_chemical_formula_sum   'K2 Al18 O28'
_cell_volume   534.64888934
_cell_formula_units_Z   2
loop_
 _symmetry_equiv_pos_site_id
 _symmetry_equiv_pos_as_xyz
  1  'x, y, z'
loop_
 _atom_site_type_symbol
 _atom_site_label
 _atom_site_symmetry_multiplicity
 _atom_site_fract_x
 _atom_site_fract_y
 _atom_site_fract_z
 _atom_site_occupancy
  K  K0  1  0.500000  0.500000  0.000000  1
  K  K1  1  0.500000  0.000000  0.500000  1
  Al  Al2  1  0.325894  0.997836  0.828685  1
  Al  Al3  1  0.325894  0.502164  0.328685  1
  Al  Al4  1  0.674106  0.002164  0.171315  1
  Al  Al5  1  0.674106  0.497836  0.671315  1
  Al  Al6  1  0.000000  0.000000  0.500000  1
  Al  Al7  1  0.000000  0.500000  0.000000  1
  Al  Al8  1  0.729178  0.665572  0.378384  1
  Al  Al9  1  0.729178  0.834428  0.878384  1
  Al  Al10  1  0.270822  0.334428  0.621616  1
  Al  Al11  1  0.270822  0.165572  0.121616  1
  Al  Al12  1  0.934264  0.177381  0.778455  1
  Al  Al13  1  0.934264  0.322619  0.278455  1
  Al  Al14  1  0.065736  0.822619  0.221545  1
  Al  Al15  1  0.065736  0.677381  0.721545  1
  Al  Al16  1  0.323731  0.810780  0.092922  1
  Al  Al17  1  0.323731  0.689220  0.592922  1
  Al  Al18  1  0.676269  0.189220  0.907078  1
  Al  Al19  1  0.676269  0.310780  0.407078  1
  O  O20  1  0.245418  0.794539  0.885708  1
  O  O21  1  0.245418  0.705461  0.385708  1
  O  O22  1  0.754582  0.205461  0.114292  1
  O  O23  1  0.754582  0.294539  0.614292  1
  O  O24  1  0.906809  0.786465  0.538407  1
  O  O25  1  0.906809  0.713535  0.038407  1
  O  O26  1  0.093191  0.213535  0.461593  1
  O  O27  1  0.093191  0.286465  0.961593  1
  O  O28  1  0.579186  0.792726  0.210133  1
  O  O29  1  0.579186  0.707274  0.710133  1
  O  O30  1  0.420814  0.207274  0.789867  1
  O  O31  1  0.420814  0.292726  0.289867  1
  O  O32  1  0.072355  0.083148  0.711279  1
  O  O33  1  0.072355  0.416852  0.211279  1
  O  O34  1  0.927645  0.916852  0.288721  1
  O  O35  1  0.927645  0.583148  0.788721  1
  O  O36  1  0.404613  0.063435  0.050977  1
  O  O37  1  0.404613  0.436565  0.550977  1
  O  O38  1  0.595387  0.936565  0.949023  1
  O  O39  1  0.595387  0.563435  0.449023  1
  O  O40  1  0.254128  0.602338  0.125979  1
  O  O41  1  0.254128  0.897662  0.625979  1
  O  O42  1  0.745872  0.397662  0.874021  1
  O  O43  1  0.745872  0.102338  0.374021  1
  O  O44  1  0.206501  0.958294  0.168085  1
  O  O45  1  0.206501  0.541706  0.668085  1
  O  O46  1  0.793499  0.041706  0.831915  1
  O  O47  1  0.793499  0.458294  0.331915  1
