# generated using pymatgen
data_BaNaB5O9
_symmetry_space_group_name_H-M   'P 1'
_cell_length_a   6.66767373
_cell_length_b   14.15302701
_cell_length_c   8.51597309
_cell_angle_alpha   90.00000000
_cell_angle_beta   105.17352977
_cell_angle_gamma   90.00000000
_symmetry_Int_Tables_number   1
_chemical_formula_structural   BaNaB5O9
_chemical_formula_sum   'Ba4 Na4 B20 O36'
_cell_volume   775.61670788
_cell_formula_units_Z   4
loop_
 _symmetry_equiv_pos_site_id
 _symmetry_equiv_pos_as_xyz
  1  'x, y, z'
loop_
 _atom_site_type_symbol
 _atom_site_label
 _atom_site_symmetry_multiplicity
 _atom_site_fract_x
 _atom_site_fract_y
 _atom_site_fract_z
 _atom_site_occupancy
  Ba  Ba0  1  0.587115  0.217713  0.562280  1
  Ba  Ba1  1  0.412885  0.717713  0.937720  1
  Ba  Ba2  1  0.412885  0.782287  0.437720  1
  Ba  Ba3  1  0.587115  0.282287  0.062280  1
  Na  Na4  1  0.044420  0.080882  0.859642  1
  Na  Na5  1  0.955580  0.580882  0.640358  1
  Na  Na6  1  0.955580  0.919118  0.140358  1
  Na  Na7  1  0.044420  0.419118  0.359642  1
  B  B8  1  0.075544  0.252642  0.615250  1
  B  B9  1  0.924456  0.752642  0.884750  1
  B  B10  1  0.924456  0.747358  0.384750  1
  B  B11  1  0.075544  0.247358  0.115250  1
  B  B12  1  0.307563  0.943711  0.746645  1
  B  B13  1  0.692437  0.443711  0.753355  1
  B  B14  1  0.692437  0.056289  0.253355  1
  B  B15  1  0.307563  0.556289  0.246645  1
  B  B16  1  0.961704  0.848988  0.644920  1
  B  B17  1  0.038296  0.348988  0.855080  1
  B  B18  1  0.038296  0.151012  0.355080  1
  B  B19  1  0.961704  0.651012  0.144920  1
  B  B20  1  0.318863  0.111828  0.220301  1
  B  B21  1  0.681137  0.611828  0.279699  1
  B  B22  1  0.681137  0.888172  0.779699  1
  B  B23  1  0.318863  0.388172  0.720301  1
  B  B24  1  0.597803  0.054738  0.848552  1
  B  B25  1  0.402197  0.554738  0.651448  1
  B  B26  1  0.402197  0.945262  0.151448  1
  B  B27  1  0.597803  0.445262  0.348552  1
  O  O28  1  0.662326  0.355901  0.373654  1
  O  O29  1  0.337674  0.855901  0.126346  1
  O  O30  1  0.337674  0.644099  0.626346  1
  O  O31  1  0.662326  0.144099  0.873654  1
  O  O32  1  0.001711  0.177928  0.513528  1
  O  O33  1  0.998289  0.677928  0.986472  1
  O  O34  1  0.998289  0.822072  0.486472  1
  O  O35  1  0.001711  0.322072  0.013528  1
  O  O36  1  0.983666  0.264942  0.741602  1
  O  O37  1  0.016334  0.764942  0.758398  1
  O  O38  1  0.016334  0.735058  0.258398  1
  O  O39  1  0.983666  0.235058  0.241602  1
  O  O40  1  0.252856  0.124817  0.367731  1
  O  O41  1  0.747144  0.624817  0.132269  1
  O  O42  1  0.747144  0.875183  0.632269  1
  O  O43  1  0.252856  0.375183  0.867731  1
  O  O44  1  0.381359  0.033619  0.800222  1
  O  O45  1  0.618641  0.533619  0.699778  1
  O  O46  1  0.618641  0.966381  0.199778  1
  O  O47  1  0.381359  0.466381  0.300222  1
  O  O48  1  0.737839  0.980286  0.858479  1
  O  O49  1  0.262161  0.480286  0.641521  1
  O  O50  1  0.262161  0.019714  0.141521  1
  O  O51  1  0.737839  0.519714  0.358479  1
  O  O52  1  0.230659  0.187366  0.094914  1
  O  O53  1  0.769341  0.687366  0.405086  1
  O  O54  1  0.769341  0.812634  0.905086  1
  O  O55  1  0.230659  0.312634  0.594914  1
  O  O56  1  0.099764  0.930362  0.711625  1
  O  O57  1  0.900236  0.430362  0.788375  1
  O  O58  1  0.900236  0.069638  0.288375  1
  O  O59  1  0.099764  0.569638  0.211625  1
  O  O60  1  0.448070  0.873520  0.735421  1
  O  O61  1  0.551930  0.373520  0.764579  1
  O  O62  1  0.551930  0.126480  0.264579  1
  O  O63  1  0.448070  0.626480  0.235421  1
