# generated using pymatgen
data_BaCrP2O7
_symmetry_space_group_name_H-M   'P 1'
_cell_length_a   5.43988381
_cell_length_b   7.55666757
_cell_length_c   7.69253703
_cell_angle_alpha   103.21865855
_cell_angle_beta   90.97249898
_cell_angle_gamma   94.46791250
_symmetry_Int_Tables_number   1
_chemical_formula_structural   BaCrP2O7
_chemical_formula_sum   'Ba2 Cr2 P4 O14'
_cell_volume   306.70904542
_cell_formula_units_Z   2
loop_
 _symmetry_equiv_pos_site_id
 _symmetry_equiv_pos_as_xyz
  1  'x, y, z'
loop_
 _atom_site_type_symbol
 _atom_site_label
 _atom_site_symmetry_multiplicity
 _atom_site_fract_x
 _atom_site_fract_y
 _atom_site_fract_z
 _atom_site_occupancy
  Ba  Ba0  1  0.789187  0.723226  0.068386  1
  Ba  Ba1  1  0.210813  0.276774  0.931614  1
  Cr  Cr2  1  0.808070  0.853331  0.598285  1
  Cr  Cr3  1  0.191930  0.146669  0.401715  1
  P  P4  1  0.281795  0.684552  0.398858  1
  P  P5  1  0.718205  0.315448  0.601142  1
  P  P6  1  0.299197  0.765060  0.786568  1
  P  P7  1  0.700803  0.234940  0.213432  1
  O  O8  1  0.542638  0.778647  0.393288  1
  O  O9  1  0.457362  0.221353  0.606712  1
  O  O10  1  0.267854  0.625038  0.590726  1
  O  O11  1  0.732146  0.374962  0.409274  1
  O  O12  1  0.283714  0.650993  0.926073  1
  O  O13  1  0.716286  0.349007  0.073927  1
  O  O14  1  0.223822  0.513892  0.255426  1
  O  O15  1  0.776178  0.486108  0.744574  1
  O  O16  1  0.915997  0.109930  0.199707  1
  O  O17  1  0.084003  0.890070  0.800293  1
  O  O18  1  0.448319  0.125073  0.203924  1
  O  O19  1  0.551681  0.874927  0.796076  1
  O  O20  1  0.917095  0.175876  0.594476  1
  O  O21  1  0.082905  0.824124  0.405524  1
