# generated using pymatgen
data_TbZn(BO2)5
_symmetry_space_group_name_H-M   'P 1'
_cell_length_a   8.65764258
_cell_length_b   7.68610333
_cell_length_c   12.42638423
_cell_angle_alpha   90.00000000
_cell_angle_beta   130.73441488
_cell_angle_gamma   90.00000000
_symmetry_Int_Tables_number   1
_chemical_formula_structural   TbZn(BO2)5
_chemical_formula_sum   'Tb4 Zn4 B20 O40'
_cell_volume   626.57390569
_cell_formula_units_Z   4
loop_
 _symmetry_equiv_pos_site_id
 _symmetry_equiv_pos_as_xyz
  1  'x, y, z'
loop_
 _atom_site_type_symbol
 _atom_site_label
 _atom_site_symmetry_multiplicity
 _atom_site_fract_x
 _atom_site_fract_y
 _atom_site_fract_z
 _atom_site_occupancy
  Tb  Tb0  1  0.944986  0.183592  0.758823  1
  Tb  Tb1  1  0.055014  0.683592  0.741177  1
  Tb  Tb2  1  0.055014  0.816408  0.241177  1
  Tb  Tb3  1  0.944986  0.316408  0.258823  1
  Zn  Zn4  1  0.481208  0.409529  0.873155  1
  Zn  Zn5  1  0.518792  0.909529  0.626845  1
  Zn  Zn6  1  0.518792  0.590471  0.126845  1
  Zn  Zn7  1  0.481208  0.090471  0.373155  1
  B  B8  1  0.663013  0.573698  0.745577  1
  B  B9  1  0.522503  0.186683  0.087734  1
  B  B10  1  0.477497  0.686683  0.412266  1
  B  B11  1  0.477497  0.813317  0.912266  1
  B  B12  1  0.522503  0.313317  0.587734  1
  B  B13  1  0.849952  0.897059  0.508976  1
  B  B14  1  0.150048  0.397059  0.991024  1
  B  B15  1  0.150048  0.102941  0.491024  1
  B  B16  1  0.849952  0.602941  0.008976  1
  B  B17  1  0.336987  0.073698  0.754423  1
  B  B18  1  0.336987  0.426302  0.254423  1
  B  B19  1  0.663013  0.926302  0.245577  1
  B  B20  1  0.085774  0.324664  0.603087  1
  B  B21  1  0.914226  0.824664  0.896913  1
  B  B22  1  0.914226  0.675336  0.396913  1
  B  B23  1  0.085774  0.175336  0.103087  1
  B  B24  1  0.279510  0.530767  0.557185  1
  B  B25  1  0.720490  0.030767  0.942815  1
  B  B26  1  0.720490  0.469233  0.442815  1
  B  B27  1  0.279510  0.969233  0.057185  1
  O  O28  1  0.187477  0.202907  0.724870  1
  O  O29  1  0.422282  0.653822  0.930065  1
  O  O30  1  0.577718  0.153822  0.569935  1
  O  O31  1  0.577718  0.346178  0.069935  1
  O  O32  1  0.422282  0.846178  0.430065  1
  O  O33  1  0.114675  0.444590  0.872069  1
  O  O34  1  0.885325  0.944590  0.627931  1
  O  O35  1  0.885325  0.555410  0.127931  1
  O  O36  1  0.812523  0.702907  0.775130  1
  O  O37  1  0.114675  0.055410  0.372069  1
  O  O38  1  0.187477  0.297093  0.224870  1
  O  O39  1  0.812523  0.797093  0.275130  1
  O  O40  1  0.695967  0.532106  0.877748  1
  O  O41  1  0.304033  0.032106  0.622252  1
  O  O42  1  0.304033  0.467894  0.122252  1
  O  O43  1  0.695967  0.967894  0.377748  1
  O  O44  1  0.687430  0.408487  0.698296  1
  O  O45  1  0.312570  0.908487  0.801704  1
  O  O46  1  0.312570  0.591513  0.301704  1
  O  O47  1  0.687430  0.091513  0.198296  1
  O  O48  1  0.456981  0.647192  0.639376  1
  O  O49  1  0.543019  0.147192  0.860624  1
  O  O50  1  0.543019  0.352808  0.360624  1
  O  O51  1  0.456981  0.852808  0.139376  1
  O  O52  1  0.235586  0.468406  0.650097  1
  O  O53  1  0.764414  0.968406  0.849903  1
  O  O54  1  0.764414  0.531594  0.349903  1
  O  O55  1  0.235586  0.031594  0.150097  1
  O  O56  1  0.904834  0.392288  0.578825  1
  O  O57  1  0.095166  0.892288  0.921175  1
  O  O58  1  0.095166  0.607712  0.421175  1
  O  O59  1  0.327813  0.124865  0.009302  1
  O  O60  1  0.024869  0.232616  0.476857  1
  O  O61  1  0.975131  0.732616  0.023143  1
  O  O62  1  0.975131  0.767384  0.523143  1
  O  O63  1  0.024869  0.267384  0.976857  1
  O  O64  1  0.327813  0.375135  0.509302  1
  O  O65  1  0.672187  0.875135  0.990698  1
  O  O66  1  0.672187  0.624865  0.490698  1
  O  O67  1  0.904834  0.107712  0.078825  1
