# generated using pymatgen
data_AsPdSe
_symmetry_space_group_name_H-M   'P 1'
_cell_length_a   6.18942337
_cell_length_b   6.18942337
_cell_length_c   6.18942337
_cell_angle_alpha   90.00000000
_cell_angle_beta   90.00000000
_cell_angle_gamma   90.00000000
_symmetry_Int_Tables_number   1
_chemical_formula_structural   AsPdSe
_chemical_formula_sum   'As4 Pd4 Se4'
_cell_volume   237.11038254
_cell_formula_units_Z   4
loop_
 _symmetry_equiv_pos_site_id
 _symmetry_equiv_pos_as_xyz
  1  'x, y, z'
loop_
 _atom_site_type_symbol
 _atom_site_label
 _atom_site_symmetry_multiplicity
 _atom_site_fract_x
 _atom_site_fract_y
 _atom_site_fract_z
 _atom_site_occupancy
  As  As0  1  0.116619  0.883381  0.383381  1
  As  As1  1  0.883381  0.383381  0.116619  1
  As  As2  1  0.616619  0.616619  0.616619  1
  As  As3  1  0.383381  0.116619  0.883381  1
  Pd  Pd4  1  0.993192  0.506808  0.493192  1
  Pd  Pd5  1  0.506808  0.493192  0.993192  1
  Pd  Pd6  1  0.493192  0.993192  0.506808  1
  Pd  Pd7  1  0.006808  0.006808  0.006808  1
  Se  Se8  1  0.113388  0.613388  0.886612  1
  Se  Se9  1  0.886612  0.113388  0.613388  1
  Se  Se10  1  0.613388  0.886612  0.113388  1
  Se  Se11  1  0.386612  0.386612  0.386612  1
