# generated using pymatgen
data_Eu2TeO2
_symmetry_space_group_name_H-M   'P 1'
_cell_length_a   7.38573333
_cell_length_b   7.38573333
_cell_length_c   7.38573333
_cell_angle_alpha   148.29628229
_cell_angle_beta   148.29628229
_cell_angle_gamma   45.44818313
_symmetry_Int_Tables_number   1
_chemical_formula_structural   Eu2TeO2
_chemical_formula_sum   'Eu2 Te1 O2'
_cell_volume   110.90585423
_cell_formula_units_Z   1
loop_
 _symmetry_equiv_pos_site_id
 _symmetry_equiv_pos_as_xyz
  1  'x, y, z'
loop_
 _atom_site_type_symbol
 _atom_site_label
 _atom_site_symmetry_multiplicity
 _atom_site_fract_x
 _atom_site_fract_y
 _atom_site_fract_z
 _atom_site_occupancy
  Eu  Eu0  1  0.668413  0.668413  0.000000  1
  Eu  Eu1  1  0.331587  0.331587  0.000000  1
  Te  Te2  1  0.000000  0.000000  0.000000  1
  O  O3  1  0.750000  0.250000  0.500000  1
  O  O4  1  0.250000  0.750000  0.500000  1
