# generated using pymatgen
data_HfPt3
_symmetry_space_group_name_H-M   'P 1'
_cell_length_a   5.71053690
_cell_length_b   5.71053690
_cell_length_c   9.32488662
_cell_angle_alpha   90.00000000
_cell_angle_beta   90.00000000
_cell_angle_gamma   120.00000000
_symmetry_Int_Tables_number   1
_chemical_formula_structural   HfPt3
_chemical_formula_sum   'Hf4 Pt12'
_cell_volume   263.34681819
_cell_formula_units_Z   4
loop_
 _symmetry_equiv_pos_site_id
 _symmetry_equiv_pos_as_xyz
  1  'x, y, z'
loop_
 _atom_site_type_symbol
 _atom_site_label
 _atom_site_symmetry_multiplicity
 _atom_site_fract_x
 _atom_site_fract_y
 _atom_site_fract_z
 _atom_site_occupancy
  Hf  Hf0  1  0.000000  0.000000  0.500000  1
  Hf  Hf1  1  0.666667  0.333333  0.750000  1
  Hf  Hf2  1  0.333333  0.666667  0.250000  1
  Hf  Hf3  1  0.000000  0.000000  0.000000  1
  Pt  Pt4  1  0.169091  0.338181  0.750000  1
  Pt  Pt5  1  0.000000  0.500000  0.000000  1
  Pt  Pt6  1  0.830909  0.661819  0.250000  1
  Pt  Pt7  1  0.338181  0.169091  0.250000  1
  Pt  Pt8  1  0.500000  0.500000  0.000000  1
  Pt  Pt9  1  0.830909  0.169091  0.250000  1
  Pt  Pt10  1  0.500000  0.500000  0.500000  1
  Pt  Pt11  1  0.500000  0.000000  0.500000  1
  Pt  Pt12  1  0.169091  0.830909  0.750000  1
  Pt  Pt13  1  0.661819  0.830909  0.750000  1
  Pt  Pt14  1  0.500000  0.000000  0.000000  1
  Pt  Pt15  1  0.000000  0.500000  0.500000  1
