# generated using pymatgen
data_NaVO3
_symmetry_space_group_name_H-M   'P 1'
_cell_length_a   7.32036272
_cell_length_b   7.32036272
_cell_length_c   6.01635140
_cell_angle_alpha   75.06110827
_cell_angle_beta   104.93889173
_cell_angle_gamma   95.99711348
_symmetry_Int_Tables_number   1
_chemical_formula_structural   NaVO3
_chemical_formula_sum   'Na4 V4 O12'
_cell_volume   300.72747864
_cell_formula_units_Z   4
loop_
 _symmetry_equiv_pos_site_id
 _symmetry_equiv_pos_as_xyz
  1  'x, y, z'
loop_
 _atom_site_type_symbol
 _atom_site_label
 _atom_site_symmetry_multiplicity
 _atom_site_fract_x
 _atom_site_fract_y
 _atom_site_fract_z
 _atom_site_occupancy
  Na  Na0  1  0.091562  0.091562  0.750000  1
  Na  Na1  1  0.908438  0.908438  0.250000  1
  Na  Na2  1  0.723983  0.723983  0.750000  1
  Na  Na3  1  0.276017  0.276017  0.250000  1
  V  V4  1  0.205438  0.619925  0.773643  1
  V  V5  1  0.380075  0.794562  0.273643  1
  V  V6  1  0.619925  0.205438  0.726357  1
  V  V7  1  0.794562  0.380075  0.226357  1
  O  O8  1  0.653322  0.353929  0.937793  1
  O  O9  1  0.646071  0.346678  0.437793  1
  O  O10  1  0.397451  0.117077  0.675103  1
  O  O11  1  0.882923  0.602549  0.175103  1
  O  O12  1  0.773834  0.029422  0.831499  1
  O  O13  1  0.970578  0.226166  0.331499  1
  O  O14  1  0.029422  0.773834  0.668501  1
  O  O15  1  0.226166  0.970578  0.168501  1
  O  O16  1  0.117077  0.397451  0.824897  1
  O  O17  1  0.602549  0.882923  0.324897  1
  O  O18  1  0.353929  0.653322  0.562207  1
  O  O19  1  0.346678  0.646071  0.062207  1
