# generated using pymatgen
data_TaAs2
_symmetry_space_group_name_H-M   'P 1'
_cell_length_a   5.02115138
_cell_length_b   5.02115138
_cell_length_c   7.84777340
_cell_angle_alpha   62.24068233
_cell_angle_beta   117.75931767
_cell_angle_gamma   140.10601038
_symmetry_Int_Tables_number   1
_chemical_formula_structural   TaAs2
_chemical_formula_sum   'Ta2 As4'
_cell_volume   110.22744763
_cell_formula_units_Z   2
loop_
 _symmetry_equiv_pos_site_id
 _symmetry_equiv_pos_as_xyz
  1  'x, y, z'
loop_
 _atom_site_type_symbol
 _atom_site_label
 _atom_site_symmetry_multiplicity
 _atom_site_fract_x
 _atom_site_fract_y
 _atom_site_fract_z
 _atom_site_occupancy
  Ta  Ta0  1  0.843089  0.156911  0.804620  1
  Ta  Ta1  1  0.156911  0.843089  0.195380  1
  As  As2  1  0.140622  0.859378  0.527663  1
  As  As3  1  0.859378  0.140622  0.472337  1
  As  As4  1  0.594323  0.405677  0.892345  1
  As  As5  1  0.405677  0.594323  0.107655  1
