# generated using pymatgen
data_K3La(PS4)2
_symmetry_space_group_name_H-M   'P 1'
_cell_length_a   9.29248374
_cell_length_b   17.38061244
_cell_length_c   9.71115907
_cell_angle_alpha   90.00000000
_cell_angle_beta   90.59458085
_cell_angle_gamma   90.00000000
_symmetry_Int_Tables_number   1
_chemical_formula_structural   K3La(PS4)2
_chemical_formula_sum   'K12 La4 P8 S32'
_cell_volume   1568.35570471
_cell_formula_units_Z   4
loop_
 _symmetry_equiv_pos_site_id
 _symmetry_equiv_pos_as_xyz
  1  'x, y, z'
loop_
 _atom_site_type_symbol
 _atom_site_label
 _atom_site_symmetry_multiplicity
 _atom_site_fract_x
 _atom_site_fract_y
 _atom_site_fract_z
 _atom_site_occupancy
  K  K0  1  0.268742  0.528444  0.988053  1
  K  K1  1  0.731258  0.028444  0.511947  1
  K  K2  1  0.731258  0.471556  0.011947  1
  K  K3  1  0.268742  0.971556  0.488053  1
  K  K4  1  0.378744  0.786011  0.871888  1
  K  K5  1  0.621256  0.286011  0.628112  1
  K  K6  1  0.621256  0.213989  0.128112  1
  K  K7  1  0.378744  0.713989  0.371888  1
  K  K8  1  0.128768  0.292290  0.117907  1
  K  K9  1  0.871232  0.792290  0.382093  1
  K  K10  1  0.871232  0.707710  0.882093  1
  K  K11  1  0.128768  0.207710  0.617907  1
  La  La12  1  0.227194  0.486761  0.527271  1
  La  La13  1  0.772806  0.986761  0.972729  1
  La  La14  1  0.772806  0.513239  0.472729  1
  La  La15  1  0.227194  0.013239  0.027271  1
  P  P16  1  0.995952  0.398678  0.742878  1
  P  P17  1  0.004048  0.898678  0.757122  1
  P  P18  1  0.004048  0.601322  0.257122  1
  P  P19  1  0.995952  0.101322  0.242878  1
  P  P20  1  0.523883  0.598959  0.719419  1
  P  P21  1  0.476117  0.098959  0.780581  1
  P  P22  1  0.476117  0.401041  0.280581  1
  P  P23  1  0.523883  0.901041  0.219419  1
  S  S24  1  0.335373  0.344069  0.406799  1
  S  S25  1  0.664627  0.844069  0.093201  1
  S  S26  1  0.664627  0.655931  0.593201  1
  S  S27  1  0.335373  0.155931  0.906799  1
  S  S28  1  0.563269  0.625232  0.919230  1
  S  S29  1  0.436731  0.125232  0.580770  1
  S  S30  1  0.436731  0.374768  0.080770  1
  S  S31  1  0.563269  0.874768  0.419230  1
  S  S32  1  0.963727  0.124689  0.035362  1
  S  S33  1  0.036273  0.624689  0.464638  1
  S  S34  1  0.036273  0.875311  0.964638  1
  S  S35  1  0.963727  0.375311  0.535362  1
  S  S36  1  0.048610  0.015154  0.748787  1
  S  S37  1  0.951390  0.515154  0.751213  1
  S  S38  1  0.951390  0.984846  0.251213  1
  S  S39  1  0.048610  0.484846  0.248787  1
  S  S40  1  0.538340  0.018508  0.180505  1
  S  S41  1  0.461660  0.518508  0.319495  1
  S  S42  1  0.461660  0.981492  0.819495  1
  S  S43  1  0.538340  0.481492  0.680505  1
  S  S44  1  0.316191  0.869901  0.168655  1
  S  S45  1  0.683809  0.369901  0.331345  1
  S  S46  1  0.683809  0.130099  0.831345  1
  S  S47  1  0.316191  0.630099  0.668655  1
  S  S48  1  0.212389  0.115091  0.276158  1
  S  S49  1  0.787611  0.615091  0.223842  1
  S  S50  1  0.787611  0.884909  0.723842  1
  S  S51  1  0.212389  0.384909  0.776158  1
  S  S52  1  0.879109  0.171773  0.363247  1
  S  S53  1  0.120891  0.671773  0.136753  1
  S  S54  1  0.120891  0.828227  0.636753  1
  S  S55  1  0.879109  0.328227  0.863247  1
