# generated using pymatgen
data_Cu8SiSe6
_symmetry_space_group_name_H-M   'P 1'
_cell_length_a   7.20177469
_cell_length_b   7.30674497
_cell_length_c   10.21774407
_cell_angle_alpha   90.00000000
_cell_angle_beta   90.00000000
_cell_angle_gamma   90.00000000
_symmetry_Int_Tables_number   1
_chemical_formula_structural   Cu8SiSe6
_chemical_formula_sum   'Cu16 Si2 Se12'
_cell_volume   537.67333624
_cell_formula_units_Z   2
loop_
 _symmetry_equiv_pos_site_id
 _symmetry_equiv_pos_as_xyz
  1  'x, y, z'
loop_
 _atom_site_type_symbol
 _atom_site_label
 _atom_site_symmetry_multiplicity
 _atom_site_fract_x
 _atom_site_fract_y
 _atom_site_fract_z
 _atom_site_occupancy
  Cu  Cu0  1  0.158551  0.306286  0.655878  1
  Cu  Cu1  1  0.732126  0.500000  0.965089  1
  Cu  Cu2  1  0.267874  0.000000  0.465089  1
  Cu  Cu3  1  0.593656  0.500000  0.534559  1
  Cu  Cu4  1  0.406344  0.000000  0.034559  1
  Cu  Cu5  1  0.841449  0.193714  0.155878  1
  Cu  Cu6  1  0.517885  0.687724  0.748510  1
  Cu  Cu7  1  0.158551  0.693714  0.655878  1
  Cu  Cu8  1  0.841449  0.806286  0.155878  1
  Cu  Cu9  1  0.894446  0.214620  0.843835  1
  Cu  Cu10  1  0.105554  0.285380  0.343835  1
  Cu  Cu11  1  0.105554  0.714620  0.343835  1
  Cu  Cu12  1  0.482115  0.812276  0.248510  1
  Cu  Cu13  1  0.517885  0.312276  0.748510  1
  Cu  Cu14  1  0.482115  0.187724  0.248510  1
  Cu  Cu15  1  0.894446  0.785380  0.843835  1
  Si  Si16  1  0.748228  0.000000  0.507965  1
  Si  Si17  1  0.251772  0.500000  0.007965  1
  Se  Se18  1  0.248520  0.761147  0.887497  1
  Se  Se19  1  0.266005  0.500000  0.485902  1
  Se  Se20  1  0.733995  0.000000  0.985902  1
  Se  Se21  1  0.799420  0.500000  0.731836  1
  Se  Se22  1  0.200580  0.000000  0.231836  1
  Se  Se23  1  0.503756  0.500000  0.138972  1
  Se  Se24  1  0.496244  0.000000  0.638972  1
  Se  Se25  1  0.995312  0.500000  0.139236  1
  Se  Se26  1  0.004688  0.000000  0.639236  1
  Se  Se27  1  0.248520  0.238853  0.887497  1
  Se  Se28  1  0.751480  0.261147  0.387497  1
  Se  Se29  1  0.751480  0.738853  0.387497  1
