# generated using pymatgen
data_Cd2Sb2O7
_symmetry_space_group_name_H-M   'P 1'
_cell_length_a   7.37657215
_cell_length_b   7.37657215
_cell_length_c   7.37657215
_cell_angle_alpha   120.31796965
_cell_angle_beta   118.86012374
_cell_angle_gamma   90.71785739
_symmetry_Int_Tables_number   1
_chemical_formula_structural   Cd2Sb2O7
_chemical_formula_sum   'Cd4 Sb4 O14'
_cell_volume   285.50561004
_cell_formula_units_Z   2
loop_
 _symmetry_equiv_pos_site_id
 _symmetry_equiv_pos_as_xyz
  1  'x, y, z'
loop_
 _atom_site_type_symbol
 _atom_site_label
 _atom_site_symmetry_multiplicity
 _atom_site_fract_x
 _atom_site_fract_y
 _atom_site_fract_z
 _atom_site_occupancy
  Cd  Cd0  1  0.000000  0.500000  0.000000  1
  Cd  Cd1  1  0.000000  0.000000  0.500000  1
  Cd  Cd2  1  0.000000  0.000000  0.000000  1
  Cd  Cd3  1  0.500000  0.500000  0.000000  1
  Sb  Sb4  1  0.500000  0.500000  0.500000  1
  Sb  Sb5  1  0.500000  0.000000  0.000000  1
  Sb  Sb6  1  0.500000  0.000000  0.500000  1
  Sb  Sb7  1  0.000000  0.500000  0.500000  1
  O  O8  1  0.554825  0.325338  0.644942  1
  O  O9  1  0.445175  0.090118  0.770513  1
  O  O10  1  0.819604  0.174662  0.229487  1
  O  O11  1  0.180396  0.409882  0.355058  1
  O  O12  1  0.445175  0.674662  0.355058  1
  O  O13  1  0.554825  0.909882  0.229487  1
  O  O14  1  0.180396  0.825338  0.770513  1
  O  O15  1  0.819604  0.590118  0.644942  1
  O  O16  1  0.402342  0.250000  0.152342  1
  O  O17  1  0.597658  0.750000  0.847658  1
  O  O18  1  0.833239  0.097069  0.736170  1
  O  O19  1  0.166761  0.902931  0.263830  1
  O  O20  1  0.139101  0.402931  0.736170  1
  O  O21  1  0.860899  0.597069  0.263830  1
