# generated using pymatgen
data_Mg4Nb2O9
_symmetry_space_group_name_H-M   'P 1'
_cell_length_a   5.22545845
_cell_length_b   5.22545845
_cell_length_c   14.19895794
_cell_angle_alpha   90.00000000
_cell_angle_beta   90.00000000
_cell_angle_gamma   120.00000000
_symmetry_Int_Tables_number   1
_chemical_formula_structural   Mg4Nb2O9
_chemical_formula_sum   'Mg8 Nb4 O18'
_cell_volume   335.76536992
_cell_formula_units_Z   2
loop_
 _symmetry_equiv_pos_site_id
 _symmetry_equiv_pos_as_xyz
  1  'x, y, z'
loop_
 _atom_site_type_symbol
 _atom_site_label
 _atom_site_symmetry_multiplicity
 _atom_site_fract_x
 _atom_site_fract_y
 _atom_site_fract_z
 _atom_site_occupancy
  Mg  Mg0  1  0.666667  0.333333  0.516594  1
  Mg  Mg1  1  0.333333  0.666667  0.983406  1
  Mg  Mg2  1  0.333333  0.666667  0.483406  1
  Mg  Mg3  1  0.666667  0.333333  0.016594  1
  Mg  Mg4  1  0.666667  0.333333  0.307807  1
  Mg  Mg5  1  0.333333  0.666667  0.192193  1
  Mg  Mg6  1  0.333333  0.666667  0.692193  1
  Mg  Mg7  1  0.666667  0.333333  0.807807  1
  Nb  Nb8  1  0.000000  0.000000  0.358009  1
  Nb  Nb9  1  0.000000  0.000000  0.141991  1
  Nb  Nb10  1  0.000000  0.000000  0.641991  1
  Nb  Nb11  1  0.000000  0.000000  0.858009  1
  O  O12  1  0.347567  0.028990  0.915584  1
  O  O13  1  0.971010  0.318576  0.915584  1
  O  O14  1  0.681424  0.652433  0.915584  1
  O  O15  1  0.318576  0.971010  0.584416  1
  O  O16  1  0.652433  0.681424  0.584416  1
  O  O17  1  0.028990  0.347567  0.584416  1
  O  O18  1  0.652433  0.971010  0.084416  1
  O  O19  1  0.028990  0.681424  0.084416  1
  O  O20  1  0.318576  0.347567  0.084416  1
  O  O21  1  0.681424  0.028990  0.415584  1
  O  O22  1  0.347567  0.318576  0.415584  1
  O  O23  1  0.971010  0.652433  0.415584  1
  O  O24  1  0.290196  0.000000  0.250000  1
  O  O25  1  0.000000  0.290196  0.250000  1
  O  O26  1  0.709804  0.709804  0.250000  1
  O  O27  1  0.709804  0.000000  0.750000  1
  O  O28  1  0.000000  0.709804  0.750000  1
  O  O29  1  0.290196  0.290196  0.750000  1
