# generated using pymatgen
data_CdS2O7
_symmetry_space_group_name_H-M   'P 1'
_cell_length_a   5.32554483
_cell_length_b   13.26315910
_cell_length_c   9.94979621
_cell_angle_alpha   90.00000000
_cell_angle_beta   121.17298916
_cell_angle_gamma   90.00000000
_symmetry_Int_Tables_number   1
_chemical_formula_structural   CdS2O7
_chemical_formula_sum   'Cd4 S8 O28'
_cell_volume   601.31250855
_cell_formula_units_Z   4
loop_
 _symmetry_equiv_pos_site_id
 _symmetry_equiv_pos_as_xyz
  1  'x, y, z'
loop_
 _atom_site_type_symbol
 _atom_site_label
 _atom_site_symmetry_multiplicity
 _atom_site_fract_x
 _atom_site_fract_y
 _atom_site_fract_z
 _atom_site_occupancy
  Cd  Cd0  1  0.124827  0.349707  0.328319  1
  Cd  Cd1  1  0.875173  0.849707  0.171681  1
  Cd  Cd2  1  0.875173  0.650293  0.671681  1
  Cd  Cd3  1  0.124827  0.150293  0.828319  1
  S  S4  1  0.626566  0.525602  0.307760  1
  S  S5  1  0.373434  0.025602  0.192240  1
  S  S6  1  0.373434  0.474398  0.692240  1
  S  S7  1  0.626566  0.974398  0.807760  1
  S  S8  1  0.714848  0.185992  0.413809  1
  S  S9  1  0.285152  0.685992  0.086191  1
  S  S10  1  0.285152  0.814008  0.586191  1
  S  S11  1  0.714848  0.314008  0.913809  1
  O  O12  1  0.509004  0.445547  0.359348  1
  O  O13  1  0.490996  0.945547  0.140652  1
  O  O14  1  0.490996  0.554453  0.640652  1
  O  O15  1  0.509004  0.054453  0.859348  1
  O  O16  1  0.749861  0.610585  0.416050  1
  O  O17  1  0.250139  0.110585  0.083950  1
  O  O18  1  0.250139  0.389415  0.583950  1
  O  O19  1  0.749861  0.889415  0.916050  1
  O  O20  1  0.024742  0.825056  0.430939  1
  O  O21  1  0.975258  0.325056  0.069061  1
  O  O22  1  0.975258  0.174944  0.569061  1
  O  O23  1  0.024742  0.674944  0.930939  1
  O  O24  1  0.670329  0.432218  0.851058  1
  O  O25  1  0.329671  0.932218  0.648942  1
  O  O26  1  0.329671  0.567782  0.148942  1
  O  O27  1  0.670329  0.067782  0.351058  1
  O  O28  1  0.184443  0.510055  0.748397  1
  O  O29  1  0.815557  0.010055  0.751603  1
  O  O30  1  0.815557  0.489945  0.251603  1
  O  O31  1  0.184443  0.989945  0.248397  1
  O  O32  1  0.446690  0.287002  0.910974  1
  O  O33  1  0.553310  0.787002  0.589026  1
  O  O34  1  0.553310  0.712998  0.089026  1
  O  O35  1  0.446690  0.212998  0.410974  1
  O  O36  1  0.765332  0.256325  0.805022  1
  O  O37  1  0.234668  0.756325  0.694978  1
  O  O38  1  0.234668  0.743675  0.194978  1
  O  O39  1  0.765332  0.243675  0.305022  1
