# generated using pymatgen
data_Li3Fe2(GeO4)3
_symmetry_space_group_name_H-M   'P 1'
_cell_length_a   10.50585637
_cell_length_b   10.50585637
_cell_length_c   10.50585637
_cell_angle_alpha   109.47122063
_cell_angle_beta   109.47122063
_cell_angle_gamma   109.47122063
_symmetry_Int_Tables_number   1
_chemical_formula_structural   Li3Fe2(GeO4)3
_chemical_formula_sum   'Li12 Fe8 Ge12 O48'
_cell_volume   892.63207208
_cell_formula_units_Z   4
loop_
 _symmetry_equiv_pos_site_id
 _symmetry_equiv_pos_as_xyz
  1  'x, y, z'
loop_
 _atom_site_type_symbol
 _atom_site_label
 _atom_site_symmetry_multiplicity
 _atom_site_fract_x
 _atom_site_fract_y
 _atom_site_fract_z
 _atom_site_occupancy
  Li  Li0  1  0.625000  0.250000  0.875000  1
  Li  Li1  1  0.875000  0.750000  0.625000  1
  Li  Li2  1  0.750000  0.625000  0.875000  1
  Li  Li3  1  0.250000  0.875000  0.625000  1
  Li  Li4  1  0.875000  0.625000  0.250000  1
  Li  Li5  1  0.625000  0.875000  0.750000  1
  Li  Li6  1  0.375000  0.750000  0.125000  1
  Li  Li7  1  0.125000  0.250000  0.375000  1
  Li  Li8  1  0.250000  0.375000  0.125000  1
  Li  Li9  1  0.750000  0.125000  0.375000  1
  Li  Li10  1  0.125000  0.375000  0.750000  1
  Li  Li11  1  0.375000  0.125000  0.250000  1
  Fe  Fe12  1  0.500000  0.500000  0.500000  1
  Fe  Fe13  1  0.500000  0.500000  0.000000  1
  Fe  Fe14  1  0.500000  1.000000  0.500000  1
  Fe  Fe15  1  1.000000  0.500000  0.500000  1
  Fe  Fe16  1  0.500000  1.000000  0.000000  1
  Fe  Fe17  1  1.000000  1.000000  0.500000  1
  Fe  Fe18  1  1.000000  0.500000  0.000000  1
  Fe  Fe19  1  0.000000  0.000000  0.000000  1
  Ge  Ge20  1  0.875000  0.125000  0.750000  1
  Ge  Ge21  1  0.125000  0.875000  0.250000  1
  Ge  Ge22  1  0.250000  0.625000  0.375000  1
  Ge  Ge23  1  0.125000  0.750000  0.875000  1
  Ge  Ge24  1  0.750000  0.875000  0.125000  1
  Ge  Ge25  1  0.375000  0.250000  0.625000  1
  Ge  Ge26  1  0.625000  0.750000  0.375000  1
  Ge  Ge27  1  0.875000  0.250000  0.125000  1
  Ge  Ge28  1  0.250000  0.125000  0.875000  1
  Ge  Ge29  1  0.750000  0.375000  0.625000  1
  Ge  Ge30  1  0.375000  0.625000  0.750000  1
  Ge  Ge31  1  0.625000  0.375000  0.250000  1
  O  O32  1  0.799183  0.419835  0.819534  1
  O  O33  1  0.080165  0.879348  0.399699  1
  O  O34  1  0.680466  0.100301  0.979649  1
  O  O35  1  0.700817  0.520351  0.620652  1
  O  O36  1  0.700817  0.680466  0.080165  1
  O  O37  1  0.520351  0.620652  0.700817  1
  O  O38  1  0.100301  0.620652  0.419835  1
  O  O39  1  0.620652  0.700817  0.520351  1
  O  O40  1  0.399699  0.819534  0.520351  1
  O  O41  1  0.879348  0.979649  0.799183  1
  O  O42  1  0.979649  0.799183  0.879348  1
  O  O43  1  0.080165  0.700817  0.680466  1
  O  O44  1  0.620652  0.419835  0.100301  1
  O  O45  1  0.520351  0.399699  0.819534  1
  O  O46  1  0.680466  0.080165  0.700817  1
  O  O47  1  0.419835  0.100301  0.620652  1
  O  O48  1  0.819534  0.520351  0.399699  1
  O  O49  1  0.399699  0.080165  0.879348  1
  O  O50  1  0.100301  0.979649  0.680466  1
  O  O51  1  0.600301  0.180466  0.479649  1
  O  O52  1  0.979649  0.680466  0.100301  1
  O  O53  1  0.819534  0.799183  0.419835  1
  O  O54  1  0.879348  0.399699  0.080165  1
  O  O55  1  0.799183  0.879348  0.979649  1
  O  O56  1  0.200817  0.580165  0.180466  1
  O  O57  1  0.919835  0.120652  0.600301  1
  O  O58  1  0.319534  0.899699  0.020351  1
  O  O59  1  0.299183  0.479649  0.379348  1
  O  O60  1  0.299183  0.319534  0.919835  1
  O  O61  1  0.479649  0.379348  0.299183  1
  O  O62  1  0.899699  0.379348  0.580165  1
  O  O63  1  0.379348  0.299183  0.479649  1
  O  O64  1  0.200817  0.120652  0.020351  1
  O  O65  1  0.120652  0.600301  0.919835  1
  O  O66  1  0.180466  0.200817  0.580165  1
  O  O67  1  0.580165  0.180466  0.200817  1
  O  O68  1  0.020351  0.319534  0.899699  1
  O  O69  1  0.899699  0.020351  0.319534  1
  O  O70  1  0.600301  0.919835  0.120652  1
  O  O71  1  0.180466  0.479649  0.600301  1
  O  O72  1  0.580165  0.899699  0.379348  1
  O  O73  1  0.319534  0.919835  0.299183  1
  O  O74  1  0.479649  0.600301  0.180466  1
  O  O75  1  0.379348  0.580165  0.899699  1
  O  O76  1  0.919835  0.299183  0.319534  1
  O  O77  1  0.020351  0.200817  0.120652  1
  O  O78  1  0.120652  0.020351  0.200817  1
  O  O79  1  0.419835  0.819534  0.799183  1
