# generated using pymatgen
data_InGaS3
_symmetry_space_group_name_H-M   'P 1'
_cell_length_a   10.08237505
_cell_length_b   10.08237505
_cell_length_c   6.23336528
_cell_angle_alpha   90.00000000
_cell_angle_beta   90.00000000
_cell_angle_gamma   158.23496993
_symmetry_Int_Tables_number   1
_chemical_formula_structural   InGaS3
_chemical_formula_sum   'In2 Ga2 S6'
_cell_volume   234.95747048
_cell_formula_units_Z   2
loop_
 _symmetry_equiv_pos_site_id
 _symmetry_equiv_pos_as_xyz
  1  'x, y, z'
loop_
 _atom_site_type_symbol
 _atom_site_label
 _atom_site_symmetry_multiplicity
 _atom_site_fract_x
 _atom_site_fract_y
 _atom_site_fract_z
 _atom_site_occupancy
  In  In0  1  0.667465  0.332535  0.497944  1
  In  In1  1  0.332535  0.667465  0.997944  1
  Ga  Ga2  1  0.115535  0.884465  0.942548  1
  Ga  Ga3  1  0.884465  0.115535  0.442548  1
  S  S4  1  0.104822  0.895178  0.303438  1
  S  S5  1  0.895178  0.104822  0.803438  1
  S  S6  1  0.433323  0.566677  0.291746  1
  S  S7  1  0.566677  0.433323  0.791746  1
  S  S8  1  0.219311  0.780689  0.758424  1
  S  S9  1  0.780689  0.219311  0.258424  1
