# generated using pymatgen
data_TmNi
_symmetry_space_group_name_H-M   'P 1'
_cell_length_a   4.10291353
_cell_length_b   5.36575839
_cell_length_c   6.94964787
_cell_angle_alpha   90.00000000
_cell_angle_beta   90.00000000
_cell_angle_gamma   90.00000000
_symmetry_Int_Tables_number   1
_chemical_formula_structural   TmNi
_chemical_formula_sum   'Tm4 Ni4'
_cell_volume   152.99818452
_cell_formula_units_Z   4
loop_
 _symmetry_equiv_pos_site_id
 _symmetry_equiv_pos_as_xyz
  1  'x, y, z'
loop_
 _atom_site_type_symbol
 _atom_site_label
 _atom_site_symmetry_multiplicity
 _atom_site_fract_x
 _atom_site_fract_y
 _atom_site_fract_z
 _atom_site_occupancy
  Tm  Tm0  1  0.250000  0.133512  0.180018  1
  Tm  Tm1  1  0.750000  0.866488  0.819982  1
  Tm  Tm2  1  0.750000  0.633512  0.319982  1
  Tm  Tm3  1  0.250000  0.366488  0.680018  1
  Ni  Ni4  1  0.250000  0.628189  0.037207  1
  Ni  Ni5  1  0.750000  0.371811  0.962793  1
  Ni  Ni6  1  0.750000  0.128189  0.462793  1
  Ni  Ni7  1  0.250000  0.871811  0.537207  1
