# generated using pymatgen
data_Sc(GaFe)6
_symmetry_space_group_name_H-M   'P 1'
_cell_length_a   6.51835935
_cell_length_b   6.51835935
_cell_length_c   6.51835935
_cell_angle_alpha   134.95795644
_cell_angle_beta   99.40437003
_cell_angle_gamma   97.47023224
_symmetry_Int_Tables_number   1
_chemical_formula_structural   Sc(GaFe)6
_chemical_formula_sum   'Sc1 Ga6 Fe6'
_cell_volume   181.00247751
_cell_formula_units_Z   1
loop_
 _symmetry_equiv_pos_site_id
 _symmetry_equiv_pos_as_xyz
  1  'x, y, z'
loop_
 _atom_site_type_symbol
 _atom_site_label
 _atom_site_symmetry_multiplicity
 _atom_site_fract_x
 _atom_site_fract_y
 _atom_site_fract_z
 _atom_site_occupancy
  Sc  Sc0  1  0.000000  0.000000  0.000000  1
  Ga  Ga1  1  0.673446  0.000000  0.673446  1
  Ga  Ga2  1  0.659390  0.659390  0.000000  1
  Ga  Ga3  1  0.340610  0.340610  0.000000  1
  Ga  Ga4  1  0.176638  0.676638  0.500000  1
  Ga  Ga5  1  0.823362  0.323362  0.500000  1
  Ga  Ga6  1  0.326554  0.000000  0.326554  1
  Fe  Fe7  1  0.243724  0.500000  0.743724  1
  Fe  Fe8  1  0.000000  0.500000  0.000000  1
  Fe  Fe9  1  0.000000  0.000000  0.500000  1
  Fe  Fe10  1  0.500000  0.500000  0.500000  1
  Fe  Fe11  1  0.500000  0.000000  0.000000  1
  Fe  Fe12  1  0.756276  0.500000  0.256276  1
