# generated using pymatgen
data_YbAu4
_symmetry_space_group_name_H-M   'P 1'
_cell_length_a   5.20561679
_cell_length_b   5.20561679
_cell_length_c   5.20561679
_cell_angle_alpha   100.00315958
_cell_angle_beta   100.00315958
_cell_angle_gamma   130.73754301
_symmetry_Int_Tables_number   1
_chemical_formula_structural   YbAu4
_chemical_formula_sum   'Yb1 Au4'
_cell_volume   97.15967252
_cell_formula_units_Z   1
loop_
 _symmetry_equiv_pos_site_id
 _symmetry_equiv_pos_as_xyz
  1  'x, y, z'
loop_
 _atom_site_type_symbol
 _atom_site_label
 _atom_site_symmetry_multiplicity
 _atom_site_fract_x
 _atom_site_fract_y
 _atom_site_fract_z
 _atom_site_occupancy
  Yb  Yb0  1  0.000000  0.000000  0.000000  1
  Au  Au1  1  0.800328  0.593297  0.393624  1
  Au  Au2  1  0.199672  0.406703  0.606376  1
  Au  Au3  1  0.406703  0.800328  0.207031  1
  Au  Au4  1  0.593297  0.199672  0.792969  1
