# generated using pymatgen
data_IrSe2
_symmetry_space_group_name_H-M   'P 1'
_cell_length_a   3.80690296
_cell_length_b   6.02149780
_cell_length_c   21.26268445
_cell_angle_alpha   90.00000000
_cell_angle_beta   90.00000000
_cell_angle_gamma   90.00000000
_symmetry_Int_Tables_number   1
_chemical_formula_structural   IrSe2
_chemical_formula_sum   'Ir8 Se16'
_cell_volume   487.40999713
_cell_formula_units_Z   8
loop_
 _symmetry_equiv_pos_site_id
 _symmetry_equiv_pos_as_xyz
  1  'x, y, z'
loop_
 _atom_site_type_symbol
 _atom_site_label
 _atom_site_symmetry_multiplicity
 _atom_site_fract_x
 _atom_site_fract_y
 _atom_site_fract_z
 _atom_site_occupancy
  Ir  Ir0  1  0.250000  0.941382  0.305005  1
  Ir  Ir1  1  0.750000  0.058618  0.694995  1
  Ir  Ir2  1  0.750000  0.441382  0.194995  1
  Ir  Ir3  1  0.250000  0.558618  0.805005  1
  Ir  Ir4  1  0.250000  0.930444  0.076561  1
  Ir  Ir5  1  0.750000  0.069556  0.923439  1
  Ir  Ir6  1  0.750000  0.430444  0.423439  1
  Ir  Ir7  1  0.250000  0.569556  0.576561  1
  Se  Se8  1  0.250000  0.572535  0.361582  1
  Se  Se9  1  0.750000  0.427465  0.638418  1
  Se  Se10  1  0.750000  0.072535  0.138418  1
  Se  Se11  1  0.250000  0.927465  0.861582  1
  Se  Se12  1  0.250000  0.182738  0.761310  1
  Se  Se13  1  0.750000  0.817262  0.238690  1
  Se  Se14  1  0.750000  0.682738  0.738690  1
  Se  Se15  1  0.250000  0.317262  0.261310  1
  Se  Se16  1  0.250000  0.277324  0.490792  1
  Se  Se17  1  0.750000  0.722676  0.509208  1
  Se  Se18  1  0.750000  0.777324  0.009208  1
  Se  Se19  1  0.250000  0.222676  0.990792  1
  Se  Se20  1  0.250000  0.951935  0.622001  1
  Se  Se21  1  0.750000  0.048065  0.377999  1
  Se  Se22  1  0.750000  0.451935  0.877999  1
  Se  Se23  1  0.250000  0.548065  0.122001  1
