# generated using pymatgen
data_Si3N4
_symmetry_space_group_name_H-M   'P 1'
_cell_length_a   5.61902811
_cell_length_b   5.61902811
_cell_length_c   5.61902811
_cell_angle_alpha   109.47122063
_cell_angle_beta   109.47122063
_cell_angle_gamma   109.47122063
_symmetry_Int_Tables_number   1
_chemical_formula_structural   Si3N4
_chemical_formula_sum   'Si6 N8'
_cell_volume   136.57201731
_cell_formula_units_Z   2
loop_
 _symmetry_equiv_pos_site_id
 _symmetry_equiv_pos_as_xyz
  1  'x, y, z'
loop_
 _atom_site_type_symbol
 _atom_site_label
 _atom_site_symmetry_multiplicity
 _atom_site_fract_x
 _atom_site_fract_y
 _atom_site_fract_z
 _atom_site_occupancy
  Si  Si0  1  0.750000  0.375000  0.625000  1
  Si  Si1  1  0.125000  0.875000  0.250000  1
  Si  Si2  1  0.375000  0.625000  0.750000  1
  Si  Si3  1  0.625000  0.750000  0.375000  1
  Si  Si4  1  0.875000  0.250000  0.125000  1
  Si  Si5  1  0.250000  0.125000  0.875000  1
  N  N6  1  0.062750  0.062750  0.062750  1
  N  N7  1  0.937250  0.500000  0.000000  1
  N  N8  1  0.500000  0.000000  0.937250  1
  N  N9  1  0.000000  0.937250  0.500000  1
  N  N10  1  0.500000  0.000000  0.437250  1
  N  N11  1  0.000000  0.437250  0.500000  1
  N  N12  1  0.562750  0.562750  0.562750  1
  N  N13  1  0.437250  0.500000  0.000000  1
