# generated using pymatgen
data_ErSnAu
_symmetry_space_group_name_H-M   'P 1'
_cell_length_a   4.69319054
_cell_length_b   4.69319054
_cell_length_c   7.42595292
_cell_angle_alpha   90.00000000
_cell_angle_beta   90.00000000
_cell_angle_gamma   120.00000000
_symmetry_Int_Tables_number   1
_chemical_formula_structural   ErSnAu
_chemical_formula_sum   'Er2 Sn2 Au2'
_cell_volume   141.65085368
_cell_formula_units_Z   2
loop_
 _symmetry_equiv_pos_site_id
 _symmetry_equiv_pos_as_xyz
  1  'x, y, z'
loop_
 _atom_site_type_symbol
 _atom_site_label
 _atom_site_symmetry_multiplicity
 _atom_site_fract_x
 _atom_site_fract_y
 _atom_site_fract_z
 _atom_site_occupancy
  Er  Er0  1  0.000000  0.000000  0.479598  1
  Er  Er1  1  0.000000  0.000000  0.979598  1
  Sn  Sn2  1  0.333333  0.666667  0.707710  1
  Sn  Sn3  1  0.666667  0.333333  0.207710  1
  Au  Au4  1  0.666667  0.333333  0.812692  1
  Au  Au5  1  0.333333  0.666667  0.312692  1
