# generated using pymatgen
data_CaMgGe
_symmetry_space_group_name_H-M   'P 1'
_cell_length_a   4.46098821
_cell_length_b   7.53601458
_cell_length_c   8.41929467
_cell_angle_alpha   90.00000000
_cell_angle_beta   90.00000000
_cell_angle_gamma   90.00000000
_symmetry_Int_Tables_number   1
_chemical_formula_structural   CaMgGe
_chemical_formula_sum   'Ca4 Mg4 Ge4'
_cell_volume   283.04045602
_cell_formula_units_Z   4
loop_
 _symmetry_equiv_pos_site_id
 _symmetry_equiv_pos_as_xyz
  1  'x, y, z'
loop_
 _atom_site_type_symbol
 _atom_site_label
 _atom_site_symmetry_multiplicity
 _atom_site_fract_x
 _atom_site_fract_y
 _atom_site_fract_z
 _atom_site_occupancy
  Ca  Ca0  1  0.750000  0.979521  0.679512  1
  Ca  Ca1  1  0.250000  0.020479  0.320488  1
  Ca  Ca2  1  0.750000  0.479521  0.820488  1
  Ca  Ca3  1  0.250000  0.520479  0.179512  1
  Mg  Mg4  1  0.750000  0.857338  0.061976  1
  Mg  Mg5  1  0.250000  0.142662  0.938024  1
  Mg  Mg6  1  0.750000  0.357338  0.438024  1
  Mg  Mg7  1  0.250000  0.642662  0.561976  1
  Ge  Ge8  1  0.750000  0.232116  0.116822  1
  Ge  Ge9  1  0.250000  0.767884  0.883178  1
  Ge  Ge10  1  0.750000  0.732116  0.383178  1
  Ge  Ge11  1  0.250000  0.267884  0.616822  1
