# generated using pymatgen
data_MgV2O5
_symmetry_space_group_name_H-M   'P 1'
_cell_length_a   5.42720419
_cell_length_b   5.42720419
_cell_length_c   11.21048794
_cell_angle_alpha   90.00000000
_cell_angle_beta   90.00000000
_cell_angle_gamma   139.86093953
_symmetry_Int_Tables_number   1
_chemical_formula_structural   MgV2O5
_chemical_formula_sum   'Mg2 V4 O10'
_cell_volume   212.86165055
_cell_formula_units_Z   2
loop_
 _symmetry_equiv_pos_site_id
 _symmetry_equiv_pos_as_xyz
  1  'x, y, z'
loop_
 _atom_site_type_symbol
 _atom_site_label
 _atom_site_symmetry_multiplicity
 _atom_site_fract_x
 _atom_site_fract_y
 _atom_site_fract_z
 _atom_site_occupancy
  Mg  Mg0  1  0.108585  0.891415  0.750000  1
  Mg  Mg1  1  0.891415  0.108585  0.250000  1
  V  V2  1  0.798968  0.201032  0.597886  1
  V  V3  1  0.201032  0.798968  0.402114  1
  V  V4  1  0.201032  0.798968  0.097886  1
  V  V5  1  0.798968  0.201032  0.902114  1
  O  O6  1  0.303957  0.696043  0.250000  1
  O  O7  1  0.696043  0.303957  0.750000  1
  O  O8  1  0.764431  0.235569  0.077394  1
  O  O9  1  0.235569  0.764431  0.922606  1
  O  O10  1  0.235569  0.764431  0.577394  1
  O  O11  1  0.764431  0.235569  0.422606  1
  O  O12  1  0.958870  0.041130  0.627877  1
  O  O13  1  0.041130  0.958870  0.372123  1
  O  O14  1  0.958870  0.041130  0.872123  1
  O  O15  1  0.041130  0.958870  0.127877  1
