# generated using pymatgen
data_Ba3CrN3
_symmetry_space_group_name_H-M   'P 1'
_cell_length_a   8.43191770
_cell_length_b   8.43191770
_cell_length_c   5.49928800
_cell_angle_alpha   90.00000000
_cell_angle_beta   90.00000000
_cell_angle_gamma   120.00000000
_symmetry_Int_Tables_number   1
_chemical_formula_structural   Ba3CrN3
_chemical_formula_sum   'Ba6 Cr2 N6'
_cell_volume   338.60222998
_cell_formula_units_Z   2
loop_
 _symmetry_equiv_pos_site_id
 _symmetry_equiv_pos_as_xyz
  1  'x, y, z'
loop_
 _atom_site_type_symbol
 _atom_site_label
 _atom_site_symmetry_multiplicity
 _atom_site_fract_x
 _atom_site_fract_y
 _atom_site_fract_z
 _atom_site_occupancy
  Ba  Ba0  1  0.637377  0.715584  0.750000  1
  Ba  Ba1  1  0.921792  0.637377  0.250000  1
  Ba  Ba2  1  0.715584  0.078208  0.250000  1
  Ba  Ba3  1  0.284416  0.921792  0.750000  1
  Ba  Ba4  1  0.078208  0.362623  0.750000  1
  Ba  Ba5  1  0.362623  0.284416  0.250000  1
  Cr  Cr6  1  0.666667  0.333333  0.750000  1
  Cr  Cr7  1  0.333333  0.666667  0.250000  1
  N  N8  1  0.545034  0.680905  0.250000  1
  N  N9  1  0.864129  0.545034  0.750000  1
  N  N10  1  0.680905  0.135871  0.750000  1
  N  N11  1  0.319095  0.864129  0.250000  1
  N  N12  1  0.135871  0.454966  0.250000  1
  N  N13  1  0.454966  0.319095  0.750000  1
