# generated using pymatgen
data_ZnAu3
_symmetry_space_group_name_H-M   'P 1'
_cell_length_a   8.85011537
_cell_length_b   8.85011537
_cell_length_c   5.71125828
_cell_angle_alpha   90.00000000
_cell_angle_beta   90.00000000
_cell_angle_gamma   141.74640505
_symmetry_Int_Tables_number   1
_chemical_formula_structural   ZnAu3
_chemical_formula_sum   'Zn4 Au12'
_cell_volume   276.96238348
_cell_formula_units_Z   4
loop_
 _symmetry_equiv_pos_site_id
 _symmetry_equiv_pos_as_xyz
  1  'x, y, z'
loop_
 _atom_site_type_symbol
 _atom_site_label
 _atom_site_symmetry_multiplicity
 _atom_site_fract_x
 _atom_site_fract_y
 _atom_site_fract_z
 _atom_site_occupancy
  Zn  Zn0  1  0.636169  0.363831  1.000000  1
  Zn  Zn1  1  0.363831  0.636169  1.000000  1
  Zn  Zn2  1  0.136169  0.863831  0.500000  1
  Zn  Zn3  1  0.863831  0.136169  0.500000  1
  Au  Au4  1  0.682679  0.682679  0.181478  1
  Au  Au5  1  0.182679  0.182679  0.318522  1
  Au  Au6  1  0.817321  0.817321  0.681478  1
  Au  Au7  1  0.380802  0.619198  0.500000  1
  Au  Au8  1  0.997890  0.497890  0.750000  1
  Au  Au9  1  0.880802  0.119198  0.000000  1
  Au  Au10  1  0.002110  0.502110  0.250000  1
  Au  Au11  1  0.317321  0.317321  0.818522  1
  Au  Au12  1  0.619198  0.380802  0.500000  1
  Au  Au13  1  0.119198  0.880802  0.000000  1
  Au  Au14  1  0.502110  0.002110  0.250000  1
  Au  Au15  1  0.497890  0.997890  0.750000  1
