# generated using pymatgen
data_NdCrO4
_symmetry_space_group_name_H-M   'P 1'
_cell_length_a   6.16762898
_cell_length_b   6.16762898
_cell_length_c   6.16762898
_cell_angle_alpha   105.84779369
_cell_angle_beta   105.84779369
_cell_angle_gamma   116.98996337
_symmetry_Int_Tables_number   1
_chemical_formula_structural   NdCrO4
_chemical_formula_sum   'Nd2 Cr2 O8'
_cell_volume   178.24478573
_cell_formula_units_Z   2
loop_
 _symmetry_equiv_pos_site_id
 _symmetry_equiv_pos_as_xyz
  1  'x, y, z'
loop_
 _atom_site_type_symbol
 _atom_site_label
 _atom_site_symmetry_multiplicity
 _atom_site_fract_x
 _atom_site_fract_y
 _atom_site_fract_z
 _atom_site_occupancy
  Nd  Nd0  1  0.000000  0.000000  0.000000  1
  Nd  Nd1  1  0.250000  0.750000  0.500000  1
  Cr  Cr2  1  0.750000  0.250000  0.500000  1
  Cr  Cr3  1  0.500000  0.500000  0.000000  1
  O  O4  1  0.849020  0.668750  0.180270  1
  O  O5  1  0.918750  0.238480  0.319730  1
  O  O6  1  0.918750  0.599020  0.680270  1
  O  O7  1  0.488480  0.668750  0.819730  1
  O  O8  1  0.331250  0.511520  0.180270  1
  O  O9  1  0.400980  0.081250  0.319730  1
  O  O10  1  0.761520  0.081250  0.680270  1
  O  O11  1  0.331250  0.150980  0.819730  1
