# generated using pymatgen
data_Y3Si3Pd2
_symmetry_space_group_name_H-M   'P 1'
_cell_length_a   5.65814338
_cell_length_b   5.65814338
_cell_length_c   14.15345501
_cell_angle_alpha   90.00000000
_cell_angle_beta   90.00000000
_cell_angle_gamma   135.68266181
_symmetry_Int_Tables_number   1
_chemical_formula_structural   Y3Si3Pd2
_chemical_formula_sum   'Y6 Si6 Pd4'
_cell_volume   316.56196526
_cell_formula_units_Z   2
loop_
 _symmetry_equiv_pos_site_id
 _symmetry_equiv_pos_as_xyz
  1  'x, y, z'
loop_
 _atom_site_type_symbol
 _atom_site_label
 _atom_site_symmetry_multiplicity
 _atom_site_fract_x
 _atom_site_fract_y
 _atom_site_fract_z
 _atom_site_occupancy
  Y  Y0  1  0.412976  0.587024  0.389000  1
  Y  Y1  1  0.587024  0.412976  0.611000  1
  Y  Y2  1  0.865561  0.134439  0.750000  1
  Y  Y3  1  0.134439  0.865561  0.250000  1
  Y  Y4  1  0.412976  0.587024  0.111000  1
  Y  Y5  1  0.587024  0.412976  0.889000  1
  Si  Si6  1  0.838560  0.161440  0.250000  1
  Si  Si7  1  0.161440  0.838560  0.750000  1
  Si  Si8  1  0.894289  0.105711  0.539019  1
  Si  Si9  1  0.105711  0.894289  0.460981  1
  Si  Si10  1  0.105711  0.894289  0.039019  1
  Si  Si11  1  0.894289  0.105711  0.960981  1
  Pd  Pd12  1  0.295253  0.704747  0.594540  1
  Pd  Pd13  1  0.704747  0.295253  0.405460  1
  Pd  Pd14  1  0.704747  0.295253  0.094540  1
  Pd  Pd15  1  0.295253  0.704747  0.905460  1
