# generated using pymatgen
data_BaAl4O7
_symmetry_space_group_name_H-M   'P 1'
_cell_length_a   5.63127333
_cell_length_b   9.28149991
_cell_length_c   12.94800649
_cell_angle_alpha   90.00000000
_cell_angle_beta   90.00000000
_cell_angle_gamma   90.00000000
_symmetry_Int_Tables_number   1
_chemical_formula_structural   BaAl4O7
_chemical_formula_sum   'Ba4 Al16 O28'
_cell_volume   676.74909051
_cell_formula_units_Z   4
loop_
 _symmetry_equiv_pos_site_id
 _symmetry_equiv_pos_as_xyz
  1  'x, y, z'
loop_
 _atom_site_type_symbol
 _atom_site_label
 _atom_site_symmetry_multiplicity
 _atom_site_fract_x
 _atom_site_fract_y
 _atom_site_fract_z
 _atom_site_occupancy
  Ba  Ba0  1  0.874468  0.549077  0.750000  1
  Ba  Ba1  1  0.625532  0.049077  0.250000  1
  Ba  Ba2  1  0.374468  0.950923  0.750000  1
  Ba  Ba3  1  0.125532  0.450923  0.250000  1
  Al  Al4  1  0.321526  0.663867  0.574375  1
  Al  Al5  1  0.321526  0.663867  0.925625  1
  Al  Al6  1  0.178474  0.163867  0.425625  1
  Al  Al7  1  0.178474  0.163867  0.074375  1
  Al  Al8  1  0.821526  0.836133  0.574375  1
  Al  Al9  1  0.821526  0.836133  0.925625  1
  Al  Al10  1  0.678474  0.336133  0.425625  1
  Al  Al11  1  0.678474  0.336133  0.074375  1
  Al  Al12  1  0.129359  0.816030  0.373045  1
  Al  Al13  1  0.129359  0.816030  0.126955  1
  Al  Al14  1  0.370641  0.316030  0.626955  1
  Al  Al15  1  0.370641  0.316030  0.873045  1
  Al  Al16  1  0.629359  0.683970  0.373045  1
  Al  Al17  1  0.629359  0.683970  0.126955  1
  Al  Al18  1  0.870641  0.183970  0.626955  1
  Al  Al19  1  0.870641  0.183970  0.873045  1
  O  O20  1  0.837026  0.808697  0.435704  1
  O  O21  1  0.837026  0.808697  0.064296  1
  O  O22  1  0.662974  0.308697  0.564296  1
  O  O23  1  0.662974  0.308697  0.935704  1
  O  O24  1  0.337026  0.691303  0.435704  1
  O  O25  1  0.337026  0.691303  0.064296  1
  O  O26  1  0.162974  0.191303  0.564296  1
  O  O27  1  0.162974  0.191303  0.935704  1
  O  O28  1  0.259015  0.489300  0.615581  1
  O  O29  1  0.259015  0.489300  0.884419  1
  O  O30  1  0.240985  0.989300  0.384419  1
  O  O31  1  0.240985  0.989300  0.115581  1
  O  O32  1  0.093356  0.773900  0.623704  1
  O  O33  1  0.093356  0.773900  0.876296  1
  O  O34  1  0.406644  0.273900  0.376296  1
  O  O35  1  0.406644  0.273900  0.123704  1
  O  O36  1  0.593356  0.726100  0.623704  1
  O  O37  1  0.593356  0.726100  0.876296  1
  O  O38  1  0.906644  0.226100  0.376296  1
  O  O39  1  0.906644  0.226100  0.123704  1
  O  O40  1  0.740985  0.510700  0.384419  1
  O  O41  1  0.740985  0.510700  0.115581  1
  O  O42  1  0.759015  0.010700  0.615581  1
  O  O43  1  0.759015  0.010700  0.884419  1
  O  O44  1  0.561161  0.751446  0.250000  1
  O  O45  1  0.938839  0.251446  0.750000  1
  O  O46  1  0.061161  0.748554  0.250000  1
  O  O47  1  0.438839  0.248554  0.750000  1
