# generated using pymatgen
data_LuMnO3
_symmetry_space_group_name_H-M   'P 1'
_cell_length_a   6.10284367
_cell_length_b   6.10284367
_cell_length_c   11.44529841
_cell_angle_alpha   90.00000000
_cell_angle_beta   90.00000000
_cell_angle_gamma   120.00000000
_symmetry_Int_Tables_number   1
_chemical_formula_structural   LuMnO3
_chemical_formula_sum   'Lu6 Mn6 O18'
_cell_volume   369.16646436
_cell_formula_units_Z   6
loop_
 _symmetry_equiv_pos_site_id
 _symmetry_equiv_pos_as_xyz
  1  'x, y, z'
loop_
 _atom_site_type_symbol
 _atom_site_label
 _atom_site_symmetry_multiplicity
 _atom_site_fract_x
 _atom_site_fract_y
 _atom_site_fract_z
 _atom_site_occupancy
  Lu  Lu0  1  0.666667  0.333333  0.231500  1
  Lu  Lu1  1  0.333333  0.666667  0.731500  1
  Lu  Lu2  1  0.666667  0.333333  0.731500  1
  Lu  Lu3  1  0.333333  0.666667  0.231500  1
  Lu  Lu4  1  0.000000  0.000000  0.775265  1
  Lu  Lu5  1  0.000000  0.000000  0.275265  1
  Mn  Mn6  1  0.666725  0.000000  0.500736  1
  Mn  Mn7  1  0.666725  0.666725  0.000736  1
  Mn  Mn8  1  0.000000  0.333275  0.000736  1
  Mn  Mn9  1  0.000000  0.666725  0.500736  1
  Mn  Mn10  1  0.333275  0.333275  0.500736  1
  Mn  Mn11  1  0.333275  0.000000  0.000736  1
  O  O12  1  0.666667  0.333333  0.023977  1
  O  O13  1  0.333333  0.666667  0.523977  1
  O  O14  1  0.666667  0.333333  0.523977  1
  O  O15  1  0.333333  0.666667  0.023977  1
  O  O16  1  0.000000  0.000000  0.973245  1
  O  O17  1  0.000000  0.000000  0.473245  1
  O  O18  1  0.360791  0.000000  0.834376  1
  O  O19  1  0.360791  0.360791  0.334376  1
  O  O20  1  0.000000  0.639209  0.334376  1
  O  O21  1  0.000000  0.360791  0.834376  1
  O  O22  1  0.639209  0.639209  0.834376  1
  O  O23  1  0.639209  0.000000  0.334376  1
  O  O24  1  0.305859  0.000000  0.167400  1
  O  O25  1  0.305859  0.305859  0.667400  1
  O  O26  1  0.000000  0.694141  0.667400  1
  O  O27  1  0.000000  0.305859  0.167400  1
  O  O28  1  0.694141  0.694141  0.167400  1
  O  O29  1  0.694141  0.000000  0.667400  1
