# generated using pymatgen
data_NaSm3SiS7
_symmetry_space_group_name_H-M   'P 1'
_cell_length_a   10.19147482
_cell_length_b   10.19147482
_cell_length_c   5.75021648
_cell_angle_alpha   90.00000000
_cell_angle_beta   90.00000000
_cell_angle_gamma   120.00000000
_symmetry_Int_Tables_number   1
_chemical_formula_structural   NaSm3SiS7
_chemical_formula_sum   'Na2 Sm6 Si2 S14'
_cell_volume   517.23618334
_cell_formula_units_Z   2
loop_
 _symmetry_equiv_pos_site_id
 _symmetry_equiv_pos_as_xyz
  1  'x, y, z'
loop_
 _atom_site_type_symbol
 _atom_site_label
 _atom_site_symmetry_multiplicity
 _atom_site_fract_x
 _atom_site_fract_y
 _atom_site_fract_z
 _atom_site_occupancy
  Na  Na0  1  0.000000  0.000000  0.020798  1
  Na  Na1  1  0.000000  0.000000  0.520798  1
  Sm  Sm2  1  0.125617  0.764719  0.751333  1
  Sm  Sm3  1  0.360897  0.125617  0.251333  1
  Sm  Sm4  1  0.235281  0.360897  0.751333  1
  Sm  Sm5  1  0.639103  0.874383  0.751333  1
  Sm  Sm6  1  0.764719  0.639103  0.251333  1
  Sm  Sm7  1  0.874383  0.235281  0.251333  1
  Si  Si8  1  0.666667  0.333333  0.663056  1
  Si  Si9  1  0.333333  0.666667  0.163056  1
  S  S10  1  0.090206  0.830456  0.272409  1
  S  S11  1  0.740250  0.909794  0.272409  1
  S  S12  1  0.830456  0.740250  0.772409  1
  S  S13  1  0.909794  0.169544  0.772409  1
  S  S14  1  0.522320  0.409450  0.515277  1
  S  S15  1  0.169544  0.259750  0.272409  1
  S  S16  1  0.333333  0.666667  0.530890  1
  S  S17  1  0.666667  0.333333  0.030890  1
  S  S18  1  0.409450  0.887131  0.015277  1
  S  S19  1  0.112869  0.522320  0.015277  1
  S  S20  1  0.477680  0.590550  0.015277  1
  S  S21  1  0.590550  0.112869  0.515277  1
  S  S22  1  0.887131  0.477680  0.515277  1
  S  S23  1  0.259750  0.090206  0.772409  1
