# generated using pymatgen
data_CrCoTe
_symmetry_space_group_name_H-M   'P 1'
_cell_length_a   4.15921616
_cell_length_b   4.15921616
_cell_length_c   4.15921616
_cell_angle_alpha   60.00000000
_cell_angle_beta   60.00000000
_cell_angle_gamma   60.00000000
_symmetry_Int_Tables_number   1
_chemical_formula_structural   CrCoTe
_chemical_formula_sum   'Cr1 Co1 Te1'
_cell_volume   50.87676362
_cell_formula_units_Z   1
loop_
 _symmetry_equiv_pos_site_id
 _symmetry_equiv_pos_as_xyz
  1  'x, y, z'
loop_
 _atom_site_type_symbol
 _atom_site_label
 _atom_site_symmetry_multiplicity
 _atom_site_fract_x
 _atom_site_fract_y
 _atom_site_fract_z
 _atom_site_occupancy
  Cr  Cr0  1  0.250000  0.250000  0.250000  1
  Co  Co1  1  0.000000  0.000000  0.000000  1
  Te  Te2  1  0.750000  0.750000  0.750000  1
