# generated using pymatgen
data_Mg2Co12P7
_symmetry_space_group_name_H-M   'P 1'
_cell_length_a   8.96811337
_cell_length_b   8.96811337
_cell_length_c   3.46778550
_cell_angle_alpha   90.00000000
_cell_angle_beta   90.00000000
_cell_angle_gamma   120.00000000
_symmetry_Int_Tables_number   1
_chemical_formula_structural   Mg2Co12P7
_chemical_formula_sum   'Mg2 Co12 P7'
_cell_volume   241.53776179
_cell_formula_units_Z   1
loop_
 _symmetry_equiv_pos_site_id
 _symmetry_equiv_pos_as_xyz
  1  'x, y, z'
loop_
 _atom_site_type_symbol
 _atom_site_label
 _atom_site_symmetry_multiplicity
 _atom_site_fract_x
 _atom_site_fract_y
 _atom_site_fract_z
 _atom_site_occupancy
  Mg  Mg0  1  0.000000  0.000000  0.000000  1
  Mg  Mg1  1  0.333333  0.666667  0.500000  1
  Co  Co2  1  0.048628  0.775480  0.500000  1
  Co  Co3  1  0.726853  0.951372  0.500000  1
  Co  Co4  1  0.905993  0.438818  0.500000  1
  Co  Co5  1  0.532825  0.094007  0.500000  1
  Co  Co6  1  0.561182  0.467175  0.500000  1
  Co  Co7  1  0.392218  0.211960  0.000000  1
  Co  Co8  1  0.788040  0.180258  0.000000  1
  Co  Co9  1  0.819742  0.607782  0.000000  1
  Co  Co10  1  0.600326  0.710084  0.000000  1
  Co  Co11  1  0.289916  0.890241  0.000000  1
  Co  Co12  1  0.109759  0.399674  0.000000  1
  Co  Co13  1  0.224520  0.273147  0.500000  1
  P  P14  1  0.261216  0.041009  0.500000  1
  P  P15  1  0.958991  0.220207  0.500000  1
  P  P16  1  0.779793  0.738784  0.500000  1
  P  P17  1  0.376326  0.448948  0.000000  1
  P  P18  1  0.551052  0.927378  0.000000  1
  P  P19  1  0.072622  0.623674  0.000000  1
  P  P20  1  0.666667  0.333333  0.000000  1
