# generated using pymatgen
data_Ba2CaReO6
_symmetry_space_group_name_H-M   'P 1'
_cell_length_a   5.99669052
_cell_length_b   5.99669052
_cell_length_c   5.99669052
_cell_angle_alpha   120.16953337
_cell_angle_beta   120.16953337
_cell_angle_gamma   89.70660956
_symmetry_Int_Tables_number   1
_chemical_formula_structural   Ba2CaReO6
_chemical_formula_sum   'Ba2 Ca1 Re1 O6'
_cell_volume   152.08957107
_cell_formula_units_Z   1
loop_
 _symmetry_equiv_pos_site_id
 _symmetry_equiv_pos_as_xyz
  1  'x, y, z'
loop_
 _atom_site_type_symbol
 _atom_site_label
 _atom_site_symmetry_multiplicity
 _atom_site_fract_x
 _atom_site_fract_y
 _atom_site_fract_z
 _atom_site_occupancy
  Ba  Ba0  1  0.750000  0.250000  0.500000  1
  Ba  Ba1  1  0.250000  0.750000  0.500000  1
  Ca  Ca2  1  0.500000  0.500000  0.000000  1
  Re  Re3  1  0.000000  0.000000  0.000000  1
  O  O4  1  0.749500  0.793309  0.542809  1
  O  O5  1  0.793309  0.250500  0.043809  1
  O  O6  1  0.206691  0.749500  0.956191  1
  O  O7  1  0.250500  0.206691  0.457191  1
  O  O8  1  0.229134  0.229134  0.000000  1
  O  O9  1  0.770866  0.770866  0.000000  1
