# generated using pymatgen
data_Cs3SiF7
_symmetry_space_group_name_H-M   'P 1'
_cell_length_a   8.47418600
_cell_length_b   8.47418600
_cell_length_c   6.24047000
_cell_angle_alpha   90.00000000
_cell_angle_beta   90.00000000
_cell_angle_gamma   90.00000000
_symmetry_Int_Tables_number   1
_chemical_formula_structural   Cs3SiF7
_chemical_formula_sum   'Cs6 Si2 F14'
_cell_volume   448.13956054
_cell_formula_units_Z   2
loop_
 _symmetry_equiv_pos_site_id
 _symmetry_equiv_pos_as_xyz
  1  'x, y, z'
loop_
 _atom_site_type_symbol
 _atom_site_label
 _atom_site_symmetry_multiplicity
 _atom_site_fract_x
 _atom_site_fract_y
 _atom_site_fract_z
 _atom_site_occupancy
  Cs  Cs0  1  0.195600  0.695600  0.500000  1
  Cs  Cs1  1  0.695600  0.804400  0.500000  1
  Cs  Cs2  1  0.304400  0.195600  0.500000  1
  Cs  Cs3  1  0.804400  0.304400  0.500000  1
  Cs  Cs4  1  0.500000  0.500000  0.000000  1
  Cs  Cs5  1  0.000000  0.000000  0.000000  1
  Si  Si6  1  0.000000  0.500000  0.000000  1
  Si  Si7  1  0.500000  0.000000  0.000000  1
  F  F8  1  0.398613  0.898613  0.803714  1
  F  F9  1  0.601387  0.101387  0.803714  1
  F  F10  1  0.101387  0.398613  0.803714  1
  F  F11  1  0.898613  0.601387  0.803714  1
  F  F12  1  0.398613  0.898613  0.196286  1
  F  F13  1  0.898613  0.601387  0.196286  1
  F  F14  1  0.101387  0.398613  0.196286  1
  F  F15  1  0.601387  0.101387  0.196286  1
  F  F16  1  0.000000  0.000000  0.500000  1
  F  F17  1  0.500000  0.500000  0.500000  1
  F  F18  1  0.856382  0.356382  0.000000  1
  F  F19  1  0.356382  0.143618  0.000000  1
  F  F20  1  0.643618  0.856382  0.000000  1
  F  F21  1  0.143618  0.643618  0.000000  1
