# generated using pymatgen
data_CCl4
_symmetry_space_group_name_H-M   'P 1'
_cell_length_a   12.08710965
_cell_length_b   12.08710965
_cell_length_c   20.73555964
_cell_angle_alpha   71.56778594
_cell_angle_beta   108.43221406
_cell_angle_gamma   121.25252161
_symmetry_Int_Tables_number   1
_chemical_formula_structural   CCl4
_chemical_formula_sum   'C16 Cl64'
_cell_volume   2413.34424181
_cell_formula_units_Z   16
loop_
 _symmetry_equiv_pos_site_id
 _symmetry_equiv_pos_as_xyz
  1  'x, y, z'
loop_
 _atom_site_type_symbol
 _atom_site_label
 _atom_site_symmetry_multiplicity
 _atom_site_fract_x
 _atom_site_fract_y
 _atom_site_fract_z
 _atom_site_occupancy
  C  C0  1  0.944308  0.626551  0.126544  1
  C  C1  1  0.626551  0.944308  0.373456  1
  C  C2  1  0.055692  0.373449  0.873456  1
  C  C3  1  0.373449  0.055692  0.626544  1
  C  C4  1  0.186613  0.440129  0.377438  1
  C  C5  1  0.440129  0.186613  0.122562  1
  C  C6  1  0.813387  0.559871  0.622562  1
  C  C7  1  0.559871  0.813387  0.877438  1
  C  C8  1  0.684581  0.443943  0.377607  1
  C  C9  1  0.443943  0.684581  0.122393  1
  C  C10  1  0.315419  0.556057  0.622393  1
  C  C11  1  0.556057  0.315419  0.877607  1
  C  C12  1  0.938901  0.128642  0.123106  1
  C  C13  1  0.128642  0.938901  0.376894  1
  C  C14  1  0.061099  0.871358  0.876894  1
  C  C15  1  0.871358  0.061099  0.623106  1
  Cl  Cl16  1  0.864128  0.553624  0.198855  1
  Cl  Cl17  1  0.553624  0.864128  0.301145  1
  Cl  Cl18  1  0.135872  0.446376  0.801145  1
  Cl  Cl19  1  0.446376  0.135872  0.698855  1
  Cl  Cl20  1  0.959811  0.506388  0.103394  1
  Cl  Cl21  1  0.506388  0.959811  0.396606  1
  Cl  Cl22  1  0.040189  0.493612  0.896606  1
  Cl  Cl23  1  0.493612  0.040189  0.603394  1
  Cl  Cl24  1  0.849176  0.688025  0.055348  1
  Cl  Cl25  1  0.688025  0.849176  0.444652  1
  Cl  Cl26  1  0.150824  0.311975  0.944652  1
  Cl  Cl27  1  0.311975  0.150824  0.555348  1
  Cl  Cl28  1  0.102955  0.758567  0.148089  1
  Cl  Cl29  1  0.758567  0.102955  0.351911  1
  Cl  Cl30  1  0.897045  0.241433  0.851911  1
  Cl  Cl31  1  0.241433  0.897045  0.648089  1
  Cl  Cl32  1  0.183784  0.592984  0.356907  1
  Cl  Cl33  1  0.592984  0.183784  0.143093  1
  Cl  Cl34  1  0.816216  0.407016  0.643093  1
  Cl  Cl35  1  0.407016  0.816216  0.856907  1
  Cl  Cl36  1  0.104300  0.361010  0.304472  1
  Cl  Cl37  1  0.361010  0.104300  0.195528  1
  Cl  Cl38  1  0.895700  0.638990  0.695528  1
  Cl  Cl39  1  0.638990  0.895700  0.804472  1
  Cl  Cl40  1  0.352522  0.468154  0.399651  1
  Cl  Cl41  1  0.468154  0.352522  0.100349  1
  Cl  Cl42  1  0.647478  0.531846  0.600349  1
  Cl  Cl43  1  0.531846  0.647478  0.899651  1
  Cl  Cl44  1  0.105559  0.337408  0.448441  1
  Cl  Cl45  1  0.337408  0.105559  0.051559  1
  Cl  Cl46  1  0.894441  0.662592  0.551559  1
  Cl  Cl47  1  0.662592  0.894441  0.948441  1
  Cl  Cl48  1  0.686401  0.598813  0.358127  1
  Cl  Cl49  1  0.598813  0.686401  0.141873  1
  Cl  Cl50  1  0.313599  0.401187  0.641873  1
  Cl  Cl51  1  0.401187  0.313599  0.858127  1
  Cl  Cl52  1  0.595545  0.364264  0.305022  1
  Cl  Cl53  1  0.364264  0.595545  0.194978  1
  Cl  Cl54  1  0.404455  0.635736  0.694978  1
  Cl  Cl55  1  0.635736  0.404455  0.805022  1
  Cl  Cl56  1  0.848832  0.467820  0.397107  1
  Cl  Cl57  1  0.467820  0.848832  0.102893  1
  Cl  Cl58  1  0.151168  0.532180  0.602893  1
  Cl  Cl59  1  0.532180  0.151168  0.897107  1
  Cl  Cl60  1  0.607118  0.343607  0.450067  1
  Cl  Cl61  1  0.343607  0.607118  0.049933  1
  Cl  Cl62  1  0.392882  0.656393  0.549933  1
  Cl  Cl63  1  0.656393  0.392882  0.950067  1
  Cl  Cl64  1  0.858801  0.061374  0.195202  1
  Cl  Cl65  1  0.061374  0.858801  0.304798  1
  Cl  Cl66  1  0.141199  0.938626  0.804798  1
  Cl  Cl67  1  0.938626  0.141199  0.695202  1
  Cl  Cl68  1  0.845856  0.190369  0.050767  1
  Cl  Cl69  1  0.190369  0.845856  0.449233  1
  Cl  Cl70  1  0.154144  0.809631  0.949233  1
  Cl  Cl71  1  0.809631  0.154144  0.550767  1
  Cl  Cl72  1  0.951234  0.004123  0.102316  1
  Cl  Cl73  1  0.004123  0.951234  0.397684  1
  Cl  Cl74  1  0.048766  0.995877  0.897684  1
  Cl  Cl75  1  0.995877  0.048766  0.602316  1
  Cl  Cl76  1  0.099121  0.259252  0.143927  1
  Cl  Cl77  1  0.259252  0.099121  0.356073  1
  Cl  Cl78  1  0.900879  0.740748  0.856073  1
  Cl  Cl79  1  0.740748  0.900879  0.643927  1
