# generated using pymatgen
data_Al7Te10
_symmetry_space_group_name_H-M   'P 1'
_cell_length_a   10.49046648
_cell_length_b   10.49046648
_cell_length_c   10.49046648
_cell_angle_alpha   89.85394700
_cell_angle_beta   89.85394700
_cell_angle_gamma   89.85394700
_symmetry_Int_Tables_number   1
_chemical_formula_structural   Al7Te10
_chemical_formula_sum   'Al14 Te20'
_cell_volume   1154.46341772
_cell_formula_units_Z   2
loop_
 _symmetry_equiv_pos_site_id
 _symmetry_equiv_pos_as_xyz
  1  'x, y, z'
loop_
 _atom_site_type_symbol
 _atom_site_label
 _atom_site_symmetry_multiplicity
 _atom_site_fract_x
 _atom_site_fract_y
 _atom_site_fract_z
 _atom_site_occupancy
  Al  Al0  1  0.110314  0.154109  0.420918  1
  Al  Al1  1  0.154109  0.420918  0.110314  1
  Al  Al2  1  0.420918  0.110314  0.154109  1
  Al  Al3  1  0.579082  0.845891  0.889686  1
  Al  Al4  1  0.845891  0.889686  0.579082  1
  Al  Al5  1  0.889686  0.579082  0.845891  1
  Al  Al6  1  0.836758  0.258156  0.653184  1
  Al  Al7  1  0.258156  0.653184  0.836758  1
  Al  Al8  1  0.653184  0.836758  0.258156  1
  Al  Al9  1  0.346816  0.741844  0.163242  1
  Al  Al10  1  0.741844  0.163242  0.346816  1
  Al  Al11  1  0.163242  0.346816  0.741844  1
  Al  Al12  1  0.428158  0.428158  0.428158  1
  Al  Al13  1  0.571842  0.571842  0.571842  1
  Te  Te14  1  0.077046  0.577936  0.671175  1
  Te  Te15  1  0.671175  0.077046  0.577936  1
  Te  Te16  1  0.577936  0.671175  0.077046  1
  Te  Te17  1  0.422064  0.922954  0.328825  1
  Te  Te18  1  0.328825  0.422064  0.922954  1
  Te  Te19  1  0.922954  0.328825  0.422064  1
  Te  Te20  1  0.307796  0.241812  0.559698  1
  Te  Te21  1  0.241812  0.559698  0.307796  1
  Te  Te22  1  0.559698  0.307796  0.241812  1
  Te  Te23  1  0.440302  0.758188  0.692204  1
  Te  Te24  1  0.758188  0.692204  0.440302  1
  Te  Te25  1  0.692204  0.440302  0.758188  1
  Te  Te26  1  0.920650  0.500000  0.079350  1
  Te  Te27  1  0.500000  0.079350  0.920650  1
  Te  Te28  1  0.079350  0.920650  0.500000  1
  Te  Te29  1  0.819268  0.000000  0.180732  1
  Te  Te30  1  0.000000  0.180732  0.819268  1
  Te  Te31  1  0.180732  0.819268  0.000000  1
  Te  Te32  1  0.169587  0.169587  0.169587  1
  Te  Te33  1  0.830413  0.830413  0.830413  1
