# generated using pymatgen
data_CsLiBeF4
_symmetry_space_group_name_H-M   'P 1'
_cell_length_a   5.44790940
_cell_length_b   8.97822767
_cell_length_c   10.82251364
_cell_angle_alpha   90.00000000
_cell_angle_beta   119.73357033
_cell_angle_gamma   90.00000000
_symmetry_Int_Tables_number   1
_chemical_formula_structural   CsLiBeF4
_chemical_formula_sum   'Cs4 Li4 Be4 F16'
_cell_volume   459.66239441
_cell_formula_units_Z   4
loop_
 _symmetry_equiv_pos_site_id
 _symmetry_equiv_pos_as_xyz
  1  'x, y, z'
loop_
 _atom_site_type_symbol
 _atom_site_label
 _atom_site_symmetry_multiplicity
 _atom_site_fract_x
 _atom_site_fract_y
 _atom_site_fract_z
 _atom_site_occupancy
  Cs  Cs0  1  0.025294  0.498227  0.774045  1
  Cs  Cs1  1  0.974706  0.998227  0.725955  1
  Cs  Cs2  1  0.974706  0.501773  0.225955  1
  Cs  Cs3  1  0.025294  0.001773  0.274045  1
  Li  Li4  1  0.661955  0.184991  0.918759  1
  Li  Li5  1  0.338045  0.684991  0.581241  1
  Li  Li6  1  0.338045  0.815009  0.081241  1
  Li  Li7  1  0.661955  0.315009  0.418759  1
  Be  Be8  1  0.327929  0.198803  0.085080  1
  Be  Be9  1  0.672071  0.698803  0.414920  1
  Be  Be10  1  0.672071  0.801197  0.914920  1
  Be  Be11  1  0.327929  0.301197  0.585080  1
  F  F12  1  0.388748  0.254929  0.234867  1
  F  F13  1  0.611252  0.754929  0.265133  1
  F  F14  1  0.611252  0.745071  0.765133  1
  F  F15  1  0.388748  0.245071  0.734867  1
  F  F16  1  0.336347  0.024563  0.086564  1
  F  F17  1  0.663653  0.524563  0.413436  1
  F  F18  1  0.663653  0.975437  0.913436  1
  F  F19  1  0.336347  0.475437  0.586564  1
  F  F20  1  0.026919  0.255077  0.968952  1
  F  F21  1  0.973081  0.755077  0.531048  1
  F  F22  1  0.973081  0.744923  0.031048  1
  F  F23  1  0.026919  0.244923  0.468952  1
  F  F24  1  0.557383  0.259903  0.050265  1
  F  F25  1  0.442617  0.759903  0.449735  1
  F  F26  1  0.442617  0.740097  0.949735  1
  F  F27  1  0.557383  0.240097  0.550265  1
