# generated using pymatgen
data_Ce4S3O4
_symmetry_space_group_name_H-M   'P 1'
_cell_length_a   3.95291891
_cell_length_b   6.84262692
_cell_length_c   14.78281261
_cell_angle_alpha   90.00000000
_cell_angle_beta   90.00000000
_cell_angle_gamma   90.00000000
_symmetry_Int_Tables_number   1
_chemical_formula_structural   Ce4S3O4
_chemical_formula_sum   'Ce8 S6 O8'
_cell_volume   399.85067979
_cell_formula_units_Z   2
loop_
 _symmetry_equiv_pos_site_id
 _symmetry_equiv_pos_as_xyz
  1  'x, y, z'
loop_
 _atom_site_type_symbol
 _atom_site_label
 _atom_site_symmetry_multiplicity
 _atom_site_fract_x
 _atom_site_fract_y
 _atom_site_fract_z
 _atom_site_occupancy
  Ce  Ce0  1  0.500000  0.292474  0.657364  1
  Ce  Ce1  1  0.500000  0.707526  0.342636  1
  Ce  Ce2  1  0.500000  0.792474  0.842636  1
  Ce  Ce3  1  0.500000  0.207526  0.157364  1
  Ce  Ce4  1  0.000000  0.219013  0.922188  1
  Ce  Ce5  1  0.000000  0.780987  0.077812  1
  Ce  Ce6  1  0.000000  0.719013  0.577812  1
  Ce  Ce7  1  0.000000  0.280987  0.422188  1
  S  S8  1  0.000000  0.001642  0.280017  1
  S  S9  1  0.000000  0.998358  0.719983  1
  S  S10  1  0.000000  0.501642  0.219983  1
  S  S11  1  0.000000  0.498358  0.780017  1
  S  S12  1  0.500000  0.000000  0.500000  1
  S  S13  1  0.500000  0.500000  0.000000  1
  O  O14  1  0.500000  0.117493  0.876525  1
  O  O15  1  0.500000  0.882507  0.123475  1
  O  O16  1  0.500000  0.617493  0.623475  1
  O  O17  1  0.500000  0.382507  0.376525  1
  O  O18  1  0.000000  0.358918  0.573257  1
  O  O19  1  0.000000  0.641082  0.426743  1
  O  O20  1  0.000000  0.858918  0.926743  1
  O  O21  1  0.000000  0.141082  0.073257  1
