# generated using pymatgen
data_SmCoSi2
_symmetry_space_group_name_H-M   'P 1'
_cell_length_a   8.38659539
_cell_length_b   8.38659539
_cell_length_c   4.04431819
_cell_angle_alpha   90.00000000
_cell_angle_beta   90.00000000
_cell_angle_gamma   151.62798398
_symmetry_Int_Tables_number   1
_chemical_formula_structural   SmCoSi2
_chemical_formula_sum   'Sm2 Co2 Si4'
_cell_volume   135.17243066
_cell_formula_units_Z   2
loop_
 _symmetry_equiv_pos_site_id
 _symmetry_equiv_pos_as_xyz
  1  'x, y, z'
loop_
 _atom_site_type_symbol
 _atom_site_label
 _atom_site_symmetry_multiplicity
 _atom_site_fract_x
 _atom_site_fract_y
 _atom_site_fract_z
 _atom_site_occupancy
  Sm  Sm0  1  0.106745  0.893255  0.250000  1
  Sm  Sm1  1  0.893255  0.106745  0.750000  1
  Co  Co2  1  0.681190  0.318810  0.750000  1
  Co  Co3  1  0.318810  0.681190  0.250000  1
  Si  Si4  1  0.750216  0.249784  0.250000  1
  Si  Si5  1  0.249784  0.750216  0.750000  1
  Si  Si6  1  0.543133  0.456867  0.750000  1
  Si  Si7  1  0.456867  0.543133  0.250000  1
