# generated using pymatgen
data_HgMoO4
_symmetry_space_group_name_H-M   'P 1'
_cell_length_a   6.53201732
_cell_length_b   6.53201732
_cell_length_c   5.27932499
_cell_angle_alpha   70.91388047
_cell_angle_beta   109.08611953
_cell_angle_gamma   121.98224478
_symmetry_Int_Tables_number   1
_chemical_formula_structural   HgMoO4
_chemical_formula_sum   'Hg2 Mo2 O8'
_cell_volume   177.20571307
_cell_formula_units_Z   2
loop_
 _symmetry_equiv_pos_site_id
 _symmetry_equiv_pos_as_xyz
  1  'x, y, z'
loop_
 _atom_site_type_symbol
 _atom_site_label
 _atom_site_symmetry_multiplicity
 _atom_site_fract_x
 _atom_site_fract_y
 _atom_site_fract_z
 _atom_site_occupancy
  Hg  Hg0  1  0.500000  1.000000  0.500000  1
  Hg  Hg1  1  0.000000  0.500000  0.000000  1
  Mo  Mo2  1  0.184448  0.184448  0.750000  1
  Mo  Mo3  1  0.815552  0.815552  0.250000  1
  O  O4  1  0.469336  0.242357  0.967840  1
  O  O5  1  0.242357  0.469336  0.532160  1
  O  O6  1  0.530664  0.757643  0.032160  1
  O  O7  1  0.757643  0.530664  0.467840  1
  O  O8  1  0.008008  0.812229  0.031120  1
  O  O9  1  0.812229  0.008008  0.468880  1
  O  O10  1  0.991992  0.187771  0.968880  1
  O  O11  1  0.187771  0.991992  0.531120  1
