# generated using pymatgen
data_HfGePd
_symmetry_space_group_name_H-M   'P 1'
_cell_length_a   6.71332962
_cell_length_b   3.96995681
_cell_length_c   11.54052430
_cell_angle_alpha   90.00000000
_cell_angle_beta   90.10229247
_cell_angle_gamma   90.00000000
_symmetry_Int_Tables_number   1
_chemical_formula_structural   HfGePd
_chemical_formula_sum   'Hf6 Ge6 Pd6'
_cell_volume   307.57327787
_cell_formula_units_Z   6
loop_
 _symmetry_equiv_pos_site_id
 _symmetry_equiv_pos_as_xyz
  1  'x, y, z'
loop_
 _atom_site_type_symbol
 _atom_site_label
 _atom_site_symmetry_multiplicity
 _atom_site_fract_x
 _atom_site_fract_y
 _atom_site_fract_z
 _atom_site_occupancy
  Hf  Hf0  1  0.467997  0.250000  0.377771  1
  Hf  Hf1  1  0.029580  0.750000  0.707621  1
  Hf  Hf2  1  0.970420  0.250000  0.292379  1
  Hf  Hf3  1  0.338656  0.250000  0.079278  1
  Hf  Hf4  1  0.532003  0.750000  0.622229  1
  Hf  Hf5  1  0.661344  0.750000  0.920722  1
  Ge  Ge6  1  0.250740  0.750000  0.915861  1
  Ge  Ge7  1  0.738691  0.250000  0.749881  1
  Ge  Ge8  1  0.248656  0.250000  0.584150  1
  Ge  Ge9  1  0.749260  0.250000  0.084139  1
  Ge  Ge10  1  0.751344  0.750000  0.415850  1
  Ge  Ge11  1  0.261309  0.750000  0.250119  1
  Pd  Pd12  1  0.003383  0.750000  0.091028  1
  Pd  Pd13  1  0.142567  0.750000  0.458597  1
  Pd  Pd14  1  0.371592  0.250000  0.794062  1
  Pd  Pd15  1  0.857433  0.250000  0.541403  1
  Pd  Pd16  1  0.628408  0.750000  0.205938  1
  Pd  Pd17  1  0.996617  0.250000  0.908972  1
