# generated using pymatgen
data_SiO2
_symmetry_space_group_name_H-M   'P 1'
_cell_length_a   7.24199319
_cell_length_b   7.24199319
_cell_length_c   7.24237220
_cell_angle_alpha   75.50401304
_cell_angle_beta   104.49598696
_cell_angle_gamma   60.15839821
_symmetry_Int_Tables_number   1
_chemical_formula_structural   SiO2
_chemical_formula_sum   'Si8 O16'
_cell_volume   285.43973573
_cell_formula_units_Z   8
loop_
 _symmetry_equiv_pos_site_id
 _symmetry_equiv_pos_as_xyz
  1  'x, y, z'
loop_
 _atom_site_type_symbol
 _atom_site_label
 _atom_site_symmetry_multiplicity
 _atom_site_fract_x
 _atom_site_fract_y
 _atom_site_fract_z
 _atom_site_occupancy
  Si  Si0  1  0.308332  0.874288  0.961002  1
  Si  Si1  1  0.874288  0.308332  0.538998  1
  Si  Si2  1  0.691668  0.125712  0.038998  1
  Si  Si3  1  0.125712  0.691668  0.461002  1
  Si  Si4  1  0.461235  0.823491  0.426878  1
  Si  Si5  1  0.823491  0.461235  0.073122  1
  Si  Si6  1  0.538765  0.176509  0.573122  1
  Si  Si7  1  0.176509  0.538765  0.926878  1
  O  O8  1  0.820779  0.256499  0.017794  1
  O  O9  1  0.256499  0.820779  0.482206  1
  O  O10  1  0.179221  0.743501  0.982206  1
  O  O11  1  0.743501  0.179221  0.517794  1
  O  O12  1  0.374111  0.916059  0.170931  1
  O  O13  1  0.916059  0.374111  0.329069  1
  O  O14  1  0.625889  0.083941  0.829069  1
  O  O15  1  0.083941  0.625889  0.670931  1
  O  O16  1  0.000000  0.500000  0.000000  1
  O  O17  1  0.500000  0.000000  0.500000  1
  O  O18  1  0.869420  0.869420  0.250000  1
  O  O19  1  0.130580  0.130580  0.750000  1
  O  O20  1  0.447241  0.293273  0.055483  1
  O  O21  1  0.293273  0.447241  0.444517  1
  O  O22  1  0.552759  0.706727  0.944517  1
  O  O23  1  0.706727  0.552759  0.555483  1
