# generated using pymatgen
data_Ta5Ge3
_symmetry_space_group_name_H-M   'P 1'
_cell_length_a   7.67795761
_cell_length_b   7.67795761
_cell_length_c   7.67795761
_cell_angle_alpha   128.49821579
_cell_angle_beta   128.49821579
_cell_angle_gamma   75.81931681
_symmetry_Int_Tables_number   1
_chemical_formula_structural   Ta5Ge3
_chemical_formula_sum   'Ta10 Ge6'
_cell_volume   269.62587202
_cell_formula_units_Z   2
loop_
 _symmetry_equiv_pos_site_id
 _symmetry_equiv_pos_as_xyz
  1  'x, y, z'
loop_
 _atom_site_type_symbol
 _atom_site_label
 _atom_site_symmetry_multiplicity
 _atom_site_fract_x
 _atom_site_fract_y
 _atom_site_fract_z
 _atom_site_occupancy
  Ta  Ta0  1  0.006190  0.185021  0.500000  1
  Ta  Ta1  1  0.506190  0.006190  0.821170  1
  Ta  Ta2  1  0.185021  0.685021  0.178830  1
  Ta  Ta3  1  0.493810  0.993810  0.178830  1
  Ta  Ta4  1  0.685021  0.506190  0.500000  1
  Ta  Ta5  1  0.993810  0.814979  0.500000  1
  Ta  Ta6  1  0.314980  0.493810  0.500000  1
  Ta  Ta7  1  0.814979  0.314979  0.821170  1
  Ta  Ta8  1  0.500000  0.500000  0.000000  1
  Ta  Ta9  1  0.000000  0.000000  0.000000  1
  Ge  Ge10  1  0.136357  0.636357  0.772715  1
  Ge  Ge11  1  0.636357  0.863643  0.500000  1
  Ge  Ge12  1  0.363643  0.136357  0.500000  1
  Ge  Ge13  1  0.863643  0.363643  0.227285  1
  Ge  Ge14  1  0.750000  0.750000  0.000000  1
  Ge  Ge15  1  0.250000  0.250000  0.000000  1
