# generated using pymatgen
data_Tm8S11
_symmetry_space_group_name_H-M   'P 1'
_cell_length_a   6.61402469
_cell_length_b   6.61402469
_cell_length_c   35.08501251
_cell_angle_alpha   90.00000000
_cell_angle_beta   90.00000000
_cell_angle_gamma   147.03725725
_symmetry_Int_Tables_number   1
_chemical_formula_structural   Tm8S11
_chemical_formula_sum   'Tm16 S22'
_cell_volume   835.07762761
_cell_formula_units_Z   2
loop_
 _symmetry_equiv_pos_site_id
 _symmetry_equiv_pos_as_xyz
  1  'x, y, z'
loop_
 _atom_site_type_symbol
 _atom_site_label
 _atom_site_symmetry_multiplicity
 _atom_site_fract_x
 _atom_site_fract_y
 _atom_site_fract_z
 _atom_site_occupancy
  Tm  Tm0  1  0.980974  0.019026  0.632834  1
  Tm  Tm1  1  0.019026  0.980974  0.367166  1
  Tm  Tm2  1  0.019026  0.980974  0.132834  1
  Tm  Tm3  1  0.980974  0.019026  0.867166  1
  Tm  Tm4  1  0.759826  0.240174  0.182954  1
  Tm  Tm5  1  0.240174  0.759826  0.817046  1
  Tm  Tm6  1  0.240174  0.759826  0.682954  1
  Tm  Tm7  1  0.759826  0.240174  0.317046  1
  Tm  Tm8  1  0.742947  0.257053  0.557968  1
  Tm  Tm9  1  0.257053  0.742947  0.442032  1
  Tm  Tm10  1  0.257053  0.742947  0.057968  1
  Tm  Tm11  1  0.742947  0.257053  0.942032  1
  Tm  Tm12  1  0.510578  0.489422  0.250000  1
  Tm  Tm13  1  0.489422  0.510578  0.750000  1
  Tm  Tm14  1  0.000000  0.000000  0.500000  1
  Tm  Tm15  1  0.000000  0.000000  0.000000  1
  S  S16  1  0.603111  0.396889  0.837109  1
  S  S17  1  0.396889  0.603111  0.162891  1
  S  S18  1  0.396889  0.603111  0.337109  1
  S  S19  1  0.603111  0.396889  0.662891  1
  S  S20  1  0.664991  0.335009  0.111629  1
  S  S21  1  0.335009  0.664991  0.888371  1
  S  S22  1  0.335009  0.664991  0.611629  1
  S  S23  1  0.664991  0.335009  0.388371  1
  S  S24  1  0.646895  0.353105  0.016047  1
  S  S25  1  0.353105  0.646895  0.983953  1
  S  S26  1  0.353105  0.646895  0.516047  1
  S  S27  1  0.646895  0.353105  0.483953  1
  S  S28  1  0.885387  0.114613  0.796664  1
  S  S29  1  0.114613  0.885387  0.203336  1
  S  S30  1  0.114613  0.885387  0.296664  1
  S  S31  1  0.885387  0.114613  0.703336  1
  S  S32  1  0.142539  0.857461  0.750000  1
  S  S33  1  0.857461  0.142539  0.250000  1
  S  S34  1  0.909820  0.090180  0.431576  1
  S  S35  1  0.090180  0.909820  0.568424  1
  S  S36  1  0.090180  0.909820  0.931576  1
  S  S37  1  0.909820  0.090180  0.068424  1
