# generated using pymatgen
data_Y(Al5Fe)2
_symmetry_space_group_name_H-M   'P 1'
_cell_length_a   6.75854370
_cell_length_b   6.75854370
_cell_length_c   8.97543475
_cell_angle_alpha   90.00000000
_cell_angle_beta   90.00000000
_cell_angle_gamma   97.20199444
_symmetry_Int_Tables_number   1
_chemical_formula_structural   Y(Al5Fe)2
_chemical_formula_sum   'Y2 Al20 Fe4'
_cell_volume   406.74453085
_cell_formula_units_Z   2
loop_
 _symmetry_equiv_pos_site_id
 _symmetry_equiv_pos_as_xyz
  1  'x, y, z'
loop_
 _atom_site_type_symbol
 _atom_site_label
 _atom_site_symmetry_multiplicity
 _atom_site_fract_x
 _atom_site_fract_y
 _atom_site_fract_z
 _atom_site_occupancy
  Y  Y0  1  0.874159  0.125841  0.250000  1
  Y  Y1  1  0.125841  0.874159  0.750000  1
  Al  Al2  1  0.865646  0.585412  0.250000  1
  Al  Al3  1  0.134354  0.414588  0.750000  1
  Al  Al4  1  0.585412  0.865646  0.750000  1
  Al  Al5  1  0.414588  0.134354  0.250000  1
  Al  Al6  1  0.219841  0.478182  0.250000  1
  Al  Al7  1  0.780159  0.521818  0.750000  1
  Al  Al8  1  0.478182  0.219841  0.750000  1
  Al  Al9  1  0.521818  0.780159  0.250000  1
  Al  Al10  1  0.841627  0.158373  0.597172  1
  Al  Al11  1  0.158373  0.841627  0.097172  1
  Al  Al12  1  0.158373  0.841627  0.402828  1
  Al  Al13  1  0.841627  0.158373  0.902828  1
  Al  Al14  1  0.625220  0.374780  0.048912  1
  Al  Al15  1  0.374780  0.625220  0.548912  1
  Al  Al16  1  0.374780  0.625220  0.951088  1
  Al  Al17  1  0.625220  0.374780  0.451088  1
  Al  Al18  1  0.227366  0.227366  0.000000  1
  Al  Al19  1  0.772634  0.772634  0.500000  1
  Al  Al20  1  0.772634  0.772634  0.000000  1
  Al  Al21  1  0.227366  0.227366  0.500000  1
  Fe  Fe22  1  0.000000  0.500000  0.000000  1
  Fe  Fe23  1  0.000000  0.500000  0.500000  1
  Fe  Fe24  1  0.500000  0.000000  0.000000  1
  Fe  Fe25  1  0.500000  0.000000  0.500000  1
