# generated using pymatgen
data_TbAl2Ni
_symmetry_space_group_name_H-M   'P 1'
_cell_length_a   5.54406422
_cell_length_b   5.54406422
_cell_length_c   6.88461120
_cell_angle_alpha   90.00000000
_cell_angle_beta   90.00000000
_cell_angle_gamma   137.12818785
_symmetry_Int_Tables_number   1
_chemical_formula_structural   TbAl2Ni
_chemical_formula_sum   'Tb2 Al4 Ni2'
_cell_volume   143.97097608
_cell_formula_units_Z   2
loop_
 _symmetry_equiv_pos_site_id
 _symmetry_equiv_pos_as_xyz
  1  'x, y, z'
loop_
 _atom_site_type_symbol
 _atom_site_label
 _atom_site_symmetry_multiplicity
 _atom_site_fract_x
 _atom_site_fract_y
 _atom_site_fract_z
 _atom_site_occupancy
  Tb  Tb0  1  0.940112  0.059888  0.750000  1
  Tb  Tb1  1  0.059888  0.940112  0.250000  1
  Al  Al2  1  0.659111  0.340889  0.945133  1
  Al  Al3  1  0.340889  0.659111  0.054867  1
  Al  Al4  1  0.340889  0.659111  0.445133  1
  Al  Al5  1  0.659111  0.340889  0.554867  1
  Ni  Ni6  1  0.216566  0.783434  0.750000  1
  Ni  Ni7  1  0.783434  0.216566  0.250000  1
