# generated using pymatgen
data_Ba3Tm(BO3)3
_symmetry_space_group_name_H-M   'P 1'
_cell_length_a   9.47006882
_cell_length_b   9.47006882
_cell_length_c   17.94914640
_cell_angle_alpha   90.00000000
_cell_angle_beta   90.00000000
_cell_angle_gamma   120.00000000
_symmetry_Int_Tables_number   1
_chemical_formula_structural   Ba3Tm(BO3)3
_chemical_formula_sum   'Ba18 Tm6 B18 O54'
_cell_volume   1394.05754715
_cell_formula_units_Z   6
loop_
 _symmetry_equiv_pos_site_id
 _symmetry_equiv_pos_as_xyz
  1  'x, y, z'
loop_
 _atom_site_type_symbol
 _atom_site_label
 _atom_site_symmetry_multiplicity
 _atom_site_fract_x
 _atom_site_fract_y
 _atom_site_fract_z
 _atom_site_occupancy
  Ba  Ba0  1  0.682286  0.682286  0.868712  1
  Ba  Ba1  1  0.000000  0.682286  0.368712  1
  Ba  Ba2  1  0.682286  0.000000  0.368712  1
  Ba  Ba3  1  0.317714  0.000000  0.868712  1
  Ba  Ba4  1  0.000000  0.317714  0.868712  1
  Ba  Ba5  1  0.317714  0.317714  0.368712  1
  Ba  Ba6  1  0.651912  0.651912  0.628257  1
  Ba  Ba7  1  0.000000  0.651912  0.128257  1
  Ba  Ba8  1  0.651912  0.000000  0.128257  1
  Ba  Ba9  1  0.348088  0.000000  0.628257  1
  Ba  Ba10  1  0.000000  0.348088  0.628257  1
  Ba  Ba11  1  0.348088  0.348088  0.128257  1
  Ba  Ba12  1  0.333333  0.666667  0.275591  1
  Ba  Ba13  1  0.666667  0.333333  0.775591  1
  Ba  Ba14  1  0.333333  0.666667  0.775591  1
  Ba  Ba15  1  0.666667  0.333333  0.275591  1
  Ba  Ba16  1  0.000000  0.000000  0.715168  1
  Ba  Ba17  1  0.000000  0.000000  0.215168  1
  Tm  Tm18  1  0.333333  0.666667  0.995443  1
  Tm  Tm19  1  0.666667  0.333333  0.495443  1
  Tm  Tm20  1  0.333333  0.666667  0.495443  1
  Tm  Tm21  1  0.666667  0.333333  0.995443  1
  Tm  Tm22  1  0.000000  0.000000  0.501441  1
  Tm  Tm23  1  0.000000  0.000000  0.001441  1
  B  B24  1  0.660200  0.660200  0.420904  1
  B  B25  1  0.000000  0.660200  0.920904  1
  B  B26  1  0.660200  0.000000  0.920904  1
  B  B27  1  0.339800  0.000000  0.420904  1
  B  B28  1  0.000000  0.339800  0.420904  1
  B  B29  1  0.339800  0.339800  0.920904  1
  B  B30  1  0.667406  0.667406  0.247547  1
  B  B31  1  0.000000  0.667406  0.747547  1
  B  B32  1  0.667406  0.000000  0.747547  1
  B  B33  1  0.332594  0.000000  0.247547  1
  B  B34  1  0.000000  0.332594  0.247547  1
  B  B35  1  0.332594  0.332594  0.747547  1
  B  B36  1  0.673357  0.673357  0.071005  1
  B  B37  1  0.000000  0.673357  0.571005  1
  B  B38  1  0.673357  0.000000  0.571005  1
  B  B39  1  0.326643  0.000000  0.071005  1
  B  B40  1  0.000000  0.326643  0.071005  1
  B  B41  1  0.326643  0.326643  0.571005  1
  O  O42  1  0.806652  0.806652  0.430414  1
  O  O43  1  0.000000  0.806652  0.930414  1
  O  O44  1  0.806652  0.000000  0.930414  1
  O  O45  1  0.193348  0.000000  0.430414  1
  O  O46  1  0.000000  0.193348  0.430414  1
  O  O47  1  0.193348  0.193348  0.930414  1
  O  O48  1  0.661268  0.147273  0.915744  1
  O  O49  1  0.852727  0.513995  0.915744  1
  O  O50  1  0.486005  0.338732  0.915744  1
  O  O51  1  0.513995  0.661268  0.415744  1
  O  O52  1  0.338732  0.852727  0.415744  1
  O  O53  1  0.147273  0.486005  0.415744  1
  O  O54  1  0.661268  0.513995  0.415744  1
  O  O55  1  0.147273  0.661268  0.915744  1
  O  O56  1  0.513995  0.852727  0.915744  1
  O  O57  1  0.486005  0.147273  0.415744  1
  O  O58  1  0.852727  0.338732  0.415744  1
  O  O59  1  0.338732  0.486005  0.915744  1
  O  O60  1  0.520084  0.520084  0.247382  1
  O  O61  1  0.000000  0.520084  0.747382  1
  O  O62  1  0.520084  0.000000  0.747382  1
  O  O63  1  0.479916  0.000000  0.247382  1
  O  O64  1  0.000000  0.479916  0.247382  1
  O  O65  1  0.479916  0.479916  0.747382  1
  O  O66  1  0.814607  0.147326  0.747978  1
  O  O67  1  0.852674  0.667281  0.747978  1
  O  O68  1  0.332719  0.185393  0.747978  1
  O  O69  1  0.667281  0.814607  0.247978  1
  O  O70  1  0.185393  0.852674  0.247978  1
  O  O71  1  0.147326  0.332719  0.247978  1
  O  O72  1  0.814607  0.667281  0.247978  1
  O  O73  1  0.147326  0.814607  0.747978  1
  O  O74  1  0.667281  0.852674  0.747978  1
  O  O75  1  0.332719  0.147326  0.247978  1
  O  O76  1  0.852674  0.185393  0.247978  1
  O  O77  1  0.185393  0.332719  0.747978  1
  O  O78  1  0.673529  0.146699  0.566424  1
  O  O79  1  0.853301  0.526830  0.566424  1
  O  O80  1  0.473170  0.326471  0.566424  1
  O  O81  1  0.526830  0.673529  0.066424  1
  O  O82  1  0.326471  0.853301  0.066424  1
  O  O83  1  0.146699  0.473170  0.066424  1
  O  O84  1  0.673529  0.526830  0.066424  1
  O  O85  1  0.146699  0.673529  0.566424  1
  O  O86  1  0.526830  0.853301  0.566424  1
  O  O87  1  0.473170  0.146699  0.066424  1
  O  O88  1  0.853301  0.326471  0.066424  1
  O  O89  1  0.326471  0.473170  0.566424  1
  O  O90  1  0.819113  0.819113  0.080594  1
  O  O91  1  0.000000  0.819113  0.580594  1
  O  O92  1  0.819113  0.000000  0.580594  1
  O  O93  1  0.180887  0.000000  0.080594  1
  O  O94  1  0.000000  0.180887  0.080594  1
  O  O95  1  0.180887  0.180887  0.580594  1
