# generated using pymatgen
data_Ag2TeO3
_symmetry_space_group_name_H-M   'P 1'
_cell_length_a   4.97532790
_cell_length_b   10.77338433
_cell_length_c   7.28447716
_cell_angle_alpha   90.00000000
_cell_angle_beta   91.36401133
_cell_angle_gamma   90.00000000
_symmetry_Int_Tables_number   1
_chemical_formula_structural   Ag2TeO3
_chemical_formula_sum   'Ag8 Te4 O12'
_cell_volume   390.34549168
_cell_formula_units_Z   4
loop_
 _symmetry_equiv_pos_site_id
 _symmetry_equiv_pos_as_xyz
  1  'x, y, z'
loop_
 _atom_site_type_symbol
 _atom_site_label
 _atom_site_symmetry_multiplicity
 _atom_site_fract_x
 _atom_site_fract_y
 _atom_site_fract_z
 _atom_site_occupancy
  Ag  Ag0  1  0.251529  0.926513  0.612815  1
  Ag  Ag1  1  0.751893  0.738853  0.366107  1
  Ag  Ag2  1  0.751893  0.761147  0.866107  1
  Ag  Ag3  1  0.248107  0.261147  0.633893  1
  Ag  Ag4  1  0.748471  0.073487  0.387185  1
  Ag  Ag5  1  0.251529  0.573487  0.112815  1
  Ag  Ag6  1  0.748471  0.426513  0.887185  1
  Ag  Ag7  1  0.248107  0.238853  0.133893  1
  Te  Te8  1  0.744850  0.398299  0.366046  1
  Te  Te9  1  0.255150  0.898299  0.133954  1
  Te  Te10  1  0.255150  0.601701  0.633954  1
  Te  Te11  1  0.744850  0.101701  0.866046  1
  O  O12  1  0.360790  0.386306  0.379976  1
  O  O13  1  0.639210  0.886306  0.120024  1
  O  O14  1  0.639210  0.613694  0.620024  1
  O  O15  1  0.360790  0.113694  0.879976  1
  O  O16  1  0.247804  0.021881  0.321767  1
  O  O17  1  0.752196  0.521881  0.178233  1
  O  O18  1  0.752196  0.978119  0.678233  1
  O  O19  1  0.247804  0.478119  0.821767  1
  O  O20  1  0.781172  0.256895  0.208416  1
  O  O21  1  0.781172  0.243105  0.708416  1
  O  O22  1  0.218828  0.743105  0.791584  1
  O  O23  1  0.218828  0.756895  0.291584  1
