# generated using pymatgen
data_K3LiP2O7
_symmetry_space_group_name_H-M   'P 1'
_cell_length_a   5.65419719
_cell_length_b   5.65419719
_cell_length_c   13.53049370
_cell_angle_alpha   90.00000000
_cell_angle_beta   90.00000000
_cell_angle_gamma   114.27494011
_symmetry_Int_Tables_number   1
_chemical_formula_structural   K3LiP2O7
_chemical_formula_sum   'K6 Li2 P4 O14'
_cell_volume   394.32276017
_cell_formula_units_Z   2
loop_
 _symmetry_equiv_pos_site_id
 _symmetry_equiv_pos_as_xyz
  1  'x, y, z'
loop_
 _atom_site_type_symbol
 _atom_site_label
 _atom_site_symmetry_multiplicity
 _atom_site_fract_x
 _atom_site_fract_y
 _atom_site_fract_z
 _atom_site_occupancy
  K  K0  1  0.865848  0.865848  0.500000  1
  K  K1  1  0.134152  0.134152  0.000000  1
  K  K2  1  0.223583  0.537698  0.622672  1
  K  K3  1  0.537698  0.223583  0.377328  1
  K  K4  1  0.776417  0.462302  0.122672  1
  K  K5  1  0.462302  0.776417  0.877328  1
  Li  Li6  1  0.987908  0.012092  0.750000  1
  Li  Li7  1  0.012092  0.987908  0.250000  1
  P  P8  1  0.558066  0.175857  0.655463  1
  P  P9  1  0.175857  0.558066  0.344537  1
  P  P10  1  0.441934  0.824143  0.155463  1
  P  P11  1  0.824143  0.441934  0.844537  1
  O  O12  1  0.659271  0.968594  0.680506  1
  O  O13  1  0.968594  0.659271  0.319494  1
  O  O14  1  0.340729  0.031406  0.180506  1
  O  O15  1  0.031406  0.340729  0.819494  1
  O  O16  1  0.259682  0.060958  0.648045  1
  O  O17  1  0.060958  0.259682  0.351955  1
  O  O18  1  0.740318  0.939042  0.148045  1
  O  O19  1  0.939042  0.740318  0.851955  1
  O  O20  1  0.695092  0.344922  0.566832  1
  O  O21  1  0.344922  0.695092  0.433168  1
  O  O22  1  0.304908  0.655078  0.066832  1
  O  O23  1  0.655078  0.304908  0.933168  1
  O  O24  1  0.622789  0.377211  0.750000  1
  O  O25  1  0.377211  0.622789  0.250000  1
