# generated using pymatgen
data_LiCo3P3O13
_symmetry_space_group_name_H-M   'P 1'
_cell_length_a   7.21767365
_cell_length_b   6.10371996
_cell_length_c   10.55787351
_cell_angle_alpha   90.00000000
_cell_angle_beta   100.45987733
_cell_angle_gamma   90.00000000
_symmetry_Int_Tables_number   1
_chemical_formula_structural   LiCo3P3O13
_chemical_formula_sum   'Li2 Co6 P6 O26'
_cell_volume   457.39422282
_cell_formula_units_Z   2
loop_
 _symmetry_equiv_pos_site_id
 _symmetry_equiv_pos_as_xyz
  1  'x, y, z'
loop_
 _atom_site_type_symbol
 _atom_site_label
 _atom_site_symmetry_multiplicity
 _atom_site_fract_x
 _atom_site_fract_y
 _atom_site_fract_z
 _atom_site_occupancy
  Li  Li0  1  0.861024  0.750000  0.364898  1
  Li  Li1  1  0.138976  0.250000  0.635102  1
  Co  Co2  1  0.132841  0.250000  0.309180  1
  Co  Co3  1  0.867159  0.750000  0.690820  1
  Co  Co4  1  0.732427  0.250000  0.045852  1
  Co  Co5  1  0.500000  0.500000  0.500000  1
  Co  Co6  1  0.267573  0.750000  0.954148  1
  Co  Co7  1  0.500000  0.000000  0.500000  1
  P  P8  1  0.280618  0.250000  0.035352  1
  P  P9  1  0.719382  0.750000  0.964648  1
  P  P10  1  0.765364  0.250000  0.723002  1
  P  P11  1  0.234636  0.750000  0.276998  1
  P  P12  1  0.200718  0.750000  0.621900  1
  P  P13  1  0.799282  0.250000  0.378100  1
  O  O14  1  0.147545  0.750000  0.758467  1
  O  O15  1  0.776342  0.548864  0.052968  1
  O  O16  1  0.696576  0.250000  0.849758  1
  O  O17  1  0.304510  0.536891  0.599248  1
  O  O18  1  0.845933  0.750000  0.861791  1
  O  O19  1  0.634150  0.750000  0.596585  1
  O  O20  1  0.154067  0.250000  0.138209  1
  O  O21  1  0.695490  0.036891  0.400752  1
  O  O22  1  0.488948  0.250000  0.097666  1
  O  O23  1  0.511052  0.750000  0.902334  1
  O  O24  1  0.891461  0.057833  0.694284  1
  O  O25  1  0.365850  0.250000  0.403415  1
  O  O26  1  0.108539  0.557833  0.305716  1
  O  O27  1  0.993392  0.750000  0.544222  1
  O  O28  1  0.303424  0.750000  0.150242  1
  O  O29  1  0.695490  0.463109  0.400752  1
  O  O30  1  0.776342  0.951136  0.052968  1
  O  O31  1  0.223658  0.451136  0.947032  1
  O  O32  1  0.891461  0.442167  0.694284  1
  O  O33  1  0.852455  0.250000  0.241533  1
  O  O34  1  0.416503  0.750000  0.390142  1
  O  O35  1  0.583497  0.250000  0.609858  1
  O  O36  1  0.108539  0.942167  0.305716  1
  O  O37  1  0.304510  0.963109  0.599248  1
  O  O38  1  0.223658  0.048864  0.947032  1
  O  O39  1  0.006608  0.250000  0.455778  1
