# generated using pymatgen
data_Fe3P
_symmetry_space_group_name_H-M   'P 1'
_cell_length_a   6.76178950
_cell_length_b   6.76178950
_cell_length_c   6.76178950
_cell_angle_alpha   96.04235977
_cell_angle_beta   96.04235977
_cell_angle_gamma   142.13625205
_symmetry_Int_Tables_number   1
_chemical_formula_structural   Fe3P
_chemical_formula_sum   'Fe12 P4'
_cell_volume   179.49374176
_cell_formula_units_Z   4
loop_
 _symmetry_equiv_pos_site_id
 _symmetry_equiv_pos_as_xyz
  1  'x, y, z'
loop_
 _atom_site_type_symbol
 _atom_site_label
 _atom_site_symmetry_multiplicity
 _atom_site_fract_x
 _atom_site_fract_y
 _atom_site_fract_z
 _atom_site_occupancy
  Fe  Fe0  1  0.958751  0.352116  0.331258  1
  Fe  Fe1  1  0.372507  0.041249  0.393366  1
  Fe  Fe2  1  0.647884  0.979141  0.606634  1
  Fe  Fe3  1  0.020859  0.627493  0.668742  1
  Fe  Fe4  1  0.537741  0.927756  0.950052  1
  Fe  Fe5  1  0.412311  0.462259  0.390015  1
  Fe  Fe6  1  0.072244  0.022296  0.609985  1
  Fe  Fe7  1  0.977704  0.587689  0.049948  1
  Fe  Fe8  1  0.340632  0.155858  0.027262  1
  Fe  Fe9  1  0.686630  0.659368  0.815226  1
  Fe  Fe10  1  0.844142  0.871404  0.184774  1
  Fe  Fe11  1  0.128596  0.313370  0.972738  1
  P  P12  1  0.538383  0.202156  0.753792  1
  P  P13  1  0.215409  0.461617  0.663773  1
  P  P14  1  0.797844  0.551636  0.336227  1
  P  P15  1  0.448364  0.784591  0.246208  1
