# generated using pymatgen
data_Al3Au8
_symmetry_space_group_name_H-M   'P 1'
_cell_length_a   14.99805455
_cell_length_b   14.99805455
_cell_length_c   14.99805455
_cell_angle_alpha   30.31668329
_cell_angle_beta   30.31668329
_cell_angle_gamma   30.31668329
_symmetry_Int_Tables_number   1
_chemical_formula_structural   Al3Au8
_chemical_formula_sum   'Al12 Au32'
_cell_volume   761.79668011
_cell_formula_units_Z   4
loop_
 _symmetry_equiv_pos_site_id
 _symmetry_equiv_pos_as_xyz
  1  'x, y, z'
loop_
 _atom_site_type_symbol
 _atom_site_label
 _atom_site_symmetry_multiplicity
 _atom_site_fract_x
 _atom_site_fract_y
 _atom_site_fract_z
 _atom_site_occupancy
  Al  Al0  1  0.000000  0.000000  0.000000  1
  Al  Al1  1  0.500000  0.500000  0.500000  1
  Al  Al2  1  0.156267  0.156267  0.156267  1
  Al  Al3  1  0.343733  0.343733  0.343733  1
  Al  Al4  1  0.843733  0.843733  0.843733  1
  Al  Al5  1  0.656267  0.656267  0.656267  1
  Al  Al6  1  0.433726  0.750000  0.066274  1
  Al  Al7  1  0.066274  0.433726  0.750000  1
  Al  Al8  1  0.750000  0.066274  0.433726  1
  Al  Al9  1  0.566274  0.250000  0.933726  1
  Al  Al10  1  0.933726  0.566274  0.250000  1
  Al  Al11  1  0.250000  0.933726  0.566274  1
  Au  Au12  1  0.217509  0.217509  0.217509  1
  Au  Au13  1  0.282491  0.282491  0.282491  1
  Au  Au14  1  0.782491  0.782491  0.782491  1
  Au  Au15  1  0.717509  0.717509  0.717509  1
  Au  Au16  1  0.937142  0.937142  0.937142  1
  Au  Au17  1  0.562858  0.562858  0.562858  1
  Au  Au18  1  0.062858  0.062858  0.062858  1
  Au  Au19  1  0.437142  0.437142  0.437142  1
  Au  Au20  1  0.296090  0.003795  0.648934  1
  Au  Au21  1  0.648934  0.296090  0.003795  1
  Au  Au22  1  0.003795  0.648934  0.296090  1
  Au  Au23  1  0.851066  0.496205  0.203910  1
  Au  Au24  1  0.203910  0.851066  0.496205  1
  Au  Au25  1  0.496205  0.203910  0.851066  1
  Au  Au26  1  0.703910  0.996205  0.351066  1
  Au  Au27  1  0.351066  0.703910  0.996205  1
  Au  Au28  1  0.996205  0.351066  0.703910  1
  Au  Au29  1  0.148934  0.503795  0.796090  1
  Au  Au30  1  0.796090  0.148934  0.503795  1
  Au  Au31  1  0.503795  0.796090  0.148934  1
  Au  Au32  1  0.874994  0.352771  0.615103  1
  Au  Au33  1  0.615103  0.874994  0.352771  1
  Au  Au34  1  0.352771  0.615103  0.874994  1
  Au  Au35  1  0.884897  0.147229  0.625006  1
  Au  Au36  1  0.625006  0.884897  0.147229  1
  Au  Au37  1  0.147229  0.625006  0.884897  1
  Au  Au38  1  0.125006  0.647229  0.384897  1
  Au  Au39  1  0.384897  0.125006  0.647229  1
  Au  Au40  1  0.647229  0.384897  0.125006  1
  Au  Au41  1  0.115103  0.852771  0.374994  1
  Au  Au42  1  0.374994  0.115103  0.852771  1
  Au  Au43  1  0.852771  0.374994  0.115103  1
