# generated using pymatgen
data_SmF3
_symmetry_space_group_name_H-M   'P 1'
_cell_length_a   7.03511420
_cell_length_b   7.03511420
_cell_length_c   6.98948081
_cell_angle_alpha   90.00000000
_cell_angle_beta   90.00000000
_cell_angle_gamma   120.00000000
_symmetry_Int_Tables_number   1
_chemical_formula_structural   SmF3
_chemical_formula_sum   'Sm6 F18'
_cell_volume   299.58347353
_cell_formula_units_Z   6
loop_
 _symmetry_equiv_pos_site_id
 _symmetry_equiv_pos_as_xyz
  1  'x, y, z'
loop_
 _atom_site_type_symbol
 _atom_site_label
 _atom_site_symmetry_multiplicity
 _atom_site_fract_x
 _atom_site_fract_y
 _atom_site_fract_z
 _atom_site_occupancy
  Sm  Sm0  1  0.667796  0.667796  0.250000  1
  Sm  Sm1  1  0.000000  0.667796  0.750000  1
  Sm  Sm2  1  0.667796  0.000000  0.750000  1
  Sm  Sm3  1  0.332204  0.000000  0.250000  1
  Sm  Sm4  1  0.000000  0.332204  0.250000  1
  Sm  Sm5  1  0.332204  0.332204  0.750000  1
  F  F6  1  0.000000  0.000000  0.500000  1
  F  F7  1  0.000000  0.000000  0.000000  1
  F  F8  1  0.333333  0.666667  0.250000  1
  F  F9  1  0.666667  0.333333  0.750000  1
  F  F10  1  0.666667  0.333333  0.250000  1
  F  F11  1  0.333333  0.666667  0.750000  1
  F  F12  1  0.344234  0.000000  0.917104  1
  F  F13  1  0.344234  0.344234  0.417104  1
  F  F14  1  0.000000  0.655766  0.417104  1
  F  F15  1  0.000000  0.344234  0.917104  1
  F  F16  1  0.655766  0.655766  0.917104  1
  F  F17  1  0.344234  0.000000  0.582896  1
  F  F18  1  0.655766  0.655766  0.582896  1
  F  F19  1  0.655766  0.000000  0.417104  1
  F  F20  1  0.000000  0.344234  0.582896  1
  F  F21  1  0.000000  0.655766  0.082896  1
  F  F22  1  0.655766  0.000000  0.082896  1
  F  F23  1  0.344234  0.344234  0.082896  1
