# generated using pymatgen
data_Nb5Ge3
_symmetry_space_group_name_H-M   'P 1'
_cell_length_a   7.68999616
_cell_length_b   7.68999616
_cell_length_c   7.68999616
_cell_angle_alpha   96.52752153
_cell_angle_beta   96.52752153
_cell_angle_gamma   140.59147209
_symmetry_Int_Tables_number   1
_chemical_formula_structural   Nb5Ge3
_chemical_formula_sum   'Nb10 Ge6'
_cell_volume   271.79508009
_cell_formula_units_Z   2
loop_
 _symmetry_equiv_pos_site_id
 _symmetry_equiv_pos_as_xyz
  1  'x, y, z'
loop_
 _atom_site_type_symbol
 _atom_site_label
 _atom_site_symmetry_multiplicity
 _atom_site_fract_x
 _atom_site_fract_y
 _atom_site_fract_z
 _atom_site_occupancy
  Nb  Nb0  1  0.575475  0.277313  0.852788  1
  Nb  Nb1  1  0.424525  0.722687  0.147212  1
  Nb  Nb2  1  0.277313  0.424525  0.701839  1
  Nb  Nb3  1  0.722687  0.575475  0.298161  1
  Nb  Nb4  1  0.222687  0.924525  0.147212  1
  Nb  Nb5  1  0.075475  0.222687  0.298161  1
  Nb  Nb6  1  0.924525  0.777313  0.701839  1
  Nb  Nb7  1  0.777313  0.075475  0.852788  1
  Nb  Nb8  1  0.250000  0.750000  0.500000  1
  Nb  Nb9  1  0.750000  0.250000  0.500000  1
  Ge  Ge10  1  0.665666  0.834334  0.500000  1
  Ge  Ge11  1  0.165666  0.665666  0.831332  1
  Ge  Ge12  1  0.834334  0.334334  0.168668  1
  Ge  Ge13  1  0.334334  0.165666  0.500000  1
  Ge  Ge14  1  0.750000  0.750000  0.000000  1
  Ge  Ge15  1  0.250000  0.250000  0.000000  1
