# generated using pymatgen
data_La2ZnNi2
_symmetry_space_group_name_H-M   'P 1'
_cell_length_a   5.51963709
_cell_length_b   5.51963709
_cell_length_c   5.51963709
_cell_angle_alpha   133.14513628
_cell_angle_beta   119.82435222
_cell_angle_gamma   79.56083066
_symmetry_Int_Tables_number   1
_chemical_formula_structural   La2ZnNi2
_chemical_formula_sum   'La2 Zn1 Ni2'
_cell_volume   103.03627469
_cell_formula_units_Z   1
loop_
 _symmetry_equiv_pos_site_id
 _symmetry_equiv_pos_as_xyz
  1  'x, y, z'
loop_
 _atom_site_type_symbol
 _atom_site_label
 _atom_site_symmetry_multiplicity
 _atom_site_fract_x
 _atom_site_fract_y
 _atom_site_fract_z
 _atom_site_occupancy
  La  La0  1  0.699150  0.199150  0.500000  1
  La  La1  1  0.300850  0.800850  0.500000  1
  Zn  Zn2  1  0.000000  0.000000  0.000000  1
  Ni  Ni3  1  0.742234  0.500000  0.242234  1
  Ni  Ni4  1  0.257766  0.500000  0.757766  1
