# generated using pymatgen
data_BaSr2Mg(SiO4)2
_symmetry_space_group_name_H-M   'P 1'
_cell_length_a   5.56375283
_cell_length_b   5.56375283
_cell_length_c   7.08880523
_cell_angle_alpha   90.00000000
_cell_angle_beta   90.00000000
_cell_angle_gamma   120.00000000
_symmetry_Int_Tables_number   1
_chemical_formula_structural   BaSr2Mg(SiO4)2
_chemical_formula_sum   'Ba1 Sr2 Mg1 Si2 O8'
_cell_volume   190.03751011
_cell_formula_units_Z   1
loop_
 _symmetry_equiv_pos_site_id
 _symmetry_equiv_pos_as_xyz
  1  'x, y, z'
loop_
 _atom_site_type_symbol
 _atom_site_label
 _atom_site_symmetry_multiplicity
 _atom_site_fract_x
 _atom_site_fract_y
 _atom_site_fract_z
 _atom_site_occupancy
  Ba  Ba0  1  0.000000  0.000000  0.500000  1
  Sr  Sr1  1  0.666667  0.333333  0.164606  1
  Sr  Sr2  1  0.333333  0.666667  0.835394  1
  Mg  Mg3  1  0.000000  0.000000  0.000000  1
  Si  Si4  1  0.666667  0.333333  0.729985  1
  Si  Si5  1  0.333333  0.666667  0.270015  1
  O  O6  1  0.666667  0.333333  0.501696  1
  O  O7  1  0.333333  0.666667  0.498304  1
  O  O8  1  0.350329  0.175164  0.822643  1
  O  O9  1  0.824836  0.649671  0.822643  1
  O  O10  1  0.824836  0.175164  0.822643  1
  O  O11  1  0.649671  0.824836  0.177357  1
  O  O12  1  0.175164  0.350329  0.177357  1
  O  O13  1  0.175164  0.824836  0.177357  1
