# generated using pymatgen
data_CaSnHg
_symmetry_space_group_name_H-M   'P 1'
_cell_length_a   4.90421746
_cell_length_b   4.90421746
_cell_length_c   7.82155072
_cell_angle_alpha   90.00000000
_cell_angle_beta   90.00000000
_cell_angle_gamma   120.00000000
_symmetry_Int_Tables_number   1
_chemical_formula_structural   CaSnHg
_chemical_formula_sum   'Ca2 Sn2 Hg2'
_cell_volume   162.91569911
_cell_formula_units_Z   2
loop_
 _symmetry_equiv_pos_site_id
 _symmetry_equiv_pos_as_xyz
  1  'x, y, z'
loop_
 _atom_site_type_symbol
 _atom_site_label
 _atom_site_symmetry_multiplicity
 _atom_site_fract_x
 _atom_site_fract_y
 _atom_site_fract_z
 _atom_site_occupancy
  Ca  Ca0  1  0.000000  0.000000  0.750885  1
  Ca  Ca1  1  0.000000  0.000000  0.250885  1
  Sn  Sn2  1  0.666667  0.333333  0.962434  1
  Sn  Sn3  1  0.333333  0.666667  0.462434  1
  Hg  Hg4  1  0.666667  0.333333  0.561681  1
  Hg  Hg5  1  0.333333  0.666667  0.061681  1
