# generated using pymatgen
data_EuPd
_symmetry_space_group_name_H-M   'P 1'
_cell_length_a   6.01415062
_cell_length_b   6.01415062
_cell_length_c   4.54675152
_cell_angle_alpha   90.00000000
_cell_angle_beta   90.00000000
_cell_angle_gamma   139.78069385
_symmetry_Int_Tables_number   1
_chemical_formula_structural   EuPd
_chemical_formula_sum   'Eu2 Pd2'
_cell_volume   106.19173294
_cell_formula_units_Z   2
loop_
 _symmetry_equiv_pos_site_id
 _symmetry_equiv_pos_as_xyz
  1  'x, y, z'
loop_
 _atom_site_type_symbol
 _atom_site_label
 _atom_site_symmetry_multiplicity
 _atom_site_fract_x
 _atom_site_fract_y
 _atom_site_fract_z
 _atom_site_occupancy
  Eu  Eu0  1  0.137954  0.862046  0.250000  1
  Eu  Eu1  1  0.862046  0.137954  0.750000  1
  Pd  Pd2  1  0.422890  0.577110  0.250000  1
  Pd  Pd3  1  0.577110  0.422890  0.750000  1
