# generated using pymatgen
data_Rb2Ni3Se4
_symmetry_space_group_name_H-M   'P 1'
_cell_length_a   15.05315863
_cell_length_b   14.40108443
_cell_length_c   6.15445695
_cell_angle_alpha   83.95381633
_cell_angle_beta   72.05638917
_cell_angle_gamma   23.98979450
_symmetry_Int_Tables_number   1
_chemical_formula_structural   Rb2Ni3Se4
_chemical_formula_sum   'Rb4 Ni6 Se8'
_cell_volume   459.44486019
_cell_formula_units_Z   2
loop_
 _symmetry_equiv_pos_site_id
 _symmetry_equiv_pos_as_xyz
  1  'x, y, z'
loop_
 _atom_site_type_symbol
 _atom_site_label
 _atom_site_symmetry_multiplicity
 _atom_site_fract_x
 _atom_site_fract_y
 _atom_site_fract_z
 _atom_site_occupancy
  Rb  Rb0  1  0.924144  0.924144  0.075856  1
  Rb  Rb1  1  0.075856  0.075856  0.924144  1
  Rb  Rb2  1  0.325856  0.325856  0.174144  1
  Rb  Rb3  1  0.174144  0.174144  0.325856  1
  Ni  Ni4  1  0.250491  0.250491  0.749509  1
  Ni  Ni5  1  0.749509  0.749509  0.250491  1
  Ni  Ni6  1  0.999509  0.999509  0.500491  1
  Ni  Ni7  1  0.500000  0.500000  0.500000  1
  Ni  Ni8  1  0.750000  0.750000  0.750000  1
  Ni  Ni9  1  0.500491  0.500491  0.999509  1
  Se  Se10  1  0.608895  0.282245  0.723618  1
  Se  Se11  1  0.385243  0.723617  0.282245  1
  Se  Se12  1  0.723617  0.385243  0.608895  1
  Se  Se13  1  0.282245  0.608895  0.385243  1
  Se  Se14  1  0.641105  0.967755  0.526383  1
  Se  Se15  1  0.864757  0.526383  0.967755  1
  Se  Se16  1  0.526383  0.864757  0.641105  1
  Se  Se17  1  0.967755  0.641105  0.864757  1
