# generated using pymatgen
data_SrGe2
_symmetry_space_group_name_H-M   'P 1'
_cell_length_a   6.59855330
_cell_length_b   8.81062791
_cell_length_c   11.26927965
_cell_angle_alpha   90.00000000
_cell_angle_beta   90.00000000
_cell_angle_gamma   90.00000000
_symmetry_Int_Tables_number   1
_chemical_formula_structural   SrGe2
_chemical_formula_sum   'Sr8 Ge16'
_cell_volume   655.16659473
_cell_formula_units_Z   8
loop_
 _symmetry_equiv_pos_site_id
 _symmetry_equiv_pos_as_xyz
  1  'x, y, z'
loop_
 _atom_site_type_symbol
 _atom_site_label
 _atom_site_symmetry_multiplicity
 _atom_site_fract_x
 _atom_site_fract_y
 _atom_site_fract_z
 _atom_site_occupancy
  Sr  Sr0  1  0.750000  0.484859  0.806803  1
  Sr  Sr1  1  0.750000  0.984859  0.693197  1
  Sr  Sr2  1  0.250000  0.515141  0.193197  1
  Sr  Sr3  1  0.250000  0.015141  0.306803  1
  Sr  Sr4  1  0.750000  0.656437  0.406222  1
  Sr  Sr5  1  0.750000  0.156437  0.093778  1
  Sr  Sr6  1  0.250000  0.343563  0.593778  1
  Sr  Sr7  1  0.250000  0.843563  0.906222  1
  Ge  Ge8  1  0.750000  0.306809  0.547379  1
  Ge  Ge9  1  0.750000  0.806809  0.952621  1
  Ge  Ge10  1  0.250000  0.693191  0.452621  1
  Ge  Ge11  1  0.250000  0.193191  0.047379  1
  Ge  Ge12  1  0.750000  0.065824  0.407855  1
  Ge  Ge13  1  0.750000  0.565824  0.092145  1
  Ge  Ge14  1  0.250000  0.934176  0.592145  1
  Ge  Ge15  1  0.250000  0.434176  0.907855  1
  Ge  Ge16  1  0.944904  0.310036  0.349278  1
  Ge  Ge17  1  0.555096  0.810036  0.150722  1
  Ge  Ge18  1  0.444904  0.689964  0.650722  1
  Ge  Ge19  1  0.055096  0.189964  0.849278  1
  Ge  Ge20  1  0.055096  0.689964  0.650722  1
  Ge  Ge21  1  0.444904  0.189964  0.849278  1
  Ge  Ge22  1  0.555096  0.310036  0.349278  1
  Ge  Ge23  1  0.944904  0.810036  0.150722  1
