# generated using pymatgen
data_ZnP4
_symmetry_space_group_name_H-M   'P 1'
_cell_length_a   5.04590635
_cell_length_b   5.04590635
_cell_length_c   14.63366770
_cell_angle_alpha   90.00000000
_cell_angle_beta   90.00000000
_cell_angle_gamma   90.00000000
_symmetry_Int_Tables_number   1
_chemical_formula_structural   ZnP4
_chemical_formula_sum   'Zn4 P16'
_cell_volume   372.59031410
_cell_formula_units_Z   4
loop_
 _symmetry_equiv_pos_site_id
 _symmetry_equiv_pos_as_xyz
  1  'x, y, z'
loop_
 _atom_site_type_symbol
 _atom_site_label
 _atom_site_symmetry_multiplicity
 _atom_site_fract_x
 _atom_site_fract_y
 _atom_site_fract_z
 _atom_site_occupancy
  Zn  Zn0  1  0.801980  0.801980  0.500000  1
  Zn  Zn1  1  0.698020  0.301980  0.750000  1
  Zn  Zn2  1  0.301980  0.698020  0.250000  1
  Zn  Zn3  1  0.198020  0.198020  0.000000  1
  P  P4  1  0.923881  0.319831  0.299046  1
  P  P5  1  0.076119  0.680169  0.799046  1
  P  P6  1  0.319831  0.923881  0.700954  1
  P  P7  1  0.819831  0.576119  0.049046  1
  P  P8  1  0.098455  0.987838  0.374815  1
  P  P9  1  0.512162  0.598455  0.624815  1
  P  P10  1  0.487838  0.401545  0.124815  1
  P  P11  1  0.598455  0.512162  0.375185  1
  P  P12  1  0.401545  0.487838  0.875185  1
  P  P13  1  0.901545  0.012162  0.874815  1
  P  P14  1  0.987838  0.098455  0.625185  1
  P  P15  1  0.012162  0.901545  0.125185  1
  P  P16  1  0.680169  0.076119  0.200954  1
  P  P17  1  0.423881  0.180169  0.450954  1
  P  P18  1  0.576119  0.819831  0.950954  1
  P  P19  1  0.180169  0.423881  0.549046  1
