# generated using pymatgen
data_YMg2
_symmetry_space_group_name_H-M   'P 1'
_cell_length_a   6.05944341
_cell_length_b   6.05944341
_cell_length_c   9.83989640
_cell_angle_alpha   90.00000000
_cell_angle_beta   90.00000000
_cell_angle_gamma   120.00000000
_symmetry_Int_Tables_number   1
_chemical_formula_structural   YMg2
_chemical_formula_sum   'Y4 Mg8'
_cell_volume   312.88635639
_cell_formula_units_Z   4
loop_
 _symmetry_equiv_pos_site_id
 _symmetry_equiv_pos_as_xyz
  1  'x, y, z'
loop_
 _atom_site_type_symbol
 _atom_site_label
 _atom_site_symmetry_multiplicity
 _atom_site_fract_x
 _atom_site_fract_y
 _atom_site_fract_z
 _atom_site_occupancy
  Y  Y0  1  0.333333  0.666667  0.064741  1
  Y  Y1  1  0.666667  0.333333  0.564741  1
  Y  Y2  1  0.666667  0.333333  0.935259  1
  Y  Y3  1  0.333333  0.666667  0.435259  1
  Mg  Mg4  1  0.000000  0.000000  0.000000  1
  Mg  Mg5  1  0.000000  0.000000  0.500000  1
  Mg  Mg6  1  0.828949  0.657898  0.250000  1
  Mg  Mg7  1  0.171051  0.828949  0.750000  1
  Mg  Mg8  1  0.657898  0.828949  0.750000  1
  Mg  Mg9  1  0.342102  0.171051  0.250000  1
  Mg  Mg10  1  0.828949  0.171051  0.250000  1
  Mg  Mg11  1  0.171051  0.342102  0.750000  1
