# generated using pymatgen
data_LuNiGe
_symmetry_space_group_name_H-M   'P 1'
_cell_length_a   4.17461443
_cell_length_b   6.74009611
_cell_length_c   7.21571150
_cell_angle_alpha   90.00000000
_cell_angle_beta   90.00000000
_cell_angle_gamma   90.00000000
_symmetry_Int_Tables_number   1
_chemical_formula_structural   LuNiGe
_chemical_formula_sum   'Lu4 Ni4 Ge4'
_cell_volume   203.03065709
_cell_formula_units_Z   4
loop_
 _symmetry_equiv_pos_site_id
 _symmetry_equiv_pos_as_xyz
  1  'x, y, z'
loop_
 _atom_site_type_symbol
 _atom_site_label
 _atom_site_symmetry_multiplicity
 _atom_site_fract_x
 _atom_site_fract_y
 _atom_site_fract_z
 _atom_site_occupancy
  Lu  Lu0  1  0.250000  0.506737  0.706888  1
  Lu  Lu1  1  0.750000  0.493263  0.293112  1
  Lu  Lu2  1  0.250000  0.006737  0.793112  1
  Lu  Lu3  1  0.750000  0.993263  0.206888  1
  Ni  Ni4  1  0.250000  0.807622  0.418663  1
  Ni  Ni5  1  0.750000  0.692378  0.918663  1
  Ni  Ni6  1  0.250000  0.307622  0.081337  1
  Ni  Ni7  1  0.750000  0.192378  0.581337  1
  Ge  Ge8  1  0.250000  0.199391  0.410107  1
  Ge  Ge9  1  0.750000  0.300609  0.910107  1
  Ge  Ge10  1  0.250000  0.699391  0.089893  1
  Ge  Ge11  1  0.750000  0.800609  0.589893  1
