# generated using pymatgen
data_Ba3MnSb2O9
_symmetry_space_group_name_H-M   'P 1'
_cell_length_a   5.98942722
_cell_length_b   5.98942722
_cell_length_c   14.82904087
_cell_angle_alpha   89.42193448
_cell_angle_beta   90.57806552
_cell_angle_gamma   60.07123436
_symmetry_Int_Tables_number   1
_chemical_formula_structural   Ba3MnSb2O9
_chemical_formula_sum   'Ba6 Mn2 Sb4 O18'
_cell_volume   460.93249838
_cell_formula_units_Z   2
loop_
 _symmetry_equiv_pos_site_id
 _symmetry_equiv_pos_as_xyz
  1  'x, y, z'
loop_
 _atom_site_type_symbol
 _atom_site_label
 _atom_site_symmetry_multiplicity
 _atom_site_fract_x
 _atom_site_fract_y
 _atom_site_fract_z
 _atom_site_occupancy
  Ba  Ba0  1  0.339129  0.326294  0.088084  1
  Ba  Ba1  1  0.326294  0.339129  0.411916  1
  Ba  Ba2  1  0.660871  0.673706  0.911916  1
  Ba  Ba3  1  0.673706  0.660871  0.588084  1
  Ba  Ba4  1  0.997321  0.997321  0.250000  1
  Ba  Ba5  1  0.002679  0.002679  0.750000  1
  Mn  Mn6  1  0.000000  0.000000  0.500000  1
  Mn  Mn7  1  0.000000  0.000000  0.000000  1
  Sb  Sb8  1  0.677911  0.654407  0.152806  1
  Sb  Sb9  1  0.654407  0.677911  0.347194  1
  Sb  Sb10  1  0.345593  0.322089  0.652806  1
  Sb  Sb11  1  0.322089  0.345593  0.847194  1
  O  O12  1  0.854399  0.317155  0.094906  1
  O  O13  1  0.317155  0.854399  0.405094  1
  O  O14  1  0.145601  0.682845  0.905094  1
  O  O15  1  0.682845  0.145601  0.594906  1
  O  O16  1  0.368277  0.803190  0.075058  1
  O  O17  1  0.803190  0.368277  0.424942  1
  O  O18  1  0.631723  0.196810  0.924942  1
  O  O19  1  0.196810  0.631723  0.575058  1
  O  O20  1  0.855556  0.803109  0.086007  1
  O  O21  1  0.803109  0.855556  0.413993  1
  O  O22  1  0.144444  0.196891  0.913993  1
  O  O23  1  0.196891  0.144444  0.586007  1
  O  O24  1  0.481569  0.481569  0.750000  1
  O  O25  1  0.518431  0.518431  0.250000  1
  O  O26  1  0.039932  0.480960  0.742123  1
  O  O27  1  0.480960  0.039932  0.757877  1
  O  O28  1  0.960068  0.519040  0.257877  1
  O  O29  1  0.519040  0.960068  0.242123  1
