# generated using pymatgen
data_EuCuO2
_symmetry_space_group_name_H-M   'P 1'
_cell_length_a   6.10016588
_cell_length_b   6.10016588
_cell_length_c   6.10016588
_cell_angle_alpha   35.38528444
_cell_angle_beta   35.38528444
_cell_angle_gamma   35.38528444
_symmetry_Int_Tables_number   1
_chemical_formula_structural   EuCuO2
_chemical_formula_sum   'Eu1 Cu1 O2'
_cell_volume   68.00964458
_cell_formula_units_Z   1
loop_
 _symmetry_equiv_pos_site_id
 _symmetry_equiv_pos_as_xyz
  1  'x, y, z'
loop_
 _atom_site_type_symbol
 _atom_site_label
 _atom_site_symmetry_multiplicity
 _atom_site_fract_x
 _atom_site_fract_y
 _atom_site_fract_z
 _atom_site_occupancy
  Eu  Eu0  1  0.500000  0.500000  0.500000  1
  Cu  Cu1  1  0.000000  0.000000  0.000000  1
  O  O2  1  0.104659  0.104659  0.104659  1
  O  O3  1  0.895341  0.895341  0.895341  1
