# generated using pymatgen
data_CsSn
_symmetry_space_group_name_H-M   'P 1'
_cell_length_a   13.36129449
_cell_length_b   13.36129449
_cell_length_c   13.36129449
_cell_angle_alpha   124.90113585
_cell_angle_beta   124.90113585
_cell_angle_gamma   81.70184919
_symmetry_Int_Tables_number   1
_chemical_formula_structural   CsSn
_chemical_formula_sum   'Cs16 Sn16'
_cell_volume   1543.88298415
_cell_formula_units_Z   16
loop_
 _symmetry_equiv_pos_site_id
 _symmetry_equiv_pos_as_xyz
  1  'x, y, z'
loop_
 _atom_site_type_symbol
 _atom_site_label
 _atom_site_symmetry_multiplicity
 _atom_site_fract_x
 _atom_site_fract_y
 _atom_site_fract_z
 _atom_site_occupancy
  Cs  Cs0  1  0.879002  0.379002  0.258003  1
  Cs  Cs1  1  0.129002  0.370998  1.000000  1
  Cs  Cs2  1  0.370998  0.129002  1.000000  1
  Cs  Cs3  1  0.120998  0.620998  0.741997  1
  Cs  Cs4  1  0.870998  0.870998  0.241997  1
  Cs  Cs5  1  0.620998  0.879002  0.500000  1
  Cs  Cs6  1  0.379002  0.120998  0.500000  1
  Cs  Cs7  1  0.629002  0.629002  0.758003  1
  Cs  Cs8  1  0.125000  0.734545  0.109545  1
  Cs  Cs9  1  0.484545  0.875000  0.109545  1
  Cs  Cs10  1  0.765455  0.375000  0.890455  1
  Cs  Cs11  1  0.625000  0.015455  0.890455  1
  Cs  Cs12  1  0.625000  0.515455  0.390455  1
  Cs  Cs13  1  0.265455  0.375000  0.390455  1
  Cs  Cs14  1  0.984545  0.875000  0.609545  1
  Cs  Cs15  1  0.125000  0.234545  0.609545  1
  Sn  Sn16  1  0.593112  0.258886  0.457289  1
  Sn  Sn17  1  0.364176  0.698402  0.457289  1
  Sn  Sn18  1  0.241114  0.906888  0.542711  1
  Sn  Sn19  1  0.656888  0.614176  0.165774  1
  Sn  Sn20  1  0.448402  0.491114  0.834226  1
  Sn  Sn21  1  0.008886  0.051598  0.165774  1
  Sn  Sn22  1  0.885824  0.843112  0.834226  1
  Sn  Sn23  1  0.801598  0.135824  0.542711  1
  Sn  Sn24  1  0.156888  0.991114  0.042711  1
  Sn  Sn25  1  0.385824  0.551598  0.042711  1
  Sn  Sn26  1  0.508886  0.343112  0.957289  1
  Sn  Sn27  1  0.093112  0.635824  0.334226  1
  Sn  Sn28  1  0.301598  0.758886  0.665774  1
  Sn  Sn29  1  0.741114  0.198402  0.334226  1
  Sn  Sn30  1  0.864176  0.406888  0.665774  1
  Sn  Sn31  1  0.948402  0.114176  0.957289  1
