# generated using pymatgen
data_TaTe4Ir
_symmetry_space_group_name_H-M   'P 1'
_cell_length_a   3.83814527
_cell_length_b   12.63317342
_cell_length_c   14.04698360
_cell_angle_alpha   90.00000000
_cell_angle_beta   90.00000000
_cell_angle_gamma   90.00000000
_symmetry_Int_Tables_number   1
_chemical_formula_structural   TaTe4Ir
_chemical_formula_sum   'Ta4 Te16 Ir4'
_cell_volume   681.10950597
_cell_formula_units_Z   4
loop_
 _symmetry_equiv_pos_site_id
 _symmetry_equiv_pos_as_xyz
  1  'x, y, z'
loop_
 _atom_site_type_symbol
 _atom_site_label
 _atom_site_symmetry_multiplicity
 _atom_site_fract_x
 _atom_site_fract_y
 _atom_site_fract_z
 _atom_site_occupancy
  Ta  Ta0  1  0.000000  0.054040  0.003370  1
  Ta  Ta1  1  0.500000  0.945960  0.503370  1
  Ta  Ta2  1  0.000000  0.271565  0.491264  1
  Ta  Ta3  1  0.500000  0.728435  0.991264  1
  Te  Te4  1  0.500000  0.105520  0.139727  1
  Te  Te5  1  0.000000  0.894480  0.639727  1
  Te  Te6  1  0.500000  0.151827  0.599570  1
  Te  Te7  1  0.000000  0.848173  0.099570  1
  Te  Te8  1  0.500000  0.323195  0.355154  1
  Te  Te9  1  0.000000  0.676805  0.855154  1
  Te  Te10  1  0.500000  0.435488  0.901845  1
  Te  Te11  1  0.000000  0.564512  0.401845  1
  Te  Te12  1  0.000000  0.066126  0.396348  1
  Te  Te13  1  0.500000  0.933874  0.896348  1
  Te  Te14  1  0.000000  0.194402  0.861302  1
  Te  Te15  1  0.500000  0.805598  0.361302  1
  Te  Te16  1  0.000000  0.344921  0.090669  1
  Te  Te17  1  0.500000  0.655079  0.590669  1
  Te  Te18  1  0.000000  0.414321  0.631077  1
  Te  Te19  1  0.500000  0.585679  0.131077  1
  Ir  Ir20  1  0.000000  0.534861  0.000081  1
  Ir  Ir21  1  0.500000  0.465139  0.500081  1
  Ir  Ir22  1  0.000000  0.754364  0.492652  1
  Ir  Ir23  1  0.500000  0.245636  0.992652  1
