# generated using pymatgen
data_YbGa4Ni
_symmetry_space_group_name_H-M   'P 1'
_cell_length_a   7.93667885
_cell_length_b   7.93667885
_cell_length_c   6.57167406
_cell_angle_alpha   90.00000000
_cell_angle_beta   90.00000000
_cell_angle_gamma   150.00136226
_symmetry_Int_Tables_number   1
_chemical_formula_structural   YbGa4Ni
_chemical_formula_sum   'Yb2 Ga8 Ni2'
_cell_volume   206.96921319
_cell_formula_units_Z   2
loop_
 _symmetry_equiv_pos_site_id
 _symmetry_equiv_pos_as_xyz
  1  'x, y, z'
loop_
 _atom_site_type_symbol
 _atom_site_label
 _atom_site_symmetry_multiplicity
 _atom_site_fract_x
 _atom_site_fract_y
 _atom_site_fract_z
 _atom_site_occupancy
  Yb  Yb0  1  0.875583  0.124417  0.250000  1
  Yb  Yb1  1  0.124417  0.875583  0.750000  1
  Ga  Ga2  1  0.314316  0.685684  0.550325  1
  Ga  Ga3  1  0.685684  0.314316  0.449675  1
  Ga  Ga4  1  0.500000  0.500000  1.000000  1
  Ga  Ga5  1  0.500000  0.500000  0.500000  1
  Ga  Ga6  1  0.931445  0.068555  0.750000  1
  Ga  Ga7  1  0.068555  0.931445  0.250000  1
  Ga  Ga8  1  0.314316  0.685684  0.949675  1
  Ga  Ga9  1  0.685684  0.314316  0.050325  1
  Ni  Ni10  1  0.776910  0.223090  0.750000  1
  Ni  Ni11  1  0.223090  0.776910  0.250000  1
