# generated using pymatgen
data_P3Rh
_symmetry_space_group_name_H-M   'P 1'
_cell_length_a   6.98153588
_cell_length_b   6.98153588
_cell_length_c   6.98153588
_cell_angle_alpha   109.47122063
_cell_angle_beta   109.47122063
_cell_angle_gamma   109.47122063
_symmetry_Int_Tables_number   1
_chemical_formula_structural   P3Rh
_chemical_formula_sum   'P12 Rh4'
_cell_volume   261.95761776
_cell_formula_units_Z   4
loop_
 _symmetry_equiv_pos_site_id
 _symmetry_equiv_pos_as_xyz
  1  'x, y, z'
loop_
 _atom_site_type_symbol
 _atom_site_label
 _atom_site_symmetry_multiplicity
 _atom_site_fract_x
 _atom_site_fract_y
 _atom_site_fract_z
 _atom_site_occupancy
  P  P0  1  0.139725  0.783878  0.644153  1
  P  P1  1  0.860275  0.216122  0.355847  1
  P  P2  1  0.860275  0.504428  0.644153  1
  P  P3  1  0.139725  0.495572  0.355847  1
  P  P4  1  0.783878  0.644153  0.139725  1
  P  P5  1  0.216122  0.355847  0.860275  1
  P  P6  1  0.504428  0.644153  0.860275  1
  P  P7  1  0.495572  0.355847  0.139725  1
  P  P8  1  0.644153  0.139725  0.783878  1
  P  P9  1  0.355847  0.860275  0.216122  1
  P  P10  1  0.644153  0.860275  0.504428  1
  P  P11  1  0.355847  0.139725  0.495572  1
  Rh  Rh12  1  1.000000  1.000000  0.500000  1
  Rh  Rh13  1  0.500000  1.000000  0.000000  1
  Rh  Rh14  1  1.000000  0.500000  0.000000  1
  Rh  Rh15  1  0.500000  0.500000  0.500000  1
