# generated using pymatgen
data_La7Mo7O30
_symmetry_space_group_name_H-M   'P 1'
_cell_length_a   10.22988664
_cell_length_b   10.22988664
_cell_length_c   10.22988664
_cell_angle_alpha   115.04563219
_cell_angle_beta   115.04563219
_cell_angle_gamma   115.04563219
_symmetry_Int_Tables_number   1
_chemical_formula_structural   La7Mo7O30
_chemical_formula_sum   'La7 Mo7 O30'
_cell_volume   596.65141513
_cell_formula_units_Z   1
loop_
 _symmetry_equiv_pos_site_id
 _symmetry_equiv_pos_as_xyz
  1  'x, y, z'
loop_
 _atom_site_type_symbol
 _atom_site_label
 _atom_site_symmetry_multiplicity
 _atom_site_fract_x
 _atom_site_fract_y
 _atom_site_fract_z
 _atom_site_occupancy
  La  La0  1  0.660434  0.466752  0.891101  1
  La  La1  1  0.891101  0.660434  0.466752  1
  La  La2  1  0.533248  0.108899  0.339566  1
  La  La3  1  0.339566  0.533248  0.108899  1
  La  La4  1  0.108899  0.339566  0.533248  1
  La  La5  1  0.466752  0.891101  0.660434  1
  La  La6  1  0.000000  0.000000  0.000000  1
  Mo  Mo7  1  0.012592  0.633031  0.837576  1
  Mo  Mo8  1  0.837576  0.012592  0.633031  1
  Mo  Mo9  1  0.633031  0.837576  0.012592  1
  Mo  Mo10  1  0.987408  0.366969  0.162424  1
  Mo  Mo11  1  0.162424  0.987408  0.366969  1
  Mo  Mo12  1  0.366969  0.162424  0.987408  1
  Mo  Mo13  1  0.500000  0.500000  0.500000  1
  O  O14  1  0.628796  0.659248  0.808888  1
  O  O15  1  0.808888  0.628796  0.659248  1
  O  O16  1  0.659248  0.808888  0.628796  1
  O  O17  1  0.371204  0.340752  0.191112  1
  O  O18  1  0.191112  0.371204  0.340752  1
  O  O19  1  0.340752  0.191112  0.371204  1
  O  O20  1  0.975256  0.484371  0.621998  1
  O  O21  1  0.621998  0.975256  0.484371  1
  O  O22  1  0.484371  0.621998  0.975256  1
  O  O23  1  0.024744  0.515629  0.378002  1
  O  O24  1  0.378002  0.024744  0.515629  1
  O  O25  1  0.515629  0.378002  0.024744  1
  O  O26  1  0.010161  0.781313  0.070401  1
  O  O27  1  0.070401  0.010161  0.781313  1
  O  O28  1  0.605414  0.273057  0.225077  1
  O  O29  1  0.273057  0.225077  0.605414  1
  O  O30  1  0.225077  0.605414  0.273057  1
  O  O31  1  0.394586  0.726943  0.774923  1
  O  O32  1  0.726943  0.774923  0.394586  1
  O  O33  1  0.774923  0.394586  0.726943  1
  O  O34  1  0.295465  0.956449  0.761373  1
  O  O35  1  0.956449  0.761373  0.295465  1
  O  O36  1  0.761373  0.295465  0.956449  1
  O  O37  1  0.704535  0.043551  0.238627  1
  O  O38  1  0.043551  0.238627  0.704535  1
  O  O39  1  0.238627  0.704535  0.043551  1
  O  O40  1  0.218687  0.929599  0.989839  1
  O  O41  1  0.929599  0.989839  0.218687  1
  O  O42  1  0.989839  0.218687  0.929599  1
  O  O43  1  0.781313  0.070401  0.010161  1
