# generated using pymatgen
data_NaCa3IrO6
_symmetry_space_group_name_H-M   'P 1'
_cell_length_a   6.56652496
_cell_length_b   6.56652496
_cell_length_c   6.56652496
_cell_angle_alpha   90.50435181
_cell_angle_beta   90.50435181
_cell_angle_gamma   90.50435181
_symmetry_Int_Tables_number   1
_chemical_formula_structural   NaCa3IrO6
_chemical_formula_sum   'Na2 Ca6 Ir2 O12'
_cell_volume   283.11052804
_cell_formula_units_Z   2
loop_
 _symmetry_equiv_pos_site_id
 _symmetry_equiv_pos_as_xyz
  1  'x, y, z'
loop_
 _atom_site_type_symbol
 _atom_site_label
 _atom_site_symmetry_multiplicity
 _atom_site_fract_x
 _atom_site_fract_y
 _atom_site_fract_z
 _atom_site_occupancy
  Na  Na0  1  0.250000  0.250000  0.250000  1
  Na  Na1  1  0.750000  0.750000  0.750000  1
  Ca  Ca2  1  0.395472  0.750000  0.104528  1
  Ca  Ca3  1  0.104528  0.395472  0.750000  1
  Ca  Ca4  1  0.750000  0.104528  0.395472  1
  Ca  Ca5  1  0.604528  0.250000  0.895472  1
  Ca  Ca6  1  0.895472  0.604528  0.250000  1
  Ca  Ca7  1  0.250000  0.895472  0.604528  1
  Ir  Ir8  1  0.500000  0.500000  0.500000  1
  Ir  Ir9  1  0.000000  0.000000  0.000000  1
  O  O10  1  0.558134  0.432119  0.208525  1
  O  O11  1  0.208525  0.558134  0.432119  1
  O  O12  1  0.432119  0.208525  0.558134  1
  O  O13  1  0.291475  0.067881  0.941866  1
  O  O14  1  0.941866  0.291475  0.067881  1
  O  O15  1  0.067881  0.941866  0.291475  1
  O  O16  1  0.441866  0.567881  0.791475  1
  O  O17  1  0.791475  0.441866  0.567881  1
  O  O18  1  0.567881  0.791475  0.441866  1
  O  O19  1  0.708525  0.932119  0.058134  1
  O  O20  1  0.932119  0.058134  0.708525  1
  O  O21  1  0.058134  0.708525  0.932119  1
