# generated using pymatgen
data_Tb2Al6Si4Au
_symmetry_space_group_name_H-M   'P 1'
_cell_length_a   17.01758149
_cell_length_b   17.01758149
_cell_length_c   17.01758149
_cell_angle_alpha   14.21586985
_cell_angle_beta   14.21586985
_cell_angle_gamma   14.21586985
_symmetry_Int_Tables_number   1
_chemical_formula_structural   Tb2Al6Si4Au
_chemical_formula_sum   'Tb2 Al6 Si4 Au1'
_cell_volume   258.71267956
_cell_formula_units_Z   1
loop_
 _symmetry_equiv_pos_site_id
 _symmetry_equiv_pos_as_xyz
  1  'x, y, z'
loop_
 _atom_site_type_symbol
 _atom_site_label
 _atom_site_symmetry_multiplicity
 _atom_site_fract_x
 _atom_site_fract_y
 _atom_site_fract_z
 _atom_site_occupancy
  Tb  Tb0  1  0.434453  0.434453  0.434453  1
  Tb  Tb1  1  0.565547  0.565547  0.565547  1
  Al  Al2  1  0.052103  0.052103  0.052103  1
  Al  Al3  1  0.947897  0.947897  0.947897  1
  Al  Al4  1  0.814572  0.814572  0.814572  1
  Al  Al5  1  0.185428  0.185428  0.185428  1
  Al  Al6  1  0.683052  0.683052  0.683052  1
  Al  Al7  1  0.316948  0.316948  0.316948  1
  Si  Si8  1  0.265963  0.265963  0.265963  1
  Si  Si9  1  0.864743  0.864743  0.864743  1
  Si  Si10  1  0.734037  0.734037  0.734037  1
  Si  Si11  1  0.135257  0.135257  0.135257  1
  Au  Au12  1  0.000000  0.000000  0.000000  1
