# generated using pymatgen
data_Nb2Co12P7
_symmetry_space_group_name_H-M   'P 1'
_cell_length_a   8.84164615
_cell_length_b   8.84164615
_cell_length_c   3.52847529
_cell_angle_alpha   90.00000000
_cell_angle_beta   90.00000000
_cell_angle_gamma   120.00000000
_symmetry_Int_Tables_number   1
_chemical_formula_structural   Nb2Co12P7
_chemical_formula_sum   'Nb2 Co12 P7'
_cell_volume   238.88230047
_cell_formula_units_Z   1
loop_
 _symmetry_equiv_pos_site_id
 _symmetry_equiv_pos_as_xyz
  1  'x, y, z'
loop_
 _atom_site_type_symbol
 _atom_site_label
 _atom_site_symmetry_multiplicity
 _atom_site_fract_x
 _atom_site_fract_y
 _atom_site_fract_z
 _atom_site_occupancy
  Nb  Nb0  1  0.666667  0.333333  0.500000  1
  Nb  Nb1  1  0.333333  0.666667  0.000000  1
  Co  Co2  1  0.117427  0.835331  0.000000  1
  Co  Co3  1  0.390325  0.439881  0.500000  1
  Co  Co4  1  0.717904  0.882573  0.000000  1
  Co  Co5  1  0.560119  0.950444  0.500000  1
  Co  Co6  1  0.212270  0.087056  0.500000  1
  Co  Co7  1  0.874786  0.787730  0.500000  1
  Co  Co8  1  0.912944  0.125214  0.500000  1
  Co  Co9  1  0.935433  0.375220  0.000000  1
  Co  Co10  1  0.624780  0.560213  0.000000  1
  Co  Co11  1  0.439787  0.064567  0.000000  1
  Co  Co12  1  0.049556  0.609675  0.500000  1
  Co  Co13  1  0.164669  0.282096  0.000000  1
  P  P14  1  0.000000  0.000000  0.000000  1
  P  P15  1  0.593158  0.713138  0.500000  1
  P  P16  1  0.709236  0.121201  0.000000  1
  P  P17  1  0.878799  0.588035  0.000000  1
  P  P18  1  0.411965  0.290764  0.000000  1
  P  P19  1  0.286862  0.880020  0.500000  1
  P  P20  1  0.119980  0.406842  0.500000  1
