# generated using pymatgen
data_Tb2Al6Si4Pt
_symmetry_space_group_name_H-M   'P 1'
_cell_length_a   17.09988532
_cell_length_b   17.09988532
_cell_length_c   17.09988532
_cell_angle_alpha   14.02392868
_cell_angle_beta   14.02392868
_cell_angle_gamma   14.02392868
_symmetry_Int_Tables_number   1
_chemical_formula_structural   Tb2Al6Si4Pt
_chemical_formula_sum   'Tb2 Al6 Si4 Pt1'
_cell_volume   255.55057304
_cell_formula_units_Z   1
loop_
 _symmetry_equiv_pos_site_id
 _symmetry_equiv_pos_as_xyz
  1  'x, y, z'
loop_
 _atom_site_type_symbol
 _atom_site_label
 _atom_site_symmetry_multiplicity
 _atom_site_fract_x
 _atom_site_fract_y
 _atom_site_fract_z
 _atom_site_occupancy
  Tb  Tb0  1  0.434069  0.434069  0.434069  1
  Tb  Tb1  1  0.565931  0.565931  0.565931  1
  Al  Al2  1  0.050280  0.050280  0.050280  1
  Al  Al3  1  0.949720  0.949720  0.949720  1
  Al  Al4  1  0.814826  0.814826  0.814826  1
  Al  Al5  1  0.185174  0.185174  0.185174  1
  Al  Al6  1  0.682361  0.682361  0.682361  1
  Al  Al7  1  0.317639  0.317639  0.317639  1
  Si  Si8  1  0.265966  0.265966  0.265966  1
  Si  Si9  1  0.864821  0.864821  0.864821  1
  Si  Si10  1  0.734034  0.734034  0.734034  1
  Si  Si11  1  0.135179  0.135179  0.135179  1
  Pt  Pt12  1  0.000000  0.000000  0.000000  1
