# generated using pymatgen
data_Li15Ge4
_symmetry_space_group_name_H-M   'P 1'
_cell_length_a   9.26734203
_cell_length_b   9.26734203
_cell_length_c   9.26734203
_cell_angle_alpha   109.47122063
_cell_angle_beta   109.47122063
_cell_angle_gamma   109.47122063
_symmetry_Int_Tables_number   1
_chemical_formula_structural   Li15Ge4
_chemical_formula_sum   'Li30 Ge8'
_cell_volume   612.69408027
_cell_formula_units_Z   2
loop_
 _symmetry_equiv_pos_site_id
 _symmetry_equiv_pos_as_xyz
  1  'x, y, z'
loop_
 _atom_site_type_symbol
 _atom_site_label
 _atom_site_symmetry_multiplicity
 _atom_site_fract_x
 _atom_site_fract_y
 _atom_site_fract_z
 _atom_site_occupancy
  Li  Li0  1  0.882947  0.468507  0.159284  1
  Li  Li1  1  0.031493  0.914441  0.690777  1
  Li  Li2  1  0.340716  0.809223  0.723663  1
  Li  Li3  1  0.617053  0.776337  0.585559  1
  Li  Li4  1  0.776337  0.585559  0.617053  1
  Li  Li5  1  0.585559  0.617053  0.776337  1
  Li  Li6  1  0.382947  0.659284  0.968507  1
  Li  Li7  1  0.190777  0.414441  0.531493  1
  Li  Li8  1  0.250000  0.625000  0.375000  1
  Li  Li9  1  0.375000  0.250000  0.625000  1
  Li  Li10  1  0.125000  0.750000  0.875000  1
  Li  Li11  1  0.875000  0.125000  0.750000  1
  Li  Li12  1  0.625000  0.375000  0.250000  1
  Li  Li13  1  0.750000  0.875000  0.125000  1
  Li  Li14  1  0.117053  0.085559  0.276337  1
  Li  Li15  1  0.914441  0.690777  0.031493  1
  Li  Li16  1  0.159284  0.882947  0.468507  1
  Li  Li17  1  0.468507  0.159284  0.882947  1
  Li  Li18  1  0.723663  0.340716  0.809223  1
  Li  Li19  1  0.809223  0.723663  0.340716  1
  Li  Li20  1  0.690777  0.031493  0.914441  1
  Li  Li21  1  0.840716  0.223663  0.309223  1
  Li  Li22  1  0.531493  0.190777  0.414441  1
  Li  Li23  1  0.659284  0.968507  0.382947  1
  Li  Li24  1  0.223663  0.309223  0.840716  1
  Li  Li25  1  0.414441  0.531493  0.190777  1
  Li  Li26  1  0.968507  0.382947  0.659284  1
  Li  Li27  1  0.276337  0.117053  0.085559  1
  Li  Li28  1  0.085559  0.276337  0.117053  1
  Li  Li29  1  0.309223  0.840716  0.223663  1
  Ge  Ge30  1  0.915317  0.915317  0.915317  1
  Ge  Ge31  1  0.084683  0.500000  0.000000  1
  Ge  Ge32  1  0.500000  1.000000  0.084683  1
  Ge  Ge33  1  1.000000  0.084683  0.500000  1
  Ge  Ge34  1  0.500000  0.000000  0.584683  1
  Ge  Ge35  1  0.000000  0.584683  0.500000  1
  Ge  Ge36  1  0.584683  0.500000  1.000000  1
  Ge  Ge37  1  0.415317  0.415317  0.415317  1
