# generated using pymatgen
data_La3Si6N11
_symmetry_space_group_name_H-M   'P 1'
_cell_length_a   10.24418698
_cell_length_b   10.24418698
_cell_length_c   4.88560655
_cell_angle_alpha   90.00000000
_cell_angle_beta   90.00000000
_cell_angle_gamma   90.00000000
_symmetry_Int_Tables_number   1
_chemical_formula_structural   La3Si6N11
_chemical_formula_sum   'La6 Si12 N22'
_cell_volume   512.71200061
_cell_formula_units_Z   2
loop_
 _symmetry_equiv_pos_site_id
 _symmetry_equiv_pos_as_xyz
  1  'x, y, z'
loop_
 _atom_site_type_symbol
 _atom_site_label
 _atom_site_symmetry_multiplicity
 _atom_site_fract_x
 _atom_site_fract_y
 _atom_site_fract_z
 _atom_site_occupancy
  La  La0  1  0.818772  0.318772  0.008783  1
  La  La1  1  0.181228  0.681228  0.008783  1
  La  La2  1  0.318772  0.181228  0.008783  1
  La  La3  1  0.681228  0.818772  0.008783  1
  La  La4  1  0.500000  0.500000  0.997572  1
  La  La5  1  0.000000  0.000000  0.997572  1
  Si  Si6  1  0.290960  0.421252  0.534249  1
  Si  Si7  1  0.709040  0.578748  0.534249  1
  Si  Si8  1  0.790960  0.078748  0.534249  1
  Si  Si9  1  0.209040  0.921252  0.534249  1
  Si  Si10  1  0.578748  0.290960  0.534249  1
  Si  Si11  1  0.421252  0.709040  0.534249  1
  Si  Si12  1  0.921252  0.790960  0.534249  1
  Si  Si13  1  0.078748  0.209040  0.534249  1
  Si  Si14  1  0.383181  0.883181  0.044821  1
  Si  Si15  1  0.616819  0.116819  0.044821  1
  Si  Si16  1  0.883181  0.616819  0.044821  1
  Si  Si17  1  0.116819  0.383181  0.044821  1
  N  N18  1  0.420434  0.321562  0.642635  1
  N  N19  1  0.579566  0.678438  0.642635  1
  N  N20  1  0.920434  0.178438  0.642635  1
  N  N21  1  0.079566  0.821562  0.642635  1
  N  N22  1  0.678438  0.420434  0.642635  1
  N  N23  1  0.321562  0.579566  0.642635  1
  N  N24  1  0.821562  0.920434  0.642635  1
  N  N25  1  0.178438  0.079566  0.642635  1
  N  N26  1  0.267956  0.425203  0.181201  1
  N  N27  1  0.732044  0.574797  0.181201  1
  N  N28  1  0.767956  0.074797  0.181201  1
  N  N29  1  0.232044  0.925203  0.181201  1
  N  N30  1  0.574797  0.267956  0.181201  1
  N  N31  1  0.425203  0.732044  0.181201  1
  N  N32  1  0.925203  0.767956  0.181201  1
  N  N33  1  0.074797  0.232044  0.181201  1
  N  N34  1  0.345812  0.845812  0.698849  1
  N  N35  1  0.654188  0.154188  0.698849  1
  N  N36  1  0.845812  0.654188  0.698849  1
  N  N37  1  0.154188  0.345812  0.698849  1
  N  N38  1  0.000000  0.500000  0.069103  1
  N  N39  1  0.500000  0.000000  0.069103  1
