# generated using pymatgen
data_Ba5As3
_symmetry_space_group_name_H-M   'P 1'
_cell_length_a   9.56572714
_cell_length_b   9.56572714
_cell_length_c   7.80490680
_cell_angle_alpha   90.00000000
_cell_angle_beta   90.00000000
_cell_angle_gamma   120.00000000
_symmetry_Int_Tables_number   1
_chemical_formula_structural   Ba5As3
_chemical_formula_sum   'Ba10 As6'
_cell_volume   618.49234660
_cell_formula_units_Z   2
loop_
 _symmetry_equiv_pos_site_id
 _symmetry_equiv_pos_as_xyz
  1  'x, y, z'
loop_
 _atom_site_type_symbol
 _atom_site_label
 _atom_site_symmetry_multiplicity
 _atom_site_fract_x
 _atom_site_fract_y
 _atom_site_fract_z
 _atom_site_occupancy
  Ba  Ba0  1  0.000000  0.257094  0.750000  1
  Ba  Ba1  1  0.000000  0.742906  0.250000  1
  Ba  Ba2  1  0.257094  0.257094  0.250000  1
  Ba  Ba3  1  0.257094  0.000000  0.750000  1
  Ba  Ba4  1  0.742906  0.742906  0.750000  1
  Ba  Ba5  1  0.742906  0.000000  0.250000  1
  Ba  Ba6  1  0.333333  0.666667  0.500000  1
  Ba  Ba7  1  0.666667  0.333333  0.000000  1
  Ba  Ba8  1  0.666667  0.333333  0.500000  1
  Ba  Ba9  1  0.333333  0.666667  0.000000  1
  As  As10  1  0.606990  0.000000  0.750000  1
  As  As11  1  0.606990  0.606990  0.250000  1
  As  As12  1  0.000000  0.393010  0.250000  1
  As  As13  1  0.000000  0.606990  0.750000  1
  As  As14  1  0.393010  0.393010  0.750000  1
  As  As15  1  0.393010  0.000000  0.250000  1
