# generated using pymatgen
data_LiV2O5
_symmetry_space_group_name_H-M   'P 1'
_cell_length_a   3.64214249
_cell_length_b   9.89107996
_cell_length_c   11.11862713
_cell_angle_alpha   90.00000000
_cell_angle_beta   90.00000000
_cell_angle_gamma   90.00000000
_symmetry_Int_Tables_number   1
_chemical_formula_structural   LiV2O5
_chemical_formula_sum   'Li4 V8 O20'
_cell_volume   400.54545799
_cell_formula_units_Z   4
loop_
 _symmetry_equiv_pos_site_id
 _symmetry_equiv_pos_as_xyz
  1  'x, y, z'
loop_
 _atom_site_type_symbol
 _atom_site_label
 _atom_site_symmetry_multiplicity
 _atom_site_fract_x
 _atom_site_fract_y
 _atom_site_fract_z
 _atom_site_occupancy
  Li  Li0  1  0.750000  0.322979  0.278349  1
  Li  Li1  1  0.250000  0.677021  0.721651  1
  Li  Li2  1  0.250000  0.177021  0.778349  1
  Li  Li3  1  0.750000  0.822979  0.221651  1
  V  V4  1  0.750000  0.123178  0.004122  1
  V  V5  1  0.250000  0.876822  0.995878  1
  V  V6  1  0.250000  0.376822  0.504122  1
  V  V7  1  0.750000  0.623178  0.495878  1
  V  V8  1  0.750000  0.432733  0.903182  1
  V  V9  1  0.250000  0.567267  0.096818  1
  V  V10  1  0.250000  0.067267  0.403182  1
  V  V11  1  0.750000  0.932733  0.596818  1
  O  O12  1  0.750000  0.259164  0.869156  1
  O  O13  1  0.250000  0.740836  0.130844  1
  O  O14  1  0.250000  0.240836  0.369156  1
  O  O15  1  0.750000  0.759164  0.630844  1
  O  O16  1  0.750000  0.018937  0.722544  1
  O  O17  1  0.250000  0.981063  0.277456  1
  O  O18  1  0.250000  0.481063  0.222544  1
  O  O19  1  0.750000  0.518937  0.777456  1
  O  O20  1  0.750000  0.219020  0.126539  1
  O  O21  1  0.250000  0.780980  0.873461  1
  O  O22  1  0.250000  0.280980  0.626539  1
  O  O23  1  0.750000  0.719020  0.373461  1
  O  O24  1  0.750000  0.927885  0.049272  1
  O  O25  1  0.250000  0.072115  0.950728  1
  O  O26  1  0.250000  0.572115  0.549272  1
  O  O27  1  0.750000  0.427885  0.450728  1
  O  O28  1  0.750000  0.059117  0.455999  1
  O  O29  1  0.250000  0.940883  0.544001  1
  O  O30  1  0.250000  0.440883  0.955999  1
  O  O31  1  0.750000  0.559117  0.044001  1
