# generated using pymatgen
data_Sc2Te3
_symmetry_space_group_name_H-M   'P 1'
_cell_length_a   13.73700814
_cell_length_b   13.09619309
_cell_length_c   7.19923751
_cell_angle_alpha   79.41635954
_cell_angle_beta   69.57546222
_cell_angle_gamma   31.00817824
_symmetry_Int_Tables_number   1
_chemical_formula_structural   Sc2Te3
_chemical_formula_sum   'Sc8 Te12'
_cell_volume   607.13321756
_cell_formula_units_Z   4
loop_
 _symmetry_equiv_pos_site_id
 _symmetry_equiv_pos_as_xyz
  1  'x, y, z'
loop_
 _atom_site_type_symbol
 _atom_site_label
 _atom_site_symmetry_multiplicity
 _atom_site_fract_x
 _atom_site_fract_y
 _atom_site_fract_z
 _atom_site_occupancy
  Sc  Sc0  1  0.832049  0.832049  0.667951  1
  Sc  Sc1  1  0.667951  0.667951  0.832049  1
  Sc  Sc2  1  0.417951  0.417951  0.582049  1
  Sc  Sc3  1  0.582049  0.582049  0.417951  1
  Sc  Sc4  1  0.500427  0.500427  0.999573  1
  Sc  Sc5  1  0.999573  0.999573  0.500427  1
  Sc  Sc6  1  0.749573  0.749573  0.250427  1
  Sc  Sc7  1  0.250427  0.250427  0.749573  1
  Te  Te8  1  0.497582  0.002418  0.002418  1
  Te  Te9  1  0.002418  0.497582  0.497582  1
  Te  Te10  1  0.752418  0.247582  0.247582  1
  Te  Te11  1  0.247582  0.752418  0.752418  1
  Te  Te12  1  0.166646  0.667366  0.334244  1
  Te  Te13  1  0.831743  0.334244  0.667366  1
  Te  Te14  1  0.334244  0.831743  0.166646  1
  Te  Te15  1  0.667366  0.166646  0.831743  1
  Te  Te16  1  0.083354  0.582634  0.915756  1
  Te  Te17  1  0.418257  0.915756  0.582634  1
  Te  Te18  1  0.915756  0.418257  0.083354  1
  Te  Te19  1  0.582634  0.083354  0.418257  1
