# generated using pymatgen
data_BaPr2FeS5
_symmetry_space_group_name_H-M   'P 1'
_cell_length_a   8.79457199
_cell_length_b   8.79457199
_cell_length_c   8.79457199
_cell_angle_alpha   126.28915223
_cell_angle_beta   126.28915223
_cell_angle_gamma   79.41341736
_symmetry_Int_Tables_number   1
_chemical_formula_structural   BaPr2FeS5
_chemical_formula_sum   'Ba2 Pr4 Fe2 S10'
_cell_volume   427.16176166
_cell_formula_units_Z   2
loop_
 _symmetry_equiv_pos_site_id
 _symmetry_equiv_pos_as_xyz
  1  'x, y, z'
loop_
 _atom_site_type_symbol
 _atom_site_label
 _atom_site_symmetry_multiplicity
 _atom_site_fract_x
 _atom_site_fract_y
 _atom_site_fract_z
 _atom_site_occupancy
  Ba  Ba0  1  0.750000  0.750000  0.000000  1
  Ba  Ba1  1  0.250000  0.250000  0.000000  1
  Pr  Pr2  1  0.838077  0.661923  0.500000  1
  Pr  Pr3  1  0.661923  0.161923  0.823846  1
  Pr  Pr4  1  0.338077  0.838077  0.176154  1
  Pr  Pr5  1  0.161923  0.338077  0.500000  1
  Fe  Fe6  1  0.250000  0.750000  0.500000  1
  Fe  Fe7  1  0.750000  0.250000  0.500000  1
  S  S8  1  0.988536  0.488536  0.204580  1
  S  S9  1  0.716044  0.216044  0.204580  1
  S  S10  1  0.011464  0.511464  0.795420  1
  S  S11  1  0.511464  0.716044  0.500000  1
  S  S12  1  0.216044  0.011464  0.500000  1
  S  S13  1  0.488536  0.283956  0.500000  1
  S  S14  1  0.783956  0.988536  0.500000  1
  S  S15  1  0.283956  0.783956  0.795420  1
  S  S16  1  1.000000  1.000000  0.000000  1
  S  S17  1  0.500000  0.500000  0.000000  1
