# generated using pymatgen
data_U(RhO3)2
_symmetry_space_group_name_H-M   'P 1'
_cell_length_a   4.82391983
_cell_length_b   4.82391983
_cell_length_c   9.44015235
_cell_angle_alpha   90.00000000
_cell_angle_beta   90.00000000
_cell_angle_gamma   90.00000000
_symmetry_Int_Tables_number   1
_chemical_formula_structural   U(RhO3)2
_chemical_formula_sum   'U2 Rh4 O12'
_cell_volume   219.67425706
_cell_formula_units_Z   2
loop_
 _symmetry_equiv_pos_site_id
 _symmetry_equiv_pos_as_xyz
  1  'x, y, z'
loop_
 _atom_site_type_symbol
 _atom_site_label
 _atom_site_symmetry_multiplicity
 _atom_site_fract_x
 _atom_site_fract_y
 _atom_site_fract_z
 _atom_site_occupancy
  U  U0  1  0.000000  0.000000  0.000000  1
  U  U1  1  0.500000  0.500000  0.500000  1
  Rh  Rh2  1  0.000000  0.000000  0.330024  1
  Rh  Rh3  1  0.500000  0.500000  0.830024  1
  Rh  Rh4  1  0.000000  0.000000  0.669976  1
  Rh  Rh5  1  0.500000  0.500000  0.169976  1
  O  O6  1  0.701337  0.701337  0.666752  1
  O  O7  1  0.298663  0.298663  0.666752  1
  O  O8  1  0.701337  0.701337  0.333248  1
  O  O9  1  0.201337  0.798663  0.166752  1
  O  O10  1  0.798663  0.201337  0.166752  1
  O  O11  1  0.798663  0.201337  0.833248  1
  O  O12  1  0.311897  0.311897  0.000000  1
  O  O13  1  0.188103  0.811897  0.500000  1
  O  O14  1  0.811897  0.188103  0.500000  1
  O  O15  1  0.688103  0.688103  0.000000  1
  O  O16  1  0.298663  0.298663  0.333248  1
  O  O17  1  0.201337  0.798663  0.833248  1
