# generated using pymatgen
data_LuTaO4
_symmetry_space_group_name_H-M   'P 1'
_cell_length_a   6.45795776
_cell_length_b   6.45795776
_cell_length_c   5.05357386
_cell_angle_alpha   69.29882696
_cell_angle_beta   110.70117304
_cell_angle_gamma   65.08066782
_symmetry_Int_Tables_number   1
_chemical_formula_structural   LuTaO4
_chemical_formula_sum   'Lu2 Ta2 O8'
_cell_volume   144.06748859
_cell_formula_units_Z   2
loop_
 _symmetry_equiv_pos_site_id
 _symmetry_equiv_pos_as_xyz
  1  'x, y, z'
loop_
 _atom_site_type_symbol
 _atom_site_label
 _atom_site_symmetry_multiplicity
 _atom_site_fract_x
 _atom_site_fract_y
 _atom_site_fract_z
 _atom_site_occupancy
  Lu  Lu0  1  0.631522  0.631522  0.250000  1
  Lu  Lu1  1  0.368478  0.368478  0.750000  1
  Ta  Ta2  1  0.103133  0.103133  0.250000  1
  Ta  Ta3  1  0.896867  0.896867  0.750000  1
  O  O4  1  0.279774  0.783470  0.720092  1
  O  O5  1  0.783470  0.279774  0.779908  1
  O  O6  1  0.720226  0.216530  0.279908  1
  O  O7  1  0.216530  0.720226  0.220092  1
  O  O8  1  0.049234  0.373318  0.340244  1
  O  O9  1  0.373318  0.049234  0.159756  1
  O  O10  1  0.950766  0.626682  0.659756  1
  O  O11  1  0.626682  0.950766  0.840244  1
