# generated using pymatgen
data_Al6Re
_symmetry_space_group_name_H-M   'P 1'
_cell_length_a   5.05882290
_cell_length_b   5.05882290
_cell_length_c   9.03369347
_cell_angle_alpha   90.00000000
_cell_angle_beta   90.00000000
_cell_angle_gamma   98.11954152
_symmetry_Int_Tables_number   1
_chemical_formula_structural   Al6Re
_chemical_formula_sum   'Al12 Re2'
_cell_volume   228.86994627
_cell_formula_units_Z   2
loop_
 _symmetry_equiv_pos_site_id
 _symmetry_equiv_pos_as_xyz
  1  'x, y, z'
loop_
 _atom_site_type_symbol
 _atom_site_label
 _atom_site_symmetry_multiplicity
 _atom_site_fract_x
 _atom_site_fract_y
 _atom_site_fract_z
 _atom_site_occupancy
  Al  Al0  1  0.674805  0.325195  0.500000  1
  Al  Al1  1  0.674805  0.325195  0.000000  1
  Al  Al2  1  0.325195  0.674805  0.500000  1
  Al  Al3  1  0.325195  0.674805  0.000000  1
  Al  Al4  1  0.870997  0.870997  0.898771  1
  Al  Al5  1  0.129003  0.129003  0.101229  1
  Al  Al6  1  0.870997  0.870997  0.601229  1
  Al  Al7  1  0.129003  0.129003  0.398770  1
  Al  Al8  1  0.609875  0.968945  0.250000  1
  Al  Al9  1  0.031055  0.390125  0.750000  1
  Al  Al10  1  0.390125  0.031055  0.750000  1
  Al  Al11  1  0.968945  0.609875  0.250000  1
  Re  Re12  1  0.546158  0.546158  0.750000  1
  Re  Re13  1  0.453842  0.453842  0.250000  1
