# generated using pymatgen
data_BaBOF3
_symmetry_space_group_name_H-M   'P 1'
_cell_length_a   5.18189810
_cell_length_b   6.95176255
_cell_length_c   9.35712052
_cell_angle_alpha   90.00000000
_cell_angle_beta   90.00000000
_cell_angle_gamma   90.00000000
_symmetry_Int_Tables_number   1
_chemical_formula_structural   BaBOF3
_chemical_formula_sum   'Ba4 B4 O4 F12'
_cell_volume   337.07459495
_cell_formula_units_Z   4
loop_
 _symmetry_equiv_pos_site_id
 _symmetry_equiv_pos_as_xyz
  1  'x, y, z'
loop_
 _atom_site_type_symbol
 _atom_site_label
 _atom_site_symmetry_multiplicity
 _atom_site_fract_x
 _atom_site_fract_y
 _atom_site_fract_z
 _atom_site_occupancy
  Ba  Ba0  1  0.250000  0.324171  0.691854  1
  Ba  Ba1  1  0.750000  0.675829  0.308146  1
  Ba  Ba2  1  0.750000  0.824171  0.808146  1
  Ba  Ba3  1  0.250000  0.175829  0.191854  1
  B  B4  1  0.250000  0.824493  0.578659  1
  B  B5  1  0.750000  0.175507  0.421341  1
  B  B6  1  0.750000  0.324493  0.921341  1
  B  B7  1  0.250000  0.675507  0.078659  1
  O  O8  1  0.750000  0.436872  0.803689  1
  O  O9  1  0.750000  0.063128  0.303689  1
  O  O10  1  0.250000  0.936872  0.696311  1
  O  O11  1  0.250000  0.563128  0.196311  1
  F  F12  1  0.250000  0.589384  0.936880  1
  F  F13  1  0.750000  0.410616  0.063120  1
  F  F14  1  0.750000  0.089384  0.563120  1
  F  F15  1  0.250000  0.910616  0.436880  1
  F  F16  1  0.526463  0.315176  0.428503  1
  F  F17  1  0.973537  0.184824  0.928503  1
  F  F18  1  0.473537  0.815176  0.071497  1
  F  F19  1  0.026463  0.684824  0.571497  1
  F  F20  1  0.026463  0.815176  0.071497  1
  F  F21  1  0.526463  0.184824  0.928503  1
  F  F22  1  0.973537  0.315176  0.428503  1
  F  F23  1  0.473537  0.684824  0.571497  1
