# generated using pymatgen
data_CaSn2Pd
_symmetry_space_group_name_H-M   'P 1'
_cell_length_a   6.06306367
_cell_length_b   6.06306367
_cell_length_c   7.58214701
_cell_angle_alpha   90.00000000
_cell_angle_beta   90.00000000
_cell_angle_gamma   136.84243127
_symmetry_Int_Tables_number   1
_chemical_formula_structural   CaSn2Pd
_chemical_formula_sum   'Ca2 Sn4 Pd2'
_cell_volume   190.65010478
_cell_formula_units_Z   2
loop_
 _symmetry_equiv_pos_site_id
 _symmetry_equiv_pos_as_xyz
  1  'x, y, z'
loop_
 _atom_site_type_symbol
 _atom_site_label
 _atom_site_symmetry_multiplicity
 _atom_site_fract_x
 _atom_site_fract_y
 _atom_site_fract_z
 _atom_site_occupancy
  Ca  Ca0  1  0.930560  0.069440  0.750000  1
  Ca  Ca1  1  0.069440  0.930560  0.250000  1
  Sn  Sn2  1  0.641662  0.358338  0.955263  1
  Sn  Sn3  1  0.358338  0.641662  0.044737  1
  Sn  Sn4  1  0.358338  0.641662  0.455263  1
  Sn  Sn5  1  0.641662  0.358338  0.544737  1
  Pd  Pd6  1  0.204499  0.795501  0.750000  1
  Pd  Pd7  1  0.795501  0.204499  0.250000  1
