# generated using pymatgen
data_NaSn
_symmetry_space_group_name_H-M   'P 1'
_cell_length_a   11.50637342
_cell_length_b   11.50637342
_cell_length_c   11.50637342
_cell_angle_alpha   125.79275482
_cell_angle_beta   125.79275482
_cell_angle_gamma   80.22902899
_symmetry_Int_Tables_number   1
_chemical_formula_structural   NaSn
_chemical_formula_sum   'Na16 Sn16'
_cell_volume   967.31791243
_cell_formula_units_Z   16
loop_
 _symmetry_equiv_pos_site_id
 _symmetry_equiv_pos_as_xyz
  1  'x, y, z'
loop_
 _atom_site_type_symbol
 _atom_site_label
 _atom_site_symmetry_multiplicity
 _atom_site_fract_x
 _atom_site_fract_y
 _atom_site_fract_z
 _atom_site_occupancy
  Na  Na0  1  0.125000  0.252810  0.627810  1
  Na  Na1  1  0.002810  0.875000  0.627810  1
  Na  Na2  1  0.247190  0.375000  0.372190  1
  Na  Na3  1  0.625000  0.497190  0.372190  1
  Na  Na4  1  0.625000  0.997190  0.872190  1
  Na  Na5  1  0.747190  0.375000  0.872190  1
  Na  Na6  1  0.502810  0.875000  0.127810  1
  Na  Na7  1  0.125000  0.752810  0.127810  1
  Na  Na8  1  0.622571  0.622571  0.745142  1
  Na  Na9  1  0.372571  0.127429  0.500000  1
  Na  Na10  1  0.627429  0.872571  0.500000  1
  Na  Na11  1  0.877429  0.877429  0.254858  1
  Na  Na12  1  0.127429  0.627429  0.754858  1
  Na  Na13  1  0.377429  0.122571  1.000000  1
  Na  Na14  1  0.122571  0.377429  0.000000  1
  Na  Na15  1  0.872571  0.372571  0.245142  1
  Sn  Sn16  1  0.934263  0.130040  0.941334  1
  Sn  Sn17  1  0.880040  0.438706  0.695778  1
  Sn  Sn18  1  0.742928  0.184263  0.304222  1
  Sn  Sn19  1  0.315737  0.757072  0.695778  1
  Sn  Sn20  1  0.061294  0.619960  0.304222  1
  Sn  Sn21  1  0.507072  0.311294  0.941334  1
  Sn  Sn22  1  0.369960  0.565737  0.058666  1
  Sn  Sn23  1  0.188706  0.992928  0.058666  1
  Sn  Sn24  1  0.815737  0.119960  0.558666  1
  Sn  Sn25  1  0.869960  0.811294  0.804222  1
  Sn  Sn26  1  0.007072  0.065737  0.195778  1
  Sn  Sn27  1  0.434263  0.492928  0.804222  1
  Sn  Sn28  1  0.688706  0.630040  0.195778  1
  Sn  Sn29  1  0.242928  0.938706  0.558666  1
  Sn  Sn30  1  0.380040  0.684263  0.441334  1
  Sn  Sn31  1  0.561294  0.257072  0.441334  1
