# generated using pymatgen
data_DyMg2Cu9
_symmetry_space_group_name_H-M   'P 1'
_cell_length_a   5.04186014
_cell_length_b   5.04186014
_cell_length_c   15.87283145
_cell_angle_alpha   90.00000000
_cell_angle_beta   90.00000000
_cell_angle_gamma   120.00000000
_symmetry_Int_Tables_number   1
_chemical_formula_structural   DyMg2Cu9
_chemical_formula_sum   'Dy2 Mg4 Cu18'
_cell_volume   349.43517949
_cell_formula_units_Z   2
loop_
 _symmetry_equiv_pos_site_id
 _symmetry_equiv_pos_as_xyz
  1  'x, y, z'
loop_
 _atom_site_type_symbol
 _atom_site_label
 _atom_site_symmetry_multiplicity
 _atom_site_fract_x
 _atom_site_fract_y
 _atom_site_fract_z
 _atom_site_occupancy
  Dy  Dy0  1  0.666667  0.333333  0.250000  1
  Dy  Dy1  1  0.333333  0.666667  0.750000  1
  Mg  Mg2  1  0.333333  0.666667  0.531364  1
  Mg  Mg3  1  0.666667  0.333333  0.468636  1
  Mg  Mg4  1  0.666667  0.333333  0.031364  1
  Mg  Mg5  1  0.333333  0.666667  0.968636  1
  Cu  Cu6  1  0.336935  0.168467  0.623136  1
  Cu  Cu7  1  0.168467  0.336935  0.123136  1
  Cu  Cu8  1  0.831533  0.663065  0.876864  1
  Cu  Cu9  1  0.000000  0.000000  0.250000  1
  Cu  Cu10  1  0.168467  0.336935  0.376864  1
  Cu  Cu11  1  0.663065  0.831533  0.376864  1
  Cu  Cu12  1  0.831533  0.168467  0.876864  1
  Cu  Cu13  1  0.831533  0.168467  0.623136  1
  Cu  Cu14  1  0.000000  0.000000  0.500000  1
  Cu  Cu15  1  0.168467  0.831533  0.123136  1
  Cu  Cu16  1  0.333333  0.666667  0.250000  1
  Cu  Cu17  1  0.831533  0.663065  0.623136  1
  Cu  Cu18  1  0.000000  0.000000  0.000000  1
  Cu  Cu19  1  0.168467  0.831533  0.376864  1
  Cu  Cu20  1  0.666667  0.333333  0.750000  1
  Cu  Cu21  1  0.663065  0.831533  0.123136  1
  Cu  Cu22  1  0.336935  0.168467  0.876864  1
  Cu  Cu23  1  0.000000  0.000000  0.750000  1
