# generated using pymatgen
data_Hf3(NiGe)4
_symmetry_space_group_name_H-M   'P 1'
_cell_length_a   7.49174415
_cell_length_b   7.49174415
_cell_length_c   7.49174415
_cell_angle_alpha   149.68595480
_cell_angle_beta   128.38580021
_cell_angle_gamma   61.03826591
_symmetry_Int_Tables_number   1
_chemical_formula_structural   Hf3(NiGe)4
_chemical_formula_sum   'Hf3 Ni4 Ge4'
_cell_volume   164.92592753
_cell_formula_units_Z   1
loop_
 _symmetry_equiv_pos_site_id
 _symmetry_equiv_pos_as_xyz
  1  'x, y, z'
loop_
 _atom_site_type_symbol
 _atom_site_label
 _atom_site_symmetry_multiplicity
 _atom_site_fract_x
 _atom_site_fract_y
 _atom_site_fract_z
 _atom_site_occupancy
  Hf  Hf0  1  0.127332  0.627332  0.500000  1
  Hf  Hf1  1  0.872668  0.372668  0.500000  1
  Hf  Hf2  1  0.500000  0.500000  0.000000  1
  Ni  Ni3  1  0.122730  0.822848  0.299882  1
  Ni  Ni4  1  0.877270  0.177152  0.700118  1
  Ni  Ni5  1  0.522966  0.822848  0.700118  1
  Ni  Ni6  1  0.477034  0.177152  0.299882  1
  Ge  Ge7  1  0.713352  0.713352  0.000000  1
  Ge  Ge8  1  0.200317  0.000000  0.200317  1
  Ge  Ge9  1  0.799683  0.000000  0.799683  1
  Ge  Ge10  1  0.286648  0.286648  0.000000  1
