# generated using pymatgen
data_Li6ZnO4
_symmetry_space_group_name_H-M   'P 1'
_cell_length_a   6.59795386
_cell_length_b   6.59795386
_cell_length_c   4.70487343
_cell_angle_alpha   90.00000000
_cell_angle_beta   90.00000000
_cell_angle_gamma   90.00000000
_symmetry_Int_Tables_number   1
_chemical_formula_structural   Li6ZnO4
_chemical_formula_sum   'Li12 Zn2 O8'
_cell_volume   204.81723216
_cell_formula_units_Z   2
loop_
 _symmetry_equiv_pos_site_id
 _symmetry_equiv_pos_as_xyz
  1  'x, y, z'
loop_
 _atom_site_type_symbol
 _atom_site_label
 _atom_site_symmetry_multiplicity
 _atom_site_fract_x
 _atom_site_fract_y
 _atom_site_fract_z
 _atom_site_occupancy
  Li  Li0  1  0.000000  0.500000  0.454932  1
  Li  Li1  1  0.500000  0.000000  0.045068  1
  Li  Li2  1  0.281929  0.718071  0.500000  1
  Li  Li3  1  0.218071  0.218071  0.000000  1
  Li  Li4  1  0.781929  0.781929  0.000000  1
  Li  Li5  1  0.718071  0.281929  0.500000  1
  Li  Li6  1  0.218071  0.781929  0.000000  1
  Li  Li7  1  0.281929  0.281929  0.500000  1
  Li  Li8  1  0.718071  0.718071  0.500000  1
  Li  Li9  1  0.500000  0.000000  0.545068  1
  Li  Li10  1  0.000000  0.500000  0.954932  1
  Li  Li11  1  0.781929  0.218071  0.000000  1
  Zn  Zn12  1  0.500000  0.500000  0.000000  1
  Zn  Zn13  1  0.000000  0.000000  0.500000  1
  O  O14  1  0.736508  0.000000  0.283914  1
  O  O15  1  0.500000  0.236508  0.783914  1
  O  O16  1  0.236508  0.500000  0.216086  1
  O  O17  1  0.000000  0.263492  0.716086  1
  O  O18  1  0.000000  0.736508  0.716086  1
  O  O19  1  0.500000  0.763492  0.783914  1
  O  O20  1  0.263492  0.000000  0.283914  1
  O  O21  1  0.763492  0.500000  0.216086  1
