# generated using pymatgen
data_Ce2SnSe4
_symmetry_space_group_name_H-M   'P 1'
_cell_length_a   4.29976471
_cell_length_b   12.27404978
_cell_length_c   15.31692071
_cell_angle_alpha   90.00000000
_cell_angle_beta   90.00000000
_cell_angle_gamma   90.00000000
_symmetry_Int_Tables_number   1
_chemical_formula_structural   Ce2SnSe4
_chemical_formula_sum   'Ce8 Sn4 Se16'
_cell_volume   808.35854859
_cell_formula_units_Z   4
loop_
 _symmetry_equiv_pos_site_id
 _symmetry_equiv_pos_as_xyz
  1  'x, y, z'
loop_
 _atom_site_type_symbol
 _atom_site_label
 _atom_site_symmetry_multiplicity
 _atom_site_fract_x
 _atom_site_fract_y
 _atom_site_fract_z
 _atom_site_occupancy
  Ce  Ce0  1  0.250000  0.896142  0.096037  1
  Ce  Ce1  1  0.750000  0.603858  0.596037  1
  Ce  Ce2  1  0.250000  0.437874  0.897108  1
  Ce  Ce3  1  0.750000  0.062126  0.397108  1
  Ce  Ce4  1  0.250000  0.937874  0.602892  1
  Ce  Ce5  1  0.750000  0.562126  0.102892  1
  Ce  Ce6  1  0.750000  0.103858  0.903963  1
  Ce  Ce7  1  0.250000  0.396142  0.403963  1
  Sn  Sn8  1  0.750000  0.236474  0.661872  1
  Sn  Sn9  1  0.250000  0.263526  0.161872  1
  Sn  Sn10  1  0.750000  0.736474  0.838128  1
  Sn  Sn11  1  0.250000  0.763526  0.338128  1
  Se  Se12  1  0.750000  0.557105  0.409623  1
  Se  Se13  1  0.250000  0.942895  0.909623  1
  Se  Se14  1  0.750000  0.057105  0.090377  1
  Se  Se15  1  0.250000  0.442895  0.590377  1
  Se  Se16  1  0.750000  0.017722  0.712021  1
  Se  Se17  1  0.250000  0.482278  0.212021  1
  Se  Se18  1  0.750000  0.517722  0.787979  1
  Se  Se19  1  0.250000  0.982278  0.287979  1
  Se  Se20  1  0.750000  0.841805  0.488460  1
  Se  Se21  1  0.250000  0.658195  0.988460  1
  Se  Se22  1  0.750000  0.341805  0.011540  1
  Se  Se23  1  0.250000  0.158195  0.511540  1
  Se  Se24  1  0.750000  0.766059  0.196208  1
  Se  Se25  1  0.250000  0.733941  0.696208  1
  Se  Se26  1  0.750000  0.266059  0.303792  1
  Se  Se27  1  0.250000  0.233941  0.803792  1
