# generated using pymatgen
data_Ce2(SbPd3)3
_symmetry_space_group_name_H-M   'P 1'
_cell_length_a   8.06233235
_cell_length_b   8.06233235
_cell_length_c   9.41288862
_cell_angle_alpha   90.00000000
_cell_angle_beta   90.00000000
_cell_angle_gamma   119.71044217
_symmetry_Int_Tables_number   1
_chemical_formula_structural   Ce2(SbPd3)3
_chemical_formula_sum   'Ce4 Sb6 Pd18'
_cell_volume   531.41613880
_cell_formula_units_Z   2
loop_
 _symmetry_equiv_pos_site_id
 _symmetry_equiv_pos_as_xyz
  1  'x, y, z'
loop_
 _atom_site_type_symbol
 _atom_site_label
 _atom_site_symmetry_multiplicity
 _atom_site_fract_x
 _atom_site_fract_y
 _atom_site_fract_z
 _atom_site_occupancy
  Ce  Ce0  1  0.327072  0.018761  0.750000  1
  Ce  Ce1  1  0.672928  0.981239  0.250000  1
  Ce  Ce2  1  0.018761  0.327072  0.750000  1
  Ce  Ce3  1  0.981239  0.672928  0.250000  1
  Sb  Sb4  1  0.000000  0.000000  0.500000  1
  Sb  Sb5  1  0.677414  0.322586  0.000000  1
  Sb  Sb6  1  0.322586  0.677414  0.500000  1
  Sb  Sb7  1  0.322586  0.677414  0.000000  1
  Sb  Sb8  1  0.000000  0.000000  0.000000  1
  Sb  Sb9  1  0.677414  0.322586  0.500000  1
  Pd  Pd10  1  0.330508  0.330508  0.962905  1
  Pd  Pd11  1  0.440246  0.636540  0.750000  1
  Pd  Pd12  1  0.559754  0.363460  0.250000  1
  Pd  Pd13  1  0.636540  0.440246  0.750000  1
  Pd  Pd14  1  0.000211  0.344608  0.089662  1
  Pd  Pd15  1  0.999789  0.655392  0.589662  1
  Pd  Pd16  1  0.344608  0.000211  0.410338  1
  Pd  Pd17  1  0.655392  0.999789  0.910338  1
  Pd  Pd18  1  0.999789  0.655392  0.910338  1
  Pd  Pd19  1  0.000211  0.344608  0.410338  1
  Pd  Pd20  1  0.655392  0.999789  0.589662  1
  Pd  Pd21  1  0.852427  0.852427  0.750000  1
  Pd  Pd22  1  0.330508  0.330508  0.537095  1
  Pd  Pd23  1  0.669492  0.669492  0.037095  1
  Pd  Pd24  1  0.344608  0.000211  0.089662  1
  Pd  Pd25  1  0.669492  0.669492  0.462905  1
  Pd  Pd26  1  0.147573  0.147573  0.250000  1
  Pd  Pd27  1  0.363460  0.559754  0.250000  1
