# generated using pymatgen
data_Ho4C7
_symmetry_space_group_name_H-M   'P 1'
_cell_length_a   3.68842083
_cell_length_b   12.53687438
_cell_length_c   13.75672761
_cell_angle_alpha   90.00000000
_cell_angle_beta   98.72233803
_cell_angle_gamma   90.00000000
_symmetry_Int_Tables_number   1
_chemical_formula_structural   Ho4C7
_chemical_formula_sum   'Ho16 C28'
_cell_volume   628.77160822
_cell_formula_units_Z   4
loop_
 _symmetry_equiv_pos_site_id
 _symmetry_equiv_pos_as_xyz
  1  'x, y, z'
loop_
 _atom_site_type_symbol
 _atom_site_label
 _atom_site_symmetry_multiplicity
 _atom_site_fract_x
 _atom_site_fract_y
 _atom_site_fract_z
 _atom_site_occupancy
  Ho  Ho0  1  0.199414  0.015526  0.892608  1
  Ho  Ho1  1  0.800586  0.515526  0.607392  1
  Ho  Ho2  1  0.800586  0.984474  0.107392  1
  Ho  Ho3  1  0.199414  0.484474  0.392608  1
  Ho  Ho4  1  0.376651  0.039744  0.617805  1
  Ho  Ho5  1  0.623349  0.539744  0.882195  1
  Ho  Ho6  1  0.623349  0.960256  0.382195  1
  Ho  Ho7  1  0.376651  0.460256  0.117805  1
  Ho  Ho8  1  0.633068  0.805093  0.789596  1
  Ho  Ho9  1  0.366932  0.305093  0.710404  1
  Ho  Ho10  1  0.366932  0.194907  0.210404  1
  Ho  Ho11  1  0.633068  0.694907  0.289596  1
  Ho  Ho12  1  0.236462  0.762744  0.006592  1
  Ho  Ho13  1  0.763538  0.262744  0.493408  1
  Ho  Ho14  1  0.763538  0.237256  0.993408  1
  Ho  Ho15  1  0.236462  0.737256  0.506592  1
  C  C16  1  0.292749  0.116682  0.050275  1
  C  C17  1  0.707251  0.616682  0.449725  1
  C  C18  1  0.707251  0.883318  0.949725  1
  C  C19  1  0.292749  0.383318  0.550275  1
  C  C20  1  0.334786  0.640735  0.674322  1
  C  C21  1  0.665214  0.140735  0.825678  1
  C  C22  1  0.665214  0.359265  0.325678  1
  C  C23  1  0.334786  0.859265  0.174322  1
  C  C24  1  0.744135  0.889996  0.547590  1
  C  C25  1  0.255865  0.389996  0.952410  1
  C  C26  1  0.255865  0.110004  0.452410  1
  C  C27  1  0.744135  0.610004  0.047590  1
  C  C28  1  0.090659  0.917284  0.729348  1
  C  C29  1  0.909341  0.417284  0.770652  1
  C  C30  1  0.909341  0.082716  0.270652  1
  C  C31  1  0.090659  0.582716  0.229348  1
  C  C32  1  0.124714  0.671550  0.847925  1
  C  C33  1  0.875286  0.171550  0.652075  1
  C  C34  1  0.875286  0.328450  0.152075  1
  C  C35  1  0.124714  0.828450  0.347925  1
  C  C36  1  0.914450  0.896116  0.639565  1
  C  C37  1  0.085550  0.396116  0.860435  1
  C  C38  1  0.085550  0.103884  0.360435  1
  C  C39  1  0.914450  0.603884  0.139565  1
  C  C40  1  0.197216  0.651535  0.756355  1
  C  C41  1  0.802784  0.151535  0.743645  1
  C  C42  1  0.802784  0.348465  0.243645  1
  C  C43  1  0.197216  0.848465  0.256355  1
