# generated using pymatgen
data_Nd2Si2O7
_symmetry_space_group_name_H-M   'P 1'
_cell_length_a   6.82204430
_cell_length_b   6.82204430
_cell_length_c   24.84842611
_cell_angle_alpha   90.00000000
_cell_angle_beta   90.00000000
_cell_angle_gamma   90.00000000
_symmetry_Int_Tables_number   1
_chemical_formula_structural   Nd2Si2O7
_chemical_formula_sum   'Nd16 Si16 O56'
_cell_volume   1156.45291822
_cell_formula_units_Z   8
loop_
 _symmetry_equiv_pos_site_id
 _symmetry_equiv_pos_as_xyz
  1  'x, y, z'
loop_
 _atom_site_type_symbol
 _atom_site_label
 _atom_site_symmetry_multiplicity
 _atom_site_fract_x
 _atom_site_fract_y
 _atom_site_fract_z
 _atom_site_occupancy
  Nd  Nd0  1  0.280451  0.212277  0.151628  1
  Nd  Nd1  1  0.787723  0.280451  0.401628  1
  Nd  Nd2  1  0.212277  0.719549  0.901628  1
  Nd  Nd3  1  0.719549  0.787723  0.651628  1
  Nd  Nd4  1  0.022522  0.334362  0.005347  1
  Nd  Nd5  1  0.665638  0.022522  0.255347  1
  Nd  Nd6  1  0.334362  0.977478  0.755347  1
  Nd  Nd7  1  0.977478  0.665638  0.505347  1
  Nd  Nd8  1  0.844951  0.584994  0.151146  1
  Nd  Nd9  1  0.415006  0.844951  0.401146  1
  Nd  Nd10  1  0.584994  0.155049  0.901146  1
  Nd  Nd11  1  0.155049  0.415006  0.651146  1
  Nd  Nd12  1  0.635172  0.745308  0.013907  1
  Nd  Nd13  1  0.254692  0.635172  0.263907  1
  Nd  Nd14  1  0.745308  0.364828  0.763907  1
  Nd  Nd15  1  0.364828  0.254692  0.513907  1
  Si  Si16  1  0.519335  0.217976  0.032858  1
  Si  Si17  1  0.782024  0.519335  0.282858  1
  Si  Si18  1  0.217976  0.480665  0.782858  1
  Si  Si19  1  0.480665  0.782024  0.532858  1
  Si  Si20  1  0.106008  0.810810  0.039538  1
  Si  Si21  1  0.189190  0.106008  0.289538  1
  Si  Si22  1  0.810810  0.893992  0.789538  1
  Si  Si23  1  0.893992  0.189190  0.539538  1
  Si  Si24  1  0.769435  0.127896  0.133916  1
  Si  Si25  1  0.872104  0.769435  0.383916  1
  Si  Si26  1  0.127896  0.230565  0.883916  1
  Si  Si27  1  0.230565  0.872104  0.633916  1
  Si  Si28  1  0.357635  0.745051  0.138440  1
  Si  Si29  1  0.254949  0.357635  0.388440  1
  Si  Si30  1  0.745051  0.642365  0.888440  1
  Si  Si31  1  0.642365  0.254949  0.638440  1
  O  O32  1  0.266786  0.364301  0.924539  1
  O  O33  1  0.635699  0.266786  0.174539  1
  O  O34  1  0.364301  0.733214  0.674539  1
  O  O35  1  0.733214  0.635699  0.424539  1
  O  O36  1  0.494223  0.051490  0.986562  1
  O  O37  1  0.948510  0.494223  0.236562  1
  O  O38  1  0.051490  0.505777  0.736562  1
  O  O39  1  0.505777  0.948510  0.486562  1
  O  O40  1  0.976087  0.988684  0.015791  1
  O  O41  1  0.011316  0.976087  0.265791  1
  O  O42  1  0.988684  0.023913  0.765791  1
  O  O43  1  0.023913  0.011316  0.515791  1
  O  O44  1  0.622927  0.081466  0.081917  1
  O  O45  1  0.918534  0.622927  0.331917  1
  O  O46  1  0.081466  0.377073  0.831917  1
  O  O47  1  0.377073  0.918534  0.581917  1
  O  O48  1  0.223741  0.881577  0.096050  1
  O  O49  1  0.118423  0.223741  0.346050  1
  O  O50  1  0.881577  0.776259  0.846050  1
  O  O51  1  0.776259  0.118423  0.596050  1
  O  O52  1  0.828867  0.929266  0.165321  1
  O  O53  1  0.315317  0.298325  0.057899  1
  O  O54  1  0.070734  0.828867  0.415321  1
  O  O55  1  0.171133  0.070734  0.665321  1
  O  O56  1  0.946640  0.639646  0.058647  1
  O  O57  1  0.360354  0.946640  0.308647  1
  O  O58  1  0.639646  0.053360  0.808647  1
  O  O59  1  0.053360  0.360354  0.558647  1
  O  O60  1  0.265011  0.045391  0.865054  1
  O  O61  1  0.954609  0.265011  0.115054  1
  O  O62  1  0.045391  0.734989  0.615054  1
  O  O63  1  0.734989  0.954609  0.365054  1
  O  O64  1  0.735487  0.293580  0.499074  1
  O  O65  1  0.706420  0.735487  0.749074  1
  O  O66  1  0.293580  0.264513  0.249074  1
  O  O67  1  0.264513  0.706420  0.999074  1
  O  O68  1  0.434621  0.226015  0.413454  1
  O  O69  1  0.773985  0.434621  0.663454  1
  O  O70  1  0.226015  0.565379  0.163454  1
  O  O71  1  0.565379  0.773985  0.913454  1
  O  O72  1  0.450940  0.336350  0.606628  1
  O  O73  1  0.663650  0.450940  0.856628  1
  O  O74  1  0.336350  0.549060  0.356628  1
  O  O75  1  0.549060  0.663650  0.106628  1
  O  O76  1  0.101563  0.392410  0.438660  1
  O  O77  1  0.607590  0.101563  0.688660  1
  O  O78  1  0.392410  0.898437  0.188660  1
  O  O79  1  0.898437  0.607590  0.938660  1
  O  O80  1  0.334283  0.613655  0.509516  1
  O  O81  1  0.386345  0.334283  0.759516  1
  O  O82  1  0.613655  0.665717  0.259516  1
  O  O83  1  0.665717  0.386345  0.009516  1
  O  O84  1  0.684683  0.701675  0.557899  1
  O  O85  1  0.298325  0.684683  0.807899  1
  O  O86  1  0.701675  0.315317  0.307899  1
  O  O87  1  0.929266  0.171133  0.915321  1
