# generated using pymatgen
data_Lu7(TePd)2
_symmetry_space_group_name_H-M   'P 1'
_cell_length_a   9.23658268
_cell_length_b   9.23658268
_cell_length_c   9.23658268
_cell_angle_alpha   155.65631428
_cell_angle_beta   118.05855304
_cell_angle_gamma   67.57567318
_symmetry_Int_Tables_number   1
_chemical_formula_structural   Lu7(TePd)2
_chemical_formula_sum   'Lu7 Te2 Pd2'
_cell_volume   284.23693474
_cell_formula_units_Z   1
loop_
 _symmetry_equiv_pos_site_id
 _symmetry_equiv_pos_as_xyz
  1  'x, y, z'
loop_
 _atom_site_type_symbol
 _atom_site_label
 _atom_site_symmetry_multiplicity
 _atom_site_fract_x
 _atom_site_fract_y
 _atom_site_fract_z
 _atom_site_occupancy
  Lu  Lu0  1  0.056244  0.683024  0.373219  1
  Lu  Lu1  1  0.690195  0.316976  0.373219  1
  Lu  Lu2  1  0.999678  0.000000  0.999678  1
  Lu  Lu3  1  0.714172  0.131214  0.582958  1
  Lu  Lu4  1  0.451744  0.868786  0.582958  1
  Lu  Lu5  1  0.088464  0.356106  0.732358  1
  Lu  Lu6  1  0.376253  0.643894  0.732358  1
  Te  Te7  1  0.339283  0.000000  0.339283  1
  Te  Te8  1  0.733184  0.500000  0.233184  1
  Pd  Pd9  1  0.305095  0.236403  0.068692  1
  Pd  Pd10  1  0.832288  0.763597  0.068692  1
