# generated using pymatgen
data_BaV2(PO5)2
_symmetry_space_group_name_H-M   'P 1'
_cell_length_a   5.29680187
_cell_length_b   9.35086864
_cell_length_c   16.58598558
_cell_angle_alpha   90.00000000
_cell_angle_beta   92.73075013
_cell_angle_gamma   90.00000000
_symmetry_Int_Tables_number   1
_chemical_formula_structural   BaV2(PO5)2
_chemical_formula_sum   'Ba4 V8 P8 O40'
_cell_volume   820.56601182
_cell_formula_units_Z   4
loop_
 _symmetry_equiv_pos_site_id
 _symmetry_equiv_pos_as_xyz
  1  'x, y, z'
loop_
 _atom_site_type_symbol
 _atom_site_label
 _atom_site_symmetry_multiplicity
 _atom_site_fract_x
 _atom_site_fract_y
 _atom_site_fract_z
 _atom_site_occupancy
  Ba  Ba0  1  0.001105  0.701322  0.319110  1
  Ba  Ba1  1  0.998895  0.201322  0.180890  1
  Ba  Ba2  1  0.998895  0.298678  0.680890  1
  Ba  Ba3  1  0.001105  0.798678  0.819110  1
  V  V4  1  0.538319  0.546592  0.157122  1
  V  V5  1  0.461681  0.046592  0.342878  1
  V  V6  1  0.461681  0.453408  0.842878  1
  V  V7  1  0.538319  0.953408  0.657122  1
  V  V8  1  0.874861  0.313988  0.435019  1
  V  V9  1  0.125139  0.813988  0.064981  1
  V  V10  1  0.125139  0.686012  0.564981  1
  V  V11  1  0.874861  0.186012  0.935019  1
  P  P12  1  0.622409  0.902748  0.171366  1
  P  P13  1  0.377591  0.402748  0.328634  1
  P  P14  1  0.377591  0.097252  0.828634  1
  P  P15  1  0.622409  0.597252  0.671366  1
  P  P16  1  0.614478  0.797708  0.475947  1
  P  P17  1  0.385522  0.297708  0.024053  1
  P  P18  1  0.385522  0.202292  0.524053  1
  P  P19  1  0.614478  0.702292  0.975947  1
  O  O20  1  0.642553  0.603359  0.049000  1
  O  O21  1  0.357447  0.103359  0.451000  1
  O  O22  1  0.357447  0.396641  0.951000  1
  O  O23  1  0.642553  0.896641  0.549000  1
  O  O24  1  0.370788  0.374655  0.107176  1
  O  O25  1  0.629212  0.874655  0.392824  1
  O  O26  1  0.629212  0.625345  0.892824  1
  O  O27  1  0.370788  0.125345  0.607176  1
  O  O28  1  0.344623  0.512145  0.258447  1
  O  O29  1  0.655377  0.012145  0.241553  1
  O  O30  1  0.655377  0.487855  0.741553  1
  O  O31  1  0.344623  0.987855  0.758447  1
  O  O32  1  0.614735  0.748150  0.205068  1
  O  O33  1  0.385265  0.248150  0.294932  1
  O  O34  1  0.623008  0.439325  0.378650  1
  O  O35  1  0.385265  0.251850  0.794932  1
  O  O36  1  0.802157  0.471793  0.195988  1
  O  O37  1  0.197843  0.971793  0.304012  1
  O  O38  1  0.197843  0.528207  0.804012  1
  O  O39  1  0.802157  0.028207  0.695988  1
  O  O40  1  0.822479  0.333489  0.881751  1
  O  O41  1  0.177521  0.833489  0.618249  1
  O  O42  1  0.177521  0.666511  0.118249  1
  O  O43  1  0.822479  0.166511  0.381751  1
  O  O44  1  0.148968  0.196402  0.023339  1
  O  O45  1  0.851032  0.696402  0.476661  1
  O  O46  1  0.851032  0.803598  0.976661  1
  O  O47  1  0.148968  0.303598  0.523339  1
  O  O48  1  0.135290  0.073963  0.876645  1
  O  O49  1  0.864710  0.573963  0.623355  1
  O  O50  1  0.864710  0.926037  0.123355  1
  O  O51  1  0.135290  0.426037  0.376645  1
  O  O52  1  0.641475  0.215461  0.025333  1
  O  O53  1  0.358525  0.715461  0.474667  1
  O  O54  1  0.358525  0.784539  0.974667  1
  O  O55  1  0.641475  0.284539  0.525333  1
  O  O56  1  0.623008  0.060675  0.878650  1
  O  O57  1  0.376992  0.560675  0.621350  1
  O  O58  1  0.376992  0.939325  0.121350  1
  O  O59  1  0.614735  0.751850  0.705068  1
