# generated using pymatgen
data_Na2Mg2(Si2O5)3
_symmetry_space_group_name_H-M   'P 1'
_cell_length_a   11.43694168
_cell_length_b   11.43694168
_cell_length_c   10.32022060
_cell_angle_alpha   90.00000000
_cell_angle_beta   90.00000000
_cell_angle_gamma   101.90639476
_symmetry_Int_Tables_number   1
_chemical_formula_structural   Na2Mg2(Si2O5)3
_chemical_formula_sum   'Na8 Mg8 Si24 O60'
_cell_volume   1320.88009170
_cell_formula_units_Z   4
loop_
 _symmetry_equiv_pos_site_id
 _symmetry_equiv_pos_as_xyz
  1  'x, y, z'
loop_
 _atom_site_type_symbol
 _atom_site_label
 _atom_site_symmetry_multiplicity
 _atom_site_fract_x
 _atom_site_fract_y
 _atom_site_fract_z
 _atom_site_occupancy
  Na  Na0  1  0.519150  0.980850  0.250000  1
  Na  Na1  1  0.980850  0.519150  0.750000  1
  Na  Na2  1  0.480850  0.019150  0.750000  1
  Na  Na3  1  0.019150  0.480850  0.250000  1
  Na  Na4  1  0.091525  0.908475  0.239200  1
  Na  Na5  1  0.408475  0.591525  0.739200  1
  Na  Na6  1  0.908475  0.091525  0.760800  1
  Na  Na7  1  0.591525  0.408475  0.260800  1
  Mg  Mg8  1  0.839299  0.660701  0.250000  1
  Mg  Mg9  1  0.660701  0.839299  0.750000  1
  Mg  Mg10  1  0.160701  0.339299  0.750000  1
  Mg  Mg11  1  0.339299  0.160701  0.250000  1
  Mg  Mg12  1  0.748655  0.748655  0.500000  1
  Mg  Mg13  1  0.751345  0.751345  0.000000  1
  Mg  Mg14  1  0.251345  0.251345  0.500000  1
  Mg  Mg15  1  0.248655  0.248655  0.000000  1
  Si  Si16  1  0.079466  0.695580  0.040275  1
  Si  Si17  1  0.420534  0.804420  0.540275  1
  Si  Si18  1  0.695580  0.079466  0.959725  1
  Si  Si19  1  0.804420  0.420533  0.459725  1
  Si  Si20  1  0.920534  0.304420  0.959725  1
  Si  Si21  1  0.579466  0.195580  0.459725  1
  Si  Si22  1  0.304420  0.920534  0.040275  1
  Si  Si23  1  0.195580  0.579466  0.540275  1
  Si  Si24  1  0.963923  0.814448  0.810404  1
  Si  Si25  1  0.536077  0.685552  0.310404  1
  Si  Si26  1  0.814448  0.963923  0.189596  1
  Si  Si27  1  0.685552  0.536077  0.689596  1
  Si  Si28  1  0.036077  0.185552  0.189596  1
  Si  Si29  1  0.463923  0.314448  0.689596  1
  Si  Si30  1  0.185552  0.036077  0.810404  1
  Si  Si31  1  0.314448  0.463923  0.310404  1
  Si  Si32  1  0.021436  0.757649  0.513668  1
  Si  Si33  1  0.478564  0.742351  0.013668  1
  Si  Si34  1  0.757649  0.021436  0.486332  1
  Si  Si35  1  0.742351  0.478564  0.986332  1
  Si  Si36  1  0.978564  0.242351  0.486332  1
  Si  Si37  1  0.521436  0.257649  0.986332  1
  Si  Si38  1  0.242351  0.978564  0.513668  1
  Si  Si39  1  0.257649  0.521436  0.013668  1
  O  O40  1  0.818403  0.181597  0.940012  1
  O  O41  1  0.681597  0.318403  0.440012  1
  O  O42  1  0.181597  0.818403  0.059988  1
  O  O43  1  0.318403  0.681597  0.559988  1
  O  O44  1  0.947498  0.052502  0.178142  1
  O  O45  1  0.552502  0.447498  0.678142  1
  O  O46  1  0.052502  0.947498  0.821858  1
  O  O47  1  0.447498  0.552502  0.321858  1
  O  O48  1  0.879896  0.120104  0.524378  1
  O  O49  1  0.620104  0.379896  0.024378  1
  O  O50  1  0.120104  0.879896  0.475622  1
  O  O51  1  0.379896  0.620104  0.975622  1
  O  O52  1  0.005333  0.670104  0.171035  1
  O  O53  1  0.494667  0.829896  0.671035  1
  O  O54  1  0.670104  0.005333  0.828965  1
  O  O55  1  0.829896  0.494667  0.328965  1
  O  O56  1  0.994667  0.329896  0.828965  1
  O  O57  1  0.505333  0.170104  0.328965  1
  O  O58  1  0.329896  0.994667  0.171035  1
  O  O59  1  0.170104  0.505333  0.671035  1
  O  O60  1  0.002247  0.715996  0.909511  1
  O  O61  1  0.497753  0.784004  0.409511  1
  O  O62  1  0.715996  0.002247  0.090489  1
  O  O63  1  0.784004  0.497753  0.590489  1
  O  O64  1  0.018012  0.240347  0.333304  1
  O  O65  1  0.997753  0.284004  0.090489  1
  O  O66  1  0.284004  0.997753  0.909511  1
  O  O67  1  0.215996  0.502247  0.409511  1
  O  O68  1  0.830224  0.827971  0.841713  1
  O  O69  1  0.669776  0.672029  0.341713  1
  O  O70  1  0.827971  0.830224  0.158287  1
  O  O71  1  0.672029  0.669776  0.658287  1
  O  O72  1  0.169776  0.172029  0.158287  1
  O  O73  1  0.330224  0.327971  0.658287  1
  O  O74  1  0.172029  0.169776  0.841713  1
  O  O75  1  0.327971  0.330224  0.341713  1
  O  O76  1  0.981988  0.759653  0.666696  1
  O  O77  1  0.518012  0.740347  0.166696  1
  O  O78  1  0.759653  0.981988  0.333304  1
  O  O79  1  0.740347  0.518012  0.833304  1
  O  O80  1  0.142388  0.584247  0.997236  1
  O  O81  1  0.357612  0.915753  0.497236  1
  O  O82  1  0.584247  0.142388  0.002764  1
  O  O83  1  0.915753  0.357612  0.502764  1
  O  O84  1  0.857612  0.415753  0.002764  1
  O  O85  1  0.642388  0.084247  0.502764  1
  O  O86  1  0.415753  0.857612  0.997236  1
  O  O87  1  0.084247  0.642388  0.497236  1
  O  O88  1  0.249656  0.406723  0.922706  1
  O  O89  1  0.250344  0.093277  0.422706  1
  O  O90  1  0.406723  0.249656  0.077294  1
  O  O91  1  0.093277  0.250344  0.577294  1
  O  O92  1  0.750344  0.593277  0.077294  1
  O  O93  1  0.749656  0.906723  0.577294  1
  O  O94  1  0.593277  0.750344  0.922706  1
  O  O95  1  0.906723  0.749656  0.422706  1
  O  O96  1  0.259653  0.481988  0.166696  1
  O  O97  1  0.240347  0.018012  0.666696  1
  O  O98  1  0.481988  0.259653  0.833304  1
  O  O99  1  0.502247  0.215996  0.590489  1
