# generated using pymatgen
data_Mg3(Ni10P3)2
_symmetry_space_group_name_H-M   'P 1'
_cell_length_a   7.84313109
_cell_length_b   7.84313109
_cell_length_c   7.84313109
_cell_angle_alpha   60.00000000
_cell_angle_beta   60.00000000
_cell_angle_gamma   60.00000000
_symmetry_Int_Tables_number   1
_chemical_formula_structural   Mg3(Ni10P3)2
_chemical_formula_sum   'Mg3 Ni20 P6'
_cell_volume   341.15632220
_cell_formula_units_Z   1
loop_
 _symmetry_equiv_pos_site_id
 _symmetry_equiv_pos_as_xyz
  1  'x, y, z'
loop_
 _atom_site_type_symbol
 _atom_site_label
 _atom_site_symmetry_multiplicity
 _atom_site_fract_x
 _atom_site_fract_y
 _atom_site_fract_z
 _atom_site_occupancy
  Mg  Mg0  1  0.000000  0.000000  0.000000  1
  Mg  Mg1  1  0.750000  0.750000  0.750000  1
  Mg  Mg2  1  0.250000  0.250000  0.250000  1
  Ni  Ni3  1  0.152457  0.615848  0.615848  1
  Ni  Ni4  1  0.384153  0.847543  0.384152  1
  Ni  Ni5  1  0.000000  0.349187  0.650813  1
  Ni  Ni6  1  1.000000  0.349187  0.000000  1
  Ni  Ni7  1  0.349187  0.000000  0.650813  1
  Ni  Ni8  1  0.615847  0.615848  0.615847  1
  Ni  Ni9  1  0.349187  1.000000  0.000000  1
  Ni  Ni10  1  0.650813  0.349187  1.000000  1
  Ni  Ni11  1  1.000000  1.000000  0.650813  1
  Ni  Ni12  1  0.650813  0.000000  0.349187  1
  Ni  Ni13  1  0.349187  0.650813  1.000000  1
  Ni  Ni14  1  0.000000  1.000000  0.349187  1
  Ni  Ni15  1  1.000000  0.650813  1.000000  1
  Ni  Ni16  1  0.000000  0.650813  0.349187  1
  Ni  Ni17  1  0.615848  0.615847  0.152457  1
  Ni  Ni18  1  0.847543  0.384153  0.384152  1
  Ni  Ni19  1  0.384152  0.384152  0.847542  1
  Ni  Ni20  1  0.384153  0.384152  0.384152  1
  Ni  Ni21  1  0.615847  0.152457  0.615847  1
  Ni  Ni22  1  0.650813  0.000000  1.000000  1
  P  P23  1  0.264361  0.264361  0.735639  1
  P  P24  1  0.735639  0.735639  0.264361  1
  P  P25  1  0.735639  0.264361  0.735639  1
  P  P26  1  0.264361  0.735639  0.264361  1
  P  P27  1  0.735639  0.264361  0.264361  1
  P  P28  1  0.264361  0.735639  0.735639  1
