# generated using pymatgen
data_Cs4SnO4
_symmetry_space_group_name_H-M   'P 1'
_cell_length_a   11.89173580
_cell_length_b   7.49224235
_cell_length_c   11.91791022
_cell_angle_alpha   90.00000000
_cell_angle_beta   111.13249838
_cell_angle_gamma   90.00000000
_symmetry_Int_Tables_number   1
_chemical_formula_structural   Cs4SnO4
_chemical_formula_sum   'Cs16 Sn4 O16'
_cell_volume   990.42606270
_cell_formula_units_Z   4
loop_
 _symmetry_equiv_pos_site_id
 _symmetry_equiv_pos_as_xyz
  1  'x, y, z'
loop_
 _atom_site_type_symbol
 _atom_site_label
 _atom_site_symmetry_multiplicity
 _atom_site_fract_x
 _atom_site_fract_y
 _atom_site_fract_z
 _atom_site_occupancy
  Cs  Cs0  1  0.891196  0.656271  0.366292  1
  Cs  Cs1  1  0.108804  0.343729  0.633708  1
  Cs  Cs2  1  0.391196  0.843729  0.366292  1
  Cs  Cs3  1  0.305440  0.589548  0.942803  1
  Cs  Cs4  1  0.194560  0.089548  0.057197  1
  Cs  Cs5  1  0.694560  0.410452  0.057197  1
  Cs  Cs6  1  0.805440  0.910452  0.942803  1
  Cs  Cs7  1  0.090453  0.611510  0.156062  1
  Cs  Cs8  1  0.409547  0.111510  0.843938  1
  Cs  Cs9  1  0.909547  0.388490  0.843938  1
  Cs  Cs10  1  0.590453  0.888490  0.156062  1
  Cs  Cs11  1  0.704229  0.675786  0.573384  1
  Cs  Cs12  1  0.795771  0.175786  0.426616  1
  Cs  Cs13  1  0.295771  0.324214  0.426616  1
  Cs  Cs14  1  0.204229  0.824214  0.573384  1
  Cs  Cs15  1  0.608804  0.156271  0.633708  1
  Sn  Sn16  1  0.494140  0.370895  0.242752  1
  Sn  Sn17  1  0.005860  0.870895  0.757248  1
  Sn  Sn18  1  0.994140  0.129105  0.242752  1
  Sn  Sn19  1  0.505860  0.629105  0.757248  1
  O  O20  1  0.971364  0.239996  0.082609  1
  O  O21  1  0.155785  0.010929  0.777510  1
  O  O22  1  0.344215  0.510929  0.222490  1
  O  O23  1  0.844215  0.989071  0.222490  1
  O  O24  1  0.528636  0.739996  0.917391  1
  O  O25  1  0.028636  0.760004  0.917391  1
  O  O26  1  0.471364  0.260004  0.082609  1
  O  O27  1  0.017461  0.322782  0.365555  1
  O  O28  1  0.482539  0.822782  0.634445  1
  O  O29  1  0.982539  0.677218  0.634445  1
  O  O30  1  0.517461  0.177218  0.365555  1
  O  O31  1  0.857016  0.024390  0.702029  1
  O  O32  1  0.642984  0.524390  0.297971  1
  O  O33  1  0.142984  0.975610  0.297971  1
  O  O34  1  0.357016  0.475610  0.702029  1
  O  O35  1  0.655785  0.489071  0.777510  1
