# generated using pymatgen
data_Sc11Os4
_symmetry_space_group_name_H-M   'P 1'
_cell_length_a   9.46286187
_cell_length_b   9.46286187
_cell_length_c   9.46286187
_cell_angle_alpha   60.00000000
_cell_angle_beta   60.00000000
_cell_angle_gamma   60.00000000
_symmetry_Int_Tables_number   1
_chemical_formula_structural   Sc11Os4
_chemical_formula_sum   'Sc22 Os8'
_cell_volume   599.17337133
_cell_formula_units_Z   2
loop_
 _symmetry_equiv_pos_site_id
 _symmetry_equiv_pos_as_xyz
  1  'x, y, z'
loop_
 _atom_site_type_symbol
 _atom_site_label
 _atom_site_symmetry_multiplicity
 _atom_site_fract_x
 _atom_site_fract_y
 _atom_site_fract_z
 _atom_site_occupancy
  Sc  Sc0  1  0.155726  0.532821  0.155726  1
  Sc  Sc1  1  0.844274  0.844274  0.844274  1
  Sc  Sc2  1  0.467179  0.844274  0.844274  1
  Sc  Sc3  1  0.844274  0.844274  0.467179  1
  Sc  Sc4  1  0.532821  0.155726  0.155726  1
  Sc  Sc5  1  0.155726  0.155726  0.532821  1
  Sc  Sc6  1  0.155726  0.155726  0.155726  1
  Sc  Sc7  1  0.844274  0.467179  0.844274  1
  Sc  Sc8  1  0.801170  0.198830  0.198830  1
  Sc  Sc9  1  0.198830  0.801170  0.198830  1
  Sc  Sc10  1  0.801170  0.198830  0.801170  1
  Sc  Sc11  1  0.801170  0.801170  0.198830  1
  Sc  Sc12  1  0.198830  0.198830  0.801170  1
  Sc  Sc13  1  0.198830  0.801170  0.801170  1
  Sc  Sc14  1  0.617202  0.148395  0.617202  1
  Sc  Sc15  1  0.382798  0.382798  0.382798  1
  Sc  Sc16  1  0.382798  0.382798  0.851605  1
  Sc  Sc17  1  0.851605  0.382798  0.382798  1
  Sc  Sc18  1  0.617202  0.617202  0.148395  1
  Sc  Sc19  1  0.148395  0.617202  0.617202  1
  Sc  Sc20  1  0.617202  0.617202  0.617202  1
  Sc  Sc21  1  0.382798  0.851605  0.382798  1
  Os  Os22  1  1.000000  1.000000  0.500000  1
  Os  Os23  1  0.500000  0.500000  0.000000  1
  Os  Os24  1  0.500000  1.000000  0.000000  1
  Os  Os25  1  0.500000  0.000000  0.500000  1
  Os  Os26  1  0.000000  0.500000  1.000000  1
  Os  Os27  1  0.000000  0.500000  0.500000  1
  Os  Os28  1  0.500000  0.500000  0.500000  1
  Os  Os29  1  0.000000  0.000000  0.000000  1
