# generated using pymatgen
data_TmAl7Au3
_symmetry_space_group_name_H-M   'P 1'
_cell_length_a   8.44318642
_cell_length_b   8.44318642
_cell_length_c   8.44318642
_cell_angle_alpha   57.16657427
_cell_angle_beta   57.16657427
_cell_angle_gamma   57.16657427
_symmetry_Int_Tables_number   1
_chemical_formula_structural   TmAl7Au3
_chemical_formula_sum   'Tm2 Al14 Au6'
_cell_volume   397.81995959
_cell_formula_units_Z   2
loop_
 _symmetry_equiv_pos_site_id
 _symmetry_equiv_pos_as_xyz
  1  'x, y, z'
loop_
 _atom_site_type_symbol
 _atom_site_label
 _atom_site_symmetry_multiplicity
 _atom_site_fract_x
 _atom_site_fract_y
 _atom_site_fract_z
 _atom_site_occupancy
  Tm  Tm0  1  0.500000  0.500000  0.500000  1
  Tm  Tm1  1  0.000000  0.000000  0.000000  1
  Al  Al2  1  0.569776  0.166890  0.352771  1
  Al  Al3  1  0.166890  0.352771  0.569776  1
  Al  Al4  1  0.352771  0.569776  0.166890  1
  Al  Al5  1  0.930224  0.147229  0.333110  1
  Al  Al6  1  0.147229  0.333110  0.930224  1
  Al  Al7  1  0.333110  0.930224  0.147229  1
  Al  Al8  1  0.430224  0.833110  0.647229  1
  Al  Al9  1  0.833110  0.647229  0.430224  1
  Al  Al10  1  0.750000  0.750000  0.750000  1
  Al  Al11  1  0.250000  0.250000  0.250000  1
  Al  Al12  1  0.666890  0.069776  0.852771  1
  Al  Al13  1  0.852771  0.666890  0.069776  1
  Al  Al14  1  0.069776  0.852771  0.666890  1
  Al  Al15  1  0.647229  0.430224  0.833110  1
  Au  Au16  1  0.250000  0.574901  0.925099  1
  Au  Au17  1  0.574901  0.925099  0.250000  1
  Au  Au18  1  0.925099  0.250000  0.574901  1
  Au  Au19  1  0.750000  0.425099  0.074901  1
  Au  Au20  1  0.425099  0.074901  0.750000  1
  Au  Au21  1  0.074901  0.750000  0.425099  1
