# generated using pymatgen
data_UNi2
_symmetry_space_group_name_H-M   'P 1'
_cell_length_a   4.92905924
_cell_length_b   4.92905924
_cell_length_c   8.23488655
_cell_angle_alpha   90.00000000
_cell_angle_beta   90.00000000
_cell_angle_gamma   120.00000000
_symmetry_Int_Tables_number   1
_chemical_formula_structural   UNi2
_chemical_formula_sum   'U4 Ni8'
_cell_volume   173.26718830
_cell_formula_units_Z   4
loop_
 _symmetry_equiv_pos_site_id
 _symmetry_equiv_pos_as_xyz
  1  'x, y, z'
loop_
 _atom_site_type_symbol
 _atom_site_label
 _atom_site_symmetry_multiplicity
 _atom_site_fract_x
 _atom_site_fract_y
 _atom_site_fract_z
 _atom_site_occupancy
  U  U0  1  0.333333  0.666667  0.056025  1
  U  U1  1  0.333333  0.666667  0.443975  1
  U  U2  1  0.666667  0.333333  0.556025  1
  U  U3  1  0.666667  0.333333  0.943975  1
  Ni  Ni4  1  0.165680  0.331360  0.750000  1
  Ni  Ni5  1  0.165680  0.834320  0.750000  1
  Ni  Ni6  1  0.331360  0.165680  0.250000  1
  Ni  Ni7  1  0.834320  0.668640  0.250000  1
  Ni  Ni8  1  0.000000  0.000000  0.000000  1
  Ni  Ni9  1  0.668640  0.834320  0.750000  1
  Ni  Ni10  1  0.834320  0.165680  0.250000  1
  Ni  Ni11  1  0.000000  0.000000  0.500000  1
