# generated using pymatgen
data_CdPdF6
_symmetry_space_group_name_H-M   'P 1'
_cell_length_a   5.74165260
_cell_length_b   5.74165260
_cell_length_c   5.74165260
_cell_angle_alpha   54.57848666
_cell_angle_beta   54.57848666
_cell_angle_gamma   54.57848666
_symmetry_Int_Tables_number   1
_chemical_formula_structural   CdPdF6
_chemical_formula_sum   'Cd1 Pd1 F6'
_cell_volume   116.93123348
_cell_formula_units_Z   1
loop_
 _symmetry_equiv_pos_site_id
 _symmetry_equiv_pos_as_xyz
  1  'x, y, z'
loop_
 _atom_site_type_symbol
 _atom_site_label
 _atom_site_symmetry_multiplicity
 _atom_site_fract_x
 _atom_site_fract_y
 _atom_site_fract_z
 _atom_site_occupancy
  Cd  Cd0  1  0.500000  0.500000  0.500000  1
  Pd  Pd1  1  0.000000  0.000000  0.000000  1
  F  F2  1  0.926097  0.221834  0.618503  1
  F  F3  1  0.221834  0.618503  0.926097  1
  F  F4  1  0.381497  0.073903  0.778166  1
  F  F5  1  0.778166  0.381497  0.073903  1
  F  F6  1  0.073903  0.778166  0.381497  1
  F  F7  1  0.618503  0.926097  0.221834  1
