# generated using pymatgen
data_SmZrF7
_symmetry_space_group_name_H-M   'P 1'
_cell_length_a   9.27109840
_cell_length_b   5.84530445
_cell_length_c   12.44946404
_cell_angle_alpha   90.00000000
_cell_angle_beta   117.85675565
_cell_angle_gamma   90.00000000
_symmetry_Int_Tables_number   1
_chemical_formula_structural   SmZrF7
_chemical_formula_sum   'Sm4 Zr4 F28'
_cell_volume   596.48494304
_cell_formula_units_Z   4
loop_
 _symmetry_equiv_pos_site_id
 _symmetry_equiv_pos_as_xyz
  1  'x, y, z'
loop_
 _atom_site_type_symbol
 _atom_site_label
 _atom_site_symmetry_multiplicity
 _atom_site_fract_x
 _atom_site_fract_y
 _atom_site_fract_z
 _atom_site_occupancy
  Sm  Sm0  1  0.813854  0.743298  0.733439  1
  Sm  Sm1  1  0.186146  0.243298  0.766561  1
  Sm  Sm2  1  0.186146  0.256702  0.266561  1
  Sm  Sm3  1  0.813854  0.756702  0.233439  1
  Zr  Zr4  1  0.273991  0.744779  0.544752  1
  Zr  Zr5  1  0.726009  0.244779  0.955248  1
  Zr  Zr6  1  0.726009  0.255221  0.455248  1
  Zr  Zr7  1  0.273991  0.755221  0.044752  1
  F  F8  1  0.711797  0.464045  0.077243  1
  F  F9  1  0.288203  0.964045  0.422757  1
  F  F10  1  0.288203  0.535955  0.922757  1
  F  F11  1  0.711797  0.035955  0.577243  1
  F  F12  1  0.282115  0.458528  0.451965  1
  F  F13  1  0.717885  0.958528  0.048035  1
  F  F14  1  0.717885  0.541472  0.548035  1
  F  F15  1  0.282115  0.041472  0.951965  1
  F  F16  1  0.522113  0.766498  0.140550  1
  F  F17  1  0.477887  0.266498  0.359450  1
  F  F18  1  0.477887  0.233502  0.859450  1
  F  F19  1  0.522113  0.733502  0.640550  1
  F  F20  1  0.026648  0.760147  0.942651  1
  F  F21  1  0.973352  0.260147  0.557349  1
  F  F22  1  0.973352  0.239853  0.057349  1
  F  F23  1  0.026648  0.739853  0.442651  1
  F  F24  1  0.733599  0.987839  0.352498  1
  F  F25  1  0.266401  0.487839  0.147502  1
  F  F26  1  0.266401  0.012161  0.647502  1
  F  F27  1  0.733599  0.512161  0.852498  1
  F  F28  1  0.745477  0.035945  0.829706  1
  F  F29  1  0.254523  0.535945  0.670294  1
  F  F30  1  0.254523  0.964055  0.170294  1
  F  F31  1  0.745477  0.464055  0.329706  1
  F  F32  1  0.971943  0.426535  0.765474  1
  F  F33  1  0.028057  0.926535  0.734526  1
  F  F34  1  0.028057  0.573465  0.234526  1
  F  F35  1  0.971943  0.073465  0.265474  1
