# generated using pymatgen
data_Mn3Mo3C
_symmetry_space_group_name_H-M   'P 1'
_cell_length_a   7.86572141
_cell_length_b   7.86572141
_cell_length_c   7.86572141
_cell_angle_alpha   60.00000000
_cell_angle_beta   60.00000000
_cell_angle_gamma   60.00000000
_symmetry_Int_Tables_number   1
_chemical_formula_structural   Mn3Mo3C
_chemical_formula_sum   'Mn12 Mo12 C4'
_cell_volume   344.11268544
_cell_formula_units_Z   4
loop_
 _symmetry_equiv_pos_site_id
 _symmetry_equiv_pos_as_xyz
  1  'x, y, z'
loop_
 _atom_site_type_symbol
 _atom_site_label
 _atom_site_symmetry_multiplicity
 _atom_site_fract_x
 _atom_site_fract_y
 _atom_site_fract_z
 _atom_site_occupancy
  Mn  Mn0  1  0.625000  0.125000  0.125000  1
  Mn  Mn1  1  0.328301  0.328301  0.328301  1
  Mn  Mn2  1  0.328301  0.328301  0.015097  1
  Mn  Mn3  1  0.921699  0.234903  0.921699  1
  Mn  Mn4  1  0.921699  0.921699  0.234903  1
  Mn  Mn5  1  0.234903  0.921699  0.921699  1
  Mn  Mn6  1  0.921699  0.921699  0.921699  1
  Mn  Mn7  1  0.328301  0.015097  0.328301  1
  Mn  Mn8  1  0.125000  0.125000  0.625000  1
  Mn  Mn9  1  0.125000  0.125000  0.125000  1
  Mn  Mn10  1  0.125000  0.625000  0.125000  1
  Mn  Mn11  1  0.015097  0.328301  0.328301  1
  Mo  Mo12  1  0.302350  0.302350  0.697650  1
  Mo  Mo13  1  0.697650  0.697650  0.302350  1
  Mo  Mo14  1  0.947650  0.947650  0.552350  1
  Mo  Mo15  1  0.552350  0.947650  0.552350  1
  Mo  Mo16  1  0.947650  0.552350  0.947650  1
  Mo  Mo17  1  0.552350  0.552350  0.947650  1
  Mo  Mo18  1  0.697650  0.302350  0.302350  1
  Mo  Mo19  1  0.947650  0.552350  0.552350  1
  Mo  Mo20  1  0.302350  0.697650  0.697650  1
  Mo  Mo21  1  0.697650  0.302350  0.697650  1
  Mo  Mo22  1  0.552350  0.947650  0.947650  1
  Mo  Mo23  1  0.302350  0.697650  0.302350  1
  C  C24  1  0.125000  0.625000  0.625000  1
  C  C25  1  0.625000  0.625000  0.625000  1
  C  C26  1  0.625000  0.625000  0.125000  1
  C  C27  1  0.625000  0.125000  0.625000  1
