# generated using pymatgen
data_HoCuPb
_symmetry_space_group_name_H-M   'P 1'
_cell_length_a   4.60710176
_cell_length_b   4.60710176
_cell_length_c   7.34616951
_cell_angle_alpha   90.00000000
_cell_angle_beta   90.00000000
_cell_angle_gamma   120.00000000
_symmetry_Int_Tables_number   1
_chemical_formula_structural   HoCuPb
_chemical_formula_sum   'Ho2 Cu2 Pb2'
_cell_volume   135.03526052
_cell_formula_units_Z   2
loop_
 _symmetry_equiv_pos_site_id
 _symmetry_equiv_pos_as_xyz
  1  'x, y, z'
loop_
 _atom_site_type_symbol
 _atom_site_label
 _atom_site_symmetry_multiplicity
 _atom_site_fract_x
 _atom_site_fract_y
 _atom_site_fract_z
 _atom_site_occupancy
  Ho  Ho0  1  0.000000  0.000000  0.984535  1
  Ho  Ho1  1  0.000000  0.000000  0.484535  1
  Cu  Cu2  1  0.666667  0.333333  0.314151  1
  Cu  Cu3  1  0.333333  0.666667  0.814151  1
  Pb  Pb4  1  0.333333  0.666667  0.215814  1
  Pb  Pb5  1  0.666667  0.333333  0.715814  1
