# generated using pymatgen
data_Ba(BeN)2
_symmetry_space_group_name_H-M   'P 1'
_cell_length_a   5.85114180
_cell_length_b   5.85114180
_cell_length_c   5.85114180
_cell_angle_alpha   121.97779883
_cell_angle_beta   121.97779883
_cell_angle_gamma   86.60718227
_symmetry_Int_Tables_number   1
_chemical_formula_structural   Ba(BeN)2
_chemical_formula_sum   'Ba2 Be4 N4'
_cell_volume   137.15068480
_cell_formula_units_Z   2
loop_
 _symmetry_equiv_pos_site_id
 _symmetry_equiv_pos_as_xyz
  1  'x, y, z'
loop_
 _atom_site_type_symbol
 _atom_site_label
 _atom_site_symmetry_multiplicity
 _atom_site_fract_x
 _atom_site_fract_y
 _atom_site_fract_z
 _atom_site_occupancy
  Ba  Ba0  1  0.750000  0.750000  0.000000  1
  Ba  Ba1  1  0.250000  0.250000  0.000000  1
  Be  Be2  1  0.128767  0.628767  0.757534  1
  Be  Be3  1  0.628767  0.871233  0.500000  1
  Be  Be4  1  0.371233  0.128767  0.500000  1
  Be  Be5  1  0.871233  0.371233  0.242466  1
  N  N6  1  0.166028  0.333972  0.500000  1
  N  N7  1  0.666028  0.166028  0.832056  1
  N  N8  1  0.833972  0.666028  0.500000  1
  N  N9  1  0.333972  0.833972  0.167944  1
