# generated using pymatgen
data_KSm2CuS4
_symmetry_space_group_name_H-M   'P 1'
_cell_length_a   7.17603845
_cell_length_b   7.17603845
_cell_length_c   13.92419206
_cell_angle_alpha   90.00000000
_cell_angle_beta   90.00000000
_cell_angle_gamma   147.38144081
_symmetry_Int_Tables_number   1
_chemical_formula_structural   KSm2CuS4
_chemical_formula_sum   'K2 Sm4 Cu2 S8'
_cell_volume   386.51241447
_cell_formula_units_Z   2
loop_
 _symmetry_equiv_pos_site_id
 _symmetry_equiv_pos_as_xyz
  1  'x, y, z'
loop_
 _atom_site_type_symbol
 _atom_site_label
 _atom_site_symmetry_multiplicity
 _atom_site_fract_x
 _atom_site_fract_y
 _atom_site_fract_z
 _atom_site_occupancy
  K  K0  1  0.108347  0.891653  0.250000  1
  K  K1  1  0.891653  0.108347  0.750000  1
  Sm  Sm2  1  0.634473  0.365527  0.937188  1
  Sm  Sm3  1  0.365527  0.634473  0.437188  1
  Sm  Sm4  1  0.634473  0.365527  0.562812  1
  Sm  Sm5  1  0.365527  0.634473  0.062812  1
  Cu  Cu6  1  0.162167  0.837833  0.750000  1
  Cu  Cu7  1  0.837833  0.162167  0.250000  1
  S  S8  1  0.000000  0.000000  0.500000  1
  S  S9  1  0.000000  0.000000  0.000000  1
  S  S10  1  0.737210  0.262790  0.113673  1
  S  S11  1  0.262790  0.737210  0.886327  1
  S  S12  1  0.569478  0.430522  0.750000  1
  S  S13  1  0.737210  0.262790  0.386327  1
  S  S14  1  0.430522  0.569478  0.250000  1
  S  S15  1  0.262790  0.737210  0.613673  1
