# generated using pymatgen
data_Ge2Pt
_symmetry_space_group_name_H-M   'P 1'
_cell_length_a   2.98337315
_cell_length_b   5.84273588
_cell_length_c   6.28332385
_cell_angle_alpha   90.00000000
_cell_angle_beta   90.00000000
_cell_angle_gamma   90.00000000
_symmetry_Int_Tables_number   1
_chemical_formula_structural   Ge2Pt
_chemical_formula_sum   'Ge4 Pt2'
_cell_volume   109.52500349
_cell_formula_units_Z   2
loop_
 _symmetry_equiv_pos_site_id
 _symmetry_equiv_pos_as_xyz
  1  'x, y, z'
loop_
 _atom_site_type_symbol
 _atom_site_label
 _atom_site_symmetry_multiplicity
 _atom_site_fract_x
 _atom_site_fract_y
 _atom_site_fract_z
 _atom_site_occupancy
  Ge  Ge0  1  0.000000  0.832016  0.372486  1
  Ge  Ge1  1  0.000000  0.167984  0.627514  1
  Ge  Ge2  1  0.500000  0.332016  0.127514  1
  Ge  Ge3  1  0.500000  0.667984  0.872486  1
  Pt  Pt4  1  0.000000  0.000000  0.000000  1
  Pt  Pt5  1  0.500000  0.500000  0.500000  1
