# generated using pymatgen
data_PPd3
_symmetry_space_group_name_H-M   'P 1'
_cell_length_a   5.26246298
_cell_length_b   6.05427525
_cell_length_c   7.55283157
_cell_angle_alpha   90.00000000
_cell_angle_beta   90.00000000
_cell_angle_gamma   90.00000000
_symmetry_Int_Tables_number   1
_chemical_formula_structural   PPd3
_chemical_formula_sum   'P4 Pd12'
_cell_volume   240.63623022
_cell_formula_units_Z   4
loop_
 _symmetry_equiv_pos_site_id
 _symmetry_equiv_pos_as_xyz
  1  'x, y, z'
loop_
 _atom_site_type_symbol
 _atom_site_label
 _atom_site_symmetry_multiplicity
 _atom_site_fract_x
 _atom_site_fract_y
 _atom_site_fract_z
 _atom_site_occupancy
  P  P0  1  0.457420  0.881628  0.250000  1
  P  P1  1  0.957420  0.618372  0.750000  1
  P  P2  1  0.042580  0.381628  0.250000  1
  P  P3  1  0.542580  0.118372  0.750000  1
  Pd  Pd4  1  0.868670  0.027766  0.250000  1
  Pd  Pd5  1  0.368670  0.472234  0.750000  1
  Pd  Pd6  1  0.631330  0.527766  0.250000  1
  Pd  Pd7  1  0.131330  0.972234  0.750000  1
  Pd  Pd8  1  0.336953  0.174798  0.063133  1
  Pd  Pd9  1  0.836953  0.325202  0.936867  1
  Pd  Pd10  1  0.163047  0.674798  0.436867  1
  Pd  Pd11  1  0.663047  0.825202  0.563133  1
  Pd  Pd12  1  0.663047  0.825202  0.936867  1
  Pd  Pd13  1  0.163047  0.674798  0.063133  1
  Pd  Pd14  1  0.836953  0.325202  0.563133  1
  Pd  Pd15  1  0.336953  0.174798  0.436867  1
