# generated using pymatgen
data_TiTeAs
_symmetry_space_group_name_H-M   'P 1'
_cell_length_a   7.18995541
_cell_length_b   7.18995541
_cell_length_c   7.18995541
_cell_angle_alpha   151.01511133
_cell_angle_beta   136.71564152
_cell_angle_gamma   52.93594500
_symmetry_Int_Tables_number   1
_chemical_formula_structural   TiTeAs
_chemical_formula_sum   'Ti2 Te2 As2'
_cell_volume   122.83730258
_cell_formula_units_Z   2
loop_
 _symmetry_equiv_pos_site_id
 _symmetry_equiv_pos_as_xyz
  1  'x, y, z'
loop_
 _atom_site_type_symbol
 _atom_site_label
 _atom_site_symmetry_multiplicity
 _atom_site_fract_x
 _atom_site_fract_y
 _atom_site_fract_z
 _atom_site_occupancy
  Ti  Ti0  1  0.881778  0.381778  0.500000  1
  Ti  Ti1  1  0.118222  0.618222  0.500000  1
  Te  Te2  1  0.709481  0.709481  0.000000  1
  Te  Te3  1  0.290519  0.290519  0.000000  1
  As  As4  1  0.748860  0.000000  0.748860  1
  As  As5  1  0.251140  0.000000  0.251140  1
