# generated using pymatgen
data_V2Zn3O8
_symmetry_space_group_name_H-M   'P 1'
_cell_length_a   6.64226693
_cell_length_b   6.64226693
_cell_length_c   8.38138159
_cell_angle_alpha   90.00000000
_cell_angle_beta   90.00000000
_cell_angle_gamma   124.55223047
_symmetry_Int_Tables_number   1
_chemical_formula_structural   V2Zn3O8
_chemical_formula_sum   'V4 Zn6 O16'
_cell_volume   304.55772377
_cell_formula_units_Z   2
loop_
 _symmetry_equiv_pos_site_id
 _symmetry_equiv_pos_as_xyz
  1  'x, y, z'
loop_
 _atom_site_type_symbol
 _atom_site_label
 _atom_site_symmetry_multiplicity
 _atom_site_fract_x
 _atom_site_fract_y
 _atom_site_fract_z
 _atom_site_occupancy
  V  V0  1  0.121751  0.878249  0.620084  1
  V  V1  1  0.878249  0.121751  0.379916  1
  V  V2  1  0.378249  0.621751  0.120084  1
  V  V3  1  0.621751  0.378249  0.879916  1
  Zn  Zn4  1  0.113205  0.386795  0.750000  1
  Zn  Zn5  1  0.386795  0.113205  0.250000  1
  Zn  Zn6  1  0.886795  0.613205  0.250000  1
  Zn  Zn7  1  0.613205  0.886795  0.750000  1
  Zn  Zn8  1  0.500000  0.500000  0.500000  1
  Zn  Zn9  1  0.000000  0.000000  0.000000  1
  O  O10  1  0.654570  0.889758  0.499675  1
  O  O11  1  0.889758  0.654570  0.500325  1
  O  O12  1  0.845430  0.610242  0.999675  1
  O  O13  1  0.610242  0.845430  0.000325  1
  O  O14  1  0.345430  0.110242  0.500325  1
  O  O15  1  0.110242  0.345430  0.499675  1
  O  O16  1  0.154570  0.389758  0.000325  1
  O  O17  1  0.389758  0.154570  0.999675  1
  O  O18  1  0.500427  0.499573  0.744175  1
  O  O19  1  0.499573  0.500427  0.255825  1
  O  O20  1  0.750377  0.249623  0.773628  1
  O  O21  1  0.249623  0.750377  0.226372  1
  O  O22  1  0.749623  0.250377  0.273628  1
  O  O23  1  0.250377  0.749623  0.726372  1
  O  O24  1  0.000427  0.999573  0.755825  1
  O  O25  1  0.999573  0.000427  0.244175  1
