# generated using pymatgen
data_Sr11Sb10
_symmetry_space_group_name_H-M   'P 1'
_cell_length_a   12.82213972
_cell_length_b   12.82213972
_cell_length_c   12.82213972
_cell_angle_alpha   121.31075693
_cell_angle_beta   121.31075693
_cell_angle_gamma   87.74431024
_symmetry_Int_Tables_number   1
_chemical_formula_structural   Sr11Sb10
_chemical_formula_sum   'Sr22 Sb20'
_cell_volume   1459.85733208
_cell_formula_units_Z   2
loop_
 _symmetry_equiv_pos_site_id
 _symmetry_equiv_pos_as_xyz
  1  'x, y, z'
loop_
 _atom_site_type_symbol
 _atom_site_label
 _atom_site_symmetry_multiplicity
 _atom_site_fract_x
 _atom_site_fract_y
 _atom_site_fract_z
 _atom_site_occupancy
  Sr  Sr0  1  0.189723  0.939379  0.749656  1
  Sr  Sr1  1  0.189723  0.440067  0.250344  1
  Sr  Sr2  1  0.440067  0.189723  0.250344  1
  Sr  Sr3  1  0.939379  0.189723  0.749656  1
  Sr  Sr4  1  0.810277  0.060621  0.250344  1
  Sr  Sr5  1  0.810277  0.559933  0.749656  1
  Sr  Sr6  1  0.559933  0.810277  0.749656  1
  Sr  Sr7  1  0.060621  0.810277  0.250344  1
  Sr  Sr8  1  0.169106  0.830894  0.000000  1
  Sr  Sr9  1  0.830894  0.169106  0.000000  1
  Sr  Sr10  1  0.169106  0.169106  0.338211  1
  Sr  Sr11  1  0.830894  0.830894  0.661789  1
  Sr  Sr12  1  0.344725  0.344725  0.000000  1
  Sr  Sr13  1  0.655275  0.655275  0.000000  1
  Sr  Sr14  1  0.395130  0.060419  0.665289  1
  Sr  Sr15  1  0.395130  0.729841  0.334711  1
  Sr  Sr16  1  0.729841  0.395130  0.334711  1
  Sr  Sr17  1  0.060419  0.395130  0.665289  1
  Sr  Sr18  1  0.604870  0.939581  0.334711  1
  Sr  Sr19  1  0.604870  0.270159  0.665289  1
  Sr  Sr20  1  0.270159  0.604870  0.665289  1
  Sr  Sr21  1  0.939581  0.604870  0.334711  1
  Sb  Sb22  1  0.353690  0.000000  0.353690  1
  Sb  Sb23  1  0.646310  0.000000  0.646310  1
  Sb  Sb24  1  0.000000  0.353690  0.353690  1
  Sb  Sb25  1  0.000000  0.646310  0.646310  1
  Sb  Sb26  1  0.121901  0.121901  0.000000  1
  Sb  Sb27  1  0.878099  0.878099  0.000000  1
  Sb  Sb28  1  0.378804  0.621196  0.000000  1
  Sb  Sb29  1  0.621196  0.378804  0.000000  1
  Sb  Sb30  1  0.378804  0.378804  0.757608  1
  Sb  Sb31  1  0.621196  0.621196  0.242392  1
  Sb  Sb32  1  0.250000  0.750000  0.500000  1
  Sb  Sb33  1  0.750000  0.250000  0.500000  1
  Sb  Sb34  1  0.530383  0.110911  0.000000  1
  Sb  Sb35  1  0.110911  0.530383  0.000000  1
  Sb  Sb36  1  0.530383  0.530383  0.419472  1
  Sb  Sb37  1  0.110911  0.110911  0.580528  1
  Sb  Sb38  1  0.469617  0.889089  0.000000  1
  Sb  Sb39  1  0.889089  0.469617  0.000000  1
  Sb  Sb40  1  0.469617  0.469617  0.580528  1
  Sb  Sb41  1  0.889089  0.889089  0.419472  1
