# generated using pymatgen
data_LaCo(BO2)5
_symmetry_space_group_name_H-M   'P 1'
_cell_length_a   8.89029477
_cell_length_b   7.67706345
_cell_length_c   12.77161956
_cell_angle_alpha   90.00000000
_cell_angle_beta   131.59593184
_cell_angle_gamma   90.00000000
_symmetry_Int_Tables_number   1
_chemical_formula_structural   LaCo(BO2)5
_chemical_formula_sum   'La4 Co4 B20 O40'
_cell_volume   651.88200387
_cell_formula_units_Z   4
loop_
 _symmetry_equiv_pos_site_id
 _symmetry_equiv_pos_as_xyz
  1  'x, y, z'
loop_
 _atom_site_type_symbol
 _atom_site_label
 _atom_site_symmetry_multiplicity
 _atom_site_fract_x
 _atom_site_fract_y
 _atom_site_fract_z
 _atom_site_occupancy
  La  La0  1  0.443686  0.314561  0.763357  1
  La  La1  1  0.556314  0.814561  0.736643  1
  La  La2  1  0.556314  0.685439  0.236643  1
  La  La3  1  0.443686  0.185439  0.263357  1
  Co  Co4  1  0.975842  0.090260  0.875040  1
  Co  Co5  1  0.024158  0.590260  0.624960  1
  Co  Co6  1  0.024158  0.909740  0.124960  1
  Co  Co7  1  0.975842  0.409740  0.375040  1
  B  B8  1  0.008081  0.183389  0.582973  1
  B  B9  1  0.991919  0.683389  0.917027  1
  B  B10  1  0.991919  0.816611  0.417027  1
  B  B11  1  0.008081  0.316611  0.082973  1
  B  B12  1  0.342260  0.906574  0.994071  1
  B  B13  1  0.657740  0.406574  0.505929  1
  B  B14  1  0.657740  0.093426  0.005929  1
  B  B15  1  0.342260  0.593426  0.494071  1
  B  B16  1  0.766864  0.964578  0.551602  1
  B  B17  1  0.233136  0.464578  0.948398  1
  B  B18  1  0.233136  0.035422  0.448398  1
  B  B19  1  0.766864  0.535422  0.051602  1
  B  B20  1  0.596394  0.173469  0.609687  1
  B  B21  1  0.403606  0.673469  0.890313  1
  B  B22  1  0.403606  0.826531  0.390313  1
  B  B23  1  0.596394  0.326531  0.109687  1
  B  B24  1  0.141278  0.918486  0.733848  1
  B  B25  1  0.858722  0.418486  0.766152  1
  B  B26  1  0.858722  0.081514  0.266152  1
  B  B27  1  0.141278  0.581514  0.233848  1
  O  O28  1  0.616042  0.039640  0.887681  1
  O  O29  1  0.383958  0.539640  0.612319  1
  O  O30  1  0.383958  0.960360  0.112319  1
  O  O31  1  0.616042  0.460360  0.387681  1
  O  O32  1  0.942193  0.844454  0.935671  1
  O  O33  1  0.057807  0.344454  0.564329  1
  O  O34  1  0.057807  0.155546  0.064329  1
  O  O35  1  0.942193  0.655546  0.435671  1
  O  O36  1  0.815004  0.124167  0.507743  1
  O  O37  1  0.184996  0.624167  0.992257  1
  O  O38  1  0.184996  0.875833  0.492257  1
  O  O39  1  0.815004  0.375833  0.007743  1
  O  O40  1  0.531834  0.280368  0.491030  1
  O  O41  1  0.468166  0.780368  0.008970  1
  O  O42  1  0.468166  0.719632  0.508970  1
  O  O43  1  0.531834  0.219632  0.991030  1
  O  O44  1  0.417094  0.109689  0.585491  1
  O  O45  1  0.582906  0.609689  0.914509  1
  O  O46  1  0.582906  0.890311  0.414509  1
  O  O47  1  0.417094  0.390311  0.085491  1
  O  O48  1  0.727051  0.021667  0.643002  1
  O  O49  1  0.272949  0.521667  0.856998  1
  O  O50  1  0.272949  0.978333  0.356998  1
  O  O51  1  0.727051  0.478333  0.143002  1
  O  O52  1  0.938392  0.846651  0.628645  1
  O  O53  1  0.061608  0.346651  0.871355  1
  O  O54  1  0.061608  0.153349  0.371355  1
  O  O55  1  0.938392  0.653349  0.128645  1
  O  O56  1  0.170344  0.081443  0.687126  1
  O  O57  1  0.829656  0.581443  0.812874  1
  O  O58  1  0.829656  0.918557  0.312874  1
  O  O59  1  0.170344  0.418557  0.187126  1
  O  O60  1  0.177668  0.965349  0.863083  1
  O  O61  1  0.822332  0.465349  0.636917  1
  O  O62  1  0.822332  0.034651  0.136917  1
  O  O63  1  0.177668  0.534651  0.363083  1
  O  O64  1  0.280356  0.779764  0.758962  1
  O  O65  1  0.719644  0.279764  0.741038  1
  O  O66  1  0.719644  0.220236  0.241038  1
  O  O67  1  0.280356  0.720236  0.258962  1
