# generated using pymatgen
data_Na3Li3Sc2F12
_symmetry_space_group_name_H-M   'P 1'
_cell_length_a   11.06191738
_cell_length_b   11.06191738
_cell_length_c   11.06191738
_cell_angle_alpha   109.47122063
_cell_angle_beta   109.47122063
_cell_angle_gamma   109.47122063
_symmetry_Int_Tables_number   1
_chemical_formula_structural   Na3Li3Sc2F12
_chemical_formula_sum   'Na12 Li12 Sc8 F48'
_cell_volume   1042.00389061
_cell_formula_units_Z   4
loop_
 _symmetry_equiv_pos_site_id
 _symmetry_equiv_pos_as_xyz
  1  'x, y, z'
loop_
 _atom_site_type_symbol
 _atom_site_label
 _atom_site_symmetry_multiplicity
 _atom_site_fract_x
 _atom_site_fract_y
 _atom_site_fract_z
 _atom_site_occupancy
  Na  Na0  1  0.625000  0.875000  0.750000  1
  Na  Na1  1  0.875000  0.625000  0.250000  1
  Na  Na2  1  0.625000  0.250000  0.875000  1
  Na  Na3  1  0.250000  0.875000  0.625000  1
  Na  Na4  1  0.750000  0.625000  0.875000  1
  Na  Na5  1  0.875000  0.750000  0.625000  1
  Na  Na6  1  0.375000  0.125000  0.250000  1
  Na  Na7  1  0.125000  0.375000  0.750000  1
  Na  Na8  1  0.375000  0.750000  0.125000  1
  Na  Na9  1  0.750000  0.125000  0.375000  1
  Na  Na10  1  0.125000  0.250000  0.375000  1
  Na  Na11  1  0.250000  0.375000  0.125000  1
  Li  Li12  1  0.250000  0.625000  0.375000  1
  Li  Li13  1  0.875000  0.250000  0.125000  1
  Li  Li14  1  0.125000  0.750000  0.875000  1
  Li  Li15  1  0.875000  0.125000  0.750000  1
  Li  Li16  1  0.625000  0.375000  0.250000  1
  Li  Li17  1  0.750000  0.875000  0.125000  1
  Li  Li18  1  0.125000  0.875000  0.250000  1
  Li  Li19  1  0.375000  0.625000  0.750000  1
  Li  Li20  1  0.625000  0.750000  0.375000  1
  Li  Li21  1  0.750000  0.375000  0.625000  1
  Li  Li22  1  0.250000  0.125000  0.875000  1
  Li  Li23  1  0.375000  0.250000  0.625000  1
  Sc  Sc24  1  0.500000  0.500000  0.500000  1
  Sc  Sc25  1  0.500000  0.500000  0.000000  1
  Sc  Sc26  1  0.500000  1.000000  0.500000  1
  Sc  Sc27  1  1.000000  0.500000  0.500000  1
  Sc  Sc28  1  0.500000  0.000000  0.000000  1
  Sc  Sc29  1  0.000000  0.000000  0.500000  1
  Sc  Sc30  1  0.000000  0.500000  0.000000  1
  Sc  Sc31  1  0.000000  0.000000  0.000000  1
  F  F32  1  0.801812  0.421152  0.821864  1
  F  F33  1  0.520052  0.400712  0.821864  1
  F  F34  1  0.678136  0.078848  0.698188  1
  F  F35  1  0.421152  0.099288  0.619340  1
  F  F36  1  0.821864  0.520052  0.400712  1
  F  F37  1  0.400712  0.078848  0.880660  1
  F  F38  1  0.099288  0.979948  0.678136  1
  F  F39  1  0.421152  0.821864  0.801812  1
  F  F40  1  0.078848  0.698188  0.678136  1
  F  F41  1  0.979948  0.801812  0.880660  1
  F  F42  1  0.880660  0.979948  0.801812  1
  F  F43  1  0.400712  0.821864  0.520052  1
  F  F44  1  0.619340  0.698188  0.520052  1
  F  F45  1  0.099288  0.619340  0.421152  1
  F  F46  1  0.520052  0.619340  0.698188  1
  F  F47  1  0.698188  0.678136  0.078848  1
  F  F48  1  0.698188  0.520052  0.619340  1
  F  F49  1  0.619340  0.421152  0.099288  1
  F  F50  1  0.678136  0.099288  0.979948  1
  F  F51  1  0.078848  0.880660  0.400712  1
  F  F52  1  0.198188  0.119340  0.020052  1
  F  F53  1  0.119340  0.599288  0.921152  1
  F  F54  1  0.178136  0.198188  0.578848  1
  F  F55  1  0.578848  0.178136  0.198188  1
  F  F56  1  0.020052  0.321864  0.900712  1
  F  F57  1  0.900712  0.020052  0.321864  1
  F  F58  1  0.599288  0.921152  0.119340  1
  F  F59  1  0.178136  0.479948  0.599288  1
  F  F60  1  0.578848  0.900712  0.380660  1
  F  F61  1  0.321864  0.921152  0.301812  1
  F  F62  1  0.479948  0.599288  0.178136  1
  F  F63  1  0.380660  0.578848  0.900712  1
  F  F64  1  0.921152  0.301812  0.321864  1
  F  F65  1  0.020052  0.198188  0.119340  1
  F  F66  1  0.119340  0.020052  0.198188  1
  F  F67  1  0.599288  0.178136  0.479948  1
  F  F68  1  0.380660  0.301812  0.479948  1
  F  F69  1  0.900712  0.380660  0.578848  1
  F  F70  1  0.479948  0.380660  0.301812  1
  F  F71  1  0.301812  0.321864  0.921152  1
  F  F72  1  0.301812  0.479948  0.380660  1
  F  F73  1  0.321864  0.900712  0.020052  1
  F  F74  1  0.921152  0.119340  0.599288  1
  F  F75  1  0.198188  0.578848  0.178136  1
  F  F76  1  0.801812  0.880660  0.979948  1
  F  F77  1  0.880660  0.400712  0.078848  1
  F  F78  1  0.821864  0.801812  0.421152  1
  F  F79  1  0.979948  0.678136  0.099288  1
