# generated using pymatgen
data_Pr2NiO4
_symmetry_space_group_name_H-M   'P 1'
_cell_length_a   6.73203717
_cell_length_b   6.73203717
_cell_length_c   5.69797650
_cell_angle_alpha   90.00000000
_cell_angle_beta   90.00000000
_cell_angle_gamma   132.27998475
_symmetry_Int_Tables_number   1
_chemical_formula_structural   Pr2NiO4
_chemical_formula_sum   'Pr4 Ni2 O8'
_cell_volume   191.05870278
_cell_formula_units_Z   2
loop_
 _symmetry_equiv_pos_site_id
 _symmetry_equiv_pos_as_xyz
  1  'x, y, z'
loop_
 _atom_site_type_symbol
 _atom_site_label
 _atom_site_symmetry_multiplicity
 _atom_site_fract_x
 _atom_site_fract_y
 _atom_site_fract_z
 _atom_site_occupancy
  Pr  Pr0  1  0.863073  0.136927  0.483617  1
  Pr  Pr1  1  0.136927  0.863073  0.516383  1
  Pr  Pr2  1  0.636927  0.363073  0.983617  1
  Pr  Pr3  1  0.363073  0.636927  0.016383  1
  Ni  Ni4  1  0.500000  0.500000  0.500000  1
  Ni  Ni5  1  0.000000  0.000000  0.000000  1
  O  O6  1  0.678919  0.321081  0.568458  1
  O  O7  1  0.321081  0.678919  0.431542  1
  O  O8  1  0.821081  0.178919  0.068458  1
  O  O9  1  0.178919  0.821081  0.931542  1
  O  O10  1  0.230283  0.269717  0.750000  1
  O  O11  1  0.269717  0.230283  0.250000  1
  O  O12  1  0.730283  0.769717  0.750000  1
  O  O13  1  0.769717  0.730283  0.250000  1
