# generated using pymatgen
data_ErNiO3
_symmetry_space_group_name_H-M   'P 1'
_cell_length_a   5.16495425
_cell_length_b   5.65932469
_cell_length_c   7.37332253
_cell_angle_alpha   90.00000000
_cell_angle_beta   90.00000000
_cell_angle_gamma   90.00000000
_symmetry_Int_Tables_number   1
_chemical_formula_structural   ErNiO3
_chemical_formula_sum   'Er4 Ni4 O12'
_cell_volume   215.52334622
_cell_formula_units_Z   4
loop_
 _symmetry_equiv_pos_site_id
 _symmetry_equiv_pos_as_xyz
  1  'x, y, z'
loop_
 _atom_site_type_symbol
 _atom_site_label
 _atom_site_symmetry_multiplicity
 _atom_site_fract_x
 _atom_site_fract_y
 _atom_site_fract_z
 _atom_site_occupancy
  Er  Er0  1  0.476372  0.415912  0.750000  1
  Er  Er1  1  0.023628  0.915912  0.750000  1
  Er  Er2  1  0.523628  0.584088  0.250000  1
  Er  Er3  1  0.976372  0.084088  0.250000  1
  Ni  Ni4  1  0.000000  0.500000  0.000000  1
  Ni  Ni5  1  0.500000  0.000000  0.500000  1
  Ni  Ni6  1  0.000000  0.500000  0.500000  1
  Ni  Ni7  1  0.500000  0.000000  0.000000  1
  O  O8  1  0.695618  0.313962  0.446071  1
  O  O9  1  0.804382  0.813962  0.053929  1
  O  O10  1  0.304382  0.686038  0.553929  1
  O  O11  1  0.195618  0.186038  0.946071  1
  O  O12  1  0.195618  0.186038  0.553929  1
  O  O13  1  0.304382  0.686038  0.946071  1
  O  O14  1  0.804382  0.813962  0.446071  1
  O  O15  1  0.695618  0.313962  0.053929  1
  O  O16  1  0.111990  0.465488  0.250000  1
  O  O17  1  0.388010  0.965488  0.250000  1
  O  O18  1  0.888010  0.534512  0.750000  1
  O  O19  1  0.611990  0.034512  0.750000  1
