# generated using pymatgen
data_Ag8SnS6
_symmetry_space_group_name_H-M   'P 1'
_cell_length_a   7.70814562
_cell_length_b   10.88417661
_cell_length_c   15.48728736
_cell_angle_alpha   90.00000000
_cell_angle_beta   90.00000000
_cell_angle_gamma   90.00000000
_symmetry_Int_Tables_number   1
_chemical_formula_structural   Ag8SnS6
_chemical_formula_sum   'Ag32 Sn4 S24'
_cell_volume   1299.33413304
_cell_formula_units_Z   4
loop_
 _symmetry_equiv_pos_site_id
 _symmetry_equiv_pos_as_xyz
  1  'x, y, z'
loop_
 _atom_site_type_symbol
 _atom_site_label
 _atom_site_symmetry_multiplicity
 _atom_site_fract_x
 _atom_site_fract_y
 _atom_site_fract_z
 _atom_site_occupancy
  Ag  Ag0  1  0.519861  0.112542  0.479513  1
  Ag  Ag1  1  0.980139  0.112542  0.979513  1
  Ag  Ag2  1  0.480139  0.612542  0.520487  1
  Ag  Ag3  1  0.361946  0.913898  0.760338  1
  Ag  Ag4  1  0.138054  0.913898  0.260338  1
  Ag  Ag5  1  0.861946  0.413898  0.739662  1
  Ag  Ag6  1  0.019861  0.612542  0.020487  1
  Ag  Ag7  1  0.638054  0.413898  0.239662  1
  Ag  Ag8  1  0.271558  0.373184  0.128856  1
  Ag  Ag9  1  0.728442  0.873184  0.871144  1
  Ag  Ag10  1  0.228442  0.373184  0.628856  1
  Ag  Ag11  1  0.771558  0.873184  0.371144  1
  Ag  Ag12  1  0.876531  0.190002  0.226636  1
  Ag  Ag13  1  0.123469  0.690002  0.773364  1
  Ag  Ag14  1  0.623469  0.190002  0.726636  1
  Ag  Ag15  1  0.376531  0.690002  0.273364  1
  Ag  Ag16  1  0.603787  0.193455  0.090410  1
  Ag  Ag17  1  0.396213  0.693455  0.909590  1
  Ag  Ag18  1  0.234882  0.832489  0.060832  1
  Ag  Ag19  1  0.103787  0.693455  0.409590  1
  Ag  Ag20  1  0.009636  0.598612  0.227452  1
  Ag  Ag21  1  0.896213  0.193455  0.590410  1
  Ag  Ag22  1  0.490364  0.598612  0.727452  1
  Ag  Ag23  1  0.509636  0.098612  0.272548  1
  Ag  Ag24  1  0.566353  0.518000  0.064880  1
  Ag  Ag25  1  0.433647  0.018000  0.935120  1
  Ag  Ag26  1  0.933647  0.518000  0.564880  1
  Ag  Ag27  1  0.066353  0.018000  0.435120  1
  Ag  Ag28  1  0.734882  0.332489  0.439168  1
  Ag  Ag29  1  0.265118  0.832489  0.560832  1
  Ag  Ag30  1  0.765118  0.332489  0.939168  1
  Ag  Ag31  1  0.990364  0.098612  0.772548  1
  Sn  Sn32  1  0.734610  0.848657  0.124966  1
  Sn  Sn33  1  0.265390  0.348657  0.875034  1
  Sn  Sn34  1  0.765390  0.848657  0.624966  1
  Sn  Sn35  1  0.234610  0.348657  0.375034  1
  S  S36  1  0.768389  0.105612  0.375124  1
  S  S37  1  0.231611  0.605612  0.624876  1
  S  S38  1  0.731611  0.105612  0.875124  1
  S  S39  1  0.268389  0.605612  0.124876  1
  S  S40  1  0.809143  0.364780  0.111732  1
  S  S41  1  0.190857  0.864780  0.888268  1
  S  S42  1  0.690857  0.364780  0.611732  1
  S  S43  1  0.309143  0.864780  0.388268  1
  S  S44  1  0.724527  0.719278  0.250977  1
  S  S45  1  0.275473  0.219278  0.749023  1
  S  S46  1  0.775473  0.719278  0.750977  1
  S  S47  1  0.224527  0.219278  0.249023  1
  S  S48  1  0.989808  0.979462  0.126753  1
  S  S49  1  0.010192  0.479462  0.873247  1
  S  S50  1  0.510192  0.979462  0.626753  1
  S  S51  1  0.489808  0.479462  0.373247  1
  S  S52  1  0.768218  0.717849  0.499016  1
  S  S53  1  0.231782  0.217849  0.500984  1
  S  S54  1  0.731782  0.717849  0.999016  1
  S  S55  1  0.268218  0.217849  0.000984  1
  S  S56  1  0.983724  0.482080  0.379305  1
  S  S57  1  0.016276  0.982080  0.620695  1
  S  S58  1  0.516276  0.482080  0.879305  1
  S  S59  1  0.483724  0.982080  0.120695  1
