# generated using pymatgen
data_Nd2Ge5Rh3
_symmetry_space_group_name_H-M   'P 1'
_cell_length_a   8.48215300
_cell_length_b   8.48215300
_cell_length_c   8.48215300
_cell_angle_alpha   137.94199634
_cell_angle_beta   106.22018095
_cell_angle_gamma   88.75106084
_symmetry_Int_Tables_number   1
_chemical_formula_structural   Nd2Ge5Rh3
_chemical_formula_sum   'Nd4 Ge10 Rh6'
_cell_volume   375.83767373
_cell_formula_units_Z   2
loop_
 _symmetry_equiv_pos_site_id
 _symmetry_equiv_pos_as_xyz
  1  'x, y, z'
loop_
 _atom_site_type_symbol
 _atom_site_label
 _atom_site_symmetry_multiplicity
 _atom_site_fract_x
 _atom_site_fract_y
 _atom_site_fract_z
 _atom_site_occupancy
  Nd  Nd0  1  0.135916  0.366986  0.768930  1
  Nd  Nd1  1  0.598057  0.866986  0.731070  1
  Nd  Nd2  1  0.864084  0.633014  0.231070  1
  Nd  Nd3  1  0.401943  0.133014  0.268930  1
  Ge  Ge4  1  0.500000  0.250000  0.750000  1
  Ge  Ge5  1  0.500000  0.750000  0.250000  1
  Ge  Ge6  1  0.939307  0.099388  0.839919  1
  Ge  Ge7  1  0.259469  0.599388  0.660081  1
  Ge  Ge8  1  0.060693  0.900612  0.160081  1
  Ge  Ge9  1  0.740531  0.400612  0.339919  1
  Ge  Ge10  1  0.222932  0.972932  0.750000  1
  Ge  Ge11  1  0.222932  0.472932  0.250000  1
  Ge  Ge12  1  0.777068  0.527068  0.750000  1
  Ge  Ge13  1  0.777068  0.027068  0.250000  1
  Rh  Rh14  1  0.000000  0.250000  0.250000  1
  Rh  Rh15  1  0.534344  0.640801  0.893543  1
  Rh  Rh16  1  0.252742  0.859199  0.393543  1
  Rh  Rh17  1  0.465656  0.359199  0.106457  1
  Rh  Rh18  1  0.000000  0.750000  0.750000  1
  Rh  Rh19  1  0.747258  0.140801  0.606457  1
