# generated using pymatgen
data_CeVO3
_symmetry_space_group_name_H-M   'P 1'
_cell_length_a   5.43629904
_cell_length_b   5.79930492
_cell_length_c   7.83743026
_cell_angle_alpha   90.00000000
_cell_angle_beta   90.00000000
_cell_angle_gamma   90.00000000
_symmetry_Int_Tables_number   1
_chemical_formula_structural   CeVO3
_chemical_formula_sum   'Ce4 V4 O12'
_cell_volume   247.08874968
_cell_formula_units_Z   4
loop_
 _symmetry_equiv_pos_site_id
 _symmetry_equiv_pos_as_xyz
  1  'x, y, z'
loop_
 _atom_site_type_symbol
 _atom_site_label
 _atom_site_symmetry_multiplicity
 _atom_site_fract_x
 _atom_site_fract_y
 _atom_site_fract_z
 _atom_site_occupancy
  Ce  Ce0  1  0.520103  0.068632  0.750000  1
  Ce  Ce1  1  0.020103  0.431368  0.250000  1
  Ce  Ce2  1  0.479897  0.931368  0.250000  1
  Ce  Ce3  1  0.979897  0.568632  0.750000  1
  V  V4  1  0.000000  0.000000  0.000000  1
  V  V5  1  0.500000  0.500000  0.000000  1
  V  V6  1  0.000000  0.000000  0.500000  1
  V  V7  1  0.500000  0.500000  0.500000  1
  O  O8  1  0.189254  0.693524  0.060389  1
  O  O9  1  0.689254  0.806476  0.939611  1
  O  O10  1  0.810746  0.306476  0.939611  1
  O  O11  1  0.310746  0.193524  0.060389  1
  O  O12  1  0.810746  0.306476  0.560389  1
  O  O13  1  0.310746  0.193524  0.439611  1
  O  O14  1  0.189254  0.693524  0.439611  1
  O  O15  1  0.689254  0.806476  0.560389  1
  O  O16  1  0.118599  0.954017  0.750000  1
  O  O17  1  0.618599  0.545983  0.250000  1
  O  O18  1  0.881401  0.045983  0.250000  1
  O  O19  1  0.381401  0.454017  0.750000  1
