# generated using pymatgen
data_Ba3(SiAs2)2
_symmetry_space_group_name_H-M   'P 1'
_cell_length_a   10.08926055
_cell_length_b   10.08926055
_cell_length_c   7.83271001
_cell_angle_alpha   74.99037488
_cell_angle_beta   105.00962512
_cell_angle_gamma   57.33185001
_symmetry_Int_Tables_number   1
_chemical_formula_structural   Ba3(SiAs2)2
_chemical_formula_sum   'Ba6 Si4 As8'
_cell_volume   564.96864875
_cell_formula_units_Z   2
loop_
 _symmetry_equiv_pos_site_id
 _symmetry_equiv_pos_as_xyz
  1  'x, y, z'
loop_
 _atom_site_type_symbol
 _atom_site_label
 _atom_site_symmetry_multiplicity
 _atom_site_fract_x
 _atom_site_fract_y
 _atom_site_fract_z
 _atom_site_occupancy
  Ba  Ba0  1  0.942201  0.942200  0.750000  1
  Ba  Ba1  1  0.057800  0.057799  0.250000  1
  Ba  Ba2  1  0.564584  0.564584  0.250000  1
  Ba  Ba3  1  0.435416  0.435416  0.750000  1
  Ba  Ba4  1  0.810310  0.810310  0.250000  1
  Ba  Ba5  1  0.189690  0.189690  0.750000  1
  Si  Si6  1  0.170432  0.466016  0.156571  1
  Si  Si7  1  0.466016  0.170432  0.343429  1
  Si  Si8  1  0.829568  0.533984  0.843429  1
  Si  Si9  1  0.533984  0.829568  0.656571  1
  As  As10  1  0.950920  0.445521  0.203490  1
  As  As11  1  0.445521  0.950920  0.296510  1
  As  As12  1  0.666216  0.188455  0.254223  1
  As  As13  1  0.188455  0.666216  0.245777  1
  As  As14  1  0.333784  0.811545  0.745777  1
  As  As15  1  0.811545  0.333784  0.754223  1
  As  As16  1  0.554479  0.049080  0.703490  1
  As  As17  1  0.049080  0.554479  0.796510  1
