# generated using pymatgen
data_Ti3Rh5
_symmetry_space_group_name_H-M   'P 1'
_cell_length_a   4.13240270
_cell_length_b   5.42380116
_cell_length_c   10.52923080
_cell_angle_alpha   90.00000000
_cell_angle_beta   90.00000000
_cell_angle_gamma   90.00000000
_symmetry_Int_Tables_number   1
_chemical_formula_structural   Ti3Rh5
_chemical_formula_sum   'Ti6 Rh10'
_cell_volume   235.99513044
_cell_formula_units_Z   2
loop_
 _symmetry_equiv_pos_site_id
 _symmetry_equiv_pos_as_xyz
  1  'x, y, z'
loop_
 _atom_site_type_symbol
 _atom_site_label
 _atom_site_symmetry_multiplicity
 _atom_site_fract_x
 _atom_site_fract_y
 _atom_site_fract_z
 _atom_site_occupancy
  Ti  Ti0  1  0.000000  0.000000  0.000000  1
  Ti  Ti1  1  0.000000  0.500000  0.500000  1
  Ti  Ti2  1  0.500000  0.339781  0.143740  1
  Ti  Ti3  1  0.500000  0.660219  0.856260  1
  Ti  Ti4  1  0.500000  0.839781  0.356260  1
  Ti  Ti5  1  0.500000  0.160219  0.643740  1
  Rh  Rh6  1  0.000000  0.000000  0.500000  1
  Rh  Rh7  1  0.000000  0.500000  0.000000  1
  Rh  Rh8  1  0.000000  0.102986  0.236018  1
  Rh  Rh9  1  0.000000  0.897014  0.763982  1
  Rh  Rh10  1  0.000000  0.602986  0.263982  1
  Rh  Rh11  1  0.000000  0.397014  0.736018  1
  Rh  Rh12  1  0.500000  0.313734  0.392890  1
  Rh  Rh13  1  0.500000  0.686266  0.607110  1
  Rh  Rh14  1  0.500000  0.813734  0.107110  1
  Rh  Rh15  1  0.500000  0.186266  0.892890  1
