# generated using pymatgen
data_Ba3Si2(B3O8)2
_symmetry_space_group_name_H-M   'P 1'
_cell_length_a   5.08358952
_cell_length_b   7.68193842
_cell_length_c   8.63007951
_cell_angle_alpha   102.81904334
_cell_angle_beta   102.29816847
_cell_angle_gamma   87.29315384
_symmetry_Int_Tables_number   1
_chemical_formula_structural   Ba3Si2(B3O8)2
_chemical_formula_sum   'Ba3 Si2 B6 O16'
_cell_volume   321.07926513
_cell_formula_units_Z   1
loop_
 _symmetry_equiv_pos_site_id
 _symmetry_equiv_pos_as_xyz
  1  'x, y, z'
loop_
 _atom_site_type_symbol
 _atom_site_label
 _atom_site_symmetry_multiplicity
 _atom_site_fract_x
 _atom_site_fract_y
 _atom_site_fract_z
 _atom_site_occupancy
  Ba  Ba0  1  0.500000  0.000000  0.500000  1
  Ba  Ba1  1  0.381360  0.420258  0.234917  1
  Ba  Ba2  1  0.618640  0.579742  0.765083  1
  Si  Si3  1  0.759578  0.173858  0.940019  1
  Si  Si4  1  0.240422  0.826142  0.059981  1
  B  B5  1  0.183563  0.239070  0.796089  1
  B  B6  1  0.816437  0.760930  0.203911  1
  B  B7  1  0.031065  0.697052  0.475776  1
  B  B8  1  0.968935  0.302948  0.524224  1
  B  B9  1  0.978066  0.090509  0.246297  1
  B  B10  1  0.021934  0.909491  0.753703  1
  O  O11  1  0.785414  0.178125  0.133080  1
  O  O12  1  0.214586  0.821875  0.866920  1
  O  O13  1  0.854878  0.641966  0.322110  1
  O  O14  1  0.145122  0.358034  0.677890  1
  O  O15  1  0.002077  0.294088  0.914764  1
  O  O16  1  0.997923  0.705912  0.085236  1
  O  O17  1  0.094641  0.226401  0.394984  1
  O  O18  1  0.905359  0.773599  0.605016  1
  O  O19  1  0.298742  0.675599  0.494097  1
  O  O20  1  0.701258  0.324401  0.505903  1
  O  O21  1  0.528187  0.726613  0.111139  1
  O  O22  1  0.471813  0.273387  0.888861  1
  O  O23  1  0.136271  0.054701  0.706343  1
  O  O24  1  0.863729  0.945299  0.293657  1
  O  O25  1  0.220987  0.027137  0.173012  1
  O  O26  1  0.779013  0.972863  0.826988  1
