# generated using pymatgen
data_MnAsRu
_symmetry_space_group_name_H-M   'P 1'
_cell_length_a   6.54934941
_cell_length_b   6.54934941
_cell_length_c   3.61019579
_cell_angle_alpha   90.00000000
_cell_angle_beta   90.00000000
_cell_angle_gamma   120.00000000
_symmetry_Int_Tables_number   1
_chemical_formula_structural   MnAsRu
_chemical_formula_sum   'Mn3 As3 Ru3'
_cell_volume   134.10893358
_cell_formula_units_Z   3
loop_
 _symmetry_equiv_pos_site_id
 _symmetry_equiv_pos_as_xyz
  1  'x, y, z'
loop_
 _atom_site_type_symbol
 _atom_site_label
 _atom_site_symmetry_multiplicity
 _atom_site_fract_x
 _atom_site_fract_y
 _atom_site_fract_z
 _atom_site_occupancy
  Mn  Mn0  1  0.595843  0.000000  0.000000  1
  Mn  Mn1  1  0.404157  0.404157  0.000000  1
  Mn  Mn2  1  0.000000  0.595843  0.000000  1
  As  As3  1  0.333333  0.666667  0.500000  1
  As  As4  1  0.666667  0.333333  0.500000  1
  As  As5  1  0.000000  0.000000  0.000000  1
  Ru  Ru6  1  0.000000  0.257659  0.500000  1
  Ru  Ru7  1  0.257659  0.000000  0.500000  1
  Ru  Ru8  1  0.742341  0.742341  0.500000  1
