# generated using pymatgen
data_Ca3Mn2O7
_symmetry_space_group_name_H-M   'P 1'
_cell_length_a   10.01330724
_cell_length_b   10.01330724
_cell_length_c   5.33646457
_cell_angle_alpha   90.00000000
_cell_angle_beta   90.00000000
_cell_angle_gamma   148.47817035
_symmetry_Int_Tables_number   1
_chemical_formula_structural   Ca3Mn2O7
_chemical_formula_sum   'Ca6 Mn4 O14'
_cell_volume   279.74589099
_cell_formula_units_Z   2
loop_
 _symmetry_equiv_pos_site_id
 _symmetry_equiv_pos_as_xyz
  1  'x, y, z'
loop_
 _atom_site_type_symbol
 _atom_site_label
 _atom_site_symmetry_multiplicity
 _atom_site_fract_x
 _atom_site_fract_y
 _atom_site_fract_z
 _atom_site_occupancy
  Ca  Ca0  1  0.741089  0.741089  0.250000  1
  Ca  Ca1  1  0.258911  0.258911  0.750000  1
  Ca  Ca2  1  0.923450  0.551037  0.250000  1
  Ca  Ca3  1  0.551037  0.923450  0.250000  1
  Ca  Ca4  1  0.448963  0.076550  0.750000  1
  Ca  Ca5  1  0.076550  0.448963  0.750000  1
  Mn  Mn6  1  0.149367  0.347068  0.250000  1
  Mn  Mn7  1  0.347068  0.149367  0.250000  1
  Mn  Mn8  1  0.850633  0.652932  0.750000  1
  Mn  Mn9  1  0.652932  0.850633  0.750000  1
  O  O10  1  0.492802  0.886356  0.750000  1
  O  O11  1  0.886356  0.492802  0.750000  1
  O  O12  1  0.507198  0.113644  0.250000  1
  O  O13  1  0.113644  0.507198  0.250000  1
  O  O14  1  0.418182  0.581818  0.500000  1
  O  O15  1  0.581818  0.418182  0.000000  1
  O  O16  1  0.581818  0.418182  0.500000  1
  O  O17  1  0.418182  0.581818  0.000000  1
  O  O18  1  0.883830  0.116170  0.500000  1
  O  O19  1  0.116170  0.883830  0.000000  1
  O  O20  1  0.168051  0.168051  0.250000  1
  O  O21  1  0.831949  0.831949  0.750000  1
  O  O22  1  0.883830  0.116170  0.000000  1
  O  O23  1  0.116170  0.883830  0.500000  1
