# generated using pymatgen
data_LiV2O4
_symmetry_space_group_name_H-M   'P 1'
_cell_length_a   5.92526569
_cell_length_b   5.92526569
_cell_length_c   5.92526569
_cell_angle_alpha   60.00000000
_cell_angle_beta   60.00000000
_cell_angle_gamma   60.00000000
_symmetry_Int_Tables_number   1
_chemical_formula_structural   LiV2O4
_chemical_formula_sum   'Li2 V4 O8'
_cell_volume   147.09858300
_cell_formula_units_Z   2
loop_
 _symmetry_equiv_pos_site_id
 _symmetry_equiv_pos_as_xyz
  1  'x, y, z'
loop_
 _atom_site_type_symbol
 _atom_site_label
 _atom_site_symmetry_multiplicity
 _atom_site_fract_x
 _atom_site_fract_y
 _atom_site_fract_z
 _atom_site_occupancy
  Li  Li0  1  0.250000  0.250000  0.250000  1
  Li  Li1  1  1.000000  1.000000  1.000000  1
  V  V2  1  0.125000  0.625000  0.625000  1
  V  V3  1  0.625000  0.625000  0.125000  1
  V  V4  1  0.625000  0.625000  0.625000  1
  V  V5  1  0.625000  0.125000  0.625000  1
  O  O6  1  0.864023  0.407931  0.864023  1
  O  O7  1  0.864023  0.864023  0.864023  1
  O  O8  1  0.385977  0.842069  0.385977  1
  O  O9  1  0.385977  0.385977  0.385977  1
  O  O10  1  0.385977  0.385977  0.842069  1
  O  O11  1  0.407931  0.864023  0.864023  1
  O  O12  1  0.864023  0.864023  0.407931  1
  O  O13  1  0.842069  0.385977  0.385977  1
