# generated using pymatgen
data_Ca3FeRhO6
_symmetry_space_group_name_H-M   'P 1'
_cell_length_a   6.46359782
_cell_length_b   6.46359782
_cell_length_c   6.46359782
_cell_angle_alpha   91.32262415
_cell_angle_beta   91.32262415
_cell_angle_gamma   91.32262415
_symmetry_Int_Tables_number   1
_chemical_formula_structural   Ca3FeRhO6
_chemical_formula_sum   'Ca6 Fe2 Rh2 O12'
_cell_volume   269.81759941
_cell_formula_units_Z   2
loop_
 _symmetry_equiv_pos_site_id
 _symmetry_equiv_pos_as_xyz
  1  'x, y, z'
loop_
 _atom_site_type_symbol
 _atom_site_label
 _atom_site_symmetry_multiplicity
 _atom_site_fract_x
 _atom_site_fract_y
 _atom_site_fract_z
 _atom_site_occupancy
  Ca  Ca0  1  0.250000  0.882616  0.617384  1
  Ca  Ca1  1  0.882616  0.617384  0.250000  1
  Ca  Ca2  1  0.617384  0.250000  0.882616  1
  Ca  Ca3  1  0.750000  0.117384  0.382616  1
  Ca  Ca4  1  0.382616  0.750000  0.117384  1
  Ca  Ca5  1  0.117384  0.382616  0.750000  1
  Fe  Fe6  1  0.250000  0.250000  0.250000  1
  Fe  Fe7  1  0.750000  0.750000  0.750000  1
  Rh  Rh8  1  0.000000  0.000000  0.000000  1
  Rh  Rh9  1  0.500000  0.500000  0.500000  1
  O  O10  1  0.463245  0.601135  0.799688  1
  O  O11  1  0.799688  0.463245  0.601135  1
  O  O12  1  0.601135  0.799688  0.463245  1
  O  O13  1  0.700312  0.898865  0.036755  1
  O  O14  1  0.036755  0.700312  0.898865  1
  O  O15  1  0.898865  0.036755  0.700312  1
  O  O16  1  0.536755  0.398865  0.200312  1
  O  O17  1  0.200312  0.536755  0.398865  1
  O  O18  1  0.398865  0.200312  0.536755  1
  O  O19  1  0.299688  0.101135  0.963245  1
  O  O20  1  0.101135  0.963245  0.299688  1
  O  O21  1  0.963245  0.299688  0.101135  1
