# generated using pymatgen
data_Rb3Sm(PS4)2
_symmetry_space_group_name_H-M   'P 1'
_cell_length_a   9.89442759
_cell_length_b   6.89574288
_cell_length_c   11.82387846
_cell_angle_alpha   90.00000000
_cell_angle_beta   90.67454037
_cell_angle_gamma   90.00000000
_symmetry_Int_Tables_number   1
_chemical_formula_structural   Rb3Sm(PS4)2
_chemical_formula_sum   'Rb6 Sm2 P4 S16'
_cell_volume   806.68056416
_cell_formula_units_Z   2
loop_
 _symmetry_equiv_pos_site_id
 _symmetry_equiv_pos_as_xyz
  1  'x, y, z'
loop_
 _atom_site_type_symbol
 _atom_site_label
 _atom_site_symmetry_multiplicity
 _atom_site_fract_x
 _atom_site_fract_y
 _atom_site_fract_z
 _atom_site_occupancy
  Rb  Rb0  1  0.355552  0.802679  0.903259  1
  Rb  Rb1  1  0.644448  0.302679  0.096741  1
  Rb  Rb2  1  0.825653  0.307346  0.585528  1
  Rb  Rb3  1  0.174347  0.807346  0.414472  1
  Rb  Rb4  1  0.607942  0.808560  0.350492  1
  Rb  Rb5  1  0.392058  0.308560  0.649508  1
  Sm  Sm6  1  0.884116  0.786904  0.852902  1
  Sm  Sm7  1  0.115884  0.286904  0.147098  1
  P  P8  1  0.627315  0.808568  0.691711  1
  P  P9  1  0.915011  0.830400  0.154413  1
  P  P10  1  0.084989  0.330400  0.845587  1
  P  P11  1  0.372685  0.308568  0.308289  1
  S  S12  1  0.909595  0.064807  0.261445  1
  S  S13  1  0.090405  0.564807  0.738555  1
  S  S14  1  0.738456  0.805935  0.062484  1
  S  S15  1  0.261544  0.305935  0.937516  1
  S  S16  1  0.053470  0.085357  0.750915  1
  S  S17  1  0.064753  0.894878  0.039722  1
  S  S18  1  0.946530  0.585357  0.249085  1
  S  S19  1  0.935247  0.394878  0.960278  1
  S  S20  1  0.201579  0.305106  0.405412  1
  S  S21  1  0.798421  0.805106  0.594588  1
  S  S22  1  0.347250  0.542965  0.201933  1
  S  S23  1  0.652750  0.042965  0.798067  1
  S  S24  1  0.552784  0.314873  0.390839  1
  S  S25  1  0.447216  0.814873  0.609161  1
  S  S26  1  0.354826  0.063901  0.207305  1
  S  S27  1  0.645174  0.563901  0.792695  1
