# generated using pymatgen
data_US3
_symmetry_space_group_name_H-M   'P 1'
_cell_length_a   5.41740067
_cell_length_b   3.92245274
_cell_length_c   9.61122157
_cell_angle_alpha   90.00000000
_cell_angle_beta   97.21934032
_cell_angle_gamma   90.00000000
_symmetry_Int_Tables_number   1
_chemical_formula_structural   US3
_chemical_formula_sum   'U2 S6'
_cell_volume   202.61453928
_cell_formula_units_Z   2
loop_
 _symmetry_equiv_pos_site_id
 _symmetry_equiv_pos_as_xyz
  1  'x, y, z'
loop_
 _atom_site_type_symbol
 _atom_site_label
 _atom_site_symmetry_multiplicity
 _atom_site_fract_x
 _atom_site_fract_y
 _atom_site_fract_z
 _atom_site_occupancy
  U  U0  1  0.719426  0.250000  0.862978  1
  U  U1  1  0.280574  0.750000  0.137022  1
  S  S2  1  0.128569  0.250000  0.310691  1
  S  S3  1  0.871431  0.750000  0.689309  1
  S  S4  1  0.489788  0.750000  0.689283  1
  S  S5  1  0.510212  0.250000  0.310717  1
  S  S6  1  0.764255  0.750000  0.063958  1
  S  S7  1  0.235745  0.250000  0.936042  1
