# generated using pymatgen
data_EuRhO3
_symmetry_space_group_name_H-M   'P 1'
_cell_length_a   5.41266687
_cell_length_b   5.83691731
_cell_length_c   7.81814467
_cell_angle_alpha   90.00000000
_cell_angle_beta   90.00000000
_cell_angle_gamma   90.00000000
_symmetry_Int_Tables_number   1
_chemical_formula_structural   EuRhO3
_chemical_formula_sum   'Eu4 Rh4 O12'
_cell_volume   247.00090359
_cell_formula_units_Z   4
loop_
 _symmetry_equiv_pos_site_id
 _symmetry_equiv_pos_as_xyz
  1  'x, y, z'
loop_
 _atom_site_type_symbol
 _atom_site_label
 _atom_site_symmetry_multiplicity
 _atom_site_fract_x
 _atom_site_fract_y
 _atom_site_fract_z
 _atom_site_occupancy
  Eu  Eu0  1  0.024826  0.075338  0.750000  1
  Eu  Eu1  1  0.975174  0.924662  0.250000  1
  Eu  Eu2  1  0.524826  0.424662  0.250000  1
  Eu  Eu3  1  0.475174  0.575338  0.750000  1
  Rh  Rh4  1  0.500000  0.000000  0.500000  1
  Rh  Rh5  1  0.000000  0.500000  0.000000  1
  Rh  Rh6  1  0.000000  0.500000  0.500000  1
  Rh  Rh7  1  0.500000  0.000000  0.000000  1
  O  O8  1  0.186727  0.803811  0.553175  1
  O  O9  1  0.889370  0.464271  0.750000  1
  O  O10  1  0.389370  0.035729  0.250000  1
  O  O11  1  0.686727  0.696189  0.446825  1
  O  O12  1  0.813273  0.196189  0.053175  1
  O  O13  1  0.313273  0.303811  0.946825  1
  O  O14  1  0.610630  0.964271  0.750000  1
  O  O15  1  0.313273  0.303811  0.553175  1
  O  O16  1  0.110630  0.535729  0.250000  1
  O  O17  1  0.813273  0.196189  0.446825  1
  O  O18  1  0.186727  0.803811  0.946825  1
  O  O19  1  0.686727  0.696189  0.053175  1
