# generated using pymatgen
data_SmSi3Pt5
_symmetry_space_group_name_H-M   'P 1'
_cell_length_a   16.05358575
_cell_length_b   16.05358575
_cell_length_c   4.00916739
_cell_angle_alpha   90.00000000
_cell_angle_beta   90.00000000
_cell_angle_gamma   120.00000000
_symmetry_Int_Tables_number   1
_chemical_formula_structural   SmSi3Pt5
_chemical_formula_sum   'Sm6 Si18 Pt30'
_cell_volume   894.80607769
_cell_formula_units_Z   6
loop_
 _symmetry_equiv_pos_site_id
 _symmetry_equiv_pos_as_xyz
  1  'x, y, z'
loop_
 _atom_site_type_symbol
 _atom_site_label
 _atom_site_symmetry_multiplicity
 _atom_site_fract_x
 _atom_site_fract_y
 _atom_site_fract_z
 _atom_site_occupancy
  Sm  Sm0  1  0.609399  0.903245  0.250000  1
  Sm  Sm1  1  0.706154  0.609399  0.750000  1
  Sm  Sm2  1  0.903245  0.293846  0.750000  1
  Sm  Sm3  1  0.096755  0.706154  0.250000  1
  Sm  Sm4  1  0.293846  0.390601  0.250000  1
  Sm  Sm5  1  0.390601  0.096755  0.750000  1
  Si  Si6  1  0.448992  0.767187  0.750000  1
  Si  Si7  1  0.626776  0.060905  0.750000  1
  Si  Si8  1  0.565871  0.626776  0.250000  1
  Si  Si9  1  0.060905  0.434129  0.250000  1
  Si  Si10  1  0.939095  0.565871  0.750000  1
  Si  Si11  1  0.434129  0.373224  0.750000  1
  Si  Si12  1  0.681805  0.448992  0.250000  1
  Si  Si13  1  0.767187  0.318195  0.250000  1
  Si  Si14  1  0.232813  0.681805  0.750000  1
  Si  Si15  1  0.318195  0.551008  0.750000  1
  Si  Si16  1  0.551008  0.232813  0.250000  1
  Si  Si17  1  0.373224  0.939095  0.250000  1
  Si  Si18  1  0.750910  0.883028  0.750000  1
  Si  Si19  1  0.883028  0.132118  0.250000  1
  Si  Si20  1  0.116972  0.867882  0.750000  1
  Si  Si21  1  0.132118  0.249090  0.750000  1
  Si  Si22  1  0.249090  0.116972  0.250000  1
  Si  Si23  1  0.867882  0.750910  0.250000  1
  Pt  Pt24  1  0.588475  0.744613  0.750000  1
  Pt  Pt25  1  0.435401  0.665116  0.250000  1
  Pt  Pt26  1  0.229715  0.564599  0.250000  1
  Pt  Pt27  1  0.665116  0.229715  0.750000  1
  Pt  Pt28  1  0.564599  0.334884  0.750000  1
  Pt  Pt29  1  0.334884  0.770285  0.250000  1
  Pt  Pt30  1  0.149678  0.031563  0.750000  1
  Pt  Pt31  1  0.118115  0.149678  0.250000  1
  Pt  Pt32  1  0.031563  0.881885  0.250000  1
  Pt  Pt33  1  0.968437  0.118115  0.750000  1
  Pt  Pt34  1  0.881885  0.850322  0.750000  1
  Pt  Pt35  1  0.850322  0.968437  0.250000  1
  Pt  Pt36  1  0.843861  0.588475  0.250000  1
  Pt  Pt37  1  0.744613  0.156139  0.250000  1
  Pt  Pt38  1  0.255387  0.843861  0.750000  1
  Pt  Pt39  1  0.156139  0.411525  0.750000  1
  Pt  Pt40  1  0.411525  0.255387  0.250000  1
  Pt  Pt41  1  0.465806  0.923529  0.750000  1
  Pt  Pt42  1  0.542277  0.465806  0.250000  1
  Pt  Pt43  1  0.923529  0.457723  0.250000  1
  Pt  Pt44  1  0.076471  0.542277  0.750000  1
  Pt  Pt45  1  0.457723  0.534194  0.750000  1
  Pt  Pt46  1  0.534194  0.076471  0.250000  1
  Pt  Pt47  1  0.724143  0.764620  0.250000  1
  Pt  Pt48  1  0.959523  0.724143  0.750000  1
  Pt  Pt49  1  0.764620  0.040477  0.750000  1
  Pt  Pt50  1  0.235380  0.959523  0.250000  1
  Pt  Pt51  1  0.040477  0.275857  0.250000  1
  Pt  Pt52  1  0.275857  0.235380  0.750000  1
  Pt  Pt53  1  0.770285  0.435401  0.750000  1
