# generated using pymatgen
data_Li(CN)2
_symmetry_space_group_name_H-M   'P 1'
_cell_length_a   6.28324937
_cell_length_b   6.28324937
_cell_length_c   3.47650772
_cell_angle_alpha   84.17656738
_cell_angle_beta   95.82343262
_cell_angle_gamma   74.10360080
_symmetry_Int_Tables_number   1
_chemical_formula_structural   Li(CN)2
_chemical_formula_sum   'Li2 C4 N4'
_cell_volume   130.11619466
_cell_formula_units_Z   2
loop_
 _symmetry_equiv_pos_site_id
 _symmetry_equiv_pos_as_xyz
  1  'x, y, z'
loop_
 _atom_site_type_symbol
 _atom_site_label
 _atom_site_symmetry_multiplicity
 _atom_site_fract_x
 _atom_site_fract_y
 _atom_site_fract_z
 _atom_site_occupancy
  Li  Li0  1  0.360162  0.360162  0.500000  1
  Li  Li1  1  0.639838  0.639838  0.500000  1
  C  C2  1  0.117289  0.117289  0.000000  1
  C  C3  1  0.856442  0.143558  0.810381  1
  C  C4  1  0.882711  0.882711  0.000000  1
  C  C5  1  0.143558  0.856442  0.189619  1
  N  N6  1  0.296486  0.703514  0.354858  1
  N  N7  1  0.762714  0.762714  0.000000  1
  N  N8  1  0.237286  0.237286  0.000000  1
  N  N9  1  0.703514  0.296486  0.645142  1
