# generated using pymatgen
data_GdGaO3
_symmetry_space_group_name_H-M   'P 1'
_cell_length_a   5.37317138
_cell_length_b   5.61965195
_cell_length_c   7.70335431
_cell_angle_alpha   90.00000000
_cell_angle_beta   90.00000000
_cell_angle_gamma   90.00000000
_symmetry_Int_Tables_number   1
_chemical_formula_structural   GdGaO3
_chemical_formula_sum   'Gd4 Ga4 O12'
_cell_volume   232.60550285
_cell_formula_units_Z   4
loop_
 _symmetry_equiv_pos_site_id
 _symmetry_equiv_pos_as_xyz
  1  'x, y, z'
loop_
 _atom_site_type_symbol
 _atom_site_label
 _atom_site_symmetry_multiplicity
 _atom_site_fract_x
 _atom_site_fract_y
 _atom_site_fract_z
 _atom_site_occupancy
  Gd  Gd0  1  0.016917  0.936924  0.750000  1
  Gd  Gd1  1  0.516917  0.563076  0.250000  1
  Gd  Gd2  1  0.483083  0.436924  0.750000  1
  Gd  Gd3  1  0.983083  0.063076  0.250000  1
  Ga  Ga4  1  0.000000  0.500000  0.500000  1
  Ga  Ga5  1  0.500000  0.000000  0.500000  1
  Ga  Ga6  1  0.500000  0.000000  0.000000  1
  Ga  Ga7  1  0.000000  0.500000  0.000000  1
  O  O8  1  0.698722  0.301024  0.447091  1
  O  O9  1  0.198722  0.198976  0.552909  1
  O  O10  1  0.801278  0.801025  0.052909  1
  O  O11  1  0.301278  0.698975  0.947091  1
  O  O12  1  0.301278  0.698975  0.552909  1
  O  O13  1  0.801278  0.801025  0.447091  1
  O  O14  1  0.198722  0.198976  0.947091  1
  O  O15  1  0.698722  0.301024  0.052909  1
  O  O16  1  0.101968  0.467668  0.250000  1
  O  O17  1  0.601968  0.032332  0.750000  1
  O  O18  1  0.398032  0.967668  0.250000  1
  O  O19  1  0.898032  0.532332  0.750000  1
