# generated using pymatgen
data_Ca2Ga2O5
_symmetry_space_group_name_H-M   'P 1'
_cell_length_a   8.33177427
_cell_length_b   8.33177427
_cell_length_c   8.33177427
_cell_angle_alpha   141.95857441
_cell_angle_beta   140.36649073
_cell_angle_gamma   56.10271816
_symmetry_Int_Tables_number   1
_chemical_formula_structural   Ca2Ga2O5
_chemical_formula_sum   'Ca4 Ga4 O10'
_cell_volume   225.58707100
_cell_formula_units_Z   2
loop_
 _symmetry_equiv_pos_site_id
 _symmetry_equiv_pos_as_xyz
  1  'x, y, z'
loop_
 _atom_site_type_symbol
 _atom_site_label
 _atom_site_symmetry_multiplicity
 _atom_site_fract_x
 _atom_site_fract_y
 _atom_site_fract_z
 _atom_site_occupancy
  Ca  Ca0  1  0.079176  0.623350  0.487299  1
  Ca  Ca1  1  0.920824  0.408124  0.544175  1
  Ca  Ca2  1  0.636051  0.123350  0.544175  1
  Ca  Ca3  1  0.363949  0.908124  0.487299  1
  Ga  Ga4  1  0.679467  0.796413  0.975879  1
  Ga  Ga5  1  0.320533  0.296413  0.116946  1
  Ga  Ga6  1  0.500000  0.502367  0.002367  1
  Ga  Ga7  1  0.000000  0.002367  0.002367  1
  O  O8  1  0.269977  0.768894  0.008741  1
  O  O9  1  0.730023  0.738763  0.498917  1
  O  O10  1  0.260153  0.268894  0.498917  1
  O  O11  1  0.739847  0.238763  0.008741  1
  O  O12  1  0.373685  0.646408  0.520093  1
  O  O13  1  0.626315  0.146408  0.272723  1
  O  O14  1  0.285021  0.324525  0.893077  1
  O  O15  1  0.714979  0.608056  0.039504  1
  O  O16  1  0.068552  0.108056  0.893077  1
  O  O17  1  0.931448  0.824525  0.039504  1
