# generated using pymatgen
data_K3NaTh2O6
_symmetry_space_group_name_H-M   'P 1'
_cell_length_a   6.34505036
_cell_length_b   6.34505036
_cell_length_c   12.76951533
_cell_angle_alpha   85.23810451
_cell_angle_beta   94.76189549
_cell_angle_gamma   59.97303070
_symmetry_Int_Tables_number   1
_chemical_formula_structural   K3NaTh2O6
_chemical_formula_sum   'K6 Na2 Th4 O12'
_cell_volume   438.91673801
_cell_formula_units_Z   2
loop_
 _symmetry_equiv_pos_site_id
 _symmetry_equiv_pos_as_xyz
  1  'x, y, z'
loop_
 _atom_site_type_symbol
 _atom_site_label
 _atom_site_symmetry_multiplicity
 _atom_site_fract_x
 _atom_site_fract_y
 _atom_site_fract_z
 _atom_site_occupancy
  K  K0  1  0.000000  0.500000  0.500000  1
  K  K1  1  0.500000  1.000000  0.000000  1
  K  K2  1  0.687280  0.156434  0.500188  1
  K  K3  1  0.156434  0.687280  0.999812  1
  K  K4  1  0.843566  0.312720  0.000188  1
  K  K5  1  0.312720  0.843566  0.499812  1
  Na  Na6  1  0.915737  0.915737  0.250000  1
  Na  Na7  1  0.084263  0.084263  0.750000  1
  Th  Th8  1  0.750094  0.750094  0.750000  1
  Th  Th9  1  0.249906  0.249906  0.250000  1
  Th  Th10  1  0.417310  0.417310  0.750000  1
  Th  Th11  1  0.582690  0.582690  0.250000  1
  O  O12  1  0.421686  0.116461  0.653111  1
  O  O13  1  0.116461  0.421686  0.846889  1
  O  O14  1  0.578314  0.883539  0.346889  1
  O  O15  1  0.883539  0.578314  0.153111  1
  O  O16  1  0.680643  0.487166  0.652718  1
  O  O17  1  0.487166  0.680643  0.847282  1
  O  O18  1  0.252268  0.948680  0.153029  1
  O  O19  1  0.512834  0.319357  0.152718  1
  O  O20  1  0.051320  0.747732  0.653029  1
  O  O21  1  0.747732  0.051320  0.846971  1
  O  O22  1  0.948680  0.252268  0.346971  1
  O  O23  1  0.319357  0.512834  0.347282  1
