# generated using pymatgen
data_YInPt
_symmetry_space_group_name_H-M   'P 1'
_cell_length_a   7.73064214
_cell_length_b   7.73064214
_cell_length_c   3.85782069
_cell_angle_alpha   90.00000000
_cell_angle_beta   90.00000000
_cell_angle_gamma   120.00000000
_symmetry_Int_Tables_number   1
_chemical_formula_structural   YInPt
_chemical_formula_sum   'Y3 In3 Pt3'
_cell_volume   199.66585845
_cell_formula_units_Z   3
loop_
 _symmetry_equiv_pos_site_id
 _symmetry_equiv_pos_as_xyz
  1  'x, y, z'
loop_
 _atom_site_type_symbol
 _atom_site_label
 _atom_site_symmetry_multiplicity
 _atom_site_fract_x
 _atom_site_fract_y
 _atom_site_fract_z
 _atom_site_occupancy
  Y  Y0  1  0.406849  0.000000  0.500000  1
  Y  Y1  1  0.000000  0.406849  0.500000  1
  Y  Y2  1  0.593151  0.593151  0.500000  1
  In  In3  1  0.739564  0.000000  0.000000  1
  In  In4  1  0.260436  0.260436  0.000000  1
  In  In5  1  0.000000  0.739564  0.000000  1
  Pt  Pt6  1  0.000000  0.000000  0.500000  1
  Pt  Pt7  1  0.666667  0.333333  0.000000  1
  Pt  Pt8  1  0.333333  0.666667  0.000000  1
