# generated using pymatgen
data_CsLi4(BO2)5
_symmetry_space_group_name_H-M   'P 1'
_cell_length_a   7.02004043
_cell_length_b   9.49721990
_cell_length_c   16.29024124
_cell_angle_alpha   90.00000000
_cell_angle_beta   98.05099826
_cell_angle_gamma   90.00000000
_symmetry_Int_Tables_number   1
_chemical_formula_structural   CsLi4(BO2)5
_chemical_formula_sum   'Cs4 Li16 B20 O40'
_cell_volume   1075.37985282
_cell_formula_units_Z   4
loop_
 _symmetry_equiv_pos_site_id
 _symmetry_equiv_pos_as_xyz
  1  'x, y, z'
loop_
 _atom_site_type_symbol
 _atom_site_label
 _atom_site_symmetry_multiplicity
 _atom_site_fract_x
 _atom_site_fract_y
 _atom_site_fract_z
 _atom_site_occupancy
  Cs  Cs0  1  0.594758  0.202498  0.131978  1
  Cs  Cs1  1  0.405242  0.702498  0.368022  1
  Cs  Cs2  1  0.405242  0.797502  0.868022  1
  Cs  Cs3  1  0.594758  0.297502  0.631978  1
  Li  Li4  1  0.961163  0.722527  0.180176  1
  Li  Li5  1  0.038837  0.222527  0.319824  1
  Li  Li6  1  0.038837  0.277473  0.819824  1
  Li  Li7  1  0.961163  0.777473  0.680176  1
  Li  Li8  1  0.048791  0.144559  0.968330  1
  Li  Li9  1  0.951209  0.644559  0.531670  1
  Li  Li10  1  0.951209  0.855441  0.031670  1
  Li  Li11  1  0.048791  0.355441  0.468330  1
  Li  Li12  1  0.002412  0.419896  0.072606  1
  Li  Li13  1  0.997588  0.919896  0.427394  1
  Li  Li14  1  0.997588  0.580104  0.927394  1
  Li  Li15  1  0.002412  0.080104  0.572606  1
  Li  Li16  1  0.723053  0.592577  0.056101  1
  Li  Li17  1  0.276947  0.092577  0.443899  1
  Li  Li18  1  0.276947  0.407423  0.943899  1
  Li  Li19  1  0.723053  0.907423  0.556101  1
  B  B20  1  0.570388  0.801125  0.105339  1
  B  B21  1  0.429612  0.301125  0.394661  1
  B  B22  1  0.429612  0.198875  0.894661  1
  B  B23  1  0.570388  0.698875  0.605339  1
  B  B24  1  0.747849  0.374197  0.355872  1
  B  B25  1  0.252151  0.874197  0.144128  1
  B  B26  1  0.252151  0.625803  0.644128  1
  B  B27  1  0.747849  0.125803  0.855872  1
  B  B28  1  0.091561  0.114594  0.126214  1
  B  B29  1  0.908439  0.614594  0.373786  1
  B  B30  1  0.908439  0.885406  0.873786  1
  B  B31  1  0.091561  0.385406  0.626214  1
  B  B32  1  0.718917  0.355636  0.934714  1
  B  B33  1  0.281083  0.855636  0.565286  1
  B  B34  1  0.281083  0.644364  0.065286  1
  B  B35  1  0.718917  0.144364  0.434714  1
  B  B36  1  0.856858  0.499105  0.234586  1
  B  B37  1  0.143142  0.999105  0.265414  1
  B  B38  1  0.143142  0.500895  0.765414  1
  B  B39  1  0.856858  0.000895  0.734586  1
  O  O40  1  0.758361  0.814200  0.100530  1
  O  O41  1  0.241639  0.314200  0.399470  1
  O  O42  1  0.241639  0.185800  0.899470  1
  O  O43  1  0.758361  0.685800  0.600530  1
  O  O44  1  0.027706  0.221132  0.077092  1
  O  O45  1  0.972294  0.721132  0.422908  1
  O  O46  1  0.972294  0.778868  0.922908  1
  O  O47  1  0.027706  0.278868  0.577092  1
  O  O48  1  0.806600  0.375581  0.272016  1
  O  O49  1  0.193400  0.875581  0.227984  1
  O  O50  1  0.193400  0.624419  0.727984  1
  O  O51  1  0.806600  0.124419  0.772016  1
  O  O52  1  0.525063  0.316367  0.938701  1
  O  O53  1  0.474937  0.816367  0.561300  1
  O  O54  1  0.474937  0.683633  0.061299  1
  O  O55  1  0.525063  0.183633  0.438701  1
  O  O56  1  0.792136  0.473722  0.970288  1
  O  O57  1  0.207864  0.973722  0.529712  1
  O  O58  1  0.207864  0.526278  0.029712  1
  O  O59  1  0.792136  0.026278  0.470288  1
  O  O60  1  0.824760  0.260656  0.893461  1
  O  O61  1  0.175240  0.760656  0.606539  1
  O  O62  1  0.175240  0.739344  0.106539  1
  O  O63  1  0.824760  0.239344  0.393461  1
  O  O64  1  0.461668  0.887436  0.148722  1
  O  O65  1  0.538332  0.387436  0.351278  1
  O  O66  1  0.538332  0.112564  0.851278  1
  O  O67  1  0.461668  0.612564  0.648722  1
  O  O68  1  0.154450  0.989663  0.092164  1
  O  O69  1  0.845550  0.489663  0.407836  1
  O  O70  1  0.845550  0.010337  0.907836  1
  O  O71  1  0.154450  0.510337  0.592164  1
  O  O72  1  0.900749  0.619806  0.286223  1
  O  O73  1  0.099251  0.119806  0.213777  1
  O  O74  1  0.099251  0.380194  0.713777  1
  O  O75  1  0.900749  0.880194  0.786223  1
  O  O76  1  0.868187  0.513456  0.154038  1
  O  O77  1  0.131813  0.013456  0.345962  1
  O  O78  1  0.131813  0.486544  0.845962  1
  O  O79  1  0.868187  0.986544  0.654038  1
