# generated using pymatgen
data_Sr2Mg17
_symmetry_space_group_name_H-M   'P 1'
_cell_length_a   10.50870437
_cell_length_b   10.50870437
_cell_length_c   10.31168738
_cell_angle_alpha   90.00000000
_cell_angle_beta   90.00000000
_cell_angle_gamma   120.00000000
_symmetry_Int_Tables_number   1
_chemical_formula_structural   Sr2Mg17
_chemical_formula_sum   'Sr4 Mg34'
_cell_volume   986.18574199
_cell_formula_units_Z   2
loop_
 _symmetry_equiv_pos_site_id
 _symmetry_equiv_pos_as_xyz
  1  'x, y, z'
loop_
 _atom_site_type_symbol
 _atom_site_label
 _atom_site_symmetry_multiplicity
 _atom_site_fract_x
 _atom_site_fract_y
 _atom_site_fract_z
 _atom_site_occupancy
  Sr  Sr0  1  0.666667  0.333333  0.250000  1
  Sr  Sr1  1  0.333333  0.666667  0.750000  1
  Sr  Sr2  1  0.000000  0.000000  0.750000  1
  Sr  Sr3  1  0.000000  0.000000  0.250000  1
  Mg  Mg4  1  0.165131  0.330262  0.520814  1
  Mg  Mg5  1  0.669738  0.834869  0.520814  1
  Mg  Mg6  1  0.165131  0.834869  0.520814  1
  Mg  Mg7  1  0.834869  0.165131  0.020814  1
  Mg  Mg8  1  0.333333  0.666667  0.102127  1
  Mg  Mg9  1  0.666667  0.333333  0.602127  1
  Mg  Mg10  1  0.666667  0.333333  0.897873  1
  Mg  Mg11  1  0.333333  0.666667  0.397873  1
  Mg  Mg12  1  0.500000  0.000000  0.000000  1
  Mg  Mg13  1  0.500000  0.500000  0.500000  1
  Mg  Mg14  1  0.000000  0.500000  0.500000  1
  Mg  Mg15  1  0.000000  0.500000  0.000000  1
  Mg  Mg16  1  0.500000  0.500000  0.000000  1
  Mg  Mg17  1  0.500000  0.000000  0.500000  1
  Mg  Mg18  1  0.329013  0.961487  0.250000  1
  Mg  Mg19  1  0.367526  0.329013  0.750000  1
  Mg  Mg20  1  0.961487  0.632474  0.750000  1
  Mg  Mg21  1  0.038513  0.367526  0.250000  1
  Mg  Mg22  1  0.632474  0.670987  0.250000  1
  Mg  Mg23  1  0.367526  0.038513  0.750000  1
  Mg  Mg24  1  0.670987  0.632474  0.750000  1
  Mg  Mg25  1  0.670987  0.038513  0.750000  1
  Mg  Mg26  1  0.961487  0.329013  0.750000  1
  Mg  Mg27  1  0.038513  0.670987  0.250000  1
  Mg  Mg28  1  0.632474  0.961487  0.250000  1
  Mg  Mg29  1  0.329013  0.367526  0.250000  1
  Mg  Mg30  1  0.165131  0.834869  0.979186  1
  Mg  Mg31  1  0.330262  0.165131  0.479186  1
  Mg  Mg32  1  0.834869  0.669738  0.479186  1
  Mg  Mg33  1  0.165131  0.330262  0.979186  1
  Mg  Mg34  1  0.669738  0.834869  0.979186  1
  Mg  Mg35  1  0.330262  0.165131  0.020814  1
  Mg  Mg36  1  0.834869  0.669738  0.020814  1
  Mg  Mg37  1  0.834869  0.165131  0.479186  1
