# generated using pymatgen
data_ScSi3Ni2
_symmetry_space_group_name_H-M   'P 1'
_cell_length_a   12.19802212
_cell_length_b   12.19802212
_cell_length_c   12.19802212
_cell_angle_alpha   162.12361833
_cell_angle_beta   162.12361833
_cell_angle_gamma   25.38573709
_symmetry_Int_Tables_number   1
_chemical_formula_structural   ScSi3Ni2
_chemical_formula_sum   'Sc2 Si6 Ni4'
_cell_volume   170.96655269
_cell_formula_units_Z   2
loop_
 _symmetry_equiv_pos_site_id
 _symmetry_equiv_pos_as_xyz
  1  'x, y, z'
loop_
 _atom_site_type_symbol
 _atom_site_label
 _atom_site_symmetry_multiplicity
 _atom_site_fract_x
 _atom_site_fract_y
 _atom_site_fract_z
 _atom_site_occupancy
  Sc  Sc0  1  0.850417  0.850417  0.000000  1
  Sc  Sc1  1  0.149583  0.149583  0.000000  1
  Si  Si2  1  0.450299  0.950299  0.500000  1
  Si  Si3  1  0.950299  0.450299  0.500000  1
  Si  Si4  1  0.549701  0.049701  0.500000  1
  Si  Si5  1  0.306061  0.306061  0.000000  1
  Si  Si6  1  0.693939  0.693939  0.000000  1
  Si  Si7  1  0.049701  0.549701  0.500000  1
  Ni  Ni8  1  0.250000  0.750000  0.500000  1
  Ni  Ni9  1  0.750000  0.250000  0.500000  1
  Ni  Ni10  1  0.400227  0.400227  0.000000  1
  Ni  Ni11  1  0.599773  0.599773  0.000000  1
