# generated using pymatgen
data_Ca4Mn2O7
_symmetry_space_group_name_H-M   'P 1'
_cell_length_a   6.70150923
_cell_length_b   6.70150923
_cell_length_c   10.12075360
_cell_angle_alpha   90.00000000
_cell_angle_beta   90.00000000
_cell_angle_gamma   131.62748943
_symmetry_Int_Tables_number   1
_chemical_formula_structural   Ca4Mn2O7
_chemical_formula_sum   'Ca8 Mn4 O14'
_cell_volume   339.74835130
_cell_formula_units_Z   2
loop_
 _symmetry_equiv_pos_site_id
 _symmetry_equiv_pos_as_xyz
  1  'x, y, z'
loop_
 _atom_site_type_symbol
 _atom_site_label
 _atom_site_symmetry_multiplicity
 _atom_site_fract_x
 _atom_site_fract_y
 _atom_site_fract_z
 _atom_site_occupancy
  Ca  Ca0  1  0.051379  0.353948  0.874657  1
  Ca  Ca1  1  0.853948  0.551379  0.625343  1
  Ca  Ca2  1  0.448621  0.146052  0.374657  1
  Ca  Ca3  1  0.646052  0.948621  0.125343  1
  Ca  Ca4  1  0.353948  0.051379  0.874657  1
  Ca  Ca5  1  0.551379  0.853948  0.625343  1
  Ca  Ca6  1  0.146052  0.448621  0.374657  1
  Ca  Ca7  1  0.948621  0.646052  0.125343  1
  Mn  Mn8  1  0.731721  0.731721  0.875315  1
  Mn  Mn9  1  0.231721  0.231721  0.624685  1
  Mn  Mn10  1  0.768279  0.768279  0.375315  1
  Mn  Mn11  1  0.268279  0.268279  0.124685  1
  O  O12  1  0.500000  0.500000  0.500000  1
  O  O13  1  0.000000  0.000000  0.000000  1
  O  O14  1  0.082400  0.082400  0.302319  1
  O  O15  1  0.582400  0.582400  0.197681  1
  O  O16  1  0.417600  0.417600  0.802319  1
  O  O17  1  0.917600  0.917600  0.697681  1
  O  O18  1  0.899670  0.576150  0.880718  1
  O  O19  1  0.076150  0.399670  0.619282  1
  O  O20  1  0.600330  0.923850  0.380718  1
  O  O21  1  0.423850  0.100330  0.119282  1
  O  O22  1  0.100330  0.423850  0.119282  1
  O  O23  1  0.923850  0.600330  0.380718  1
  O  O24  1  0.576150  0.899670  0.880718  1
  O  O25  1  0.399670  0.076150  0.619282  1
