# generated using pymatgen
data_Sc5Si7Pt9
_symmetry_space_group_name_H-M   'P 1'
_cell_length_a   10.02957240
_cell_length_b   10.02957240
_cell_length_c   3.91550079
_cell_angle_alpha   90.00000000
_cell_angle_beta   90.00000000
_cell_angle_gamma   120.00000000
_symmetry_Int_Tables_number   1
_chemical_formula_structural   Sc5Si7Pt9
_chemical_formula_sum   'Sc5 Si7 Pt9'
_cell_volume   341.10083555
_cell_formula_units_Z   1
loop_
 _symmetry_equiv_pos_site_id
 _symmetry_equiv_pos_as_xyz
  1  'x, y, z'
loop_
 _atom_site_type_symbol
 _atom_site_label
 _atom_site_symmetry_multiplicity
 _atom_site_fract_x
 _atom_site_fract_y
 _atom_site_fract_z
 _atom_site_occupancy
  Sc  Sc0  1  0.000000  0.000000  0.000000  1
  Sc  Sc1  1  0.333333  0.666667  0.500000  1
  Sc  Sc2  1  0.896166  0.458536  0.500000  1
  Sc  Sc3  1  0.562370  0.103834  0.500000  1
  Sc  Sc4  1  0.541464  0.437630  0.500000  1
  Si  Si5  1  0.239747  0.189621  0.500000  1
  Si  Si6  1  0.810379  0.050127  0.500000  1
  Si  Si7  1  0.949873  0.760253  0.500000  1
  Si  Si8  1  0.553610  0.647928  0.000000  1
  Si  Si9  1  0.352072  0.905681  0.000000  1
  Si  Si10  1  0.094319  0.446390  0.000000  1
  Si  Si11  1  0.666667  0.333333  0.000000  1
  Pt  Pt12  1  0.217424  0.935920  0.500000  1
  Pt  Pt13  1  0.064080  0.281505  0.500000  1
  Pt  Pt14  1  0.718495  0.782576  0.500000  1
  Pt  Pt15  1  0.315400  0.415959  0.000000  1
  Pt  Pt16  1  0.584041  0.899441  0.000000  1
  Pt  Pt17  1  0.100559  0.684600  0.000000  1
  Pt  Pt18  1  0.382537  0.172116  0.000000  1
  Pt  Pt19  1  0.827884  0.210421  0.000000  1
  Pt  Pt20  1  0.789579  0.617463  0.000000  1
