# generated using pymatgen
data_Re24Mo5
_symmetry_space_group_name_H-M   'P 1'
_cell_length_a   8.35996077
_cell_length_b   8.35996077
_cell_length_c   8.35996077
_cell_angle_alpha   109.47122063
_cell_angle_beta   109.47122063
_cell_angle_gamma   109.47122063
_symmetry_Int_Tables_number   1
_chemical_formula_structural   Re24Mo5
_chemical_formula_sum   'Re24 Mo5'
_cell_volume   449.77035584
_cell_formula_units_Z   1
loop_
 _symmetry_equiv_pos_site_id
 _symmetry_equiv_pos_as_xyz
  1  'x, y, z'
loop_
 _atom_site_type_symbol
 _atom_site_label
 _atom_site_symmetry_multiplicity
 _atom_site_fract_x
 _atom_site_fract_y
 _atom_site_fract_z
 _atom_site_occupancy
  Re  Re0  1  0.401345  0.401345  0.716771  1
  Re  Re1  1  0.598655  0.315426  0.000000  1
  Re  Re2  1  0.315426  0.598655  0.000000  1
  Re  Re3  1  0.000000  0.315426  0.598655  1
  Re  Re4  1  0.283229  0.684574  0.684574  1
  Re  Re5  1  0.684574  0.283229  0.684574  1
  Re  Re6  1  0.315426  0.000000  0.598655  1
  Re  Re7  1  0.598655  0.000000  0.315426  1
  Re  Re8  1  0.000000  0.598655  0.315426  1
  Re  Re9  1  0.716771  0.401345  0.401345  1
  Re  Re10  1  0.401345  0.716771  0.401345  1
  Re  Re11  1  0.684574  0.684574  0.283229  1
  Re  Re12  1  0.375474  0.375474  0.181977  1
  Re  Re13  1  0.624526  0.806504  0.000000  1
  Re  Re14  1  0.806504  0.624526  0.000000  1
  Re  Re15  1  0.000000  0.806504  0.624526  1
  Re  Re16  1  0.818023  0.193496  0.193496  1
  Re  Re17  1  0.193496  0.818023  0.193496  1
  Re  Re18  1  0.806504  0.000000  0.624526  1
  Re  Re19  1  0.624526  1.000000  0.806504  1
  Re  Re20  1  0.000000  0.624526  0.806504  1
  Re  Re21  1  0.181977  0.375474  0.375474  1
  Re  Re22  1  0.375474  0.181977  0.375474  1
  Re  Re23  1  0.193496  0.193496  0.818023  1
  Mo  Mo24  1  0.000000  0.000000  0.000000  1
  Mo  Mo25  1  0.641448  0.641448  0.641448  1
  Mo  Mo26  1  0.358552  0.000000  0.000000  1
  Mo  Mo27  1  0.000000  0.358552  0.000000  1
  Mo  Mo28  1  0.000000  0.000000  0.358552  1
