# generated using pymatgen
data_Be5Au
_symmetry_space_group_name_H-M   'P 1'
_cell_length_a   4.32714273
_cell_length_b   4.32714273
_cell_length_c   4.32714273
_cell_angle_alpha   60.00000000
_cell_angle_beta   60.00000000
_cell_angle_gamma   60.00000000
_symmetry_Int_Tables_number   1
_chemical_formula_structural   Be5Au
_chemical_formula_sum   'Be5 Au1'
_cell_volume   57.29129836
_cell_formula_units_Z   1
loop_
 _symmetry_equiv_pos_site_id
 _symmetry_equiv_pos_as_xyz
  1  'x, y, z'
loop_
 _atom_site_type_symbol
 _atom_site_label
 _atom_site_symmetry_multiplicity
 _atom_site_fract_x
 _atom_site_fract_y
 _atom_site_fract_z
 _atom_site_occupancy
  Be  Be0  1  0.873928  0.375357  0.375357  1
  Be  Be1  1  0.750000  0.750000  0.750000  1
  Be  Be2  1  0.375357  0.873928  0.375357  1
  Be  Be3  1  0.375357  0.375357  0.375357  1
  Be  Be4  1  0.375357  0.375357  0.873928  1
  Au  Au5  1  0.000000  0.000000  0.000000  1
