# generated using pymatgen
data_Sr2LiSi3
_symmetry_space_group_name_H-M   'P 1'
_cell_length_a   11.76121593
_cell_length_b   10.07597853
_cell_length_c   8.55673764
_cell_angle_alpha   77.80778177
_cell_angle_beta   56.86540348
_cell_angle_gamma   45.32681475
_symmetry_Int_Tables_number   1
_chemical_formula_structural   Sr2LiSi3
_chemical_formula_sum   'Sr8 Li4 Si12'
_cell_volume   577.76485285
_cell_formula_units_Z   4
loop_
 _symmetry_equiv_pos_site_id
 _symmetry_equiv_pos_as_xyz
  1  'x, y, z'
loop_
 _atom_site_type_symbol
 _atom_site_label
 _atom_site_symmetry_multiplicity
 _atom_site_fract_x
 _atom_site_fract_y
 _atom_site_fract_z
 _atom_site_occupancy
  Sr  Sr0  1  0.875915  0.875915  0.124085  1
  Sr  Sr1  1  0.124086  0.124086  0.875914  1
  Sr  Sr2  1  0.374086  0.374086  0.125914  1
  Sr  Sr3  1  0.125915  0.125915  0.374085  1
  Sr  Sr4  1  0.375672  0.375672  0.624328  1
  Sr  Sr5  1  0.624329  0.624329  0.375671  1
  Sr  Sr6  1  0.874329  0.874329  0.625671  1
  Sr  Sr7  1  0.625672  0.625672  0.874328  1
  Li  Li8  1  0.417226  0.082774  0.417226  1
  Li  Li9  1  0.167226  0.832774  0.167226  1
  Li  Li10  1  0.832774  0.167226  0.832774  1
  Li  Li11  1  0.082774  0.417226  0.082774  1
  Si  Si12  1  0.068718  0.425613  0.592080  1
  Si  Si13  1  0.913589  0.592080  0.425613  1
  Si  Si14  1  0.592080  0.913589  0.068718  1
  Si  Si15  1  0.425613  0.068718  0.913589  1
  Si  Si16  1  0.181282  0.824387  0.657920  1
  Si  Si17  1  0.824387  0.181282  0.336411  1
  Si  Si18  1  0.657920  0.336411  0.181282  1
  Si  Si19  1  0.336411  0.657920  0.824387  1
  Si  Si20  1  0.588735  0.911266  0.588734  1
  Si  Si21  1  0.911266  0.588735  0.911265  1
  Si  Si22  1  0.661265  0.338735  0.661265  1
  Si  Si23  1  0.338735  0.661266  0.338734  1
