# generated using pymatgen
data_KHg(PO3)3
_symmetry_space_group_name_H-M   'P 1'
_cell_length_a   5.72746820
_cell_length_b   11.45017955
_cell_length_c   12.73286005
_cell_angle_alpha   90.00000000
_cell_angle_beta   90.00000000
_cell_angle_gamma   90.00000000
_symmetry_Int_Tables_number   1
_chemical_formula_structural   KHg(PO3)3
_chemical_formula_sum   'K4 Hg4 P12 O36'
_cell_volume   835.02782836
_cell_formula_units_Z   4
loop_
 _symmetry_equiv_pos_site_id
 _symmetry_equiv_pos_as_xyz
  1  'x, y, z'
loop_
 _atom_site_type_symbol
 _atom_site_label
 _atom_site_symmetry_multiplicity
 _atom_site_fract_x
 _atom_site_fract_y
 _atom_site_fract_z
 _atom_site_occupancy
  K  K0  1  0.405183  0.882101  0.578898  1
  K  K1  1  0.905183  0.617899  0.421102  1
  K  K2  1  0.594817  0.382101  0.921102  1
  K  K3  1  0.094817  0.117899  0.078898  1
  Hg  Hg4  1  0.404548  0.518411  0.637089  1
  Hg  Hg5  1  0.904548  0.981589  0.362911  1
  Hg  Hg6  1  0.595452  0.018411  0.862911  1
  Hg  Hg7  1  0.095452  0.481589  0.137089  1
  P  P8  1  0.104574  0.841044  0.852464  1
  P  P9  1  0.604574  0.658956  0.147536  1
  P  P10  1  0.895426  0.341044  0.647536  1
  P  P11  1  0.395426  0.158956  0.352464  1
  P  P12  1  0.923771  0.688362  0.685627  1
  P  P13  1  0.423771  0.811638  0.314373  1
  P  P14  1  0.076229  0.188362  0.814373  1
  P  P15  1  0.576229  0.311638  0.185627  1
  P  P16  1  0.117513  0.584670  0.871763  1
  P  P17  1  0.617513  0.915330  0.128237  1
  P  P18  1  0.882487  0.084670  0.628237  1
  P  P19  1  0.382487  0.415330  0.371763  1
  O  O20  1  0.973468  0.927405  0.918064  1
  O  O21  1  0.473468  0.572595  0.081936  1
  O  O22  1  0.026532  0.427405  0.581936  1
  O  O23  1  0.526532  0.072595  0.418064  1
  O  O24  1  0.344709  0.871399  0.811086  1
  O  O25  1  0.844709  0.628601  0.188914  1
  O  O26  1  0.655291  0.371399  0.688914  1
  O  O27  1  0.155291  0.128601  0.311086  1
  O  O28  1  0.694730  0.683788  0.629045  1
  O  O29  1  0.194730  0.816212  0.370955  1
  O  O30  1  0.305270  0.183788  0.870955  1
  O  O31  1  0.805270  0.316212  0.129045  1
  O  O32  1  0.143735  0.678650  0.620003  1
  O  O33  1  0.643735  0.821350  0.379997  1
  O  O34  1  0.856265  0.178650  0.879997  1
  O  O35  1  0.356265  0.321350  0.120003  1
  O  O36  1  0.937583  0.809089  0.752219  1
  O  O37  1  0.437583  0.690911  0.247781  1
  O  O38  1  0.062417  0.309089  0.747781  1
  O  O39  1  0.562417  0.190911  0.252219  1
  O  O40  1  0.382446  0.282311  0.415168  1
  O  O41  1  0.882446  0.217689  0.584832  1
  O  O42  1  0.617554  0.782311  0.084832  1
  O  O43  1  0.117554  0.717689  0.915168  1
  O  O44  1  0.578920  0.407605  0.279084  1
  O  O45  1  0.078920  0.092395  0.720916  1
  O  O46  1  0.421080  0.907605  0.220916  1
  O  O47  1  0.921080  0.592395  0.779084  1
  O  O48  1  0.484599  0.493519  0.454661  1
  O  O49  1  0.984599  0.006481  0.545339  1
  O  O50  1  0.515401  0.993519  0.045339  1
  O  O51  1  0.015401  0.506481  0.954661  1
  O  O52  1  0.151592  0.447229  0.323123  1
  O  O53  1  0.651592  0.052771  0.676877  1
  O  O54  1  0.848408  0.947229  0.176877  1
  O  O55  1  0.348408  0.552771  0.823123  1
