# generated using pymatgen
data_EuCdSn
_symmetry_space_group_name_H-M   'P 1'
_cell_length_a   4.99225905
_cell_length_b   4.99225905
_cell_length_c   7.85626087
_cell_angle_alpha   90.00000000
_cell_angle_beta   90.00000000
_cell_angle_gamma   120.00000000
_symmetry_Int_Tables_number   1
_chemical_formula_structural   EuCdSn
_chemical_formula_sum   'Eu2 Cd2 Sn2'
_cell_volume   169.56677234
_cell_formula_units_Z   2
loop_
 _symmetry_equiv_pos_site_id
 _symmetry_equiv_pos_as_xyz
  1  'x, y, z'
loop_
 _atom_site_type_symbol
 _atom_site_label
 _atom_site_symmetry_multiplicity
 _atom_site_fract_x
 _atom_site_fract_y
 _atom_site_fract_z
 _atom_site_occupancy
  Eu  Eu0  1  0.000000  0.000000  0.746778  1
  Eu  Eu1  1  0.000000  0.000000  0.246778  1
  Cd  Cd2  1  0.666667  0.333333  0.543038  1
  Cd  Cd3  1  0.333333  0.666667  0.043038  1
  Sn  Sn4  1  0.666667  0.333333  0.957184  1
  Sn  Sn5  1  0.333333  0.666667  0.457184  1
