# generated using pymatgen
data_K2TeOF4
_symmetry_space_group_name_H-M   'P 1'
_cell_length_a   7.83890054
_cell_length_b   7.83890054
_cell_length_c   6.72101514
_cell_angle_alpha   90.00000000
_cell_angle_beta   90.00000000
_cell_angle_gamma   131.51154366
_symmetry_Int_Tables_number   1
_chemical_formula_structural   K2TeOF4
_chemical_formula_sum   'K4 Te2 O2 F8'
_cell_volume   309.26010246
_cell_formula_units_Z   2
loop_
 _symmetry_equiv_pos_site_id
 _symmetry_equiv_pos_as_xyz
  1  'x, y, z'
loop_
 _atom_site_type_symbol
 _atom_site_label
 _atom_site_symmetry_multiplicity
 _atom_site_fract_x
 _atom_site_fract_y
 _atom_site_fract_z
 _atom_site_occupancy
  K  K0  1  0.426957  0.573043  0.250000  1
  K  K1  1  0.573043  0.426957  0.750000  1
  K  K2  1  0.750472  0.249528  0.250000  1
  K  K3  1  0.249528  0.750472  0.750000  1
  Te  Te4  1  0.110023  0.889977  0.250000  1
  Te  Te5  1  0.889977  0.110023  0.750000  1
  O  O6  1  0.762845  0.237155  0.750000  1
  O  O7  1  0.237155  0.762845  0.250000  1
  F  F8  1  0.122983  0.347596  0.532584  1
  F  F9  1  0.347596  0.122983  0.467416  1
  F  F10  1  0.122983  0.347596  0.967416  1
  F  F11  1  0.347596  0.122983  0.032584  1
  F  F12  1  0.877017  0.652404  0.032584  1
  F  F13  1  0.652404  0.877017  0.967416  1
  F  F14  1  0.652404  0.877017  0.532584  1
  F  F15  1  0.877017  0.652404  0.467416  1
