# generated using pymatgen
data_LiMn3P3O13
_symmetry_space_group_name_H-M   'P 1'
_cell_length_a   7.50928250
_cell_length_b   6.22127079
_cell_length_c   10.57570141
_cell_angle_alpha   90.00000000
_cell_angle_beta   99.37319974
_cell_angle_gamma   90.00000000
_symmetry_Int_Tables_number   1
_chemical_formula_structural   LiMn3P3O13
_chemical_formula_sum   'Li2 Mn6 P6 O26'
_cell_volume   487.47142897
_cell_formula_units_Z   2
loop_
 _symmetry_equiv_pos_site_id
 _symmetry_equiv_pos_as_xyz
  1  'x, y, z'
loop_
 _atom_site_type_symbol
 _atom_site_label
 _atom_site_symmetry_multiplicity
 _atom_site_fract_x
 _atom_site_fract_y
 _atom_site_fract_z
 _atom_site_occupancy
  Li  Li0  1  0.366482  0.750000  0.869579  1
  Li  Li1  1  0.633518  0.250000  0.130421  1
  Mn  Mn2  1  0.634582  0.250000  0.802060  1
  Mn  Mn3  1  0.365418  0.750000  0.197940  1
  Mn  Mn4  1  0.235487  0.250000  0.549398  1
  Mn  Mn5  1  0.000000  0.500000  0.000000  1
  Mn  Mn6  1  0.764513  0.750000  0.450602  1
  Mn  Mn7  1  0.000000  0.000000  0.000000  1
  P  P8  1  0.790068  0.250000  0.527482  1
  P  P9  1  0.209932  0.750000  0.472518  1
  P  P10  1  0.270549  0.250000  0.230284  1
  P  P11  1  0.729451  0.750000  0.769716  1
  P  P12  1  0.694168  0.750000  0.123624  1
  P  P13  1  0.305832  0.250000  0.876376  1
  O  O14  1  0.645898  0.750000  0.261949  1
  O  O15  1  0.261573  0.554645  0.562630  1
  O  O16  1  0.219268  0.250000  0.362871  1
  O  O17  1  0.793786  0.541903  0.098360  1
  O  O18  1  0.340315  0.750000  0.371275  1
  O  O19  1  0.129457  0.750000  0.092888  1
  O  O20  1  0.659685  0.250000  0.628725  1
  O  O21  1  0.206214  0.041903  0.901640  1
  O  O22  1  0.984721  0.250000  0.594936  1
  O  O23  1  0.015279  0.750000  0.405064  1
  O  O24  1  0.389208  0.058437  0.199843  1
  O  O25  1  0.870543  0.250000  0.907112  1
  O  O26  1  0.610792  0.558437  0.800157  1
  O  O27  1  0.496430  0.750000  0.047610  1
  O  O28  1  0.780732  0.750000  0.637129  1
  O  O29  1  0.206214  0.458097  0.901640  1
  O  O30  1  0.261573  0.945355  0.562630  1
  O  O31  1  0.738427  0.445355  0.437370  1
  O  O32  1  0.389208  0.441563  0.199843  1
  O  O33  1  0.354102  0.250000  0.738051  1
  O  O34  1  0.906213  0.750000  0.872099  1
  O  O35  1  0.093787  0.250000  0.127901  1
  O  O36  1  0.610792  0.941563  0.800157  1
  O  O37  1  0.793786  0.958097  0.098360  1
  O  O38  1  0.738427  0.054645  0.437370  1
  O  O39  1  0.503570  0.250000  0.952390  1
