# generated using pymatgen
data_Pr5Ge3
_symmetry_space_group_name_H-M   'P 1'
_cell_length_a   8.92545574
_cell_length_b   8.92545574
_cell_length_c   6.80400204
_cell_angle_alpha   90.00000000
_cell_angle_beta   90.00000000
_cell_angle_gamma   120.00000000
_symmetry_Int_Tables_number   1
_chemical_formula_structural   Pr5Ge3
_chemical_formula_sum   'Pr10 Ge6'
_cell_volume   469.41381695
_cell_formula_units_Z   2
loop_
 _symmetry_equiv_pos_site_id
 _symmetry_equiv_pos_as_xyz
  1  'x, y, z'
loop_
 _atom_site_type_symbol
 _atom_site_label
 _atom_site_symmetry_multiplicity
 _atom_site_fract_x
 _atom_site_fract_y
 _atom_site_fract_z
 _atom_site_occupancy
  Pr  Pr0  1  0.000000  0.754224  0.750000  1
  Pr  Pr1  1  0.000000  0.245776  0.250000  1
  Pr  Pr2  1  0.754224  0.754224  0.250000  1
  Pr  Pr3  1  0.754224  0.000000  0.750000  1
  Pr  Pr4  1  0.245776  0.245776  0.750000  1
  Pr  Pr5  1  0.245776  0.000000  0.250000  1
  Pr  Pr6  1  0.333333  0.666667  0.500000  1
  Pr  Pr7  1  0.666667  0.333333  0.000000  1
  Pr  Pr8  1  0.666667  0.333333  0.500000  1
  Pr  Pr9  1  0.333333  0.666667  0.000000  1
  Ge  Ge10  1  0.392430  0.000000  0.750000  1
  Ge  Ge11  1  0.392430  0.392430  0.250000  1
  Ge  Ge12  1  0.000000  0.607570  0.250000  1
  Ge  Ge13  1  0.000000  0.392430  0.750000  1
  Ge  Ge14  1  0.607570  0.607570  0.750000  1
  Ge  Ge15  1  0.607570  0.000000  0.250000  1
