# generated using pymatgen
data_K2ZrGe2O7
_symmetry_space_group_name_H-M   'P 1'
_cell_length_a   5.79360091
_cell_length_b   5.79360091
_cell_length_c   13.19888964
_cell_angle_alpha   77.15075458
_cell_angle_beta   102.84924542
_cell_angle_gamma   121.66491759
_symmetry_Int_Tables_number   1
_chemical_formula_structural   K2ZrGe2O7
_chemical_formula_sum   'K4 Zr2 Ge4 O14'
_cell_volume   364.64448151
_cell_formula_units_Z   2
loop_
 _symmetry_equiv_pos_site_id
 _symmetry_equiv_pos_as_xyz
  1  'x, y, z'
loop_
 _atom_site_type_symbol
 _atom_site_label
 _atom_site_symmetry_multiplicity
 _atom_site_fract_x
 _atom_site_fract_y
 _atom_site_fract_z
 _atom_site_occupancy
  K  K0  1  0.640626  0.934867  0.822241  1
  K  K1  1  0.934867  0.640626  0.677759  1
  K  K2  1  0.359374  0.065133  0.177759  1
  K  K3  1  0.065133  0.359374  0.322241  1
  Zr  Zr4  1  0.500000  0.000000  0.500000  1
  Zr  Zr5  1  0.000000  0.500000  0.000000  1
  Ge  Ge6  1  0.757969  0.683408  0.377847  1
  Ge  Ge7  1  0.316592  0.242031  0.877847  1
  Ge  Ge8  1  0.242031  0.316592  0.622153  1
  Ge  Ge9  1  0.683408  0.757969  0.122153  1
  O  O10  1  0.812102  0.075904  0.044211  1
  O  O11  1  0.328054  0.576868  0.127144  1
  O  O12  1  0.423132  0.671946  0.627144  1
  O  O13  1  0.671946  0.423132  0.872856  1
  O  O14  1  0.860403  0.860403  0.250000  1
  O  O15  1  0.139597  0.139597  0.750000  1
  O  O16  1  0.213283  0.463182  0.898985  1
  O  O17  1  0.463182  0.213283  0.601015  1
  O  O18  1  0.075904  0.812102  0.455789  1
  O  O19  1  0.536818  0.786717  0.398985  1
  O  O20  1  0.187898  0.924096  0.955789  1
  O  O21  1  0.924096  0.187898  0.544211  1
  O  O22  1  0.786717  0.536818  0.101015  1
  O  O23  1  0.576868  0.328054  0.372856  1
