# generated using pymatgen
data_MgSiO3
_symmetry_space_group_name_H-M   'P 1'
_cell_length_a   5.12991459
_cell_length_b   8.95256247
_cell_length_c   18.53411045
_cell_angle_alpha   90.00000000
_cell_angle_beta   90.00000000
_cell_angle_gamma   90.00000000
_symmetry_Int_Tables_number   1
_chemical_formula_structural   MgSiO3
_chemical_formula_sum   'Mg16 Si16 O48'
_cell_volume   851.19534787
_cell_formula_units_Z   16
loop_
 _symmetry_equiv_pos_site_id
 _symmetry_equiv_pos_as_xyz
  1  'x, y, z'
loop_
 _atom_site_type_symbol
 _atom_site_label
 _atom_site_symmetry_multiplicity
 _atom_site_fract_x
 _atom_site_fract_y
 _atom_site_fract_z
 _atom_site_occupancy
  Mg  Mg0  1  0.101014  0.596687  0.875520  1
  Mg  Mg1  1  0.898986  0.403313  0.375520  1
  Mg  Mg2  1  0.398986  0.596687  0.375520  1
  Mg  Mg3  1  0.601014  0.403313  0.875520  1
  Mg  Mg4  1  0.102073  0.230769  0.876406  1
  Mg  Mg5  1  0.897927  0.769231  0.376406  1
  Mg  Mg6  1  0.397927  0.230769  0.376406  1
  Mg  Mg7  1  0.602073  0.769231  0.876406  1
  Mg  Mg8  1  0.806213  0.902118  0.125723  1
  Mg  Mg9  1  0.193787  0.097882  0.625723  1
  Mg  Mg10  1  0.693787  0.902118  0.625723  1
  Mg  Mg11  1  0.306213  0.097882  0.125723  1
  Mg  Mg12  1  0.304354  0.734879  0.120926  1
  Mg  Mg13  1  0.695646  0.265121  0.620926  1
  Mg  Mg14  1  0.195646  0.734879  0.620926  1
  Mg  Mg15  1  0.804354  0.265121  0.120926  1
  Si  Si16  1  0.972087  0.409780  0.728572  1
  Si  Si17  1  0.027913  0.590220  0.228572  1
  Si  Si18  1  0.527913  0.409780  0.228572  1
  Si  Si19  1  0.472087  0.590220  0.728572  1
  Si  Si20  1  0.032097  0.908781  0.772791  1
  Si  Si21  1  0.967903  0.091219  0.272791  1
  Si  Si22  1  0.467903  0.908781  0.272791  1
  Si  Si23  1  0.532097  0.091219  0.772791  1
  Si  Si24  1  0.243628  0.411480  0.525515  1
  Si  Si25  1  0.756372  0.588520  0.025515  1
  Si  Si26  1  0.256372  0.411480  0.025515  1
  Si  Si27  1  0.743628  0.588520  0.525515  1
  Si  Si28  1  0.852637  0.088963  0.474640  1
  Si  Si29  1  0.147363  0.911037  0.974640  1
  Si  Si30  1  0.647363  0.088963  0.974640  1
  Si  Si31  1  0.352637  0.911037  0.474640  1
  O  O32  1  0.953401  0.410190  0.816557  1
  O  O33  1  0.046599  0.589810  0.316557  1
  O  O34  1  0.546599  0.410190  0.316557  1
  O  O35  1  0.453401  0.589810  0.816557  1
  O  O36  1  0.012798  0.255422  0.686662  1
  O  O37  1  0.987202  0.744578  0.186662  1
  O  O38  1  0.487202  0.255422  0.186662  1
  O  O39  1  0.512798  0.744578  0.686662  1
  O  O40  1  0.176264  0.539947  0.698026  1
  O  O41  1  0.823736  0.460053  0.198026  1
  O  O42  1  0.323736  0.539947  0.198026  1
  O  O43  1  0.676264  0.460053  0.698026  1
  O  O44  1  0.030805  0.908330  0.684391  1
  O  O45  1  0.969195  0.091670  0.184391  1
  O  O46  1  0.469195  0.908330  0.184391  1
  O  O47  1  0.530805  0.091670  0.684391  1
  O  O48  1  0.925335  0.760982  0.812672  1
  O  O49  1  0.074665  0.239018  0.312672  1
  O  O50  1  0.574665  0.760982  0.312672  1
  O  O51  1  0.425335  0.239018  0.812672  1
  O  O52  1  0.836225  0.049718  0.800897  1
  O  O53  1  0.163775  0.950282  0.300897  1
  O  O54  1  0.663775  0.049718  0.300897  1
  O  O55  1  0.336225  0.950282  0.800897  1
  O  O56  1  0.239125  0.408674  0.437247  1
  O  O57  1  0.760875  0.591326  0.937247  1
  O  O58  1  0.260875  0.408674  0.937247  1
  O  O59  1  0.739125  0.591326  0.437247  1
  O  O60  1  0.360991  0.267674  0.565917  1
  O  O61  1  0.639009  0.732326  0.065917  1
  O  O62  1  0.139009  0.267674  0.065917  1
  O  O63  1  0.860991  0.732326  0.565917  1
  O  O64  1  0.932852  0.443341  0.552403  1
  O  O65  1  0.067148  0.556659  0.052403  1
  O  O66  1  0.567148  0.443341  0.052403  1
  O  O67  1  0.432852  0.556659  0.552403  1
  O  O68  1  0.856997  0.090263  0.562885  1
  O  O69  1  0.143003  0.909737  0.062885  1
  O  O70  1  0.643003  0.090263  0.062885  1
  O  O71  1  0.356997  0.909737  0.562885  1
  O  O72  1  0.733760  0.232116  0.434326  1
  O  O73  1  0.266240  0.767884  0.934326  1
  O  O74  1  0.766240  0.232116  0.934326  1
  O  O75  1  0.233760  0.767884  0.434326  1
  O  O76  1  0.164538  0.057288  0.447924  1
  O  O77  1  0.835462  0.942712  0.947924  1
  O  O78  1  0.335462  0.057288  0.947924  1
  O  O79  1  0.664538  0.942712  0.447924  1
