# generated using pymatgen
data_CdAu
_symmetry_space_group_name_H-M   'P 1'
_cell_length_a   8.22227111
_cell_length_b   8.22227111
_cell_length_c   6.03313254
_cell_angle_alpha   90.00000000
_cell_angle_beta   90.00000000
_cell_angle_gamma   120.00000000
_symmetry_Int_Tables_number   1
_chemical_formula_structural   CdAu
_chemical_formula_sum   'Cd9 Au9'
_cell_volume   353.22959472
_cell_formula_units_Z   9
loop_
 _symmetry_equiv_pos_site_id
 _symmetry_equiv_pos_as_xyz
  1  'x, y, z'
loop_
 _atom_site_type_symbol
 _atom_site_label
 _atom_site_symmetry_multiplicity
 _atom_site_fract_x
 _atom_site_fract_y
 _atom_site_fract_z
 _atom_site_occupancy
  Cd  Cd0  1  0.000000  0.646214  0.211357  1
  Cd  Cd1  1  0.646214  0.000000  0.211357  1
  Cd  Cd2  1  0.353786  0.353786  0.211357  1
  Cd  Cd3  1  0.311400  0.000000  0.917391  1
  Cd  Cd4  1  0.688600  0.688600  0.917391  1
  Cd  Cd5  1  0.000000  0.311400  0.917391  1
  Cd  Cd6  1  0.333333  0.666667  0.497883  1
  Cd  Cd7  1  0.000000  0.000000  0.648148  1
  Cd  Cd8  1  0.666667  0.333333  0.497883  1
  Au  Au9  1  0.000000  0.641997  0.711248  1
  Au  Au10  1  0.641997  0.000000  0.711248  1
  Au  Au11  1  0.358003  0.358003  0.711248  1
  Au  Au12  1  0.311772  0.000000  0.419708  1
  Au  Au13  1  0.688228  0.688228  0.419708  1
  Au  Au14  1  0.000000  0.311772  0.419708  1
  Au  Au15  1  0.333333  0.666667  0.986768  1
  Au  Au16  1  0.000000  0.000000  0.161801  1
  Au  Au17  1  0.666667  0.333333  0.986768  1
