# generated using pymatgen
data_CaCrP2O7
_symmetry_space_group_name_H-M   'P 1'
_cell_length_a   6.19330899
_cell_length_b   6.60406922
_cell_length_c   7.37992057
_cell_angle_alpha   98.00592466
_cell_angle_beta   88.35541907
_cell_angle_gamma   111.37928761
_symmetry_Int_Tables_number   1
_chemical_formula_structural   CaCrP2O7
_chemical_formula_sum   'Ca2 Cr2 P4 O14'
_cell_volume   278.25647122
_cell_formula_units_Z   2
loop_
 _symmetry_equiv_pos_site_id
 _symmetry_equiv_pos_as_xyz
  1  'x, y, z'
loop_
 _atom_site_type_symbol
 _atom_site_label
 _atom_site_symmetry_multiplicity
 _atom_site_fract_x
 _atom_site_fract_y
 _atom_site_fract_z
 _atom_site_occupancy
  Ca  Ca0  1  0.703296  0.713344  0.364391  1
  Ca  Ca1  1  0.296704  0.286656  0.635609  1
  Cr  Cr2  1  0.732682  0.125560  0.828812  1
  Cr  Cr3  1  0.267318  0.874440  0.171188  1
  P  P4  1  0.835264  0.658306  0.882163  1
  P  P5  1  0.164736  0.341694  0.117837  1
  P  P6  1  0.764850  0.218953  0.379117  1
  P  P7  1  0.235150  0.781047  0.620883  1
  O  O8  1  0.924397  0.735088  0.082515  1
  O  O9  1  0.075603  0.264912  0.917485  1
  O  O10  1  0.746873  0.814294  0.803346  1
  O  O11  1  0.253127  0.185706  0.196654  1
  O  O12  1  0.663841  0.419664  0.855664  1
  O  O13  1  0.336159  0.580336  0.144336  1
  O  O14  1  0.361633  0.629041  0.547287  1
  O  O15  1  0.638367  0.370959  0.452713  1
  O  O16  1  0.900786  0.164941  0.522631  1
  O  O17  1  0.099214  0.835059  0.477369  1
  O  O18  1  0.938010  0.351252  0.232240  1
  O  O19  1  0.396217  0.999948  0.728680  1
  O  O20  1  0.603783  0.000052  0.271320  1
  O  O21  1  0.061990  0.648748  0.767760  1
