# generated using pymatgen
data_Na2Cu3(GeO3)4
_symmetry_space_group_name_H-M   'P 1'
_cell_length_a   5.55585727
_cell_length_b   6.52863653
_cell_length_c   7.77085851
_cell_angle_alpha   88.36591222
_cell_angle_beta   77.57055974
_cell_angle_gamma   89.19033940
_symmetry_Int_Tables_number   1
_chemical_formula_structural   Na2Cu3(GeO3)4
_chemical_formula_sum   'Na2 Cu3 Ge4 O12'
_cell_volume   275.13833086
_cell_formula_units_Z   1
loop_
 _symmetry_equiv_pos_site_id
 _symmetry_equiv_pos_as_xyz
  1  'x, y, z'
loop_
 _atom_site_type_symbol
 _atom_site_label
 _atom_site_symmetry_multiplicity
 _atom_site_fract_x
 _atom_site_fract_y
 _atom_site_fract_z
 _atom_site_occupancy
  Na  Na0  1  0.082889  0.254775  0.606622  1
  Na  Na1  1  0.917111  0.745225  0.393378  1
  Cu  Cu2  1  0.501714  0.173756  0.815170  1
  Cu  Cu3  1  0.498286  0.826244  0.184830  1
  Cu  Cu4  1  0.000000  0.000000  0.000000  1
  Ge  Ge5  1  0.246421  0.391067  0.182936  1
  Ge  Ge6  1  0.753579  0.608933  0.817064  1
  Ge  Ge7  1  0.691722  0.214573  0.370717  1
  Ge  Ge8  1  0.308278  0.785427  0.629283  1
  O  O9  1  0.700167  0.124538  0.583470  1
  O  O10  1  0.299833  0.875462  0.416530  1
  O  O11  1  0.284716  0.642455  0.100556  1
  O  O12  1  0.715284  0.357545  0.899444  1
  O  O13  1  0.262381  0.181285  0.041241  1
  O  O14  1  0.737619  0.818715  0.958759  1
  O  O15  1  0.413599  0.346497  0.357214  1
  O  O16  1  0.586401  0.653503  0.642786  1
  O  O17  1  0.936026  0.398467  0.317365  1
  O  O18  1  0.234090  0.994927  0.774335  1
  O  O19  1  0.765910  0.005073  0.225665  1
  O  O20  1  0.063974  0.601533  0.682635  1
