# generated using pymatgen
data_CaAl2O4
_symmetry_space_group_name_H-M   'P 1'
_cell_length_a   8.03956600
_cell_length_b   8.70714680
_cell_length_c   10.37778688
_cell_angle_alpha   90.00000000
_cell_angle_beta   95.01358757
_cell_angle_gamma   90.00000000
_symmetry_Int_Tables_number   1
_chemical_formula_structural   CaAl2O4
_chemical_formula_sum   'Ca8 Al16 O32'
_cell_volume   723.68308588
_cell_formula_units_Z   8
loop_
 _symmetry_equiv_pos_site_id
 _symmetry_equiv_pos_as_xyz
  1  'x, y, z'
loop_
 _atom_site_type_symbol
 _atom_site_label
 _atom_site_symmetry_multiplicity
 _atom_site_fract_x
 _atom_site_fract_y
 _atom_site_fract_z
 _atom_site_occupancy
  Ca  Ca0  1  0.005016  0.717347  0.125832  1
  Ca  Ca1  1  0.994984  0.217347  0.374168  1
  Ca  Ca2  1  0.994984  0.282653  0.874168  1
  Ca  Ca3  1  0.005016  0.782653  0.625832  1
  Ca  Ca4  1  0.467608  0.744060  0.144138  1
  Ca  Ca5  1  0.532392  0.244060  0.355862  1
  Ca  Ca6  1  0.532392  0.255940  0.855862  1
  Ca  Ca7  1  0.467608  0.755940  0.644138  1
  Al  Al8  1  0.775699  0.059005  0.132126  1
  Al  Al9  1  0.224301  0.559005  0.367874  1
  Al  Al10  1  0.224301  0.940995  0.867874  1
  Al  Al11  1  0.775699  0.440995  0.632126  1
  Al  Al12  1  0.179419  0.057258  0.138438  1
  Al  Al13  1  0.820581  0.557258  0.361562  1
  Al  Al14  1  0.820581  0.942742  0.861562  1
  Al  Al15  1  0.179419  0.442742  0.638438  1
  Al  Al16  1  0.305013  0.902591  0.389448  1
  Al  Al17  1  0.694987  0.402591  0.110552  1
  Al  Al18  1  0.694987  0.097409  0.610552  1
  Al  Al19  1  0.305013  0.597409  0.889448  1
  Al  Al20  1  0.706305  0.892589  0.384384  1
  Al  Al21  1  0.293695  0.392589  0.115616  1
  Al  Al22  1  0.293695  0.107411  0.615616  1
  Al  Al23  1  0.706305  0.607411  0.884384  1
  O  O24  1  0.980047  0.985554  0.168604  1
  O  O25  1  0.019953  0.485554  0.331396  1
  O  O26  1  0.019953  0.014446  0.831396  1
  O  O27  1  0.980047  0.514446  0.668604  1
  O  O28  1  0.231134  0.743853  0.292281  1
  O  O29  1  0.768866  0.243853  0.207719  1
  O  O30  1  0.768866  0.256147  0.707719  1
  O  O31  1  0.231134  0.756147  0.792281  1
  O  O32  1  0.286175  0.074331  0.296268  1
  O  O33  1  0.713825  0.574331  0.203732  1
  O  O34  1  0.713825  0.925669  0.703732  1
  O  O35  1  0.286175  0.425669  0.796268  1
  O  O36  1  0.784500  0.065791  0.461407  1
  O  O37  1  0.215500  0.565791  0.038593  1
  O  O38  1  0.215500  0.934209  0.538593  1
  O  O39  1  0.784500  0.434209  0.961407  1
  O  O40  1  0.511639  0.842653  0.438722  1
  O  O41  1  0.488361  0.342653  0.061278  1
  O  O42  1  0.488361  0.157347  0.561278  1
  O  O43  1  0.511639  0.657347  0.938722  1
  O  O44  1  0.847480  0.742986  0.428545  1
  O  O45  1  0.152520  0.242986  0.071455  1
  O  O46  1  0.152520  0.257014  0.571455  1
  O  O47  1  0.847480  0.757014  0.928545  1
  O  O48  1  0.653416  0.567680  0.717589  1
  O  O49  1  0.346584  0.067680  0.782411  1
  O  O50  1  0.346584  0.432320  0.282411  1
  O  O51  1  0.653416  0.932320  0.217589  1
  O  O52  1  0.271117  0.576809  0.537219  1
  O  O53  1  0.728883  0.076809  0.962781  1
  O  O54  1  0.728883  0.423191  0.462781  1
  O  O55  1  0.271117  0.923191  0.037219  1
