# generated using pymatgen
data_SbF3
_symmetry_space_group_name_H-M   'P 1'
_cell_length_a   4.62041925
_cell_length_b   4.62041925
_cell_length_c   7.11611695
_cell_angle_alpha   90.00000000
_cell_angle_beta   90.00000000
_cell_angle_gamma   112.63418056
_symmetry_Int_Tables_number   1
_chemical_formula_structural   SbF3
_chemical_formula_sum   'Sb2 F6'
_cell_volume   140.21630280
_cell_formula_units_Z   2
loop_
 _symmetry_equiv_pos_site_id
 _symmetry_equiv_pos_as_xyz
  1  'x, y, z'
loop_
 _atom_site_type_symbol
 _atom_site_label
 _atom_site_symmetry_multiplicity
 _atom_site_fract_x
 _atom_site_fract_y
 _atom_site_fract_z
 _atom_site_occupancy
  Sb  Sb0  1  0.793844  0.230070  0.250000  1
  Sb  Sb1  1  0.230070  0.793844  0.750000  1
  F  F2  1  0.402991  0.309141  0.250000  1
  F  F3  1  0.309141  0.402991  0.750000  1
  F  F4  1  0.574702  0.968276  0.938010  1
  F  F5  1  0.968276  0.574702  0.061990  1
  F  F6  1  0.574702  0.968276  0.561990  1
  F  F7  1  0.968276  0.574702  0.438010  1
