# generated using pymatgen
data_Ni(PO3)2
_symmetry_space_group_name_H-M   'P 1'
_cell_length_a   7.21952809
_cell_length_b   7.21952809
_cell_length_c   9.98933159
_cell_angle_alpha   67.08465844
_cell_angle_beta   112.91534156
_cell_angle_gamma   109.56096166
_symmetry_Int_Tables_number   1
_chemical_formula_structural   Ni(PO3)2
_chemical_formula_sum   'Ni4 P8 O24'
_cell_volume   431.30127275
_cell_formula_units_Z   4
loop_
 _symmetry_equiv_pos_site_id
 _symmetry_equiv_pos_as_xyz
  1  'x, y, z'
loop_
 _atom_site_type_symbol
 _atom_site_label
 _atom_site_symmetry_multiplicity
 _atom_site_fract_x
 _atom_site_fract_y
 _atom_site_fract_z
 _atom_site_occupancy
  Ni  Ni0  1  0.445757  0.445757  0.750000  1
  Ni  Ni1  1  0.554243  0.554243  0.250000  1
  Ni  Ni2  1  0.500000  0.000000  0.000000  1
  Ni  Ni3  1  0.000000  0.500000  0.500000  1
  P  P4  1  0.230300  0.248278  0.023669  1
  P  P5  1  0.248278  0.230300  0.476331  1
  P  P6  1  0.769700  0.751722  0.976331  1
  P  P7  1  0.751722  0.769700  0.523669  1
  P  P8  1  0.811997  0.205427  0.803632  1
  P  P9  1  0.205427  0.811997  0.696368  1
  P  P10  1  0.188003  0.794573  0.196368  1
  P  P11  1  0.794573  0.188003  0.303632  1
  O  O12  1  0.652454  0.585453  0.905317  1
  O  O13  1  0.585453  0.652454  0.594683  1
  O  O14  1  0.347546  0.414547  0.094683  1
  O  O15  1  0.414547  0.347546  0.405317  1
  O  O16  1  0.309269  0.210408  0.917313  1
  O  O17  1  0.210408  0.309269  0.582687  1
  O  O18  1  0.690731  0.789592  0.082687  1
  O  O19  1  0.789592  0.690731  0.417313  1
  O  O20  1  0.619549  0.217651  0.825104  1
  O  O21  1  0.217651  0.619549  0.674896  1
  O  O22  1  0.380451  0.782349  0.174896  1
  O  O23  1  0.782349  0.380451  0.325104  1
  O  O24  1  0.033517  0.188048  0.346433  1
  O  O25  1  0.188048  0.033517  0.153567  1
  O  O26  1  0.966483  0.811952  0.653567  1
  O  O27  1  0.811952  0.966483  0.846433  1
  O  O28  1  0.713090  0.999246  0.435068  1
  O  O29  1  0.999246  0.713090  0.064932  1
  O  O30  1  0.286910  0.000754  0.564932  1
  O  O31  1  0.000754  0.286910  0.935068  1
  O  O32  1  0.689572  0.155954  0.151981  1
  O  O33  1  0.155954  0.689572  0.348019  1
  O  O34  1  0.310428  0.844046  0.848019  1
  O  O35  1  0.844046  0.310428  0.651981  1
