# generated using pymatgen
data_Mg3Pd
_symmetry_space_group_name_H-M   'P 1'
_cell_length_a   8.04215910
_cell_length_b   8.04215910
_cell_length_c   8.41076547
_cell_angle_alpha   90.00000000
_cell_angle_beta   90.00000000
_cell_angle_gamma   120.00000000
_symmetry_Int_Tables_number   1
_chemical_formula_structural   Mg3Pd
_chemical_formula_sum   'Mg18 Pd6'
_cell_volume   471.09823364
_cell_formula_units_Z   6
loop_
 _symmetry_equiv_pos_site_id
 _symmetry_equiv_pos_as_xyz
  1  'x, y, z'
loop_
 _atom_site_type_symbol
 _atom_site_label
 _atom_site_symmetry_multiplicity
 _atom_site_fract_x
 _atom_site_fract_y
 _atom_site_fract_z
 _atom_site_occupancy
  Mg  Mg0  1  0.000000  0.000000  0.496620  1
  Mg  Mg1  1  0.000000  0.000000  0.996620  1
  Mg  Mg2  1  0.666667  0.333333  0.115581  1
  Mg  Mg3  1  0.333333  0.666667  0.615581  1
  Mg  Mg4  1  0.666667  0.333333  0.615581  1
  Mg  Mg5  1  0.333333  0.666667  0.115581  1
  Mg  Mg6  1  0.376333  0.000000  0.395096  1
  Mg  Mg7  1  0.376333  0.376333  0.895096  1
  Mg  Mg8  1  0.000000  0.623667  0.895096  1
  Mg  Mg9  1  0.000000  0.376333  0.395096  1
  Mg  Mg10  1  0.623667  0.623667  0.395096  1
  Mg  Mg11  1  0.623667  0.000000  0.895096  1
  Mg  Mg12  1  0.718781  0.000000  0.238860  1
  Mg  Mg13  1  0.718781  0.718781  0.738860  1
  Mg  Mg14  1  0.000000  0.281219  0.738860  1
  Mg  Mg15  1  0.000000  0.718781  0.238860  1
  Mg  Mg16  1  0.281219  0.281219  0.238860  1
  Mg  Mg17  1  0.281219  0.000000  0.738860  1
  Pd  Pd18  1  0.672383  0.000000  0.567484  1
  Pd  Pd19  1  0.672383  0.672383  0.067484  1
  Pd  Pd20  1  0.000000  0.327617  0.067484  1
  Pd  Pd21  1  0.000000  0.672383  0.567484  1
  Pd  Pd22  1  0.327617  0.327617  0.567484  1
  Pd  Pd23  1  0.327617  0.000000  0.067484  1
