# generated using pymatgen
data_Na2ZnSiO4
_symmetry_space_group_name_H-M   'P 1'
_cell_length_a   5.34133500
_cell_length_b   7.11587400
_cell_length_c   11.05283500
_cell_angle_alpha   90.00000000
_cell_angle_beta   90.00000000
_cell_angle_gamma   90.00000000
_symmetry_Int_Tables_number   1
_chemical_formula_structural   Na2ZnSiO4
_chemical_formula_sum   'Na8 Zn4 Si4 O16'
_cell_volume   420.09910215
_cell_formula_units_Z   4
loop_
 _symmetry_equiv_pos_site_id
 _symmetry_equiv_pos_as_xyz
  1  'x, y, z'
loop_
 _atom_site_type_symbol
 _atom_site_label
 _atom_site_symmetry_multiplicity
 _atom_site_fract_x
 _atom_site_fract_y
 _atom_site_fract_z
 _atom_site_occupancy
  Na  Na0  1  0.251035  0.498397  0.088338  1
  Na  Na1  1  0.711942  0.745174  0.158339  1
  Na  Na2  1  0.211942  0.245174  0.341661  1
  Na  Na3  1  0.788058  0.745174  0.658339  1
  Na  Na4  1  0.748965  0.998397  0.911662  1
  Na  Na5  1  0.248965  0.498397  0.588338  1
  Na  Na6  1  0.751035  0.998397  0.411662  1
  Na  Na7  1  0.288058  0.245174  0.841661  1
  Zn  Zn8  1  0.703153  0.247459  0.156400  1
  Zn  Zn9  1  0.296847  0.747459  0.843600  1
  Zn  Zn10  1  0.796847  0.247459  0.656400  1
  Zn  Zn11  1  0.203153  0.747459  0.343600  1
  Si  Si12  1  0.200013  0.996106  0.094820  1
  Si  Si13  1  0.299987  0.996106  0.594820  1
  Si  Si14  1  0.799987  0.496106  0.905180  1
  Si  Si15  1  0.700013  0.496106  0.405180  1
  O  O16  1  0.268946  0.970992  0.949486  1
  O  O17  1  0.731054  0.470992  0.050514  1
  O  O18  1  0.231054  0.970992  0.449486  1
  O  O19  1  0.768946  0.470992  0.550514  1
  O  O20  1  0.718034  0.304163  0.829644  1
  O  O21  1  0.281966  0.804163  0.170356  1
  O  O22  1  0.781966  0.304163  0.329644  1
  O  O23  1  0.218034  0.804163  0.670356  1
  O  O24  1  0.893220  0.023408  0.108398  1
  O  O25  1  0.106780  0.523408  0.891602  1
  O  O26  1  0.606780  0.023408  0.608398  1
  O  O27  1  0.162213  0.187302  0.646803  1
  O  O28  1  0.662213  0.687302  0.853197  1
  O  O29  1  0.337787  0.187302  0.146803  1
  O  O30  1  0.837787  0.687302  0.353197  1
  O  O31  1  0.393220  0.523408  0.391602  1
