# generated using pymatgen
data_Th2Co17
_symmetry_space_group_name_H-M   'P 1'
_cell_length_a   6.31175832
_cell_length_b   6.31175832
_cell_length_c   6.31175832
_cell_angle_alpha   83.07583311
_cell_angle_beta   83.07583311
_cell_angle_gamma   83.07583311
_symmetry_Int_Tables_number   1
_chemical_formula_structural   Th2Co17
_chemical_formula_sum   'Th2 Co17'
_cell_volume   246.35695311
_cell_formula_units_Z   1
loop_
 _symmetry_equiv_pos_site_id
 _symmetry_equiv_pos_as_xyz
  1  'x, y, z'
loop_
 _atom_site_type_symbol
 _atom_site_label
 _atom_site_symmetry_multiplicity
 _atom_site_fract_x
 _atom_site_fract_y
 _atom_site_fract_z
 _atom_site_occupancy
  Th  Th0  1  0.343510  0.343510  0.343510  1
  Th  Th1  1  0.656490  0.656490  0.656490  1
  Co  Co2  1  0.147371  0.654766  0.654766  1
  Co  Co3  1  0.654766  0.654766  0.147371  1
  Co  Co4  1  0.903049  0.903049  0.903049  1
  Co  Co5  1  0.096951  0.096951  0.096951  1
  Co  Co6  1  0.500000  0.000000  0.000000  1
  Co  Co7  1  0.000000  0.500000  0.000000  1
  Co  Co8  1  0.000000  1.000000  0.500000  1
  Co  Co9  1  0.000000  0.715380  0.284620  1
  Co  Co10  1  0.284620  0.000000  0.715380  1
  Co  Co11  1  0.715380  0.284620  0.000000  1
  Co  Co12  1  0.000000  0.284620  0.715380  1
  Co  Co13  1  0.715380  0.000000  0.284620  1
  Co  Co14  1  0.284620  0.715380  0.000000  1
  Co  Co15  1  0.345234  0.345234  0.852629  1
  Co  Co16  1  0.852629  0.345234  0.345234  1
  Co  Co17  1  0.345234  0.852629  0.345234  1
  Co  Co18  1  0.654766  0.147371  0.654766  1
