# generated using pymatgen
data_Rb6Si2O7
_symmetry_space_group_name_H-M   'P 1'
_cell_length_a   6.85814741
_cell_length_b   9.31789941
_cell_length_c   11.51824278
_cell_angle_alpha   90.00000000
_cell_angle_beta   125.43136427
_cell_angle_gamma   90.00000000
_symmetry_Int_Tables_number   1
_chemical_formula_structural   Rb6Si2O7
_chemical_formula_sum   'Rb12 Si4 O14'
_cell_volume   599.74649124
_cell_formula_units_Z   2
loop_
 _symmetry_equiv_pos_site_id
 _symmetry_equiv_pos_as_xyz
  1  'x, y, z'
loop_
 _atom_site_type_symbol
 _atom_site_label
 _atom_site_symmetry_multiplicity
 _atom_site_fract_x
 _atom_site_fract_y
 _atom_site_fract_z
 _atom_site_occupancy
  Rb  Rb0  1  0.022974  0.352882  0.908637  1
  Rb  Rb1  1  0.022974  0.147118  0.408637  1
  Rb  Rb2  1  0.977026  0.647118  0.091363  1
  Rb  Rb3  1  0.208329  0.972850  0.956418  1
  Rb  Rb4  1  0.791671  0.472850  0.543582  1
  Rb  Rb5  1  0.791671  0.027150  0.043582  1
  Rb  Rb6  1  0.208329  0.527150  0.456418  1
  Rb  Rb7  1  0.392443  0.278871  0.775157  1
  Rb  Rb8  1  0.607557  0.778871  0.724843  1
  Rb  Rb9  1  0.607557  0.721129  0.224843  1
  Rb  Rb10  1  0.392443  0.221129  0.275157  1
  Rb  Rb11  1  0.977026  0.852882  0.591363  1
  Si  Si12  1  0.332846  0.632034  0.878215  1
  Si  Si13  1  0.332846  0.867966  0.378215  1
  Si  Si14  1  0.667154  0.367966  0.121785  1
  Si  Si15  1  0.667154  0.132034  0.621785  1
  O  O16  1  0.496031  0.276616  0.564393  1
  O  O17  1  0.500000  0.000000  0.500000  1
  O  O18  1  0.500000  0.500000  0.000000  1
  O  O19  1  0.266177  0.921303  0.222652  1
  O  O20  1  0.503969  0.776616  0.935607  1
  O  O21  1  0.503969  0.723384  0.435607  1
  O  O22  1  0.496031  0.223384  0.064393  1
  O  O23  1  0.091815  0.656169  0.876002  1
  O  O24  1  0.908185  0.156169  0.623998  1
  O  O25  1  0.908185  0.343831  0.123998  1
  O  O26  1  0.091815  0.843831  0.376002  1
  O  O27  1  0.266177  0.578697  0.722652  1
  O  O28  1  0.733823  0.078697  0.777348  1
  O  O29  1  0.733823  0.421303  0.277348  1
