# generated using pymatgen
data_RbSbO2
_symmetry_space_group_name_H-M   'P 1'
_cell_length_a   6.20979967
_cell_length_b   6.20979967
_cell_length_c   5.67690971
_cell_angle_alpha   68.68927935
_cell_angle_beta   111.31072065
_cell_angle_gamma   81.64915554
_symmetry_Int_Tables_number   1
_chemical_formula_structural   RbSbO2
_chemical_formula_sum   'Rb2 Sb2 O4'
_cell_volume   180.03814886
_cell_formula_units_Z   2
loop_
 _symmetry_equiv_pos_site_id
 _symmetry_equiv_pos_as_xyz
  1  'x, y, z'
loop_
 _atom_site_type_symbol
 _atom_site_label
 _atom_site_symmetry_multiplicity
 _atom_site_fract_x
 _atom_site_fract_y
 _atom_site_fract_z
 _atom_site_occupancy
  Rb  Rb0  1  0.642841  0.642841  0.250000  1
  Rb  Rb1  1  0.357159  0.357159  0.750000  1
  Sb  Sb2  1  0.915148  0.915148  0.750000  1
  Sb  Sb3  1  0.084852  0.084852  0.250000  1
  O  O4  1  0.130144  0.775757  0.212437  1
  O  O5  1  0.775757  0.130144  0.287563  1
  O  O6  1  0.224243  0.869856  0.712437  1
  O  O7  1  0.869856  0.224243  0.787563  1
