# generated using pymatgen
data_Na3Al2(PO4)3
_symmetry_space_group_name_H-M   'P 1'
_cell_length_a   10.14210862
_cell_length_b   10.14210862
_cell_length_c   10.14210862
_cell_angle_alpha   109.47122063
_cell_angle_beta   109.47122063
_cell_angle_gamma   109.47122063
_symmetry_Int_Tables_number   1
_chemical_formula_structural   Na3Al2(PO4)3
_chemical_formula_sum   'Na12 Al8 P12 O48'
_cell_volume   803.08752767
_cell_formula_units_Z   4
loop_
 _symmetry_equiv_pos_site_id
 _symmetry_equiv_pos_as_xyz
  1  'x, y, z'
loop_
 _atom_site_type_symbol
 _atom_site_label
 _atom_site_symmetry_multiplicity
 _atom_site_fract_x
 _atom_site_fract_y
 _atom_site_fract_z
 _atom_site_occupancy
  Na  Na0  1  0.750000  0.125000  0.375000  1
  Na  Na1  1  0.250000  0.375000  0.125000  1
  Na  Na2  1  0.125000  0.250000  0.375000  1
  Na  Na3  1  0.375000  0.750000  0.125000  1
  Na  Na4  1  0.375000  0.125000  0.250000  1
  Na  Na5  1  0.125000  0.375000  0.750000  1
  Na  Na6  1  0.250000  0.875000  0.625000  1
  Na  Na7  1  0.750000  0.625000  0.875000  1
  Na  Na8  1  0.875000  0.750000  0.625000  1
  Na  Na9  1  0.625000  0.250000  0.875000  1
  Na  Na10  1  0.625000  0.875000  0.750000  1
  Na  Na11  1  0.875000  0.625000  0.250000  1
  Al  Al12  1  1.000000  0.500000  0.500000  1
  Al  Al13  1  0.500000  1.000000  0.500000  1
  Al  Al14  1  1.000000  1.000000  0.000000  1
  Al  Al15  1  0.500000  0.500000  0.000000  1
  Al  Al16  1  1.000000  1.000000  0.500000  1
  Al  Al17  1  0.500000  0.500000  0.500000  1
  Al  Al18  1  0.500000  1.000000  0.000000  1
  Al  Al19  1  0.000000  0.500000  0.000000  1
  P  P20  1  0.750000  0.875000  0.125000  1
  P  P21  1  0.250000  0.625000  0.375000  1
  P  P22  1  0.375000  0.250000  0.625000  1
  P  P23  1  0.125000  0.750000  0.875000  1
  P  P24  1  0.625000  0.375000  0.250000  1
  P  P25  1  0.875000  0.125000  0.750000  1
  P  P26  1  0.250000  0.125000  0.875000  1
  P  P27  1  0.750000  0.375000  0.625000  1
  P  P28  1  0.625000  0.750000  0.375000  1
  P  P29  1  0.875000  0.250000  0.125000  1
  P  P30  1  0.375000  0.625000  0.750000  1
  P  P31  1  0.125000  0.875000  0.250000  1
  O  O32  1  0.388966  0.802948  0.499328  1
  O  O33  1  0.111034  0.610363  0.413982  1
  O  O34  1  0.696381  0.697052  0.086018  1
  O  O35  1  0.803619  0.889637  0.000672  1
  O  O36  1  0.086018  0.696381  0.697052  1
  O  O37  1  0.000672  0.803619  0.889637  1
  O  O38  1  0.499328  0.388966  0.802948  1
  O  O39  1  0.413982  0.111034  0.610363  1
  O  O40  1  0.889637  0.000672  0.803619  1
  O  O41  1  0.697052  0.086018  0.696381  1
  O  O42  1  0.610363  0.413982  0.111034  1
  O  O43  1  0.802948  0.499328  0.388966  1
  O  O44  1  0.611034  0.197052  0.500672  1
  O  O45  1  0.888966  0.389637  0.586018  1
  O  O46  1  0.303619  0.302948  0.913982  1
  O  O47  1  0.196381  0.110363  0.999328  1
  O  O48  1  0.913982  0.303619  0.302948  1
  O  O49  1  0.999328  0.196381  0.110363  1
  O  O50  1  0.500672  0.611034  0.197052  1
  O  O51  1  0.586018  0.888966  0.389637  1
  O  O52  1  0.110363  0.999328  0.196381  1
  O  O53  1  0.302948  0.913982  0.303619  1
  O  O54  1  0.389637  0.586018  0.888966  1
  O  O55  1  0.197052  0.500672  0.611034  1
  O  O56  1  0.389637  0.303619  0.500672  1
  O  O57  1  0.197052  0.196381  0.586018  1
  O  O58  1  0.110363  0.611034  0.913982  1
  O  O59  1  0.302948  0.888966  0.999328  1
  O  O60  1  0.888966  0.999328  0.302948  1
  O  O61  1  0.611034  0.913982  0.110363  1
  O  O62  1  0.196381  0.586018  0.197052  1
  O  O63  1  0.303619  0.500672  0.389637  1
  O  O64  1  0.586018  0.197052  0.196381  1
  O  O65  1  0.500672  0.389637  0.303619  1
  O  O66  1  0.999328  0.302948  0.888966  1
  O  O67  1  0.913982  0.110363  0.611034  1
  O  O68  1  0.610363  0.696381  0.499328  1
  O  O69  1  0.802948  0.803619  0.413982  1
  O  O70  1  0.889637  0.388966  0.086018  1
  O  O71  1  0.697052  0.111034  0.000672  1
  O  O72  1  0.111034  0.000672  0.697052  1
  O  O73  1  0.388966  0.086018  0.889637  1
  O  O74  1  0.803619  0.413982  0.802948  1
  O  O75  1  0.696381  0.499328  0.610363  1
  O  O76  1  0.413982  0.802948  0.803619  1
  O  O77  1  0.499328  0.610363  0.696381  1
  O  O78  1  0.000672  0.697052  0.111034  1
  O  O79  1  0.086018  0.889637  0.388966  1
