# generated using pymatgen
data_BaNd2BeO5
_symmetry_space_group_name_H-M   'P 1'
_cell_length_a   7.46121936
_cell_length_b   6.77191543
_cell_length_c   9.85398847
_cell_angle_alpha   90.00000000
_cell_angle_beta   90.82586577
_cell_angle_gamma   90.00000000
_symmetry_Int_Tables_number   1
_chemical_formula_structural   BaNd2BeO5
_chemical_formula_sum   'Ba4 Nd8 Be4 O20'
_cell_volume   497.83825605
_cell_formula_units_Z   4
loop_
 _symmetry_equiv_pos_site_id
 _symmetry_equiv_pos_as_xyz
  1  'x, y, z'
loop_
 _atom_site_type_symbol
 _atom_site_label
 _atom_site_symmetry_multiplicity
 _atom_site_fract_x
 _atom_site_fract_y
 _atom_site_fract_z
 _atom_site_occupancy
  Ba  Ba0  1  0.520332  0.581980  0.326793  1
  Ba  Ba1  1  0.479668  0.081980  0.173207  1
  Ba  Ba2  1  0.479668  0.418020  0.673207  1
  Ba  Ba3  1  0.520332  0.918020  0.826793  1
  Nd  Nd4  1  0.020550  0.417181  0.676420  1
  Nd  Nd5  1  0.979450  0.917181  0.823580  1
  Nd  Nd6  1  0.979450  0.582819  0.323580  1
  Nd  Nd7  1  0.020550  0.082819  0.176420  1
  Nd  Nd8  1  0.757022  0.090660  0.479471  1
  Nd  Nd9  1  0.242978  0.590660  0.020529  1
  Nd  Nd10  1  0.242978  0.909340  0.520529  1
  Nd  Nd11  1  0.757022  0.409340  0.979471  1
  Be  Be12  1  0.761533  0.807133  0.096574  1
  Be  Be13  1  0.761533  0.692867  0.596574  1
  Be  Be14  1  0.238467  0.192867  0.903426  1
  Be  Be15  1  0.238467  0.307133  0.403426  1
  O  O16  1  0.780093  0.630723  0.768249  1
  O  O17  1  0.219907  0.130723  0.731751  1
  O  O18  1  0.219907  0.369277  0.231751  1
  O  O19  1  0.780093  0.869277  0.268249  1
  O  O20  1  0.785148  0.165003  0.715246  1
  O  O21  1  0.214852  0.665003  0.784754  1
  O  O22  1  0.214852  0.834997  0.284754  1
  O  O23  1  0.785148  0.334997  0.215246  1
  O  O24  1  0.780918  0.017713  0.009643  1
  O  O25  1  0.780918  0.482287  0.509643  1
  O  O26  1  0.219082  0.982287  0.990357  1
  O  O27  1  0.219082  0.517713  0.490357  1
  O  O28  1  0.431029  0.192289  0.438405  1
  O  O29  1  0.568971  0.692289  0.061595  1
  O  O30  1  0.568971  0.807711  0.561595  1
  O  O31  1  0.431029  0.307711  0.938405  1
  O  O32  1  0.941235  0.821374  0.565870  1
  O  O33  1  0.058765  0.321374  0.934130  1
  O  O34  1  0.058765  0.178626  0.434130  1
  O  O35  1  0.941235  0.678626  0.065870  1
