# generated using pymatgen
data_Na4CoO3
_symmetry_space_group_name_H-M   'P 1'
_cell_length_a   6.26788781
_cell_length_b   6.26788781
_cell_length_c   8.22017736
_cell_angle_alpha   68.80183971
_cell_angle_beta   111.19816029
_cell_angle_gamma   124.92679421
_symmetry_Int_Tables_number   1
_chemical_formula_structural   Na4CoO3
_chemical_formula_sum   'Na8 Co2 O6'
_cell_volume   241.75905444
_cell_formula_units_Z   2
loop_
 _symmetry_equiv_pos_site_id
 _symmetry_equiv_pos_as_xyz
  1  'x, y, z'
loop_
 _atom_site_type_symbol
 _atom_site_label
 _atom_site_symmetry_multiplicity
 _atom_site_fract_x
 _atom_site_fract_y
 _atom_site_fract_z
 _atom_site_occupancy
  Na  Na0  1  0.926958  0.758375  0.064795  1
  Na  Na1  1  0.648725  0.671888  0.383587  1
  Na  Na2  1  0.098063  0.560490  0.476332  1
  Na  Na3  1  0.893545  0.523928  0.787557  1
  Na  Na4  1  0.241625  0.073042  0.564795  1
  Na  Na5  1  0.439510  0.901937  0.976332  1
  Na  Na6  1  0.328112  0.351275  0.883587  1
  Na  Na7  1  0.476072  0.106455  0.287557  1
  Co  Co8  1  0.007204  0.295107  0.186582  1
  Co  Co9  1  0.704893  0.992796  0.686582  1
  O  O10  1  0.685017  0.305332  0.545974  1
  O  O11  1  0.359438  0.742405  0.731239  1
  O  O12  1  0.006845  0.973335  0.768933  1
  O  O13  1  0.026665  0.993155  0.268933  1
  O  O14  1  0.257595  0.640562  0.231239  1
  O  O15  1  0.694668  0.314983  0.045974  1
