# generated using pymatgen
data_YB2Rh2C
_symmetry_space_group_name_H-M   'P 1'
_cell_length_a   5.83227470
_cell_length_b   5.83227470
_cell_length_c   5.83227470
_cell_angle_alpha   141.90624563
_cell_angle_beta   141.90624563
_cell_angle_gamma   54.97004954
_symmetry_Int_Tables_number   1
_chemical_formula_structural   YB2Rh2C
_chemical_formula_sum   'Y1 B2 Rh2 C1'
_cell_volume   74.97334046
_cell_formula_units_Z   1
loop_
 _symmetry_equiv_pos_site_id
 _symmetry_equiv_pos_as_xyz
  1  'x, y, z'
loop_
 _atom_site_type_symbol
 _atom_site_label
 _atom_site_symmetry_multiplicity
 _atom_site_fract_x
 _atom_site_fract_y
 _atom_site_fract_z
 _atom_site_occupancy
  Y  Y0  1  0.000000  0.000000  0.000000  1
  B  B1  1  0.355367  0.355367  0.000000  1
  B  B2  1  0.644633  0.644633  0.000000  1
  Rh  Rh3  1  0.250000  0.750000  0.500000  1
  Rh  Rh4  1  0.750000  0.250000  0.500000  1
  C  C5  1  0.500000  0.500000  0.000000  1
