# generated using pymatgen
data_MgSe2O5
_symmetry_space_group_name_H-M   'P 1'
_cell_length_a   6.15247196
_cell_length_b   6.93791824
_cell_length_c   10.54198062
_cell_angle_alpha   90.00000000
_cell_angle_beta   90.00000000
_cell_angle_gamma   90.00000000
_symmetry_Int_Tables_number   1
_chemical_formula_structural   MgSe2O5
_chemical_formula_sum   'Mg4 Se8 O20'
_cell_volume   449.98810539
_cell_formula_units_Z   4
loop_
 _symmetry_equiv_pos_site_id
 _symmetry_equiv_pos_as_xyz
  1  'x, y, z'
loop_
 _atom_site_type_symbol
 _atom_site_label
 _atom_site_symmetry_multiplicity
 _atom_site_fract_x
 _atom_site_fract_y
 _atom_site_fract_z
 _atom_site_occupancy
  Mg  Mg0  1  0.750000  0.000000  0.561273  1
  Mg  Mg1  1  0.250000  0.500000  0.938727  1
  Mg  Mg2  1  0.250000  0.000000  0.438727  1
  Mg  Mg3  1  0.750000  0.500000  0.061273  1
  Se  Se4  1  0.534178  0.136425  0.845579  1
  Se  Se5  1  0.034178  0.363575  0.654421  1
  Se  Se6  1  0.465822  0.636425  0.654421  1
  Se  Se7  1  0.965822  0.863575  0.845579  1
  Se  Se8  1  0.465822  0.863575  0.154421  1
  Se  Se9  1  0.965822  0.636425  0.345579  1
  Se  Se10  1  0.534178  0.363575  0.345579  1
  Se  Se11  1  0.034178  0.136425  0.154421  1
  O  O12  1  0.250000  0.500000  0.566672  1
  O  O13  1  0.750000  0.000000  0.933328  1
  O  O14  1  0.750000  0.500000  0.433328  1
  O  O15  1  0.250000  0.000000  0.066672  1
  O  O16  1  0.663719  0.194093  0.708858  1
  O  O17  1  0.163719  0.305907  0.791142  1
  O  O18  1  0.336281  0.694093  0.791142  1
  O  O19  1  0.836281  0.805907  0.708858  1
  O  O20  1  0.336281  0.805907  0.291142  1
  O  O21  1  0.836281  0.694093  0.208858  1
  O  O22  1  0.663719  0.305907  0.208858  1
  O  O23  1  0.163719  0.194093  0.291142  1
  O  O24  1  0.049495  0.345596  0.067406  1
  O  O25  1  0.549495  0.154404  0.432594  1
  O  O26  1  0.950505  0.845596  0.432594  1
  O  O27  1  0.450505  0.654404  0.067406  1
  O  O28  1  0.950505  0.654404  0.932594  1
  O  O29  1  0.450505  0.845596  0.567406  1
  O  O30  1  0.049495  0.154404  0.567406  1
  O  O31  1  0.549495  0.345596  0.932594  1
