# generated using pymatgen
data_K6CdTe4
_symmetry_space_group_name_H-M   'P 1'
_cell_length_a   11.15848100
_cell_length_b   11.15848100
_cell_length_c   8.52047051
_cell_angle_alpha   90.00000000
_cell_angle_beta   90.00000000
_cell_angle_gamma   120.00000000
_symmetry_Int_Tables_number   1
_chemical_formula_structural   K6CdTe4
_chemical_formula_sum   'K12 Cd2 Te8'
_cell_volume   918.76483758
_cell_formula_units_Z   2
loop_
 _symmetry_equiv_pos_site_id
 _symmetry_equiv_pos_as_xyz
  1  'x, y, z'
loop_
 _atom_site_type_symbol
 _atom_site_label
 _atom_site_symmetry_multiplicity
 _atom_site_fract_x
 _atom_site_fract_y
 _atom_site_fract_z
 _atom_site_occupancy
  K  K0  1  0.474274  0.948548  0.975577  1
  K  K1  1  0.525726  0.474274  0.475577  1
  K  K2  1  0.948548  0.474274  0.475577  1
  K  K3  1  0.051452  0.525726  0.975577  1
  K  K4  1  0.474274  0.525726  0.975577  1
  K  K5  1  0.525726  0.051452  0.475577  1
  K  K6  1  0.700833  0.850416  0.297915  1
  K  K7  1  0.850416  0.700833  0.797915  1
  K  K8  1  0.850416  0.149584  0.797915  1
  K  K9  1  0.149584  0.850416  0.297915  1
  K  K10  1  0.149584  0.299167  0.297915  1
  K  K11  1  0.299167  0.149584  0.797915  1
  Cd  Cd12  1  0.333333  0.666667  0.595025  1
  Cd  Cd13  1  0.666667  0.333333  0.095025  1
  Te  Te14  1  0.619451  0.809726  0.699366  1
  Te  Te15  1  0.809726  0.619451  0.199366  1
  Te  Te16  1  0.809726  0.190274  0.199366  1
  Te  Te17  1  0.190274  0.809726  0.699366  1
  Te  Te18  1  0.190274  0.380549  0.699366  1
  Te  Te19  1  0.380549  0.190274  0.199366  1
  Te  Te20  1  0.333333  0.666667  0.251921  1
  Te  Te21  1  0.666667  0.333333  0.751921  1
