# generated using pymatgen
data_YMnGe
_symmetry_space_group_name_H-M   'P 1'
_cell_length_a   4.09852490
_cell_length_b   7.07172717
_cell_length_c   8.03111322
_cell_angle_alpha   90.00000000
_cell_angle_beta   90.00000000
_cell_angle_gamma   90.00000000
_symmetry_Int_Tables_number   1
_chemical_formula_structural   YMnGe
_chemical_formula_sum   'Y4 Mn4 Ge4'
_cell_volume   232.77097381
_cell_formula_units_Z   4
loop_
 _symmetry_equiv_pos_site_id
 _symmetry_equiv_pos_as_xyz
  1  'x, y, z'
loop_
 _atom_site_type_symbol
 _atom_site_label
 _atom_site_symmetry_multiplicity
 _atom_site_fract_x
 _atom_site_fract_y
 _atom_site_fract_z
 _atom_site_occupancy
  Y  Y0  1  0.250000  0.525758  0.180661  1
  Y  Y1  1  0.750000  0.474242  0.819339  1
  Y  Y2  1  0.250000  0.025758  0.319339  1
  Y  Y3  1  0.750000  0.974242  0.680661  1
  Mn  Mn4  1  0.750000  0.368476  0.445980  1
  Mn  Mn5  1  0.250000  0.131524  0.945980  1
  Mn  Mn6  1  0.750000  0.868476  0.054020  1
  Mn  Mn7  1  0.250000  0.631524  0.554020  1
  Ge  Ge8  1  0.250000  0.274860  0.618820  1
  Ge  Ge9  1  0.750000  0.225140  0.118820  1
  Ge  Ge10  1  0.250000  0.774860  0.881180  1
  Ge  Ge11  1  0.750000  0.725140  0.381180  1
