# generated using pymatgen
data_Zr3Pd4
_symmetry_space_group_name_H-M   'P 1'
_cell_length_a   7.54534231
_cell_length_b   7.54534231
_cell_length_c   7.54534231
_cell_angle_alpha   114.09079864
_cell_angle_beta   114.09079864
_cell_angle_gamma   114.09079864
_symmetry_Int_Tables_number   1
_chemical_formula_structural   Zr3Pd4
_chemical_formula_sum   'Zr6 Pd8'
_cell_volume   259.22132057
_cell_formula_units_Z   2
loop_
 _symmetry_equiv_pos_site_id
 _symmetry_equiv_pos_as_xyz
  1  'x, y, z'
loop_
 _atom_site_type_symbol
 _atom_site_label
 _atom_site_symmetry_multiplicity
 _atom_site_fract_x
 _atom_site_fract_y
 _atom_site_fract_z
 _atom_site_occupancy
  Zr  Zr0  1  0.995343  0.734598  0.603266  1
  Zr  Zr1  1  0.734598  0.603266  0.995343  1
  Zr  Zr2  1  0.603266  0.995343  0.734598  1
  Zr  Zr3  1  0.004657  0.265402  0.396734  1
  Zr  Zr4  1  0.265402  0.396734  0.004657  1
  Zr  Zr5  1  0.396734  0.004657  0.265402  1
  Pd  Pd6  1  0.000000  0.000000  0.000000  1
  Pd  Pd7  1  0.500000  0.500000  0.500000  1
  Pd  Pd8  1  0.559447  0.238053  0.077294  1
  Pd  Pd9  1  0.238053  0.077294  0.559447  1
  Pd  Pd10  1  0.077294  0.559447  0.238053  1
  Pd  Pd11  1  0.440553  0.761947  0.922706  1
  Pd  Pd12  1  0.761947  0.922706  0.440553  1
  Pd  Pd13  1  0.922706  0.440553  0.761947  1
