# generated using pymatgen
data_NaCaAlF6
_symmetry_space_group_name_H-M   'P 1'
_cell_length_a   9.07121724
_cell_length_b   9.07121724
_cell_length_c   5.11669844
_cell_angle_alpha   90.00000000
_cell_angle_beta   90.00000000
_cell_angle_gamma   120.00000000
_symmetry_Int_Tables_number   1
_chemical_formula_structural   NaCaAlF6
_chemical_formula_sum   'Na3 Ca3 Al3 F18'
_cell_volume   364.62932112
_cell_formula_units_Z   3
loop_
 _symmetry_equiv_pos_site_id
 _symmetry_equiv_pos_as_xyz
  1  'x, y, z'
loop_
 _atom_site_type_symbol
 _atom_site_label
 _atom_site_symmetry_multiplicity
 _atom_site_fract_x
 _atom_site_fract_y
 _atom_site_fract_z
 _atom_site_occupancy
  Na  Na0  1  0.000000  0.711958  0.500000  1
  Na  Na1  1  0.711958  0.000000  0.500000  1
  Na  Na2  1  0.288042  0.288042  0.500000  1
  Ca  Ca3  1  0.629542  0.629542  0.000000  1
  Ca  Ca4  1  0.000000  0.370458  0.000000  1
  Ca  Ca5  1  0.370458  0.000000  0.000000  1
  Al  Al6  1  0.666667  0.333333  0.502407  1
  Al  Al7  1  0.333333  0.666667  0.497593  1
  Al  Al8  1  0.000000  0.000000  0.000000  1
  F  F9  1  0.777206  0.253682  0.294948  1
  F  F10  1  0.746318  0.523524  0.294948  1
  F  F11  1  0.476476  0.222794  0.294948  1
  F  F12  1  0.523524  0.746318  0.705052  1
  F  F13  1  0.222794  0.476476  0.705052  1
  F  F14  1  0.253682  0.777206  0.705052  1
  F  F15  1  0.411682  0.555227  0.288950  1
  F  F16  1  0.444773  0.856454  0.288950  1
  F  F17  1  0.143546  0.588318  0.288950  1
  F  F18  1  0.915133  0.108508  0.800042  1
  F  F19  1  0.891492  0.806625  0.800042  1
  F  F20  1  0.193375  0.084867  0.800042  1
  F  F21  1  0.806625  0.891492  0.199958  1
  F  F22  1  0.084867  0.193375  0.199958  1
  F  F23  1  0.108508  0.915133  0.199958  1
  F  F24  1  0.555227  0.411682  0.711050  1
  F  F25  1  0.588318  0.143546  0.711050  1
  F  F26  1  0.856454  0.444773  0.711050  1
