# generated using pymatgen
data_GdSnF7
_symmetry_space_group_name_H-M   'P 1'
_cell_length_a   9.11161669
_cell_length_b   5.72789679
_cell_length_c   12.25171541
_cell_angle_alpha   90.00000000
_cell_angle_beta   117.66086570
_cell_angle_gamma   90.00000000
_symmetry_Int_Tables_number   1
_chemical_formula_structural   GdSnF7
_chemical_formula_sum   'Gd4 Sn4 F28'
_cell_volume   566.34298233
_cell_formula_units_Z   4
loop_
 _symmetry_equiv_pos_site_id
 _symmetry_equiv_pos_as_xyz
  1  'x, y, z'
loop_
 _atom_site_type_symbol
 _atom_site_label
 _atom_site_symmetry_multiplicity
 _atom_site_fract_x
 _atom_site_fract_y
 _atom_site_fract_z
 _atom_site_occupancy
  Gd  Gd0  1  0.312987  0.757939  0.234606  1
  Gd  Gd1  1  0.687013  0.257939  0.265394  1
  Gd  Gd2  1  0.687013  0.242061  0.765394  1
  Gd  Gd3  1  0.312987  0.742061  0.734606  1
  Sn  Sn4  1  0.227001  0.243568  0.956743  1
  Sn  Sn5  1  0.772999  0.743568  0.543257  1
  Sn  Sn6  1  0.772999  0.756432  0.043257  1
  Sn  Sn7  1  0.227001  0.256432  0.456743  1
  F  F8  1  0.217980  0.952549  0.045326  1
  F  F9  1  0.782020  0.452549  0.454674  1
  F  F10  1  0.782020  0.047451  0.954674  1
  F  F11  1  0.217980  0.547451  0.545326  1
  F  F12  1  0.207952  0.047706  0.580268  1
  F  F13  1  0.792048  0.547706  0.919732  1
  F  F14  1  0.792048  0.952294  0.419732  1
  F  F15  1  0.207952  0.452294  0.080268  1
  F  F16  1  0.019047  0.729722  0.640682  1
  F  F17  1  0.980953  0.229722  0.859318  1
  F  F18  1  0.980953  0.270278  0.359318  1
  F  F19  1  0.019047  0.770278  0.140682  1
  F  F20  1  0.526314  0.740755  0.446641  1
  F  F21  1  0.473686  0.240755  0.053359  1
  F  F22  1  0.473686  0.259245  0.553359  1
  F  F23  1  0.526314  0.759245  0.946641  1
  F  F24  1  0.244688  0.043377  0.828596  1
  F  F25  1  0.755312  0.543377  0.671404  1
  F  F26  1  0.755312  0.956623  0.171404  1
  F  F27  1  0.244688  0.456623  0.328596  1
  F  F28  1  0.769856  0.019718  0.642318  1
  F  F29  1  0.230144  0.519718  0.857682  1
  F  F30  1  0.230144  0.980282  0.357682  1
  F  F31  1  0.769856  0.480282  0.142318  1
  F  F32  1  0.470560  0.079614  0.266338  1
  F  F33  1  0.529440  0.579614  0.233662  1
  F  F34  1  0.529440  0.920386  0.733662  1
  F  F35  1  0.470560  0.420386  0.766338  1
