# generated using pymatgen
data_Be3N2
_symmetry_space_group_name_H-M   'P 1'
_cell_length_a   7.05733655
_cell_length_b   7.05733655
_cell_length_c   7.05733655
_cell_angle_alpha   109.47122063
_cell_angle_beta   109.47122063
_cell_angle_gamma   109.47122063
_symmetry_Int_Tables_number   1
_chemical_formula_structural   Be3N2
_chemical_formula_sum   'Be24 N16'
_cell_volume   270.58305429
_cell_formula_units_Z   8
loop_
 _symmetry_equiv_pos_site_id
 _symmetry_equiv_pos_as_xyz
  1  'x, y, z'
loop_
 _atom_site_type_symbol
 _atom_site_label
 _atom_site_symmetry_multiplicity
 _atom_site_fract_x
 _atom_site_fract_y
 _atom_site_fract_z
 _atom_site_occupancy
  Be  Be0  1  0.525917  0.766323  0.531876  1
  Be  Be1  1  0.994041  0.968124  0.734447  1
  Be  Be2  1  0.259595  0.765553  0.733677  1
  Be  Be3  1  0.505959  0.240405  0.974083  1
  Be  Be4  1  0.968124  0.734447  0.994041  1
  Be  Be5  1  0.733677  0.259595  0.765553  1
  Be  Be6  1  0.240405  0.974083  0.505959  1
  Be  Be7  1  0.531876  0.525917  0.766323  1
  Be  Be8  1  0.766323  0.531876  0.525917  1
  Be  Be9  1  0.734447  0.994041  0.968124  1
  Be  Be10  1  0.765553  0.733677  0.259595  1
  Be  Be11  1  0.974083  0.505959  0.240405  1
  Be  Be12  1  0.474083  0.233677  0.468124  1
  Be  Be13  1  0.005959  0.031876  0.265553  1
  Be  Be14  1  0.740405  0.234447  0.266323  1
  Be  Be15  1  0.494041  0.759595  0.025917  1
  Be  Be16  1  0.031876  0.265553  0.005959  1
  Be  Be17  1  0.266323  0.740405  0.234447  1
  Be  Be18  1  0.759595  0.025917  0.494041  1
  Be  Be19  1  0.468124  0.474083  0.233677  1
  Be  Be20  1  0.233677  0.468124  0.474083  1
  Be  Be21  1  0.265553  0.005959  0.031876  1
  Be  Be22  1  0.234447  0.266323  0.740405  1
  Be  Be23  1  0.025917  0.494041  0.759595  1
  N  N24  1  0.250000  0.229124  0.979124  1
  N  N25  1  0.270876  0.520876  0.750000  1
  N  N26  1  0.520876  0.750000  0.270876  1
  N  N27  1  0.229124  0.979124  0.250000  1
  N  N28  1  0.979124  0.250000  0.229124  1
  N  N29  1  0.750000  0.270876  0.520876  1
  N  N30  1  0.750000  0.770876  0.020876  1
  N  N31  1  0.729124  0.479124  0.250000  1
  N  N32  1  0.479124  0.250000  0.729124  1
  N  N33  1  0.770876  0.020876  0.750000  1
  N  N34  1  0.020876  0.750000  0.770876  1
  N  N35  1  0.250000  0.729124  0.479124  1
  N  N36  1  0.500000  0.500000  0.500000  1
  N  N37  1  1.000000  1.000000  0.500000  1
  N  N38  1  0.500000  1.000000  0.000000  1
  N  N39  1  1.000000  0.500000  0.000000  1
