# generated using pymatgen
data_KBe2B3O7
_symmetry_space_group_name_H-M   'P 1'
_cell_length_a   7.57093556
_cell_length_b   13.41525326
_cell_length_c   9.43330739
_cell_angle_alpha   90.00000000
_cell_angle_beta   111.43277681
_cell_angle_gamma   90.00000000
_symmetry_Int_Tables_number   1
_chemical_formula_structural   KBe2B3O7
_chemical_formula_sum   'K6 Be12 B18 O42'
_cell_volume   891.84767203
_cell_formula_units_Z   6
loop_
 _symmetry_equiv_pos_site_id
 _symmetry_equiv_pos_as_xyz
  1  'x, y, z'
loop_
 _atom_site_type_symbol
 _atom_site_label
 _atom_site_symmetry_multiplicity
 _atom_site_fract_x
 _atom_site_fract_y
 _atom_site_fract_z
 _atom_site_occupancy
  K  K0  1  0.629942  0.941663  0.233197  1
  K  K1  1  0.370058  0.441663  0.766803  1
  K  K2  1  0.620883  0.588726  0.233766  1
  K  K3  1  0.379117  0.088726  0.766234  1
  K  K4  1  0.998100  0.017127  0.994519  1
  K  K5  1  0.001900  0.517127  0.005481  1
  Be  Be6  1  0.024984  0.103981  0.414132  1
  Be  Be7  1  0.975016  0.603981  0.585868  1
  Be  Be8  1  0.970110  0.936998  0.576353  1
  Be  Be9  1  0.029890  0.436998  0.423647  1
  Be  Be10  1  0.603909  0.936221  0.583727  1
  Be  Be11  1  0.396091  0.436221  0.416273  1
  Be  Be12  1  0.401180  0.104475  0.423517  1
  Be  Be13  1  0.598820  0.604475  0.576483  1
  Be  Be14  1  0.601310  0.271880  0.590923  1
  Be  Be15  1  0.398690  0.771880  0.409077  1
  Be  Be16  1  0.973457  0.269376  0.590112  1
  Be  Be17  1  0.026543  0.769376  0.409888  1
  B  B18  1  0.764496  0.104250  0.535761  1
  B  B19  1  0.235504  0.604250  0.464239  1
  B  B20  1  0.764011  0.771147  0.525572  1
  B  B21  1  0.235989  0.271147  0.474428  1
  B  B22  1  0.232698  0.935464  0.460508  1
  B  B23  1  0.767302  0.435464  0.539492  1
  B  B24  1  0.654203  0.855745  0.847842  1
  B  B25  1  0.345797  0.355745  0.152158  1
  B  B26  1  0.808700  0.762361  0.087030  1
  B  B27  1  0.191300  0.262361  0.912970  1
  B  B28  1  0.643597  0.676639  0.842494  1
  B  B29  1  0.356403  0.176639  0.157506  1
  B  B30  1  0.690165  0.271223  0.912736  1
  B  B31  1  0.309835  0.771223  0.087264  1
  B  B32  1  0.845407  0.177025  0.149687  1
  B  B33  1  0.154593  0.677025  0.850313  1
  B  B34  1  0.844405  0.358592  0.157168  1
  B  B35  1  0.155595  0.858592  0.842832  1
  O  O36  1  0.081346  0.987688  0.474052  1
  O  O37  1  0.918654  0.487688  0.525948  1
  O  O38  1  0.913473  0.154874  0.518144  1
  O  O39  1  0.086527  0.654874  0.481856  1
  O  O40  1  0.778801  0.334697  0.569152  1
  O  O41  1  0.221199  0.834697  0.430848  1
  O  O42  1  0.605006  0.154064  0.536512  1
  O  O43  1  0.394994  0.654064  0.463488  1
  O  O44  1  0.398740  0.987902  0.483720  1
  O  O45  1  0.601260  0.487902  0.516280  1
  O  O46  1  0.771554  0.000938  0.548056  1
  O  O47  1  0.228446  0.500938  0.451944  1
  O  O48  1  0.602175  0.822684  0.516203  1
  O  O49  1  0.397825  0.322684  0.483797  1
  O  O50  1  0.907146  0.824321  0.502025  1
  O  O51  1  0.092854  0.324321  0.497975  1
  O  O52  1  0.772936  0.668298  0.546821  1
  O  O53  1  0.227064  0.168298  0.453179  1
  O  O54  1  0.888693  0.759222  0.236235  1
  O  O55  1  0.111307  0.259222  0.763765  1
  O  O56  1  0.766988  0.853796  0.005709  1
  O  O57  1  0.233012  0.353796  0.994291  1
  O  O58  1  0.755134  0.673278  0.000342  1
  O  O59  1  0.244866  0.173278  0.999658  1
  O  O60  1  0.644101  0.938059  0.765264  1
  O  O61  1  0.355899  0.438059  0.234736  1
  O  O62  1  0.561205  0.767846  0.784872  1
  O  O63  1  0.438795  0.267846  0.215128  1
  O  O64  1  0.624704  0.596364  0.754297  1
  O  O65  1  0.375296  0.096364  0.245703  1
  O  O66  1  0.603609  0.274308  0.763002  1
  O  O67  1  0.396391  0.774308  0.236998  1
  O  O68  1  0.729529  0.360647  0.000224  1
  O  O69  1  0.270471  0.860647  0.999776  1
  O  O70  1  0.733871  0.178774  0.992178  1
  O  O71  1  0.266129  0.678774  0.007822  1
  O  O72  1  0.892061  0.440626  0.243449  1
  O  O73  1  0.107939  0.940626  0.756551  1
  O  O74  1  0.917394  0.266974  0.216544  1
  O  O75  1  0.082606  0.766974  0.783456  1
  O  O76  1  0.892003  0.093327  0.232276  1
  O  O77  1  0.107997  0.593327  0.767724  1
