# generated using pymatgen
data_Ti2Be17
_symmetry_space_group_name_H-M   'P 1'
_cell_length_a   5.54441095
_cell_length_b   5.54441095
_cell_length_c   5.54441095
_cell_angle_alpha   82.84412023
_cell_angle_beta   82.84412023
_cell_angle_gamma   82.84412023
_symmetry_Int_Tables_number   1
_chemical_formula_structural   Ti2Be17
_chemical_formula_sum   'Ti2 Be17'
_cell_volume   166.76055652
_cell_formula_units_Z   1
loop_
 _symmetry_equiv_pos_site_id
 _symmetry_equiv_pos_as_xyz
  1  'x, y, z'
loop_
 _atom_site_type_symbol
 _atom_site_label
 _atom_site_symmetry_multiplicity
 _atom_site_fract_x
 _atom_site_fract_y
 _atom_site_fract_z
 _atom_site_occupancy
  Ti  Ti0  1  0.836161  0.836161  0.836161  1
  Ti  Ti1  1  0.163839  0.163839  0.163839  1
  Be  Be2  1  0.598987  0.598987  0.598987  1
  Be  Be3  1  0.401013  0.401013  0.401013  1
  Be  Be4  1  0.000000  0.500000  0.500000  1
  Be  Be5  1  0.500000  0.000000  0.500000  1
  Be  Be6  1  0.500000  0.500000  0.000000  1
  Be  Be7  1  0.795194  0.204806  0.500000  1
  Be  Be8  1  0.500000  0.795194  0.204806  1
  Be  Be9  1  0.204806  0.500000  0.795194  1
  Be  Be10  1  0.204806  0.795194  0.500000  1
  Be  Be11  1  0.500000  0.204806  0.795194  1
  Be  Be12  1  0.795194  0.500000  0.204806  1
  Be  Be13  1  0.846409  0.846409  0.339819  1
  Be  Be14  1  0.339819  0.846409  0.846409  1
  Be  Be15  1  0.846409  0.339819  0.846409  1
  Be  Be16  1  0.153591  0.660181  0.153591  1
  Be  Be17  1  0.153591  0.153591  0.660181  1
  Be  Be18  1  0.660181  0.153591  0.153591  1
