# generated using pymatgen
data_ZnP2
_symmetry_space_group_name_H-M   'P 1'
_cell_length_a   7.61182073
_cell_length_b   7.32674757
_cell_length_c   8.89691571
_cell_angle_alpha   90.00000000
_cell_angle_beta   102.36203200
_cell_angle_gamma   90.00000000
_symmetry_Int_Tables_number   1
_chemical_formula_structural   ZnP2
_chemical_formula_sum   'Zn8 P16'
_cell_volume   484.67575168
_cell_formula_units_Z   8
loop_
 _symmetry_equiv_pos_site_id
 _symmetry_equiv_pos_as_xyz
  1  'x, y, z'
loop_
 _atom_site_type_symbol
 _atom_site_label
 _atom_site_symmetry_multiplicity
 _atom_site_fract_x
 _atom_site_fract_y
 _atom_site_fract_z
 _atom_site_occupancy
  Zn  Zn0  1  0.275468  0.596076  0.607493  1
  Zn  Zn1  1  0.224532  0.096076  0.392507  1
  Zn  Zn2  1  0.724532  0.403924  0.392507  1
  Zn  Zn3  1  0.775468  0.903924  0.607493  1
  Zn  Zn4  1  0.106019  0.246887  0.919259  1
  Zn  Zn5  1  0.393981  0.746887  0.080741  1
  Zn  Zn6  1  0.893981  0.753113  0.080741  1
  Zn  Zn7  1  0.606019  0.253113  0.919259  1
  P  P8  1  0.104594  0.755977  0.922026  1
  P  P9  1  0.395406  0.255977  0.077974  1
  P  P10  1  0.895406  0.244023  0.077974  1
  P  P11  1  0.604594  0.744023  0.922026  1
  P  P12  1  0.072380  0.983853  0.757988  1
  P  P13  1  0.427620  0.483853  0.242012  1
  P  P14  1  0.927620  0.016147  0.242012  1
  P  P15  1  0.572380  0.516147  0.757988  1
  P  P16  1  0.783587  0.573137  0.625423  1
  P  P17  1  0.716413  0.073137  0.374577  1
  P  P18  1  0.216413  0.426863  0.374577  1
  P  P19  1  0.283587  0.926863  0.625423  1
  P  P20  1  0.559116  0.980505  0.764866  1
  P  P21  1  0.940884  0.480505  0.235134  1
  P  P22  1  0.440884  0.019495  0.235134  1
  P  P23  1  0.059116  0.519495  0.764866  1
