# generated using pymatgen
data_Er(BRh)4
_symmetry_space_group_name_H-M   'P 1'
_cell_length_a   9.16373770
_cell_length_b   9.16373770
_cell_length_c   9.16373770
_cell_angle_alpha   131.39696241
_cell_angle_beta   131.39696241
_cell_angle_gamma   71.18314312
_symmetry_Int_Tables_number   1
_chemical_formula_structural   Er(BRh)4
_chemical_formula_sum   'Er4 B16 Rh16'
_cell_volume   423.92498887
_cell_formula_units_Z   4
loop_
 _symmetry_equiv_pos_site_id
 _symmetry_equiv_pos_as_xyz
  1  'x, y, z'
loop_
 _atom_site_type_symbol
 _atom_site_label
 _atom_site_symmetry_multiplicity
 _atom_site_fract_x
 _atom_site_fract_y
 _atom_site_fract_z
 _atom_site_occupancy
  Er  Er0  1  0.750000  0.750000  0.000000  1
  Er  Er1  1  0.500000  0.000000  0.500000  1
  Er  Er2  1  0.000000  0.500000  0.500000  1
  Er  Er3  1  0.250000  0.250000  0.000000  1
  B  B4  1  0.529797  0.997438  0.191515  1
  B  B5  1  0.161718  0.694077  0.191515  1
  B  B6  1  0.502562  0.970203  0.808485  1
  B  B7  1  0.720203  0.411718  0.967641  1
  B  B8  1  0.088282  0.779797  0.032359  1
  B  B9  1  0.805923  0.338282  0.808485  1
  B  B10  1  0.220203  0.252562  0.308485  1
  B  B11  1  0.588282  0.555923  0.308485  1
  B  B12  1  0.247438  0.279797  0.691515  1
  B  B13  1  0.029797  0.838282  0.532359  1
  B  B14  1  0.305923  0.497438  0.467641  1
  B  B15  1  0.002562  0.194077  0.532359  1
  B  B16  1  0.661718  0.470203  0.467641  1
  B  B17  1  0.944077  0.911718  0.691515  1
  B  B18  1  0.444077  0.752562  0.032359  1
  B  B19  1  0.747438  0.055923  0.967641  1
  Rh  Rh20  1  0.717060  0.679430  0.269425  1
  Rh  Rh21  1  0.197635  0.967060  0.537630  1
  Rh  Rh22  1  0.429430  0.660004  0.462370  1
  Rh  Rh23  1  0.532940  0.302365  0.462370  1
  Rh  Rh24  1  0.820570  0.782940  0.730575  1
  Rh  Rh25  1  0.839996  0.070570  0.537630  1
  Rh  Rh26  1  0.217060  0.947635  0.037630  1
  Rh  Rh27  1  0.320570  0.589996  0.037630  1
  Rh  Rh28  1  0.552365  0.282940  0.962370  1
  Rh  Rh29  1  0.032940  0.570570  0.230575  1
  Rh  Rh30  1  0.339996  0.802365  0.769425  1
  Rh  Rh31  1  0.697635  0.160004  0.230575  1
  Rh  Rh32  1  0.929430  0.467060  0.769425  1
  Rh  Rh33  1  0.910004  0.179430  0.962370  1
  Rh  Rh34  1  0.410004  0.447635  0.730575  1
  Rh  Rh35  1  0.052365  0.089996  0.269425  1
