# generated using pymatgen
data_Hg2GeO4
_symmetry_space_group_name_H-M   'P 1'
_cell_length_a   8.10385463
_cell_length_b   6.73428402
_cell_length_c   6.55948733
_cell_angle_alpha   75.10797929
_cell_angle_beta   53.42581095
_cell_angle_gamma   51.46620976
_symmetry_Int_Tables_number   1
_chemical_formula_structural   Hg2GeO4
_chemical_formula_sum   'Hg4 Ge2 O8'
_cell_volume   221.13473330
_cell_formula_units_Z   2
loop_
 _symmetry_equiv_pos_site_id
 _symmetry_equiv_pos_as_xyz
  1  'x, y, z'
loop_
 _atom_site_type_symbol
 _atom_site_label
 _atom_site_symmetry_multiplicity
 _atom_site_fract_x
 _atom_site_fract_y
 _atom_site_fract_z
 _atom_site_occupancy
  Hg  Hg0  1  0.182062  0.817938  0.182062  1
  Hg  Hg1  1  0.817938  0.182062  0.817938  1
  Hg  Hg2  1  0.067938  0.432062  0.067938  1
  Hg  Hg3  1  0.432062  0.067938  0.432062  1
  Ge  Ge4  1  0.500000  0.500000  0.500000  1
  Ge  Ge5  1  0.750000  0.750000  0.750000  1
  O  O6  1  0.462361  0.371581  0.336564  1
  O  O7  1  0.829494  0.336564  0.371581  1
  O  O8  1  0.336564  0.829494  0.462361  1
  O  O9  1  0.371581  0.462361  0.829494  1
  O  O10  1  0.787639  0.878419  0.913436  1
  O  O11  1  0.420506  0.913436  0.878419  1
  O  O12  1  0.878419  0.787639  0.420506  1
  O  O13  1  0.913436  0.420506  0.787639  1
