# generated using pymatgen
data_SrZn5
_symmetry_space_group_name_H-M   'P 1'
_cell_length_a   5.23201119
_cell_length_b   6.86153663
_cell_length_c   13.16722019
_cell_angle_alpha   90.00000000
_cell_angle_beta   90.00000000
_cell_angle_gamma   90.00000000
_symmetry_Int_Tables_number   1
_chemical_formula_structural   SrZn5
_chemical_formula_sum   'Sr4 Zn20'
_cell_volume   472.69841760
_cell_formula_units_Z   4
loop_
 _symmetry_equiv_pos_site_id
 _symmetry_equiv_pos_as_xyz
  1  'x, y, z'
loop_
 _atom_site_type_symbol
 _atom_site_label
 _atom_site_symmetry_multiplicity
 _atom_site_fract_x
 _atom_site_fract_y
 _atom_site_fract_z
 _atom_site_occupancy
  Sr  Sr0  1  0.250000  0.646637  0.910507  1
  Sr  Sr1  1  0.250000  0.853363  0.410507  1
  Sr  Sr2  1  0.750000  0.353363  0.089493  1
  Sr  Sr3  1  0.750000  0.146637  0.589493  1
  Zn  Zn4  1  0.250000  0.339123  0.714059  1
  Zn  Zn5  1  0.250000  0.160877  0.214059  1
  Zn  Zn6  1  0.750000  0.660877  0.285941  1
  Zn  Zn7  1  0.750000  0.839123  0.785941  1
  Zn  Zn8  1  0.250000  0.957878  0.705595  1
  Zn  Zn9  1  0.250000  0.542122  0.205595  1
  Zn  Zn10  1  0.750000  0.042122  0.294405  1
  Zn  Zn11  1  0.750000  0.457878  0.794405  1
  Zn  Zn12  1  0.998112  0.152753  0.857111  1
  Zn  Zn13  1  0.501888  0.347247  0.357111  1
  Zn  Zn14  1  0.498112  0.847247  0.142889  1
  Zn  Zn15  1  0.001888  0.652753  0.642889  1
  Zn  Zn16  1  0.001888  0.847247  0.142889  1
  Zn  Zn17  1  0.498112  0.652753  0.642889  1
  Zn  Zn18  1  0.501888  0.152753  0.857111  1
  Zn  Zn19  1  0.998112  0.347247  0.357111  1
  Zn  Zn20  1  0.250000  0.405710  0.521808  1
  Zn  Zn21  1  0.250000  0.094290  0.021808  1
  Zn  Zn22  1  0.750000  0.594290  0.478192  1
  Zn  Zn23  1  0.750000  0.905710  0.978192  1
