# generated using pymatgen
data_DyGeRu
_symmetry_space_group_name_H-M   'P 1'
_cell_length_a   4.43461183
_cell_length_b   7.05262207
_cell_length_c   7.25242230
_cell_angle_alpha   90.00000000
_cell_angle_beta   90.00000000
_cell_angle_gamma   90.00000000
_symmetry_Int_Tables_number   1
_chemical_formula_structural   DyGeRu
_chemical_formula_sum   'Dy4 Ge4 Ru4'
_cell_volume   226.82415815
_cell_formula_units_Z   4
loop_
 _symmetry_equiv_pos_site_id
 _symmetry_equiv_pos_as_xyz
  1  'x, y, z'
loop_
 _atom_site_type_symbol
 _atom_site_label
 _atom_site_symmetry_multiplicity
 _atom_site_fract_x
 _atom_site_fract_y
 _atom_site_fract_z
 _atom_site_occupancy
  Dy  Dy0  1  0.250000  0.985563  0.808252  1
  Dy  Dy1  1  0.750000  0.014437  0.191748  1
  Dy  Dy2  1  0.250000  0.485563  0.691748  1
  Dy  Dy3  1  0.750000  0.514437  0.308252  1
  Ge  Ge4  1  0.250000  0.297470  0.106260  1
  Ge  Ge5  1  0.750000  0.702530  0.893740  1
  Ge  Ge6  1  0.250000  0.797470  0.393740  1
  Ge  Ge7  1  0.750000  0.202530  0.606260  1
  Ru  Ru8  1  0.750000  0.845014  0.564125  1
  Ru  Ru9  1  0.250000  0.154986  0.435875  1
  Ru  Ru10  1  0.750000  0.345014  0.935875  1
  Ru  Ru11  1  0.250000  0.654986  0.064125  1
