# generated using pymatgen
data_Sm2CuAs3O
_symmetry_space_group_name_H-M   'P 1'
_cell_length_a   3.99137594
_cell_length_b   3.99956782
_cell_length_c   34.82254098
_cell_angle_alpha   90.00000000
_cell_angle_beta   90.00000000
_cell_angle_gamma   90.00000000
_symmetry_Int_Tables_number   1
_chemical_formula_structural   Sm2CuAs3O
_chemical_formula_sum   'Sm8 Cu4 As12 O4'
_cell_volume   555.89933981
_cell_formula_units_Z   4
loop_
 _symmetry_equiv_pos_site_id
 _symmetry_equiv_pos_as_xyz
  1  'x, y, z'
loop_
 _atom_site_type_symbol
 _atom_site_label
 _atom_site_symmetry_multiplicity
 _atom_site_fract_x
 _atom_site_fract_y
 _atom_site_fract_z
 _atom_site_occupancy
  Sm  Sm0  1  0.750000  0.751232  0.966883  1
  Sm  Sm1  1  0.250000  0.251232  0.533117  1
  Sm  Sm2  1  0.750000  0.748768  0.466883  1
  Sm  Sm3  1  0.250000  0.248768  0.033117  1
  Sm  Sm4  1  0.250000  0.307973  0.824177  1
  Sm  Sm5  1  0.750000  0.807973  0.675823  1
  Sm  Sm6  1  0.250000  0.192027  0.324177  1
  Sm  Sm7  1  0.750000  0.692027  0.175823  1
  Cu  Cu8  1  0.250000  0.808380  0.750036  1
  Cu  Cu9  1  0.750000  0.308380  0.749964  1
  Cu  Cu10  1  0.250000  0.691620  0.250036  1
  Cu  Cu11  1  0.750000  0.191620  0.249964  1
  As  As12  1  0.250000  0.830992  0.892979  1
  As  As13  1  0.750000  0.330992  0.607021  1
  As  As14  1  0.250000  0.669008  0.392979  1
  As  As15  1  0.750000  0.169008  0.107021  1
  As  As16  1  0.750000  0.251288  0.894095  1
  As  As17  1  0.250000  0.751288  0.605905  1
  As  As18  1  0.750000  0.248712  0.394095  1
  As  As19  1  0.250000  0.748712  0.105905  1
  As  As20  1  0.250000  0.309052  0.705477  1
  As  As21  1  0.750000  0.809052  0.794523  1
  As  As22  1  0.250000  0.190948  0.205477  1
  As  As23  1  0.750000  0.690948  0.294523  1
  O  O24  1  0.750000  0.251299  0.000135  1
  O  O25  1  0.250000  0.751299  0.499865  1
  O  O26  1  0.750000  0.248701  0.500135  1
  O  O27  1  0.250000  0.748701  0.999865  1
