# generated using pymatgen
data_Ca2SiO4
_symmetry_space_group_name_H-M   'P 1'
_cell_length_a   5.62537979
_cell_length_b   5.62537979
_cell_length_c   6.80806386
_cell_angle_alpha   90.00000000
_cell_angle_beta   90.00000000
_cell_angle_gamma   120.00000000
_symmetry_Int_Tables_number   1
_chemical_formula_structural   Ca2SiO4
_chemical_formula_sum   'Ca4 Si2 O8'
_cell_volume   186.57693275
_cell_formula_units_Z   2
loop_
 _symmetry_equiv_pos_site_id
 _symmetry_equiv_pos_as_xyz
  1  'x, y, z'
loop_
 _atom_site_type_symbol
 _atom_site_label
 _atom_site_symmetry_multiplicity
 _atom_site_fract_x
 _atom_site_fract_y
 _atom_site_fract_z
 _atom_site_occupancy
  Ca  Ca0  1  0.666667  0.333333  0.343891  1
  Ca  Ca1  1  0.333333  0.666667  0.656109  1
  Ca  Ca2  1  0.000000  0.000000  0.500000  1
  Ca  Ca3  1  0.000000  0.000000  0.000000  1
  Si  Si4  1  0.666667  0.333333  0.802312  1
  Si  Si5  1  0.333333  0.666667  0.197688  1
  O  O6  1  0.666667  0.333333  0.037731  1
  O  O7  1  0.333333  0.666667  0.962269  1
  O  O8  1  0.354409  0.177204  0.707773  1
  O  O9  1  0.822796  0.645591  0.707773  1
  O  O10  1  0.822796  0.177204  0.707773  1
  O  O11  1  0.645591  0.822796  0.292227  1
  O  O12  1  0.177204  0.354409  0.292227  1
  O  O13  1  0.177204  0.822796  0.292227  1
