# generated using pymatgen
data_Pu5Ru3
_symmetry_space_group_name_H-M   'P 1'
_cell_length_a   8.16100251
_cell_length_b   8.16100251
_cell_length_c   8.16100251
_cell_angle_alpha   96.92886939
_cell_angle_beta   96.92886939
_cell_angle_gamma   139.35200616
_symmetry_Int_Tables_number   1
_chemical_formula_structural   Pu5Ru3
_chemical_formula_sum   'Pu10 Ru6'
_cell_volume   332.02366139
_cell_formula_units_Z   2
loop_
 _symmetry_equiv_pos_site_id
 _symmetry_equiv_pos_as_xyz
  1  'x, y, z'
loop_
 _atom_site_type_symbol
 _atom_site_label
 _atom_site_symmetry_multiplicity
 _atom_site_fract_x
 _atom_site_fract_y
 _atom_site_fract_z
 _atom_site_occupancy
  Pu  Pu0  1  0.587956  0.281914  0.869870  1
  Pu  Pu1  1  0.412044  0.718086  0.130130  1
  Pu  Pu2  1  0.281914  0.412044  0.693959  1
  Pu  Pu3  1  0.718086  0.587956  0.306041  1
  Pu  Pu4  1  0.218086  0.912044  0.130130  1
  Pu  Pu5  1  0.087956  0.218086  0.306041  1
  Pu  Pu6  1  0.912044  0.781914  0.693959  1
  Pu  Pu7  1  0.781914  0.087956  0.869870  1
  Pu  Pu8  1  0.250000  0.750000  0.500000  1
  Pu  Pu9  1  0.750000  0.250000  0.500000  1
  Ru  Ru10  1  0.647222  0.852779  0.500000  1
  Ru  Ru11  1  0.147221  0.647222  0.794443  1
  Ru  Ru12  1  0.852779  0.352779  0.205557  1
  Ru  Ru13  1  0.352779  0.147222  0.500000  1
  Ru  Ru14  1  0.750000  0.750000  0.000000  1
  Ru  Ru15  1  0.250000  0.250000  0.000000  1
