# generated using pymatgen
data_BaMgP2O7
_symmetry_space_group_name_H-M   'P 1'
_cell_length_a   5.55309841
_cell_length_b   8.65081062
_cell_length_c   13.96031120
_cell_angle_alpha   90.00000000
_cell_angle_beta   111.97341949
_cell_angle_gamma   90.00000000
_symmetry_Int_Tables_number   1
_chemical_formula_structural   BaMgP2O7
_chemical_formula_sum   'Ba4 Mg4 P8 O28'
_cell_volume   621.91994099
_cell_formula_units_Z   4
loop_
 _symmetry_equiv_pos_site_id
 _symmetry_equiv_pos_as_xyz
  1  'x, y, z'
loop_
 _atom_site_type_symbol
 _atom_site_label
 _atom_site_symmetry_multiplicity
 _atom_site_fract_x
 _atom_site_fract_y
 _atom_site_fract_z
 _atom_site_occupancy
  Ba  Ba0  1  0.057631  0.126792  0.297041  1
  Ba  Ba1  1  0.942369  0.626792  0.202959  1
  Ba  Ba2  1  0.942369  0.873208  0.702959  1
  Ba  Ba3  1  0.057631  0.373208  0.797041  1
  Mg  Mg4  1  0.333542  0.333658  0.121530  1
  Mg  Mg5  1  0.666458  0.833658  0.378470  1
  Mg  Mg6  1  0.666458  0.666342  0.878470  1
  Mg  Mg7  1  0.333542  0.166342  0.621530  1
  P  P8  1  0.697526  0.185858  0.481560  1
  P  P9  1  0.302474  0.685858  0.018440  1
  P  P10  1  0.302474  0.814142  0.518440  1
  P  P11  1  0.697526  0.314142  0.981560  1
  P  P12  1  0.402143  0.938344  0.169643  1
  P  P13  1  0.597857  0.438344  0.330357  1
  P  P14  1  0.597857  0.061656  0.830357  1
  P  P15  1  0.402143  0.561656  0.669643  1
  O  O16  1  0.694039  0.904331  0.206760  1
  O  O17  1  0.305961  0.404331  0.293240  1
  O  O18  1  0.305961  0.095669  0.793240  1
  O  O19  1  0.694039  0.595669  0.706760  1
  O  O20  1  0.439870  0.189722  0.498247  1
  O  O21  1  0.560130  0.689722  0.001753  1
  O  O22  1  0.560130  0.810278  0.501753  1
  O  O23  1  0.439870  0.310278  0.998247  1
  O  O24  1  0.325174  0.107437  0.154313  1
  O  O25  1  0.674826  0.607437  0.345687  1
  O  O26  1  0.674826  0.892563  0.845687  1
  O  O27  1  0.325174  0.392563  0.654313  1
  O  O28  1  0.933605  0.160420  0.580989  1
  O  O29  1  0.066395  0.660420  0.919011  1
  O  O30  1  0.066395  0.839580  0.419011  1
  O  O31  1  0.933605  0.339580  0.080989  1
  O  O32  1  0.254998  0.642631  0.557982  1
  O  O33  1  0.745002  0.142631  0.942018  1
  O  O34  1  0.745002  0.357369  0.442018  1
  O  O35  1  0.254998  0.857369  0.057982  1
  O  O36  1  0.301151  0.635860  0.748849  1
  O  O37  1  0.698849  0.135860  0.751151  1
  O  O38  1  0.698849  0.364140  0.251151  1
  O  O39  1  0.301151  0.864140  0.248849  1
  O  O40  1  0.681834  0.424669  0.893325  1
  O  O41  1  0.318166  0.924669  0.606675  1
  O  O42  1  0.318166  0.575331  0.106675  1
  O  O43  1  0.681834  0.075331  0.393325  1
