# generated using pymatgen
data_LaTmO3
_symmetry_space_group_name_H-M   'P 1'
_cell_length_a   5.85709029
_cell_length_b   6.05144230
_cell_length_c   8.46815149
_cell_angle_alpha   90.00000000
_cell_angle_beta   90.00000000
_cell_angle_gamma   90.00000000
_symmetry_Int_Tables_number   1
_chemical_formula_structural   LaTmO3
_chemical_formula_sum   'La4 Tm4 O12'
_cell_volume   300.14383984
_cell_formula_units_Z   4
loop_
 _symmetry_equiv_pos_site_id
 _symmetry_equiv_pos_as_xyz
  1  'x, y, z'
loop_
 _atom_site_type_symbol
 _atom_site_label
 _atom_site_symmetry_multiplicity
 _atom_site_fract_x
 _atom_site_fract_y
 _atom_site_fract_z
 _atom_site_occupancy
  La  La0  1  0.985080  0.047891  0.250000  1
  La  La1  1  0.485080  0.452109  0.750000  1
  La  La2  1  0.514920  0.547891  0.250000  1
  La  La3  1  0.014920  0.952109  0.750000  1
  Tm  Tm4  1  0.000000  0.500000  0.000000  1
  Tm  Tm5  1  0.500000  0.000000  0.000000  1
  Tm  Tm6  1  0.500000  0.000000  0.500000  1
  Tm  Tm7  1  0.000000  0.500000  0.500000  1
  O  O8  1  0.306464  0.695210  0.566282  1
  O  O9  1  0.806464  0.804790  0.433718  1
  O  O10  1  0.193536  0.195210  0.933718  1
  O  O11  1  0.693536  0.304790  0.066282  1
  O  O12  1  0.693536  0.304790  0.433718  1
  O  O13  1  0.193536  0.195210  0.566282  1
  O  O14  1  0.806464  0.804790  0.066282  1
  O  O15  1  0.306464  0.695210  0.933718  1
  O  O16  1  0.124356  0.445457  0.250000  1
  O  O17  1  0.624356  0.054543  0.750000  1
  O  O18  1  0.375644  0.945457  0.250000  1
  O  O19  1  0.875644  0.554543  0.750000  1
