# generated using pymatgen
data_Zn(InSe2)2
_symmetry_space_group_name_H-M   'P 1'
_cell_length_a   8.00330345
_cell_length_b   8.00330345
_cell_length_c   8.00330345
_cell_angle_alpha   60.00000000
_cell_angle_beta   60.00000000
_cell_angle_gamma   60.00000000
_symmetry_Int_Tables_number   1
_chemical_formula_structural   Zn(InSe2)2
_chemical_formula_sum   'Zn2 In4 Se8'
_cell_volume   362.48734817
_cell_formula_units_Z   2
loop_
 _symmetry_equiv_pos_site_id
 _symmetry_equiv_pos_as_xyz
  1  'x, y, z'
loop_
 _atom_site_type_symbol
 _atom_site_label
 _atom_site_symmetry_multiplicity
 _atom_site_fract_x
 _atom_site_fract_y
 _atom_site_fract_z
 _atom_site_occupancy
  Zn  Zn0  1  0.250000  0.250000  0.250000  1
  Zn  Zn1  1  1.000000  0.000000  1.000000  1
  In  In2  1  0.625000  0.625000  0.625000  1
  In  In3  1  0.125000  0.625000  0.625000  1
  In  In4  1  0.625000  0.625000  0.125000  1
  In  In5  1  0.625000  0.125000  0.625000  1
  Se  Se6  1  0.379589  0.379589  0.379589  1
  Se  Se7  1  0.861234  0.379589  0.379589  1
  Se  Se8  1  0.379589  0.379589  0.861234  1
  Se  Se9  1  0.379589  0.861234  0.379589  1
  Se  Se10  1  0.870411  0.870411  0.870411  1
  Se  Se11  1  0.388766  0.870411  0.870411  1
  Se  Se12  1  0.870411  0.870411  0.388766  1
  Se  Se13  1  0.870411  0.388766  0.870411  1
