# generated using pymatgen
data_LaTe2
_symmetry_space_group_name_H-M   'P 1'
_cell_length_a   4.55965668
_cell_length_b   4.55965668
_cell_length_c   9.29189284
_cell_angle_alpha   90.00000000
_cell_angle_beta   90.00000000
_cell_angle_gamma   90.00000000
_symmetry_Int_Tables_number   1
_chemical_formula_structural   LaTe2
_chemical_formula_sum   'La2 Te4'
_cell_volume   193.18281041
_cell_formula_units_Z   2
loop_
 _symmetry_equiv_pos_site_id
 _symmetry_equiv_pos_as_xyz
  1  'x, y, z'
loop_
 _atom_site_type_symbol
 _atom_site_label
 _atom_site_symmetry_multiplicity
 _atom_site_fract_x
 _atom_site_fract_y
 _atom_site_fract_z
 _atom_site_occupancy
  La  La0  1  0.000000  0.500000  0.725606  1
  La  La1  1  0.500000  0.000000  0.274394  1
  Te  Te2  1  0.000000  0.500000  0.366476  1
  Te  Te3  1  0.500000  0.000000  0.633524  1
  Te  Te4  1  0.500000  0.500000  0.000000  1
  Te  Te5  1  0.000000  0.000000  0.000000  1
