# generated using pymatgen
data_Li12Si7
_symmetry_space_group_name_H-M   'P 1'
_cell_length_a   8.53123776
_cell_length_b   14.31268194
_cell_length_c   19.62266159
_cell_angle_alpha   90.00000000
_cell_angle_beta   90.00000000
_cell_angle_gamma   90.00000000
_symmetry_Int_Tables_number   1
_chemical_formula_structural   Li12Si7
_chemical_formula_sum   'Li96 Si56'
_cell_volume   2396.02298624
_cell_formula_units_Z   8
loop_
 _symmetry_equiv_pos_site_id
 _symmetry_equiv_pos_as_xyz
  1  'x, y, z'
loop_
 _atom_site_type_symbol
 _atom_site_label
 _atom_site_symmetry_multiplicity
 _atom_site_fract_x
 _atom_site_fract_y
 _atom_site_fract_z
 _atom_site_occupancy
  Li  Li0  1  0.661751  0.834148  0.250000  1
  Li  Li1  1  0.161751  0.665852  0.250000  1
  Li  Li2  1  0.838249  0.334148  0.750000  1
  Li  Li3  1  0.338249  0.165852  0.750000  1
  Li  Li4  1  0.613080  0.631190  0.250000  1
  Li  Li5  1  0.113080  0.868810  0.250000  1
  Li  Li6  1  0.886920  0.131190  0.750000  1
  Li  Li7  1  0.386920  0.368810  0.750000  1
  Li  Li8  1  0.496279  0.472434  0.375000  1
  Li  Li9  1  0.996279  0.027566  0.125000  1
  Li  Li10  1  0.003721  0.972434  0.625000  1
  Li  Li11  1  0.503721  0.527566  0.875000  1
  Li  Li12  1  0.503721  0.527566  0.625000  1
  Li  Li13  1  0.003721  0.972434  0.875000  1
  Li  Li14  1  0.996279  0.027566  0.375000  1
  Li  Li15  1  0.496279  0.472434  0.125000  1
  Li  Li16  1  0.842441  0.494911  0.388345  1
  Li  Li17  1  0.342441  0.005089  0.111655  1
  Li  Li18  1  0.657559  0.994911  0.611655  1
  Li  Li19  1  0.157559  0.505089  0.888345  1
  Li  Li20  1  0.157559  0.505089  0.611655  1
  Li  Li21  1  0.657559  0.994911  0.888345  1
  Li  Li22  1  0.342441  0.005089  0.388345  1
  Li  Li23  1  0.842441  0.494911  0.111655  1
  Li  Li24  1  0.877105  0.659589  0.165647  1
  Li  Li25  1  0.377105  0.840411  0.334353  1
  Li  Li26  1  0.622895  0.159589  0.834353  1
  Li  Li27  1  0.122895  0.340411  0.665647  1
  Li  Li28  1  0.122895  0.340411  0.834353  1
  Li  Li29  1  0.622895  0.159589  0.665647  1
  Li  Li30  1  0.377105  0.840411  0.165647  1
  Li  Li31  1  0.877105  0.659589  0.334353  1
  Li  Li32  1  0.370439  0.934319  0.972197  1
  Li  Li33  1  0.870439  0.565681  0.527803  1
  Li  Li34  1  0.129561  0.434319  0.027803  1
  Li  Li35  1  0.629561  0.065681  0.472197  1
  Li  Li36  1  0.629561  0.065681  0.027803  1
  Li  Li37  1  0.129561  0.434319  0.472197  1
  Li  Li38  1  0.870439  0.565681  0.972197  1
  Li  Li39  1  0.370439  0.934319  0.527803  1
  Li  Li40  1  0.630432  0.263484  0.112699  1
  Li  Li41  1  0.130432  0.236516  0.387301  1
  Li  Li42  1  0.869568  0.763484  0.887301  1
  Li  Li43  1  0.369568  0.736516  0.612699  1
  Li  Li44  1  0.369568  0.736516  0.887301  1
  Li  Li45  1  0.869568  0.763484  0.612699  1
  Li  Li46  1  0.130432  0.236516  0.112699  1
  Li  Li47  1  0.630432  0.263484  0.387301  1
  Li  Li48  1  0.366860  0.567358  0.995146  1
  Li  Li49  1  0.866860  0.932642  0.504854  1
  Li  Li50  1  0.133140  0.067358  0.004854  1
  Li  Li51  1  0.633140  0.432642  0.495146  1
  Li  Li52  1  0.633140  0.432642  0.004854  1
  Li  Li53  1  0.133140  0.067358  0.495146  1
  Li  Li54  1  0.866860  0.932642  0.995146  1
  Li  Li55  1  0.366860  0.567358  0.504854  1
  Li  Li56  1  0.371822  0.638839  0.145063  1
  Li  Li57  1  0.871822  0.861161  0.354937  1
  Li  Li58  1  0.128178  0.138839  0.854937  1
  Li  Li59  1  0.628178  0.361161  0.645063  1
  Li  Li60  1  0.628178  0.361161  0.854937  1
  Li  Li61  1  0.128178  0.138839  0.645063  1
  Li  Li62  1  0.871822  0.861161  0.145063  1
  Li  Li63  1  0.371822  0.638839  0.354937  1
  Li  Li64  1  0.870491  0.743668  0.031570  1
  Li  Li65  1  0.370491  0.756332  0.468430  1
  Li  Li66  1  0.629509  0.243668  0.968430  1
  Li  Li67  1  0.129509  0.256332  0.531570  1
  Li  Li68  1  0.129509  0.256332  0.968430  1
  Li  Li69  1  0.629509  0.243668  0.531570  1
  Li  Li70  1  0.370491  0.756332  0.031570  1
  Li  Li71  1  0.870491  0.743668  0.468430  1
  Li  Li72  1  0.137915  0.477849  0.328636  1
  Li  Li73  1  0.637915  0.022151  0.171364  1
  Li  Li74  1  0.362085  0.977849  0.671364  1
  Li  Li75  1  0.862085  0.522151  0.828636  1
  Li  Li76  1  0.862085  0.522151  0.671364  1
  Li  Li77  1  0.362085  0.977849  0.828636  1
  Li  Li78  1  0.637915  0.022151  0.328636  1
  Li  Li79  1  0.137915  0.477849  0.171364  1
  Li  Li80  1  0.862649  0.162568  0.311093  1
  Li  Li81  1  0.362649  0.337432  0.188907  1
  Li  Li82  1  0.637351  0.662568  0.688907  1
  Li  Li83  1  0.137351  0.837432  0.811093  1
  Li  Li84  1  0.137351  0.837432  0.688907  1
  Li  Li85  1  0.637351  0.662568  0.811093  1
  Li  Li86  1  0.362649  0.337432  0.311093  1
  Li  Li87  1  0.862649  0.162568  0.188907  1
  Li  Li88  1  0.608819  0.843372  0.812806  1
  Li  Li89  1  0.108819  0.656628  0.687194  1
  Li  Li90  1  0.891181  0.343372  0.187194  1
  Li  Li91  1  0.391181  0.156628  0.312806  1
  Li  Li92  1  0.391181  0.156628  0.187194  1
  Li  Li93  1  0.891181  0.343372  0.312806  1
  Li  Li94  1  0.108819  0.656628  0.812806  1
  Li  Li95  1  0.608819  0.843372  0.687194  1
  Si  Si96  1  0.615657  0.492192  0.750000  1
  Si  Si97  1  0.115657  0.007808  0.750000  1
  Si  Si98  1  0.884343  0.992192  0.250000  1
  Si  Si99  1  0.384343  0.507808  0.250000  1
  Si  Si100  1  0.122276  0.488039  0.750000  1
  Si  Si101  1  0.622276  0.011961  0.750000  1
  Si  Si102  1  0.377724  0.988039  0.250000  1
  Si  Si103  1  0.877724  0.511961  0.250000  1
  Si  Si104  1  0.371789  0.735461  0.750000  1
  Si  Si105  1  0.871789  0.764539  0.750000  1
  Si  Si106  1  0.128211  0.235461  0.250000  1
  Si  Si107  1  0.628211  0.264539  0.250000  1
  Si  Si108  1  0.367024  0.569558  0.750000  1
  Si  Si109  1  0.867024  0.930442  0.750000  1
  Si  Si110  1  0.132976  0.069558  0.250000  1
  Si  Si111  1  0.632976  0.430442  0.250000  1
  Si  Si112  1  0.123876  0.751950  0.367843  1
  Si  Si113  1  0.623876  0.748050  0.132157  1
  Si  Si114  1  0.376124  0.251950  0.632157  1
  Si  Si115  1  0.876124  0.248050  0.867843  1
  Si  Si116  1  0.876124  0.248050  0.632157  1
  Si  Si117  1  0.376124  0.251950  0.867843  1
  Si  Si118  1  0.623876  0.748050  0.367843  1
  Si  Si119  1  0.123876  0.751950  0.132157  1
  Si  Si120  1  0.106531  0.614015  0.434983  1
  Si  Si121  1  0.606531  0.885985  0.065017  1
  Si  Si122  1  0.393469  0.114015  0.565017  1
  Si  Si123  1  0.893469  0.385985  0.934983  1
  Si  Si124  1  0.893469  0.385985  0.565017  1
  Si  Si125  1  0.393469  0.114015  0.934983  1
  Si  Si126  1  0.606531  0.885985  0.434983  1
  Si  Si127  1  0.106531  0.614015  0.065017  1
  Si  Si128  1  0.117767  0.666445  0.550609  1
  Si  Si129  1  0.617767  0.833555  0.949391  1
  Si  Si130  1  0.382233  0.166445  0.449391  1
  Si  Si131  1  0.882233  0.333555  0.050609  1
  Si  Si132  1  0.882233  0.333555  0.449391  1
  Si  Si133  1  0.382233  0.166445  0.050609  1
  Si  Si134  1  0.617767  0.833555  0.550609  1
  Si  Si135  1  0.117767  0.666445  0.949391  1
  Si  Si136  1  0.119922  0.831416  0.553142  1
  Si  Si137  1  0.619922  0.668584  0.946858  1
  Si  Si138  1  0.380078  0.331416  0.446858  1
  Si  Si139  1  0.880078  0.168584  0.053142  1
  Si  Si140  1  0.880078  0.168584  0.446858  1
  Si  Si141  1  0.380078  0.331416  0.053142  1
  Si  Si142  1  0.619922  0.668584  0.553142  1
  Si  Si143  1  0.119922  0.831416  0.946858  1
  Si  Si144  1  0.131146  0.885834  0.439174  1
  Si  Si145  1  0.631146  0.614166  0.060826  1
  Si  Si146  1  0.368854  0.385834  0.560826  1
  Si  Si147  1  0.868854  0.114166  0.939174  1
  Si  Si148  1  0.868854  0.114166  0.560826  1
  Si  Si149  1  0.368854  0.385834  0.939174  1
  Si  Si150  1  0.631146  0.614166  0.439174  1
  Si  Si151  1  0.131146  0.885834  0.060826  1
