# generated using pymatgen
data_NdGa2Ni
_symmetry_space_group_name_H-M   'P 1'
_cell_length_a   9.02217489
_cell_length_b   9.02217489
_cell_length_c   4.17576627
_cell_angle_alpha   90.00000000
_cell_angle_beta   90.00000000
_cell_angle_gamma   153.03089389
_symmetry_Int_Tables_number   1
_chemical_formula_structural   NdGa2Ni
_chemical_formula_sum   'Nd2 Ga4 Ni2'
_cell_volume   154.15071198
_cell_formula_units_Z   2
loop_
 _symmetry_equiv_pos_site_id
 _symmetry_equiv_pos_as_xyz
  1  'x, y, z'
loop_
 _atom_site_type_symbol
 _atom_site_label
 _atom_site_symmetry_multiplicity
 _atom_site_fract_x
 _atom_site_fract_y
 _atom_site_fract_z
 _atom_site_occupancy
  Nd  Nd0  1  0.141735  0.858265  0.000000  1
  Nd  Nd1  1  0.858265  0.141735  0.000000  1
  Ga  Ga2  1  0.000000  0.000000  0.500000  1
  Ga  Ga3  1  0.290853  0.709147  0.500000  1
  Ga  Ga4  1  0.500000  0.500000  1.000000  1
  Ga  Ga5  1  0.709147  0.290853  0.500000  1
  Ni  Ni6  1  0.426905  0.573095  0.500000  1
  Ni  Ni7  1  0.573095  0.426905  0.500000  1
