# generated using pymatgen
data_K2U3(TeO7)2
_symmetry_space_group_name_H-M   'P 1'
_cell_length_a   7.01207676
_cell_length_b   7.12017094
_cell_length_c   8.14767617
_cell_angle_alpha   106.40659178
_cell_angle_beta   102.13105663
_cell_angle_gamma   97.58858864
_symmetry_Int_Tables_number   1
_chemical_formula_structural   K2U3(TeO7)2
_chemical_formula_sum   'K2 U3 Te2 O14'
_cell_volume   373.48196344
_cell_formula_units_Z   1
loop_
 _symmetry_equiv_pos_site_id
 _symmetry_equiv_pos_as_xyz
  1  'x, y, z'
loop_
 _atom_site_type_symbol
 _atom_site_label
 _atom_site_symmetry_multiplicity
 _atom_site_fract_x
 _atom_site_fract_y
 _atom_site_fract_z
 _atom_site_occupancy
  K  K0  1  0.296745  0.603122  0.155660  1
  K  K1  1  0.703255  0.396878  0.844340  1
  U  U2  1  0.602093  0.165176  0.240370  1
  U  U3  1  0.397907  0.834824  0.759630  1
  U  U4  1  0.000000  0.000000  0.000000  1
  Te  Te5  1  0.163236  0.324445  0.491080  1
  Te  Te6  1  0.836764  0.675555  0.508920  1
  O  O7  1  0.969434  0.763886  0.054962  1
  O  O8  1  0.030566  0.236114  0.945038  1
  O  O9  1  0.612567  0.394531  0.170970  1
  O  O10  1  0.387433  0.605469  0.829030  1
  O  O11  1  0.606022  0.948160  0.320852  1
  O  O12  1  0.393978  0.051840  0.679148  1
  O  O13  1  0.679767  0.003917  0.976076  1
  O  O14  1  0.036636  0.820362  0.725088  1
  O  O15  1  0.963364  0.179638  0.274912  1
  O  O16  1  0.633497  0.735701  0.625758  1
  O  O17  1  0.366503  0.264299  0.374242  1
  O  O18  1  0.816063  0.410113  0.523759  1
  O  O19  1  0.183937  0.589887  0.476241  1
  O  O20  1  0.320233  0.996083  0.023924  1
