# generated using pymatgen
data_YbGaGe
_symmetry_space_group_name_H-M   'P 1'
_cell_length_a   4.24488969
_cell_length_b   4.24488969
_cell_length_c   16.61801714
_cell_angle_alpha   90.00000000
_cell_angle_beta   90.00000000
_cell_angle_gamma   120.00000000
_symmetry_Int_Tables_number   1
_chemical_formula_structural   YbGaGe
_chemical_formula_sum   'Yb4 Ga4 Ge4'
_cell_volume   259.32396459
_cell_formula_units_Z   4
loop_
 _symmetry_equiv_pos_site_id
 _symmetry_equiv_pos_as_xyz
  1  'x, y, z'
loop_
 _atom_site_type_symbol
 _atom_site_label
 _atom_site_symmetry_multiplicity
 _atom_site_fract_x
 _atom_site_fract_y
 _atom_site_fract_z
 _atom_site_occupancy
  Yb  Yb0  1  0.000000  0.000000  0.750000  1
  Yb  Yb1  1  0.000000  0.000000  0.250000  1
  Yb  Yb2  1  0.000000  0.000000  0.500000  1
  Yb  Yb3  1  0.000000  0.000000  0.000000  1
  Ga  Ga4  1  0.666667  0.333333  0.842064  1
  Ga  Ga5  1  0.666667  0.333333  0.657936  1
  Ga  Ga6  1  0.333333  0.666667  0.157936  1
  Ga  Ga7  1  0.333333  0.666667  0.342064  1
  Ge  Ge8  1  0.666667  0.333333  0.110607  1
  Ge  Ge9  1  0.666667  0.333333  0.389393  1
  Ge  Ge10  1  0.333333  0.666667  0.889393  1
  Ge  Ge11  1  0.333333  0.666667  0.610607  1
