# generated using pymatgen
data_Sm(SiIr)2
_symmetry_space_group_name_H-M   'P 1'
_cell_length_a   5.82815271
_cell_length_b   5.82815271
_cell_length_c   5.82815271
_cell_angle_alpha   138.74762304
_cell_angle_beta   138.74762304
_cell_angle_gamma   59.75988691
_symmetry_Int_Tables_number   1
_chemical_formula_structural   Sm(SiIr)2
_chemical_formula_sum   'Sm1 Si2 Ir2'
_cell_volume   85.20351428
_cell_formula_units_Z   1
loop_
 _symmetry_equiv_pos_site_id
 _symmetry_equiv_pos_as_xyz
  1  'x, y, z'
loop_
 _atom_site_type_symbol
 _atom_site_label
 _atom_site_symmetry_multiplicity
 _atom_site_fract_x
 _atom_site_fract_y
 _atom_site_fract_z
 _atom_site_occupancy
  Sm  Sm0  1  0.000000  0.000000  0.000000  1
  Si  Si1  1  0.622962  0.622962  0.000000  1
  Si  Si2  1  0.377038  0.377038  0.000000  1
  Ir  Ir3  1  0.250000  0.750000  0.500000  1
  Ir  Ir4  1  0.750000  0.250000  0.500000  1
