# generated using pymatgen
data_FeP
_symmetry_space_group_name_H-M   'P 1'
_cell_length_a   3.05259005
_cell_length_b   5.14800165
_cell_length_c   5.75913829
_cell_angle_alpha   90.00000000
_cell_angle_beta   90.00000000
_cell_angle_gamma   90.00000000
_symmetry_Int_Tables_number   1
_chemical_formula_structural   FeP
_chemical_formula_sum   'Fe4 P4'
_cell_volume   90.50335287
_cell_formula_units_Z   4
loop_
 _symmetry_equiv_pos_site_id
 _symmetry_equiv_pos_as_xyz
  1  'x, y, z'
loop_
 _atom_site_type_symbol
 _atom_site_label
 _atom_site_symmetry_multiplicity
 _atom_site_fract_x
 _atom_site_fract_y
 _atom_site_fract_z
 _atom_site_occupancy
  Fe  Fe0  1  0.250000  0.501131  0.701581  1
  Fe  Fe1  1  0.750000  0.498869  0.298419  1
  Fe  Fe2  1  0.750000  0.998869  0.201581  1
  Fe  Fe3  1  0.250000  0.001131  0.798419  1
  P  P4  1  0.250000  0.690847  0.067177  1
  P  P5  1  0.750000  0.309153  0.932823  1
  P  P6  1  0.750000  0.809153  0.567177  1
  P  P7  1  0.250000  0.190847  0.432823  1
