# generated using pymatgen
data_BaHoCo4O7
_symmetry_space_group_name_H-M   'P 1'
_cell_length_a   6.38258126
_cell_length_b   6.38258126
_cell_length_c   10.40487575
_cell_angle_alpha   90.00000000
_cell_angle_beta   90.00000000
_cell_angle_gamma   120.00000000
_symmetry_Int_Tables_number   1
_chemical_formula_structural   BaHoCo4O7
_chemical_formula_sum   'Ba2 Ho2 Co8 O14'
_cell_volume   367.07958788
_cell_formula_units_Z   2
loop_
 _symmetry_equiv_pos_site_id
 _symmetry_equiv_pos_as_xyz
  1  'x, y, z'
loop_
 _atom_site_type_symbol
 _atom_site_label
 _atom_site_symmetry_multiplicity
 _atom_site_fract_x
 _atom_site_fract_y
 _atom_site_fract_z
 _atom_site_occupancy
  Ba  Ba0  1  0.333333  0.666667  0.977251  1
  Ba  Ba1  1  0.666667  0.333333  0.477251  1
  Ho  Ho2  1  0.333333  0.666667  0.373517  1
  Ho  Ho3  1  0.666667  0.333333  0.873517  1
  Co  Co4  1  0.830475  0.169525  0.183701  1
  Co  Co5  1  0.660949  0.830475  0.683701  1
  Co  Co6  1  0.169525  0.339051  0.683701  1
  Co  Co7  1  0.830475  0.660949  0.183701  1
  Co  Co8  1  0.339051  0.169525  0.183701  1
  Co  Co9  1  0.169525  0.830475  0.683701  1
  Co  Co10  1  0.000000  0.000000  0.938858  1
  Co  Co11  1  0.000000  0.000000  0.438858  1
  O  O12  1  0.832198  0.167802  0.999143  1
  O  O13  1  0.664396  0.832198  0.499143  1
  O  O14  1  0.167802  0.335604  0.499143  1
  O  O15  1  0.832198  0.664396  0.999143  1
  O  O16  1  0.335604  0.167802  0.999143  1
  O  O17  1  0.167802  0.832198  0.499143  1
  O  O18  1  0.000000  0.000000  0.740389  1
  O  O19  1  0.000000  0.000000  0.240389  1
  O  O20  1  0.507985  0.492015  0.256484  1
  O  O21  1  0.015969  0.507985  0.756484  1
  O  O22  1  0.492015  0.984031  0.756484  1
  O  O23  1  0.507985  0.015969  0.256484  1
  O  O24  1  0.492015  0.507985  0.756484  1
  O  O25  1  0.984031  0.492015  0.256484  1
