# generated using pymatgen
data_Cs2Li2B2P4O15
_symmetry_space_group_name_H-M   'P 1'
_cell_length_a   7.27433153
_cell_length_b   7.97996911
_cell_length_c   14.27363058
_cell_angle_alpha   86.04167215
_cell_angle_beta   104.36251538
_cell_angle_gamma   113.80340935
_symmetry_Int_Tables_number   1
_chemical_formula_structural   Cs2Li2B2P4O15
_chemical_formula_sum   'Cs4 Li4 B4 P8 O30'
_cell_volume   733.94214651
_cell_formula_units_Z   2
loop_
 _symmetry_equiv_pos_site_id
 _symmetry_equiv_pos_as_xyz
  1  'x, y, z'
loop_
 _atom_site_type_symbol
 _atom_site_label
 _atom_site_symmetry_multiplicity
 _atom_site_fract_x
 _atom_site_fract_y
 _atom_site_fract_z
 _atom_site_occupancy
  Cs  Cs0  1  0.282373  0.188277  0.134221  1
  Cs  Cs1  1  0.717627  0.811723  0.865779  1
  Cs  Cs2  1  0.901080  0.240425  0.350738  1
  Cs  Cs3  1  0.098920  0.759575  0.649262  1
  Li  Li4  1  0.778297  0.227113  0.008798  1
  Li  Li5  1  0.221703  0.772887  0.991202  1
  Li  Li6  1  0.288805  0.741894  0.223594  1
  Li  Li7  1  0.711195  0.258106  0.776406  1
  B  B8  1  0.864131  0.716867  0.286385  1
  B  B9  1  0.135869  0.283133  0.713615  1
  B  B10  1  0.536538  0.757015  0.509563  1
  B  B11  1  0.463462  0.242985  0.490437  1
  P  P12  1  0.264086  0.891414  0.401845  1
  P  P13  1  0.735914  0.108586  0.598155  1
  P  P14  1  0.517435  0.530226  0.359680  1
  P  P15  1  0.482565  0.469774  0.640320  1
  P  P16  1  0.659986  0.842467  0.129260  1
  P  P17  1  0.340014  0.157533  0.870740  1
  P  P18  1  0.835091  0.581095  0.109968  1
  P  P19  1  0.164909  0.418905  0.890032  1
  O  O20  1  0.323528  0.744799  0.467832  1
  O  O21  1  0.676472  0.255201  0.532168  1
  O  O22  1  0.363162  0.944906  0.317547  1
  O  O23  1  0.636838  0.055094  0.682453  1
  O  O24  1  0.309889  0.051571  0.473325  1
  O  O25  1  0.690111  0.948429  0.526675  1
  O  O26  1  0.022701  0.801731  0.374590  1
  O  O27  1  0.977299  0.198269  0.625410  1
  O  O28  1  0.610874  0.674161  0.445502  1
  O  O29  1  0.389126  0.325839  0.554498  1
  O  O30  1  0.456178  0.331396  0.397241  1
  O  O31  1  0.543822  0.668604  0.602759  1
  O  O32  1  0.333775  0.538551  0.286280  1
  O  O33  1  0.666225  0.461449  0.713720  1
  O  O34  1  0.440209  0.821260  0.120739  1
  O  O35  1  0.559791  0.178740  0.879261  1
  O  O36  1  0.778931  0.851506  0.240520  1
  O  O37  1  0.221069  0.148494  0.759480  1
  O  O38  1  0.788689  0.998302  0.076524  1
  O  O39  1  0.211311  0.001698  0.923476  1
  O  O40  1  0.642750  0.647164  0.089540  1
  O  O41  1  0.357250  0.352836  0.910460  1
  O  O42  1  0.703541  0.552250  0.316035  1
  O  O43  1  0.296459  0.447750  0.683965  1
  O  O44  1  0.978438  0.682835  0.046340  1
  O  O45  1  0.021562  0.317165  0.953660  1
  O  O46  1  0.953449  0.655243  0.219767  1
  O  O47  1  0.046551  0.344757  0.780233  1
  O  O48  1  0.741611  0.374658  0.104228  1
  O  O49  1  0.258389  0.625342  0.895772  1
