# generated using pymatgen
data_ErGePt
_symmetry_space_group_name_H-M   'P 1'
_cell_length_a   4.36400425
_cell_length_b   6.97333478
_cell_length_c   7.61950856
_cell_angle_alpha   90.00000000
_cell_angle_beta   90.00000000
_cell_angle_gamma   90.00000000
_symmetry_Int_Tables_number   1
_chemical_formula_structural   ErGePt
_chemical_formula_sum   'Er4 Ge4 Pt4'
_cell_volume   231.87431380
_cell_formula_units_Z   4
loop_
 _symmetry_equiv_pos_site_id
 _symmetry_equiv_pos_as_xyz
  1  'x, y, z'
loop_
 _atom_site_type_symbol
 _atom_site_label
 _atom_site_symmetry_multiplicity
 _atom_site_fract_x
 _atom_site_fract_y
 _atom_site_fract_z
 _atom_site_occupancy
  Er  Er0  1  0.750000  0.497419  0.796011  1
  Er  Er1  1  0.250000  0.002581  0.296011  1
  Er  Er2  1  0.750000  0.997419  0.703989  1
  Er  Er3  1  0.250000  0.502581  0.203989  1
  Ge  Ge4  1  0.250000  0.690911  0.589576  1
  Ge  Ge5  1  0.250000  0.190911  0.910424  1
  Ge  Ge6  1  0.750000  0.309089  0.410424  1
  Ge  Ge7  1  0.750000  0.809089  0.089576  1
  Pt  Pt8  1  0.250000  0.794427  0.916225  1
  Pt  Pt9  1  0.250000  0.294427  0.583775  1
  Pt  Pt10  1  0.750000  0.705573  0.416225  1
  Pt  Pt11  1  0.750000  0.205573  0.083775  1
