# generated using pymatgen
data_Er3Ge4
_symmetry_space_group_name_H-M   'P 1'
_cell_length_a   5.68019393
_cell_length_b   5.68019393
_cell_length_c   14.22629435
_cell_angle_alpha   90.00000000
_cell_angle_beta   90.00000000
_cell_angle_gamma   138.38306675
_symmetry_Int_Tables_number   1
_chemical_formula_structural   Er3Ge4
_chemical_formula_sum   'Er6 Ge8'
_cell_volume   304.84737207
_cell_formula_units_Z   2
loop_
 _symmetry_equiv_pos_site_id
 _symmetry_equiv_pos_as_xyz
  1  'x, y, z'
loop_
 _atom_site_type_symbol
 _atom_site_label
 _atom_site_symmetry_multiplicity
 _atom_site_fract_x
 _atom_site_fract_y
 _atom_site_fract_z
 _atom_site_occupancy
  Er  Er0  1  0.169154  0.830846  0.596854  1
  Er  Er1  1  0.830846  0.169154  0.403146  1
  Er  Er2  1  0.830846  0.169154  0.096854  1
  Er  Er3  1  0.169154  0.830846  0.903146  1
  Er  Er4  1  0.547567  0.452433  0.250000  1
  Er  Er5  1  0.452433  0.547567  0.750000  1
  Ge  Ge6  1  0.120478  0.879522  0.391626  1
  Ge  Ge7  1  0.879522  0.120478  0.608374  1
  Ge  Ge8  1  0.879522  0.120478  0.891626  1
  Ge  Ge9  1  0.120478  0.879522  0.108374  1
  Ge  Ge10  1  0.276920  0.723080  0.250000  1
  Ge  Ge11  1  0.723080  0.276920  0.750000  1
  Ge  Ge12  1  0.500000  0.500000  0.000000  1
  Ge  Ge13  1  0.500000  0.500000  0.500000  1
