# generated using pymatgen
data_Sm2Co12P7
_symmetry_space_group_name_H-M   'P 1'
_cell_length_a   9.07440207
_cell_length_b   9.07440207
_cell_length_c   3.62334107
_cell_angle_alpha   90.00000000
_cell_angle_beta   90.00000000
_cell_angle_gamma   120.00000000
_symmetry_Int_Tables_number   1
_chemical_formula_structural   Sm2Co12P7
_chemical_formula_sum   'Sm2 Co12 P7'
_cell_volume   258.39010879
_cell_formula_units_Z   1
loop_
 _symmetry_equiv_pos_site_id
 _symmetry_equiv_pos_as_xyz
  1  'x, y, z'
loop_
 _atom_site_type_symbol
 _atom_site_label
 _atom_site_symmetry_multiplicity
 _atom_site_fract_x
 _atom_site_fract_y
 _atom_site_fract_z
 _atom_site_occupancy
  Sm  Sm0  1  0.333333  0.666667  0.500000  1
  Sm  Sm1  1  0.000000  0.000000  0.000000  1
  Co  Co2  1  0.099446  0.391909  0.000000  1
  Co  Co3  1  0.608091  0.707537  0.000000  1
  Co  Co4  1  0.292463  0.900554  0.000000  1
  Co  Co5  1  0.048483  0.766430  0.500000  1
  Co  Co6  1  0.233570  0.282053  0.500000  1
  Co  Co7  1  0.717947  0.951517  0.500000  1
  Co  Co8  1  0.818250  0.604260  0.000000  1
  Co  Co9  1  0.395740  0.213990  0.000000  1
  Co  Co10  1  0.786010  0.181750  0.000000  1
  Co  Co11  1  0.898890  0.436132  0.500000  1
  Co  Co12  1  0.563868  0.462758  0.500000  1
  Co  Co13  1  0.537242  0.101110  0.500000  1
  P  P14  1  0.774335  0.732456  0.500000  1
  P  P15  1  0.267544  0.041879  0.500000  1
  P  P16  1  0.958121  0.225665  0.500000  1
  P  P17  1  0.666667  0.333333  0.000000  1
  P  P18  1  0.070001  0.627173  0.000000  1
  P  P19  1  0.372827  0.442828  0.000000  1
  P  P20  1  0.557172  0.929999  0.000000  1
