# generated using pymatgen
data_Dy3MnB7
_symmetry_space_group_name_H-M   'P 1'
_cell_length_a   8.06497820
_cell_length_b   8.06497820
_cell_length_c   9.29765885
_cell_angle_alpha   90.00000000
_cell_angle_beta   90.00000000
_cell_angle_gamma   155.36437601
_symmetry_Int_Tables_number   1
_chemical_formula_structural   Dy3MnB7
_chemical_formula_sum   'Dy6 Mn2 B14'
_cell_volume   252.09003408
_cell_formula_units_Z   2
loop_
 _symmetry_equiv_pos_site_id
 _symmetry_equiv_pos_as_xyz
  1  'x, y, z'
loop_
 _atom_site_type_symbol
 _atom_site_label
 _atom_site_symmetry_multiplicity
 _atom_site_fract_x
 _atom_site_fract_y
 _atom_site_fract_z
 _atom_site_occupancy
  Dy  Dy0  1  0.760079  0.239921  0.250000  1
  Dy  Dy1  1  0.239921  0.760079  0.750000  1
  Dy  Dy2  1  0.896046  0.103954  0.560460  1
  Dy  Dy3  1  0.103954  0.896046  0.439540  1
  Dy  Dy4  1  0.103954  0.896046  0.060460  1
  Dy  Dy5  1  0.896046  0.103954  0.939540  1
  Mn  Mn6  1  0.946341  0.053659  0.250000  1
  Mn  Mn7  1  0.053659  0.946341  0.750000  1
  B  B8  1  0.539375  0.460625  0.250000  1
  B  B9  1  0.460625  0.539375  0.750000  1
  B  B10  1  0.521773  0.478227  0.901720  1
  B  B11  1  0.478227  0.521773  0.098280  1
  B  B12  1  0.478227  0.521773  0.401720  1
  B  B13  1  0.521773  0.478227  0.598280  1
  B  B14  1  0.629807  0.370193  0.846998  1
  B  B15  1  0.370193  0.629807  0.153002  1
  B  B16  1  0.727344  0.272656  0.967614  1
  B  B17  1  0.272656  0.727344  0.032386  1
  B  B18  1  0.272656  0.727344  0.467614  1
  B  B19  1  0.727344  0.272656  0.532386  1
  B  B20  1  0.629807  0.370193  0.653002  1
  B  B21  1  0.370193  0.629807  0.346998  1
