# generated using pymatgen
data_LiB3O5
_symmetry_space_group_name_H-M   'P 1'
_cell_length_a   7.66886950
_cell_length_b   8.38602585
_cell_length_c   17.44029666
_cell_angle_alpha   90.00000000
_cell_angle_beta   90.00000000
_cell_angle_gamma   90.00000000
_symmetry_Int_Tables_number   1
_chemical_formula_structural   LiB3O5
_chemical_formula_sum   'Li16 B48 O80'
_cell_volume   1121.60881101
_cell_formula_units_Z   16
loop_
 _symmetry_equiv_pos_site_id
 _symmetry_equiv_pos_as_xyz
  1  'x, y, z'
loop_
 _atom_site_type_symbol
 _atom_site_label
 _atom_site_symmetry_multiplicity
 _atom_site_fract_x
 _atom_site_fract_y
 _atom_site_fract_z
 _atom_site_occupancy
  Li  Li0  1  0.750000  0.299929  0.841611  1
  Li  Li1  1  0.750000  0.799929  0.658389  1
  Li  Li2  1  0.250000  0.700071  0.158389  1
  Li  Li3  1  0.250000  0.200071  0.341611  1
  Li  Li4  1  0.750000  0.226917  0.124671  1
  Li  Li5  1  0.750000  0.726917  0.375329  1
  Li  Li6  1  0.250000  0.773083  0.875329  1
  Li  Li7  1  0.250000  0.273083  0.624671  1
  Li  Li8  1  0.750000  0.035358  0.465681  1
  Li  Li9  1  0.750000  0.535358  0.034319  1
  Li  Li10  1  0.250000  0.964642  0.534319  1
  Li  Li11  1  0.250000  0.464642  0.965681  1
  Li  Li12  1  0.750000  0.895623  0.956629  1
  Li  Li13  1  0.750000  0.395623  0.543371  1
  Li  Li14  1  0.250000  0.104377  0.043371  1
  Li  Li15  1  0.250000  0.604377  0.456629  1
  B  B16  1  0.924567  0.429145  0.390364  1
  B  B17  1  0.575433  0.929145  0.109636  1
  B  B18  1  0.424567  0.570855  0.609636  1
  B  B19  1  0.075433  0.070855  0.890364  1
  B  B20  1  0.075433  0.570855  0.609636  1
  B  B21  1  0.424567  0.070855  0.890364  1
  B  B22  1  0.575433  0.429145  0.390364  1
  B  B23  1  0.924567  0.929145  0.109636  1
  B  B24  1  0.422064  0.395386  0.107445  1
  B  B25  1  0.077936  0.895386  0.392555  1
  B  B26  1  0.922064  0.604614  0.892555  1
  B  B27  1  0.577936  0.104614  0.607445  1
  B  B28  1  0.577936  0.604614  0.892555  1
  B  B29  1  0.922064  0.104614  0.607445  1
  B  B30  1  0.077936  0.395386  0.107445  1
  B  B31  1  0.422064  0.895386  0.392555  1
  B  B32  1  0.920689  0.378850  0.243924  1
  B  B33  1  0.579311  0.878850  0.256076  1
  B  B34  1  0.420689  0.621150  0.756076  1
  B  B35  1  0.079311  0.121150  0.743924  1
  B  B36  1  0.079311  0.621150  0.756076  1
  B  B37  1  0.420689  0.121150  0.743924  1
  B  B38  1  0.579311  0.378850  0.243924  1
  B  B39  1  0.920689  0.878850  0.256076  1
  B  B40  1  0.918202  0.238413  0.992175  1
  B  B41  1  0.581798  0.738413  0.507825  1
  B  B42  1  0.418202  0.761587  0.007825  1
  B  B43  1  0.081798  0.261587  0.492175  1
  B  B44  1  0.081798  0.761587  0.007825  1
  B  B45  1  0.418202  0.261587  0.492175  1
  B  B46  1  0.581798  0.238413  0.992175  1
  B  B47  1  0.918202  0.738413  0.507825  1
  B  B48  1  0.921358  0.131581  0.330917  1
  B  B49  1  0.578642  0.631581  0.169083  1
  B  B50  1  0.421358  0.868419  0.669083  1
  B  B51  1  0.078642  0.368419  0.830917  1
  B  B52  1  0.078642  0.868419  0.669083  1
  B  B53  1  0.421358  0.368419  0.830917  1
  B  B54  1  0.578642  0.131581  0.330917  1
  B  B55  1  0.921358  0.631581  0.169083  1
  B  B56  1  0.416659  0.123972  0.193618  1
  B  B57  1  0.083341  0.623972  0.306382  1
  B  B58  1  0.916659  0.876028  0.806382  1
  B  B59  1  0.583341  0.376028  0.693618  1
  B  B60  1  0.583341  0.876028  0.806382  1
  B  B61  1  0.916659  0.376028  0.693618  1
  B  B62  1  0.083341  0.123972  0.193618  1
  B  B63  1  0.416659  0.623972  0.306382  1
  O  O64  1  0.944972  0.435449  0.880296  1
  O  O65  1  0.555028  0.935449  0.619704  1
  O  O66  1  0.444972  0.564551  0.119704  1
  O  O67  1  0.055028  0.064551  0.380296  1
  O  O68  1  0.055028  0.564551  0.119704  1
  O  O69  1  0.444972  0.064551  0.380296  1
  O  O70  1  0.555028  0.435449  0.880296  1
  O  O71  1  0.944972  0.935449  0.619704  1
  O  O72  1  0.933520  0.342343  0.053037  1
  O  O73  1  0.566480  0.842343  0.446963  1
  O  O74  1  0.433520  0.657657  0.946963  1
  O  O75  1  0.066480  0.157657  0.553037  1
  O  O76  1  0.066480  0.657657  0.946963  1
  O  O77  1  0.433520  0.157657  0.553037  1
  O  O78  1  0.566480  0.342343  0.053037  1
  O  O79  1  0.933520  0.842343  0.446963  1
  O  O80  1  0.941910  0.339212  0.461517  1
  O  O81  1  0.558090  0.839212  0.038483  1
  O  O82  1  0.441910  0.660788  0.538483  1
  O  O83  1  0.058090  0.160788  0.961517  1
  O  O84  1  0.058090  0.660788  0.538483  1
  O  O85  1  0.441910  0.160788  0.961517  1
  O  O86  1  0.558090  0.339212  0.461517  1
  O  O87  1  0.941910  0.839212  0.038483  1
  O  O88  1  0.965466  0.307378  0.320402  1
  O  O89  1  0.534534  0.807378  0.179598  1
  O  O90  1  0.465466  0.692622  0.679598  1
  O  O91  1  0.034534  0.192622  0.820402  1
  O  O92  1  0.034534  0.692622  0.679598  1
  O  O93  1  0.465466  0.192622  0.820402  1
  O  O94  1  0.534534  0.307378  0.320402  1
  O  O95  1  0.965466  0.807378  0.179598  1
  O  O96  1  0.457491  0.307010  0.185055  1
  O  O97  1  0.042509  0.807010  0.314945  1
  O  O98  1  0.957491  0.692990  0.814945  1
  O  O99  1  0.542509  0.192990  0.685055  1
  O  O100  1  0.542509  0.692990  0.814945  1
  O  O101  1  0.957491  0.192990  0.685055  1
  O  O102  1  0.042509  0.307010  0.185055  1
  O  O103  1  0.457491  0.807010  0.314945  1
  O  O104  1  0.947269  0.056405  0.251158  1
  O  O105  1  0.552731  0.556405  0.248842  1
  O  O106  1  0.447269  0.943595  0.748842  1
  O  O107  1  0.052731  0.443595  0.751158  1
  O  O108  1  0.052731  0.943595  0.748842  1
  O  O109  1  0.447269  0.443595  0.751158  1
  O  O110  1  0.552731  0.056405  0.251158  1
  O  O111  1  0.947269  0.556405  0.248842  1
  O  O112  1  0.444184  0.050610  0.120611  1
  O  O113  1  0.055816  0.550610  0.379389  1
  O  O114  1  0.944184  0.949390  0.879389  1
  O  O115  1  0.555816  0.449390  0.620611  1
  O  O116  1  0.555816  0.949390  0.879389  1
  O  O117  1  0.944184  0.449390  0.620611  1
  O  O118  1  0.055816  0.050610  0.120611  1
  O  O119  1  0.444184  0.550610  0.379389  1
  O  O120  1  0.750000  0.493817  0.383895  1
  O  O121  1  0.750000  0.993817  0.116105  1
  O  O122  1  0.250000  0.506183  0.616105  1
  O  O123  1  0.250000  0.006183  0.883895  1
  O  O124  1  0.750000  0.391935  0.728698  1
  O  O125  1  0.750000  0.891935  0.771302  1
  O  O126  1  0.250000  0.608065  0.271302  1
  O  O127  1  0.250000  0.108065  0.228698  1
  O  O128  1  0.750000  0.339028  0.219499  1
  O  O129  1  0.750000  0.839028  0.280501  1
  O  O130  1  0.250000  0.660972  0.780501  1
  O  O131  1  0.250000  0.160972  0.719499  1
  O  O132  1  0.750000  0.200254  0.965284  1
  O  O133  1  0.750000  0.700254  0.534716  1
  O  O134  1  0.250000  0.799746  0.034716  1
  O  O135  1  0.250000  0.299746  0.465284  1
  O  O136  1  0.750000  0.144715  0.576497  1
  O  O137  1  0.750000  0.644715  0.923503  1
  O  O138  1  0.250000  0.855285  0.423503  1
  O  O139  1  0.250000  0.355285  0.076497  1
  O  O140  1  0.750000  0.108706  0.360670  1
  O  O141  1  0.750000  0.608706  0.139330  1
  O  O142  1  0.250000  0.891294  0.639330  1
  O  O143  1  0.250000  0.391294  0.860670  1
