# generated using pymatgen
data_CaAl2SiO6
_symmetry_space_group_name_H-M   'P 1'
_cell_length_a   5.33435022
_cell_length_b   8.75132774
_cell_length_c   9.69689487
_cell_angle_alpha   90.00000000
_cell_angle_beta   105.37339826
_cell_angle_gamma   90.00000000
_symmetry_Int_Tables_number   1
_chemical_formula_structural   CaAl2SiO6
_chemical_formula_sum   'Ca4 Al8 Si4 O24'
_cell_volume   436.47931189
_cell_formula_units_Z   4
loop_
 _symmetry_equiv_pos_site_id
 _symmetry_equiv_pos_as_xyz
  1  'x, y, z'
loop_
 _atom_site_type_symbol
 _atom_site_label
 _atom_site_symmetry_multiplicity
 _atom_site_fract_x
 _atom_site_fract_y
 _atom_site_fract_z
 _atom_site_occupancy
  Ca  Ca0  1  0.000000  0.936746  0.250000  1
  Ca  Ca1  1  0.500000  0.442016  0.750000  1
  Ca  Ca2  1  0.500000  0.557984  0.250000  1
  Ca  Ca3  1  0.000000  0.063254  0.750000  1
  Al  Al4  1  0.823941  0.653721  0.033695  1
  Al  Al5  1  0.176059  0.653721  0.466305  1
  Al  Al6  1  0.176059  0.346279  0.966305  1
  Al  Al7  1  0.823941  0.346279  0.533695  1
  Al  Al8  1  0.000000  0.347186  0.250000  1
  Al  Al9  1  0.500000  0.839179  0.750000  1
  Al  Al10  1  0.500000  0.160821  0.250000  1
  Al  Al11  1  0.000000  0.652814  0.750000  1
  Si  Si12  1  0.326309  0.152115  0.542163  1
  Si  Si13  1  0.673691  0.152115  0.957837  1
  Si  Si14  1  0.673691  0.847885  0.457837  1
  Si  Si15  1  0.326309  0.847885  0.042163  1
  O  O16  1  0.237405  0.157638  0.364206  1
  O  O17  1  0.305736  0.987326  0.617821  1
  O  O18  1  0.617808  0.224774  0.604205  1
  O  O19  1  0.732383  0.677058  0.845941  1
  O  O20  1  0.804139  0.480286  0.116874  1
  O  O21  1  0.132492  0.736856  0.105590  1
  O  O22  1  0.762595  0.157638  0.135794  1
  O  O23  1  0.694264  0.987326  0.882179  1
  O  O24  1  0.382192  0.224774  0.895795  1
  O  O25  1  0.267617  0.677058  0.654059  1
  O  O26  1  0.195861  0.480286  0.383126  1
  O  O27  1  0.867508  0.736856  0.394410  1
  O  O28  1  0.267617  0.322942  0.154059  1
  O  O29  1  0.195861  0.519714  0.883126  1
  O  O30  1  0.867508  0.263144  0.894410  1
  O  O31  1  0.762595  0.842362  0.635794  1
  O  O32  1  0.694264  0.012674  0.382179  1
  O  O33  1  0.382192  0.775226  0.395795  1
  O  O34  1  0.732383  0.322942  0.345941  1
  O  O35  1  0.804139  0.519714  0.616874  1
  O  O36  1  0.132492  0.263144  0.605590  1
  O  O37  1  0.237405  0.842362  0.864206  1
  O  O38  1  0.305736  0.012674  0.117821  1
  O  O39  1  0.617808  0.775226  0.104205  1
