# generated using pymatgen
data_Sm4Au2O9
_symmetry_space_group_name_H-M   'P 1'
_cell_length_a   6.10067948
_cell_length_b   11.94805464
_cell_length_c   11.95746856
_cell_angle_alpha   90.00000000
_cell_angle_beta   90.00000000
_cell_angle_gamma   90.00000000
_symmetry_Int_Tables_number   1
_chemical_formula_structural   Sm4Au2O9
_chemical_formula_sum   'Sm16 Au8 O36'
_cell_volume   871.59485132
_cell_formula_units_Z   4
loop_
 _symmetry_equiv_pos_site_id
 _symmetry_equiv_pos_as_xyz
  1  'x, y, z'
loop_
 _atom_site_type_symbol
 _atom_site_label
 _atom_site_symmetry_multiplicity
 _atom_site_fract_x
 _atom_site_fract_y
 _atom_site_fract_z
 _atom_site_occupancy
  Sm  Sm0  1  0.258695  0.988714  0.089890  1
  Sm  Sm1  1  0.258695  0.011286  0.410110  1
  Sm  Sm2  1  0.241305  0.511286  0.589890  1
  Sm  Sm3  1  0.241305  0.488714  0.910110  1
  Sm  Sm4  1  0.741305  0.011286  0.910110  1
  Sm  Sm5  1  0.741305  0.988714  0.589890  1
  Sm  Sm6  1  0.758695  0.488714  0.410110  1
  Sm  Sm7  1  0.758695  0.511286  0.089890  1
  Sm  Sm8  1  0.196167  0.659430  0.264002  1
  Sm  Sm9  1  0.196167  0.340570  0.235998  1
  Sm  Sm10  1  0.303833  0.840570  0.764002  1
  Sm  Sm11  1  0.303833  0.159430  0.735998  1
  Sm  Sm12  1  0.803833  0.340570  0.735998  1
  Sm  Sm13  1  0.803833  0.659430  0.764002  1
  Sm  Sm14  1  0.696167  0.159430  0.235998  1
  Sm  Sm15  1  0.696167  0.840570  0.264002  1
  Au  Au16  1  0.419728  0.728688  0.010690  1
  Au  Au17  1  0.419728  0.271312  0.489310  1
  Au  Au18  1  0.080272  0.771312  0.510690  1
  Au  Au19  1  0.080272  0.228688  0.989310  1
  Au  Au20  1  0.580272  0.271312  0.989310  1
  Au  Au21  1  0.580272  0.728688  0.510690  1
  Au  Au22  1  0.919728  0.228688  0.489310  1
  Au  Au23  1  0.919728  0.771312  0.010690  1
  O  O24  1  0.063282  0.613636  0.445499  1
  O  O25  1  0.063282  0.386364  0.054501  1
  O  O26  1  0.436718  0.886364  0.945499  1
  O  O27  1  0.436718  0.113636  0.554501  1
  O  O28  1  0.936718  0.386364  0.554501  1
  O  O29  1  0.936718  0.613636  0.945499  1
  O  O30  1  0.563282  0.113636  0.054501  1
  O  O31  1  0.563282  0.886364  0.445499  1
  O  O32  1  0.060435  0.836774  0.350549  1
  O  O33  1  0.060435  0.163226  0.149451  1
  O  O34  1  0.439565  0.663226  0.850549  1
  O  O35  1  0.439565  0.336774  0.649451  1
  O  O36  1  0.939565  0.163226  0.649451  1
  O  O37  1  0.939565  0.836774  0.850549  1
  O  O38  1  0.372737  0.803474  0.159417  1
  O  O39  1  0.560435  0.336774  0.149451  1
  O  O40  1  0.388429  0.576078  0.088797  1
  O  O41  1  0.388429  0.423922  0.411203  1
  O  O42  1  0.111571  0.923922  0.588797  1
  O  O43  1  0.111571  0.076078  0.911203  1
  O  O44  1  0.611571  0.423922  0.911203  1
  O  O45  1  0.611571  0.576078  0.588797  1
  O  O46  1  0.888429  0.076078  0.411203  1
  O  O47  1  0.888429  0.923922  0.088797  1
  O  O48  1  0.976568  0.500000  0.250000  1
  O  O49  1  0.523432  0.000000  0.750000  1
  O  O50  1  0.023432  0.500000  0.750000  1
  O  O51  1  0.476568  0.000000  0.250000  1
  O  O52  1  0.872737  0.696526  0.159417  1
  O  O53  1  0.872737  0.303474  0.340583  1
  O  O54  1  0.627263  0.803474  0.659417  1
  O  O55  1  0.627263  0.196526  0.840583  1
  O  O56  1  0.127263  0.303474  0.840583  1
  O  O57  1  0.127263  0.696526  0.659417  1
  O  O58  1  0.372737  0.196526  0.340583  1
  O  O59  1  0.560435  0.663226  0.350549  1
