# generated using pymatgen
data_ZrAu4
_symmetry_space_group_name_H-M   'P 1'
_cell_length_a   4.96424927
_cell_length_b   5.08360468
_cell_length_c   14.76259703
_cell_angle_alpha   90.00000000
_cell_angle_beta   90.00000000
_cell_angle_gamma   90.00000000
_symmetry_Int_Tables_number   1
_chemical_formula_structural   ZrAu4
_chemical_formula_sum   'Zr4 Au16'
_cell_volume   372.55304431
_cell_formula_units_Z   4
loop_
 _symmetry_equiv_pos_site_id
 _symmetry_equiv_pos_as_xyz
  1  'x, y, z'
loop_
 _atom_site_type_symbol
 _atom_site_label
 _atom_site_symmetry_multiplicity
 _atom_site_fract_x
 _atom_site_fract_y
 _atom_site_fract_z
 _atom_site_occupancy
  Zr  Zr0  1  0.250000  0.162763  0.598436  1
  Zr  Zr1  1  0.250000  0.662763  0.901564  1
  Zr  Zr2  1  0.750000  0.337237  0.098436  1
  Zr  Zr3  1  0.750000  0.837237  0.401564  1
  Au  Au4  1  0.250000  0.664861  0.499456  1
  Au  Au5  1  0.250000  0.672664  0.302650  1
  Au  Au6  1  0.250000  0.659494  0.099817  1
  Au  Au7  1  0.750000  0.827336  0.802650  1
  Au  Au8  1  0.750000  0.835139  0.999456  1
  Au  Au9  1  0.250000  0.164861  0.000544  1
  Au  Au10  1  0.750000  0.340506  0.900183  1
  Au  Au11  1  0.250000  0.159494  0.400183  1
  Au  Au12  1  0.750000  0.335767  0.298388  1
  Au  Au13  1  0.250000  0.664233  0.701612  1
  Au  Au14  1  0.750000  0.327336  0.697350  1
  Au  Au15  1  0.750000  0.840506  0.599817  1
  Au  Au16  1  0.250000  0.172664  0.197350  1
  Au  Au17  1  0.250000  0.164233  0.798388  1
  Au  Au18  1  0.750000  0.335139  0.500544  1
  Au  Au19  1  0.750000  0.835767  0.201612  1
