# generated using pymatgen
data_SmVO4
_symmetry_space_group_name_H-M   'P 1'
_cell_length_a   6.12035106
_cell_length_b   6.12035106
_cell_length_c   6.12035106
_cell_angle_alpha   106.09915620
_cell_angle_beta   106.09915620
_cell_angle_gamma   116.44886901
_symmetry_Int_Tables_number   1
_chemical_formula_structural   SmVO4
_chemical_formula_sum   'Sm2 V2 O8'
_cell_volume   174.49865285
_cell_formula_units_Z   2
loop_
 _symmetry_equiv_pos_site_id
 _symmetry_equiv_pos_as_xyz
  1  'x, y, z'
loop_
 _atom_site_type_symbol
 _atom_site_label
 _atom_site_symmetry_multiplicity
 _atom_site_fract_x
 _atom_site_fract_y
 _atom_site_fract_z
 _atom_site_occupancy
  Sm  Sm0  1  0.250000  0.750000  0.500000  1
  Sm  Sm1  1  1.000000  1.000000  0.000000  1
  V  V2  1  0.500000  0.500000  0.000000  1
  V  V3  1  0.750000  0.250000  0.500000  1
  O  O4  1  0.491355  0.673125  0.818230  1
  O  O5  1  0.854895  0.673125  0.181770  1
  O  O6  1  0.326875  0.508645  0.181770  1
  O  O7  1  0.395105  0.076875  0.318230  1
  O  O8  1  0.758645  0.076875  0.681770  1
  O  O9  1  0.326875  0.145105  0.818230  1
  O  O10  1  0.923125  0.604895  0.681770  1
  O  O11  1  0.923125  0.241355  0.318230  1
