# generated using pymatgen
data_Yb5Sb3
_symmetry_space_group_name_H-M   'P 1'
_cell_length_a   8.26793911
_cell_length_b   9.57970825
_cell_length_c   12.51976073
_cell_angle_alpha   90.00000000
_cell_angle_beta   90.00000000
_cell_angle_gamma   90.00000000
_symmetry_Int_Tables_number   1
_chemical_formula_structural   Yb5Sb3
_chemical_formula_sum   'Yb20 Sb12'
_cell_volume   991.62069392
_cell_formula_units_Z   4
loop_
 _symmetry_equiv_pos_site_id
 _symmetry_equiv_pos_as_xyz
  1  'x, y, z'
loop_
 _atom_site_type_symbol
 _atom_site_label
 _atom_site_symmetry_multiplicity
 _atom_site_fract_x
 _atom_site_fract_y
 _atom_site_fract_z
 _atom_site_occupancy
  Yb  Yb0  1  0.464084  0.750000  0.004195  1
  Yb  Yb1  1  0.964084  0.250000  0.495805  1
  Yb  Yb2  1  0.535916  0.250000  0.995805  1
  Yb  Yb3  1  0.035916  0.750000  0.504195  1
  Yb  Yb4  1  0.654526  0.750000  0.291871  1
  Yb  Yb5  1  0.154526  0.250000  0.208129  1
  Yb  Yb6  1  0.345474  0.250000  0.708129  1
  Yb  Yb7  1  0.845474  0.750000  0.791871  1
  Yb  Yb8  1  0.317377  0.750000  0.728891  1
  Yb  Yb9  1  0.817377  0.250000  0.771109  1
  Yb  Yb10  1  0.682623  0.250000  0.271109  1
  Yb  Yb11  1  0.182623  0.750000  0.228891  1
  Yb  Yb12  1  0.305691  0.457858  0.423246  1
  Yb  Yb13  1  0.805691  0.542142  0.076754  1
  Yb  Yb14  1  0.694309  0.957858  0.576754  1
  Yb  Yb15  1  0.194309  0.042142  0.923246  1
  Yb  Yb16  1  0.694309  0.542142  0.576754  1
  Yb  Yb17  1  0.194309  0.457858  0.923246  1
  Yb  Yb18  1  0.305691  0.042142  0.423246  1
  Yb  Yb19  1  0.805691  0.957858  0.076754  1
  Sb  Sb20  1  0.437057  0.011593  0.171337  1
  Sb  Sb21  1  0.937057  0.988407  0.328663  1
  Sb  Sb22  1  0.562943  0.511593  0.828663  1
  Sb  Sb23  1  0.062943  0.488407  0.671337  1
  Sb  Sb24  1  0.562943  0.988407  0.828663  1
  Sb  Sb25  1  0.062943  0.011593  0.671337  1
  Sb  Sb26  1  0.437057  0.488407  0.171337  1
  Sb  Sb27  1  0.937057  0.511593  0.328663  1
  Sb  Sb28  1  0.077861  0.750000  0.984050  1
  Sb  Sb29  1  0.577861  0.250000  0.515950  1
  Sb  Sb30  1  0.922139  0.250000  0.015950  1
  Sb  Sb31  1  0.422139  0.750000  0.484050  1
