# generated using pymatgen
data_Rb2MnV2O7
_symmetry_space_group_name_H-M   'P 1'
_cell_length_a   8.75817012
_cell_length_b   8.75817012
_cell_length_c   12.05909844
_cell_angle_alpha   90.00000000
_cell_angle_beta   90.00000000
_cell_angle_gamma   90.00000000
_symmetry_Int_Tables_number   1
_chemical_formula_structural   Rb2MnV2O7
_chemical_formula_sum   'Rb8 Mn4 V8 O28'
_cell_volume   924.99970419
_cell_formula_units_Z   4
loop_
 _symmetry_equiv_pos_site_id
 _symmetry_equiv_pos_as_xyz
  1  'x, y, z'
loop_
 _atom_site_type_symbol
 _atom_site_label
 _atom_site_symmetry_multiplicity
 _atom_site_fract_x
 _atom_site_fract_y
 _atom_site_fract_z
 _atom_site_occupancy
  Rb  Rb0  1  0.150619  0.849381  0.500000  1
  Rb  Rb1  1  0.650619  0.650619  0.000000  1
  Rb  Rb2  1  0.349381  0.349381  0.000000  1
  Rb  Rb3  1  0.849381  0.150619  0.500000  1
  Rb  Rb4  1  0.679627  0.679627  0.500000  1
  Rb  Rb5  1  0.820373  0.179627  0.000000  1
  Rb  Rb6  1  0.179627  0.820373  0.000000  1
  Rb  Rb7  1  0.320373  0.320373  0.500000  1
  Mn  Mn8  1  0.000000  0.500000  0.750000  1
  Mn  Mn9  1  0.000000  0.500000  0.250000  1
  Mn  Mn10  1  0.500000  0.000000  0.750000  1
  Mn  Mn11  1  0.500000  0.000000  0.250000  1
  V  V12  1  0.639149  0.360851  0.716072  1
  V  V13  1  0.360851  0.639149  0.716072  1
  V  V14  1  0.360851  0.639149  0.283928  1
  V  V15  1  0.860851  0.860851  0.216072  1
  V  V16  1  0.139149  0.139149  0.216072  1
  V  V17  1  0.860851  0.860851  0.783928  1
  V  V18  1  0.139149  0.139149  0.783928  1
  V  V19  1  0.639149  0.360851  0.283928  1
  O  O20  1  0.640222  0.359778  0.855536  1
  O  O21  1  0.359778  0.640222  0.855536  1
  O  O22  1  0.359778  0.640222  0.144464  1
  O  O23  1  0.859778  0.859778  0.355536  1
  O  O24  1  0.140222  0.140222  0.355536  1
  O  O25  1  0.859778  0.859778  0.644464  1
  O  O26  1  0.140222  0.140222  0.644464  1
  O  O27  1  0.640222  0.359778  0.144464  1
  O  O28  1  0.500000  0.500000  0.663626  1
  O  O29  1  0.000000  0.000000  0.163626  1
  O  O30  1  0.000000  0.000000  0.836374  1
  O  O31  1  0.500000  0.500000  0.336374  1
  O  O32  1  0.183498  0.586693  0.337477  1
  O  O33  1  0.816502  0.413307  0.337477  1
  O  O34  1  0.586693  0.183498  0.662523  1
  O  O35  1  0.086693  0.316502  0.837477  1
  O  O36  1  0.913307  0.683498  0.837477  1
  O  O37  1  0.316502  0.086693  0.162523  1
  O  O38  1  0.683498  0.913307  0.162523  1
  O  O39  1  0.413307  0.816502  0.662523  1
  O  O40  1  0.586693  0.183498  0.337477  1
  O  O41  1  0.316502  0.086693  0.837477  1
  O  O42  1  0.683498  0.913307  0.837477  1
  O  O43  1  0.086693  0.316502  0.162523  1
  O  O44  1  0.913307  0.683498  0.162523  1
  O  O45  1  0.413307  0.816502  0.337477  1
  O  O46  1  0.183498  0.586693  0.662523  1
  O  O47  1  0.816502  0.413307  0.662523  1
