# generated using pymatgen
data_Mn3WO6
_symmetry_space_group_name_H-M   'P 1'
_cell_length_a   6.31170665
_cell_length_b   6.31170665
_cell_length_c   6.31170665
_cell_angle_alpha   91.25053464
_cell_angle_beta   91.25053464
_cell_angle_gamma   91.25053464
_symmetry_Int_Tables_number   1
_chemical_formula_structural   Mn3WO6
_chemical_formula_sum   'Mn6 W2 O12'
_cell_volume   251.26118063
_cell_formula_units_Z   2
loop_
 _symmetry_equiv_pos_site_id
 _symmetry_equiv_pos_as_xyz
  1  'x, y, z'
loop_
 _atom_site_type_symbol
 _atom_site_label
 _atom_site_symmetry_multiplicity
 _atom_site_fract_x
 _atom_site_fract_y
 _atom_site_fract_z
 _atom_site_occupancy
  Mn  Mn0  1  0.249830  0.060510  0.557267  1
  Mn  Mn1  1  0.060510  0.557267  0.249830  1
  Mn  Mn2  1  0.442733  0.750170  0.939490  1
  Mn  Mn3  1  0.939490  0.442733  0.750170  1
  Mn  Mn4  1  0.750170  0.939490  0.442733  1
  Mn  Mn5  1  0.557267  0.249830  0.060510  1
  W  W6  1  0.000000  0.000000  0.000000  1
  W  W7  1  0.500000  0.500000  0.500000  1
  O  O8  1  0.705560  0.928156  0.066189  1
  O  O9  1  0.066189  0.705560  0.928156  1
  O  O10  1  0.928156  0.066189  0.705560  1
  O  O11  1  0.294440  0.071844  0.933811  1
  O  O12  1  0.933811  0.294440  0.071844  1
  O  O13  1  0.071844  0.933811  0.294440  1
  O  O14  1  0.589835  0.448617  0.793004  1
  O  O15  1  0.793004  0.589835  0.448617  1
  O  O16  1  0.551383  0.206996  0.410165  1
  O  O17  1  0.206996  0.410165  0.551383  1
  O  O18  1  0.410165  0.551383  0.206996  1
  O  O19  1  0.448617  0.793004  0.589835  1
