# generated using pymatgen
data_RbSnAsO5
_symmetry_space_group_name_H-M   'P 1'
_cell_length_a   6.92512002
_cell_length_b   11.12054129
_cell_length_c   13.87581480
_cell_angle_alpha   90.00000000
_cell_angle_beta   90.00000000
_cell_angle_gamma   90.00000000
_symmetry_Int_Tables_number   1
_chemical_formula_structural   RbSnAsO5
_chemical_formula_sum   'Rb8 Sn8 As8 O40'
_cell_volume   1068.59152693
_cell_formula_units_Z   8
loop_
 _symmetry_equiv_pos_site_id
 _symmetry_equiv_pos_as_xyz
  1  'x, y, z'
loop_
 _atom_site_type_symbol
 _atom_site_label
 _atom_site_symmetry_multiplicity
 _atom_site_fract_x
 _atom_site_fract_y
 _atom_site_fract_z
 _atom_site_occupancy
  Rb  Rb0  1  0.779045  0.796266  0.378220  1
  Rb  Rb1  1  0.279045  0.296266  0.121780  1
  Rb  Rb2  1  0.720955  0.796266  0.878220  1
  Rb  Rb3  1  0.310384  0.052533  0.888621  1
  Rb  Rb4  1  0.810384  0.552533  0.611379  1
  Rb  Rb5  1  0.689616  0.552533  0.111379  1
  Rb  Rb6  1  0.189616  0.052533  0.388621  1
  Rb  Rb7  1  0.220955  0.296266  0.621780  1
  Sn  Sn8  1  0.746400  0.236634  0.750108  1
  Sn  Sn9  1  0.253600  0.736634  0.249892  1
  Sn  Sn10  1  0.753600  0.236634  0.250108  1
  Sn  Sn11  1  0.501175  0.985189  0.626927  1
  Sn  Sn12  1  0.498825  0.485189  0.373073  1
  Sn  Sn13  1  0.998825  0.985189  0.126927  1
  Sn  Sn14  1  0.001175  0.485189  0.873073  1
  Sn  Sn15  1  0.246400  0.736634  0.749892  1
  As  As16  1  0.997792  0.987468  0.676027  1
  As  As17  1  0.002208  0.487468  0.323973  1
  As  As18  1  0.502208  0.987468  0.176027  1
  As  As19  1  0.497792  0.487468  0.823973  1
  As  As20  1  0.166881  0.733848  0.002399  1
  As  As21  1  0.833119  0.233848  0.997601  1
  As  As22  1  0.333119  0.733848  0.502399  1
  As  As23  1  0.666881  0.233848  0.497601  1
  O  O24  1  0.467811  0.871578  0.256481  1
  O  O25  1  0.532189  0.371578  0.743519  1
  O  O26  1  0.032189  0.871578  0.756481  1
  O  O27  1  0.967811  0.371578  0.243519  1
  O  O28  1  0.971709  0.109966  0.751503  1
  O  O29  1  0.028291  0.609966  0.248497  1
  O  O30  1  0.528291  0.109966  0.251503  1
  O  O31  1  0.471709  0.609966  0.748497  1
  O  O32  1  0.047488  0.863227  0.231583  1
  O  O33  1  0.952512  0.363227  0.768417  1
  O  O34  1  0.452512  0.863227  0.731583  1
  O  O35  1  0.547488  0.363227  0.268417  1
  O  O36  1  0.531072  0.120230  0.722891  1
  O  O37  1  0.468928  0.620230  0.277109  1
  O  O38  1  0.968928  0.120230  0.222891  1
  O  O39  1  0.816807  0.210165  0.400622  1
  O  O40  1  0.031072  0.620230  0.777109  1
  O  O41  1  0.303829  0.457906  0.897512  1
  O  O42  1  0.803829  0.957906  0.602488  1
  O  O43  1  0.196171  0.457906  0.397512  1
  O  O44  1  0.192835  0.015779  0.602275  1
  O  O45  1  0.807165  0.515779  0.397725  1
  O  O46  1  0.307165  0.015779  0.102275  1
  O  O47  1  0.692835  0.515779  0.897725  1
  O  O48  1  0.509749  0.114546  0.511961  1
  O  O49  1  0.490251  0.614546  0.488039  1
  O  O50  1  0.990251  0.114546  0.011961  1
  O  O51  1  0.009749  0.614546  0.988039  1
  O  O52  1  0.019661  0.858879  0.014125  1
  O  O53  1  0.980339  0.358879  0.985875  1
  O  O54  1  0.480339  0.858879  0.514125  1
  O  O55  1  0.519661  0.358879  0.485875  1
  O  O56  1  0.811021  0.259486  0.596535  1
  O  O57  1  0.188979  0.759486  0.403465  1
  O  O58  1  0.688979  0.259486  0.096535  1
  O  O59  1  0.311021  0.759486  0.903465  1
  O  O60  1  0.316807  0.710165  0.099378  1
  O  O61  1  0.683193  0.210165  0.900622  1
  O  O62  1  0.183193  0.710165  0.599378  1
  O  O63  1  0.696171  0.957906  0.102488  1
