# generated using pymatgen
data_Li3B11O18
_symmetry_space_group_name_H-M   'P 1'
_cell_length_a   9.77193820
_cell_length_b   7.95230126
_cell_length_c   17.99760490
_cell_angle_alpha   90.00000000
_cell_angle_beta   100.68547951
_cell_angle_gamma   90.00000000
_symmetry_Int_Tables_number   1
_chemical_formula_structural   Li3B11O18
_chemical_formula_sum   'Li12 B44 O72'
_cell_volume   1374.33133157
_cell_formula_units_Z   4
loop_
 _symmetry_equiv_pos_site_id
 _symmetry_equiv_pos_as_xyz
  1  'x, y, z'
loop_
 _atom_site_type_symbol
 _atom_site_label
 _atom_site_symmetry_multiplicity
 _atom_site_fract_x
 _atom_site_fract_y
 _atom_site_fract_z
 _atom_site_occupancy
  Li  Li0  1  0.507304  0.183153  0.041902  1
  Li  Li1  1  0.992696  0.683153  0.958098  1
  Li  Li2  1  0.492696  0.816847  0.958098  1
  Li  Li3  1  0.007304  0.316847  0.041902  1
  Li  Li4  1  0.722004  0.422342  0.246439  1
  Li  Li5  1  0.777996  0.922342  0.753561  1
  Li  Li6  1  0.277996  0.577658  0.753561  1
  Li  Li7  1  0.222004  0.077658  0.246439  1
  Li  Li8  1  0.864474  0.059514  0.420531  1
  Li  Li9  1  0.635526  0.559514  0.579469  1
  Li  Li10  1  0.135526  0.940486  0.579469  1
  Li  Li11  1  0.364474  0.440486  0.420531  1
  B  B12  1  0.750782  0.630843  0.006824  1
  B  B13  1  0.749218  0.130843  0.993176  1
  B  B14  1  0.249218  0.369157  0.993176  1
  B  B15  1  0.250782  0.869157  0.006824  1
  B  B16  1  0.597545  0.580544  0.096153  1
  B  B17  1  0.902455  0.080544  0.903847  1
  B  B18  1  0.402455  0.419456  0.903847  1
  B  B19  1  0.097545  0.919456  0.096153  1
  B  B20  1  0.991278  0.385453  0.192944  1
  B  B21  1  0.508722  0.885453  0.807056  1
  B  B22  1  0.008722  0.614547  0.807056  1
  B  B23  1  0.491278  0.114547  0.192944  1
  B  B24  1  0.009140  0.601421  0.287017  1
  B  B25  1  0.490860  0.101421  0.712983  1
  B  B26  1  0.990860  0.398579  0.712983  1
  B  B27  1  0.509140  0.898579  0.287017  1
  B  B28  1  0.845693  0.655273  0.375341  1
  B  B29  1  0.654307  0.155273  0.624659  1
  B  B30  1  0.154307  0.344727  0.624659  1
  B  B31  1  0.345693  0.844727  0.375341  1
  B  B32  1  0.749585  0.710176  0.486064  1
  B  B33  1  0.750415  0.210176  0.513936  1
  B  B34  1  0.250415  0.289824  0.513936  1
  B  B35  1  0.249585  0.789824  0.486064  1
  B  B36  1  0.034907  0.941677  0.692059  1
  B  B37  1  0.465093  0.441677  0.307941  1
  B  B38  1  0.965093  0.058323  0.307941  1
  B  B39  1  0.534907  0.558323  0.692059  1
  B  B40  1  0.072207  0.065836  0.815931  1
  B  B41  1  0.427793  0.565836  0.184069  1
  B  B42  1  0.927793  0.934164  0.184069  1
  B  B43  1  0.572207  0.434164  0.815931  1
  B  B44  1  0.781412  0.374960  0.086483  1
  B  B45  1  0.718588  0.874960  0.913517  1
  B  B46  1  0.218588  0.625040  0.913517  1
  B  B47  1  0.281412  0.125040  0.086483  1
  B  B48  1  0.813855  0.941685  0.585781  1
  B  B49  1  0.686145  0.441685  0.414219  1
  B  B50  1  0.186145  0.058315  0.414219  1
  B  B51  1  0.313855  0.558315  0.585781  1
  B  B52  1  0.277799  0.008584  0.757164  1
  B  B53  1  0.222201  0.508584  0.242836  1
  B  B54  1  0.722201  0.991416  0.242836  1
  B  B55  1  0.777799  0.491416  0.757164  1
  O  O56  1  0.703382  0.235987  0.043025  1
  O  O57  1  0.796618  0.735987  0.956975  1
  O  O58  1  0.296618  0.764013  0.956975  1
  O  O59  1  0.203382  0.264013  0.043025  1
  O  O60  1  0.832059  0.496853  0.034022  1
  O  O61  1  0.667941  0.996853  0.965978  1
  O  O62  1  0.167941  0.503147  0.965978  1
  O  O63  1  0.332059  0.003147  0.034022  1
  O  O64  1  0.686286  0.457855  0.129315  1
  O  O65  1  0.813714  0.957855  0.870685  1
  O  O66  1  0.313714  0.542145  0.870685  1
  O  O67  1  0.186286  0.042145  0.129315  1
  O  O68  1  0.622329  0.660354  0.030062  1
  O  O69  1  0.877671  0.160354  0.969938  1
  O  O70  1  0.377671  0.339646  0.969938  1
  O  O71  1  0.122329  0.839646  0.030062  1
  O  O72  1  0.908872  0.306545  0.132665  1
  O  O73  1  0.591128  0.806545  0.867335  1
  O  O74  1  0.091128  0.693455  0.867335  1
  O  O75  1  0.408872  0.193455  0.132665  1
  O  O76  1  0.926867  0.478830  0.243189  1
  O  O77  1  0.573133  0.978830  0.756811  1
  O  O78  1  0.073133  0.521170  0.756811  1
  O  O79  1  0.426867  0.021170  0.243189  1
  O  O80  1  0.952046  0.696239  0.337780  1
  O  O81  1  0.547954  0.196239  0.662220  1
  O  O82  1  0.047954  0.303761  0.662220  1
  O  O83  1  0.452046  0.803761  0.337780  1
  O  O84  1  0.770122  0.510874  0.360538  1
  O  O85  1  0.729878  0.010874  0.639462  1
  O  O86  1  0.229878  0.489126  0.639462  1
  O  O87  1  0.270122  0.989126  0.360538  1
  O  O88  1  0.519598  0.487648  0.243895  1
  O  O89  1  0.980402  0.987648  0.756105  1
  O  O90  1  0.480402  0.512352  0.756105  1
  O  O91  1  0.019598  0.012352  0.243895  1
  O  O92  1  0.829592  0.765144  0.433932  1
  O  O93  1  0.670408  0.265144  0.566068  1
  O  O94  1  0.170408  0.234856  0.566068  1
  O  O95  1  0.329592  0.734856  0.433932  1
  O  O96  1  0.674759  0.563534  0.474572  1
  O  O97  1  0.825241  0.063534  0.525428  1
  O  O98  1  0.325241  0.436466  0.525428  1
  O  O99  1  0.174759  0.936466  0.474572  1
  O  O100  1  0.743490  0.788573  0.552409  1
  O  O101  1  0.756510  0.288573  0.447591  1
  O  O102  1  0.256510  0.211427  0.447591  1
  O  O103  1  0.243490  0.711427  0.552409  1
  O  O104  1  0.955730  0.899426  0.624387  1
  O  O105  1  0.544270  0.399426  0.375613  1
  O  O106  1  0.044270  0.100574  0.375613  1
  O  O107  1  0.455730  0.600574  0.624387  1
  O  O108  1  0.175648  0.931686  0.695474  1
  O  O109  1  0.324352  0.431686  0.304526  1
  O  O110  1  0.824352  0.068314  0.304526  1
  O  O111  1  0.675648  0.568314  0.695474  1
  O  O112  1  0.359153  0.131462  0.722176  1
  O  O113  1  0.140847  0.631462  0.277824  1
  O  O114  1  0.640847  0.868538  0.277824  1
  O  O115  1  0.859153  0.368538  0.722176  1
  O  O116  1  0.368168  0.873110  0.796423  1
  O  O117  1  0.131832  0.373110  0.203577  1
  O  O118  1  0.631832  0.126890  0.203577  1
  O  O119  1  0.868168  0.626890  0.796423  1
  O  O120  1  0.207158  0.091882  0.812899  1
  O  O121  1  0.292842  0.591882  0.187101  1
  O  O122  1  0.792842  0.908118  0.187101  1
  O  O123  1  0.707158  0.408118  0.812899  1
  O  O124  1  0.020065  0.126159  0.877800  1
  O  O125  1  0.479935  0.626159  0.122200  1
  O  O126  1  0.979935  0.873841  0.122200  1
  O  O127  1  0.520065  0.373841  0.877800  1
