# generated using pymatgen
data_BeC2
_symmetry_space_group_name_H-M   'P 1'
_cell_length_a   3.36023783
_cell_length_b   3.36023783
_cell_length_c   5.17235296
_cell_angle_alpha   90.00000000
_cell_angle_beta   90.00000000
_cell_angle_gamma   90.00000000
_symmetry_Int_Tables_number   1
_chemical_formula_structural   BeC2
_chemical_formula_sum   'Be2 C4'
_cell_volume   58.40206282
_cell_formula_units_Z   2
loop_
 _symmetry_equiv_pos_site_id
 _symmetry_equiv_pos_as_xyz
  1  'x, y, z'
loop_
 _atom_site_type_symbol
 _atom_site_label
 _atom_site_symmetry_multiplicity
 _atom_site_fract_x
 _atom_site_fract_y
 _atom_site_fract_z
 _atom_site_occupancy
  Be  Be0  1  0.500000  0.500000  0.000000  1
  Be  Be1  1  0.000000  0.000000  0.500000  1
  C  C2  1  0.867832  0.867832  0.000000  1
  C  C3  1  0.632168  0.367832  0.500000  1
  C  C4  1  0.132168  0.132168  0.000000  1
  C  C5  1  0.367832  0.632168  0.500000  1
