# generated using pymatgen
data_Cs2Se
_symmetry_space_group_name_H-M   'P 1'
_cell_length_a   5.62415818
_cell_length_b   9.09580392
_cell_length_c   10.99891259
_cell_angle_alpha   90.00000000
_cell_angle_beta   90.00000000
_cell_angle_gamma   90.00000000
_symmetry_Int_Tables_number   1
_chemical_formula_structural   Cs2Se
_chemical_formula_sum   'Cs8 Se4'
_cell_volume   562.66301242
_cell_formula_units_Z   4
loop_
 _symmetry_equiv_pos_site_id
 _symmetry_equiv_pos_as_xyz
  1  'x, y, z'
loop_
 _atom_site_type_symbol
 _atom_site_label
 _atom_site_symmetry_multiplicity
 _atom_site_fract_x
 _atom_site_fract_y
 _atom_site_fract_z
 _atom_site_occupancy
  Cs  Cs0  1  0.750000  0.476392  0.329364  1
  Cs  Cs1  1  0.750000  0.976392  0.170636  1
  Cs  Cs2  1  0.250000  0.523608  0.670636  1
  Cs  Cs3  1  0.250000  0.023608  0.829364  1
  Cs  Cs4  1  0.750000  0.354194  0.925532  1
  Cs  Cs5  1  0.750000  0.854194  0.574468  1
  Cs  Cs6  1  0.250000  0.645806  0.074468  1
  Cs  Cs7  1  0.250000  0.145806  0.425532  1
  Se  Se8  1  0.750000  0.252062  0.610718  1
  Se  Se9  1  0.750000  0.752062  0.889282  1
  Se  Se10  1  0.250000  0.747938  0.389282  1
  Se  Se11  1  0.250000  0.247938  0.110718  1
