# generated using pymatgen
data_SmZnRh
_symmetry_space_group_name_H-M   'P 1'
_cell_length_a   4.11861926
_cell_length_b   7.05329720
_cell_length_c   8.21794669
_cell_angle_alpha   90.00000000
_cell_angle_beta   90.00000000
_cell_angle_gamma   90.00000000
_symmetry_Int_Tables_number   1
_chemical_formula_structural   SmZnRh
_chemical_formula_sum   'Sm4 Zn4 Rh4'
_cell_volume   238.73008327
_cell_formula_units_Z   4
loop_
 _symmetry_equiv_pos_site_id
 _symmetry_equiv_pos_as_xyz
  1  'x, y, z'
loop_
 _atom_site_type_symbol
 _atom_site_label
 _atom_site_symmetry_multiplicity
 _atom_site_fract_x
 _atom_site_fract_y
 _atom_site_fract_z
 _atom_site_occupancy
  Sm  Sm0  1  0.250000  0.037592  0.186364  1
  Sm  Sm1  1  0.750000  0.962408  0.813636  1
  Sm  Sm2  1  0.250000  0.537592  0.313636  1
  Sm  Sm3  1  0.750000  0.462408  0.686364  1
  Zn  Zn4  1  0.250000  0.638121  0.935952  1
  Zn  Zn5  1  0.750000  0.361879  0.064048  1
  Zn  Zn6  1  0.250000  0.138121  0.564048  1
  Zn  Zn7  1  0.750000  0.861879  0.435952  1
  Rh  Rh8  1  0.750000  0.242022  0.379402  1
  Rh  Rh9  1  0.250000  0.757978  0.620598  1
  Rh  Rh10  1  0.750000  0.742022  0.120598  1
  Rh  Rh11  1  0.250000  0.257978  0.879402  1
