# generated using pymatgen
data_Ba3(AlN2)2
_symmetry_space_group_name_H-M   'P 1'
_cell_length_a   6.27119210
_cell_length_b   10.18969324
_cell_length_c   10.31969034
_cell_angle_alpha   90.00000000
_cell_angle_beta   90.00000000
_cell_angle_gamma   90.00000000
_symmetry_Int_Tables_number   1
_chemical_formula_structural   Ba3(AlN2)2
_chemical_formula_sum   'Ba12 Al8 N16'
_cell_volume   659.44393733
_cell_formula_units_Z   4
loop_
 _symmetry_equiv_pos_site_id
 _symmetry_equiv_pos_as_xyz
  1  'x, y, z'
loop_
 _atom_site_type_symbol
 _atom_site_label
 _atom_site_symmetry_multiplicity
 _atom_site_fract_x
 _atom_site_fract_y
 _atom_site_fract_z
 _atom_site_occupancy
  Ba  Ba0  1  0.750000  0.091285  0.500000  1
  Ba  Ba1  1  0.750000  0.408715  0.000000  1
  Ba  Ba2  1  0.250000  0.908715  0.500000  1
  Ba  Ba3  1  0.250000  0.591285  0.000000  1
  Ba  Ba4  1  0.885371  0.086719  0.154830  1
  Ba  Ba5  1  0.885371  0.413281  0.345170  1
  Ba  Ba6  1  0.614629  0.413281  0.654830  1
  Ba  Ba7  1  0.614629  0.086719  0.845170  1
  Ba  Ba8  1  0.114629  0.913281  0.845170  1
  Ba  Ba9  1  0.114629  0.586719  0.654830  1
  Ba  Ba10  1  0.385371  0.586719  0.345170  1
  Ba  Ba11  1  0.385371  0.913281  0.154830  1
  Al  Al12  1  0.750000  0.732274  0.000000  1
  Al  Al13  1  0.750000  0.767726  0.500000  1
  Al  Al14  1  0.250000  0.267726  0.000000  1
  Al  Al15  1  0.250000  0.232274  0.500000  1
  Al  Al16  1  0.173660  0.250000  0.750000  1
  Al  Al17  1  0.673660  0.750000  0.750000  1
  Al  Al18  1  0.826340  0.750000  0.250000  1
  Al  Al19  1  0.326340  0.250000  0.250000  1
  N  N20  1  0.142582  0.365661  0.144663  1
  N  N21  1  0.142582  0.134339  0.355337  1
  N  N22  1  0.357418  0.134339  0.644663  1
  N  N23  1  0.357418  0.365661  0.855337  1
  N  N24  1  0.857418  0.634339  0.855337  1
  N  N25  1  0.857418  0.865661  0.644663  1
  N  N26  1  0.642582  0.865661  0.355337  1
  N  N27  1  0.642582  0.634339  0.144663  1
  N  N28  1  0.464639  0.172227  0.099485  1
  N  N29  1  0.464639  0.327773  0.400515  1
  N  N30  1  0.035361  0.327773  0.599485  1
  N  N31  1  0.035361  0.172227  0.900515  1
  N  N32  1  0.535361  0.672227  0.599485  1
  N  N33  1  0.964639  0.672227  0.400515  1
  N  N34  1  0.964639  0.827773  0.099485  1
  N  N35  1  0.535361  0.827773  0.900515  1
