# generated using pymatgen
data_BaYCo4O7
_symmetry_space_group_name_H-M   'P 1'
_cell_length_a   6.40020824
_cell_length_b   6.40020824
_cell_length_c   10.42089637
_cell_angle_alpha   90.00000000
_cell_angle_beta   90.00000000
_cell_angle_gamma   120.00000000
_symmetry_Int_Tables_number   1
_chemical_formula_structural   BaYCo4O7
_chemical_formula_sum   'Ba2 Y2 Co8 O14'
_cell_volume   369.67826582
_cell_formula_units_Z   2
loop_
 _symmetry_equiv_pos_site_id
 _symmetry_equiv_pos_as_xyz
  1  'x, y, z'
loop_
 _atom_site_type_symbol
 _atom_site_label
 _atom_site_symmetry_multiplicity
 _atom_site_fract_x
 _atom_site_fract_y
 _atom_site_fract_z
 _atom_site_occupancy
  Ba  Ba0  1  0.666667  0.333333  0.483502  1
  Ba  Ba1  1  0.333333  0.666667  0.983502  1
  Y  Y2  1  0.666667  0.333333  0.879761  1
  Y  Y3  1  0.333333  0.666667  0.379761  1
  Co  Co4  1  0.000000  0.000000  0.946442  1
  Co  Co5  1  0.338284  0.169142  0.190485  1
  Co  Co6  1  0.661716  0.830858  0.690485  1
  Co  Co7  1  0.830858  0.661716  0.190485  1
  Co  Co8  1  0.169142  0.338284  0.690485  1
  Co  Co9  1  0.000000  0.000000  0.446442  1
  Co  Co10  1  0.830858  0.169142  0.190485  1
  Co  Co11  1  0.169142  0.830858  0.690485  1
  O  O12  1  0.508513  0.491487  0.262005  1
  O  O13  1  0.508513  0.017027  0.262005  1
  O  O14  1  0.832837  0.665675  0.006292  1
  O  O15  1  0.167163  0.832837  0.506292  1
  O  O16  1  0.000000  0.000000  0.747950  1
  O  O17  1  0.982973  0.491487  0.262005  1
  O  O18  1  0.000000  0.000000  0.247950  1
  O  O19  1  0.491487  0.508513  0.762005  1
  O  O20  1  0.832837  0.167163  0.006292  1
  O  O21  1  0.334325  0.167163  0.006292  1
  O  O22  1  0.491487  0.982973  0.762005  1
  O  O23  1  0.167163  0.334325  0.506292  1
  O  O24  1  0.665675  0.832837  0.506292  1
  O  O25  1  0.017027  0.508513  0.762005  1
