# generated using pymatgen
data_ErSi2Ni
_symmetry_space_group_name_H-M   'P 1'
_cell_length_a   8.49277010
_cell_length_b   8.49277010
_cell_length_c   3.94250740
_cell_angle_alpha   90.00000000
_cell_angle_beta   90.00000000
_cell_angle_gamma   153.10227298
_symmetry_Int_Tables_number   1
_chemical_formula_structural   ErSi2Ni
_chemical_formula_sum   'Er2 Si4 Ni2'
_cell_volume   128.64508743
_cell_formula_units_Z   2
loop_
 _symmetry_equiv_pos_site_id
 _symmetry_equiv_pos_as_xyz
  1  'x, y, z'
loop_
 _atom_site_type_symbol
 _atom_site_label
 _atom_site_symmetry_multiplicity
 _atom_site_fract_x
 _atom_site_fract_y
 _atom_site_fract_z
 _atom_site_occupancy
  Er  Er0  1  0.105419  0.894581  0.250000  1
  Er  Er1  1  0.894581  0.105419  0.750000  1
  Si  Si2  1  0.749229  0.250771  0.250000  1
  Si  Si3  1  0.250771  0.749229  0.750000  1
  Si  Si4  1  0.539762  0.460238  0.750000  1
  Si  Si5  1  0.460238  0.539762  0.250000  1
  Ni  Ni6  1  0.676108  0.323892  0.750000  1
  Ni  Ni7  1  0.323892  0.676108  0.250000  1
