# generated using pymatgen
data_Tb6Al3Si
_symmetry_space_group_name_H-M   'P 1'
_cell_length_a   11.24095528
_cell_length_b   11.24095528
_cell_length_c   11.24095528
_cell_angle_alpha   117.72690868
_cell_angle_beta   117.72690868
_cell_angle_gamma   93.98437166
_symmetry_Int_Tables_number   1
_chemical_formula_structural   Tb6Al3Si
_chemical_formula_sum   'Tb24 Al12 Si4'
_cell_volume   1036.16982355
_cell_formula_units_Z   4
loop_
 _symmetry_equiv_pos_site_id
 _symmetry_equiv_pos_as_xyz
  1  'x, y, z'
loop_
 _atom_site_type_symbol
 _atom_site_label
 _atom_site_symmetry_multiplicity
 _atom_site_fract_x
 _atom_site_fract_y
 _atom_site_fract_z
 _atom_site_occupancy
  Tb  Tb0  1  0.570134  0.438358  0.740067  1
  Tb  Tb1  1  0.929866  0.669933  0.868224  1
  Tb  Tb2  1  0.830067  0.570134  0.131776  1
  Tb  Tb3  1  0.438358  0.698291  0.868224  1
  Tb  Tb4  1  0.331067  0.831067  0.162134  1
  Tb  Tb5  1  0.831067  0.668933  0.500000  1
  Tb  Tb6  1  0.168933  0.331067  0.500000  1
  Tb  Tb7  1  0.668933  0.168933  0.837866  1
  Tb  Tb8  1  0.698291  0.830067  0.259933  1
  Tb  Tb9  1  0.669933  0.801709  0.740067  1
  Tb  Tb10  1  0.061642  0.929866  0.259933  1
  Tb  Tb11  1  0.801709  0.061642  0.131776  1
  Tb  Tb12  1  0.561642  0.301709  0.131776  1
  Tb  Tb13  1  0.169933  0.429866  0.868224  1
  Tb  Tb14  1  0.070134  0.330067  0.131776  1
  Tb  Tb15  1  0.429866  0.561642  0.259933  1
  Tb  Tb16  1  0.301709  0.169933  0.740067  1
  Tb  Tb17  1  0.330067  0.198291  0.259933  1
  Tb  Tb18  1  0.938358  0.070134  0.740067  1
  Tb  Tb19  1  0.198291  0.938358  0.868224  1
  Tb  Tb20  1  0.148445  0.648445  0.500000  1
  Tb  Tb21  1  0.648445  0.148445  0.500000  1
  Tb  Tb22  1  0.351555  0.851555  0.500000  1
  Tb  Tb23  1  0.851555  0.351555  0.500000  1
  Al  Al24  1  0.880405  0.380405  0.260810  1
  Al  Al25  1  0.380405  0.119595  0.500000  1
  Al  Al26  1  0.619595  0.880405  0.500000  1
  Al  Al27  1  0.119595  0.619595  0.739190  1
  Al  Al28  1  0.473613  0.973613  0.856361  1
  Al  Al29  1  0.117252  0.617252  0.143639  1
  Al  Al30  1  0.882748  0.382748  0.856361  1
  Al  Al31  1  0.617252  0.473613  0.500000  1
  Al  Al32  1  0.973613  0.117252  0.500000  1
  Al  Al33  1  0.382748  0.526387  0.500000  1
  Al  Al34  1  0.026387  0.882748  0.500000  1
  Al  Al35  1  0.526387  0.026387  0.143639  1
  Si  Si36  1  0.500000  0.500000  0.000000  1
  Si  Si37  1  0.000000  0.000000  0.000000  1
  Si  Si38  1  0.250000  0.250000  0.000000  1
  Si  Si39  1  0.750000  0.750000  0.000000  1
