# generated using pymatgen
data_CrAs2
_symmetry_space_group_name_H-M   'P 1'
_cell_length_a   4.74370725
_cell_length_b   4.74370725
_cell_length_c   7.42636660
_cell_angle_alpha   62.07268456
_cell_angle_beta   117.92731544
_cell_angle_gamma   140.23551652
_symmetry_Int_Tables_number   1
_chemical_formula_structural   CrAs2
_chemical_formula_sum   'Cr2 As4'
_cell_volume   92.69157543
_cell_formula_units_Z   2
loop_
 _symmetry_equiv_pos_site_id
 _symmetry_equiv_pos_as_xyz
  1  'x, y, z'
loop_
 _atom_site_type_symbol
 _atom_site_label
 _atom_site_symmetry_multiplicity
 _atom_site_fract_x
 _atom_site_fract_y
 _atom_site_fract_z
 _atom_site_occupancy
  Cr  Cr0  1  0.847111  0.152889  0.300210  1
  Cr  Cr1  1  0.152889  0.847111  0.699790  1
  As  As2  1  0.596314  0.403686  0.394534  1
  As  As3  1  0.403686  0.596314  0.605466  1
  As  As4  1  0.150226  0.849774  0.036910  1
  As  As5  1  0.849774  0.150226  0.963090  1
