# generated using pymatgen
data_PrZnPd
_symmetry_space_group_name_H-M   'P 1'
_cell_length_a   7.49112924
_cell_length_b   7.49112924
_cell_length_c   4.02356179
_cell_angle_alpha   90.00000000
_cell_angle_beta   90.00000000
_cell_angle_gamma   120.00000000
_symmetry_Int_Tables_number   1
_chemical_formula_structural   PrZnPd
_chemical_formula_sum   'Pr3 Zn3 Pd3'
_cell_volume   195.54012396
_cell_formula_units_Z   3
loop_
 _symmetry_equiv_pos_site_id
 _symmetry_equiv_pos_as_xyz
  1  'x, y, z'
loop_
 _atom_site_type_symbol
 _atom_site_label
 _atom_site_symmetry_multiplicity
 _atom_site_fract_x
 _atom_site_fract_y
 _atom_site_fract_z
 _atom_site_occupancy
  Pr  Pr0  1  0.591907  0.000000  0.500000  1
  Pr  Pr1  1  0.408093  0.408093  0.500000  1
  Pr  Pr2  1  0.000000  0.591907  0.500000  1
  Zn  Zn3  1  0.757896  0.757896  0.000000  1
  Zn  Zn4  1  0.000000  0.242104  0.000000  1
  Zn  Zn5  1  0.242104  0.000000  0.000000  1
  Pd  Pd6  1  0.000000  0.000000  0.500000  1
  Pd  Pd7  1  0.333333  0.666667  0.000000  1
  Pd  Pd8  1  0.666667  0.333333  0.000000  1
