# generated using pymatgen
data_Co(PdSe)2
_symmetry_space_group_name_H-M   'P 1'
_cell_length_a   6.61953790
_cell_length_b   6.61953790
_cell_length_c   6.61953790
_cell_angle_alpha   135.22260858
_cell_angle_beta   125.67141494
_cell_angle_gamma   72.96326877
_symmetry_Int_Tables_number   1
_chemical_formula_structural   Co(PdSe)2
_chemical_formula_sum   'Co2 Pd4 Se4'
_cell_volume   162.21990962
_cell_formula_units_Z   2
loop_
 _symmetry_equiv_pos_site_id
 _symmetry_equiv_pos_as_xyz
  1  'x, y, z'
loop_
 _atom_site_type_symbol
 _atom_site_label
 _atom_site_symmetry_multiplicity
 _atom_site_fract_x
 _atom_site_fract_y
 _atom_site_fract_z
 _atom_site_occupancy
  Co  Co0  1  0.000000  0.750000  0.750000  1
  Co  Co1  1  0.000000  0.250000  0.250000  1
  Pd  Pd2  1  0.262957  0.887196  0.375761  1
  Pd  Pd3  1  0.737043  0.112804  0.624239  1
  Pd  Pd4  1  0.488565  0.612804  0.875761  1
  Pd  Pd5  1  0.511435  0.387196  0.124239  1
  Se  Se6  1  0.931374  0.641278  0.290096  1
  Se  Se7  1  0.068626  0.358722  0.709904  1
  Se  Se8  1  0.351182  0.141278  0.209904  1
  Se  Se9  1  0.648818  0.858722  0.790096  1
