# generated using pymatgen
data_MnBe2
_symmetry_space_group_name_H-M   'P 1'
_cell_length_a   4.14446650
_cell_length_b   4.14446650
_cell_length_c   6.75945468
_cell_angle_alpha   90.00000000
_cell_angle_beta   90.00000000
_cell_angle_gamma   120.00000000
_symmetry_Int_Tables_number   1
_chemical_formula_structural   MnBe2
_chemical_formula_sum   'Mn4 Be8'
_cell_volume   100.54941771
_cell_formula_units_Z   4
loop_
 _symmetry_equiv_pos_site_id
 _symmetry_equiv_pos_as_xyz
  1  'x, y, z'
loop_
 _atom_site_type_symbol
 _atom_site_label
 _atom_site_symmetry_multiplicity
 _atom_site_fract_x
 _atom_site_fract_y
 _atom_site_fract_z
 _atom_site_occupancy
  Mn  Mn0  1  0.333333  0.666667  0.060630  1
  Mn  Mn1  1  0.666667  0.333333  0.560630  1
  Mn  Mn2  1  0.666667  0.333333  0.939370  1
  Mn  Mn3  1  0.333333  0.666667  0.439370  1
  Be  Be4  1  0.000000  0.000000  0.000000  1
  Be  Be5  1  0.000000  0.000000  0.500000  1
  Be  Be6  1  0.829886  0.659771  0.250000  1
  Be  Be7  1  0.170114  0.829886  0.750000  1
  Be  Be8  1  0.659771  0.829886  0.750000  1
  Be  Be9  1  0.340229  0.170114  0.250000  1
  Be  Be10  1  0.829886  0.170114  0.250000  1
  Be  Be11  1  0.170114  0.340229  0.750000  1
