# generated using pymatgen
data_RbMgPO4
_symmetry_space_group_name_H-M   'P 1'
_cell_length_a   5.40083123
_cell_length_b   9.45383642
_cell_length_c   26.96596410
_cell_angle_alpha   90.00000000
_cell_angle_beta   90.00000000
_cell_angle_gamma   90.00000000
_symmetry_Int_Tables_number   1
_chemical_formula_structural   RbMgPO4
_chemical_formula_sum   'Rb12 Mg12 P12 O48'
_cell_volume   1376.84369992
_cell_formula_units_Z   12
loop_
 _symmetry_equiv_pos_site_id
 _symmetry_equiv_pos_as_xyz
  1  'x, y, z'
loop_
 _atom_site_type_symbol
 _atom_site_label
 _atom_site_symmetry_multiplicity
 _atom_site_fract_x
 _atom_site_fract_y
 _atom_site_fract_z
 _atom_site_occupancy
  Rb  Rb0  1  0.752315  0.798264  0.501020  1
  Rb  Rb1  1  0.252315  0.201736  0.498980  1
  Rb  Rb2  1  0.252315  0.298264  0.998980  1
  Rb  Rb3  1  0.752315  0.701736  0.001020  1
  Rb  Rb4  1  0.760379  0.690352  0.665013  1
  Rb  Rb5  1  0.260379  0.309648  0.334987  1
  Rb  Rb6  1  0.260379  0.190352  0.834987  1
  Rb  Rb7  1  0.760379  0.809648  0.165013  1
  Rb  Rb8  1  0.286070  0.310155  0.674073  1
  Rb  Rb9  1  0.786070  0.689845  0.325927  1
  Rb  Rb10  1  0.786070  0.810155  0.825927  1
  Rb  Rb11  1  0.286070  0.189845  0.174073  1
  Mg  Mg12  1  0.765643  0.086704  0.600660  1
  Mg  Mg13  1  0.265643  0.913296  0.399340  1
  Mg  Mg14  1  0.265643  0.586704  0.899340  1
  Mg  Mg15  1  0.765643  0.413296  0.100660  1
  Mg  Mg16  1  0.752786  0.405880  0.781947  1
  Mg  Mg17  1  0.252786  0.594120  0.218053  1
  Mg  Mg18  1  0.252786  0.905880  0.718053  1
  Mg  Mg19  1  0.752786  0.094120  0.281947  1
  Mg  Mg20  1  0.234334  0.557653  0.551981  1
  Mg  Mg21  1  0.734334  0.442347  0.448019  1
  Mg  Mg22  1  0.734334  0.057653  0.948019  1
  Mg  Mg23  1  0.234334  0.942347  0.051981  1
  P  P24  1  0.253212  0.896934  0.591811  1
  P  P25  1  0.753212  0.103066  0.408189  1
  P  P26  1  0.753212  0.396934  0.908189  1
  P  P27  1  0.253212  0.603066  0.091811  1
  P  P28  1  0.258595  0.589538  0.773097  1
  P  P29  1  0.758595  0.410462  0.226903  1
  P  P30  1  0.758595  0.089538  0.726903  1
  P  P31  1  0.258595  0.910462  0.273097  1
  P  P32  1  0.779912  0.426112  0.569581  1
  P  P33  1  0.279912  0.573888  0.430419  1
  P  P34  1  0.279912  0.926112  0.930419  1
  P  P35  1  0.779912  0.073888  0.069581  1
  O  O36  1  0.194036  0.761305  0.562052  1
  O  O37  1  0.694036  0.238695  0.437948  1
  O  O38  1  0.694036  0.261305  0.937948  1
  O  O39  1  0.194036  0.738695  0.062052  1
  O  O40  1  0.163892  0.719729  0.743842  1
  O  O41  1  0.663892  0.280271  0.256158  1
  O  O42  1  0.663892  0.219729  0.756158  1
  O  O43  1  0.163892  0.780271  0.243842  1
  O  O44  1  0.710824  0.267682  0.567668  1
  O  O45  1  0.210824  0.732318  0.432332  1
  O  O46  1  0.210824  0.767682  0.932332  1
  O  O47  1  0.710824  0.232318  0.067668  1
  O  O48  1  0.214733  0.869299  0.647906  1
  O  O49  1  0.714733  0.130701  0.352094  1
  O  O50  1  0.714733  0.369299  0.852094  1
  O  O51  1  0.214733  0.630701  0.147906  1
  O  O52  1  0.255960  0.627256  0.828939  1
  O  O53  1  0.755960  0.372744  0.171061  1
  O  O54  1  0.755960  0.127257  0.671061  1
  O  O55  1  0.255960  0.872744  0.328939  1
  O  O56  1  0.877740  0.476329  0.517282  1
  O  O57  1  0.377740  0.523671  0.482718  1
  O  O58  1  0.377740  0.976329  0.982718  1
  O  O59  1  0.877740  0.023671  0.017282  1
  O  O60  1  0.077384  0.017107  0.574290  1
  O  O61  1  0.577384  0.982893  0.425710  1
  O  O62  1  0.577384  0.517107  0.925710  1
  O  O63  1  0.077384  0.482893  0.074290  1
  O  O64  1  0.087989  0.460186  0.762537  1
  O  O65  1  0.587989  0.539814  0.237463  1
  O  O66  1  0.587989  0.960186  0.737463  1
  O  O67  1  0.087989  0.039814  0.262537  1
  O  O68  1  0.551907  0.512655  0.586456  1
  O  O69  1  0.051907  0.487345  0.413544  1
  O  O70  1  0.051907  0.012655  0.913544  1
  O  O71  1  0.551907  0.987345  0.086456  1
  O  O72  1  0.524861  0.942701  0.581850  1
  O  O73  1  0.024861  0.057299  0.418150  1
  O  O74  1  0.024861  0.442701  0.918150  1
  O  O75  1  0.524861  0.557299  0.081850  1
  O  O76  1  0.526279  0.551325  0.756111  1
  O  O77  1  0.026279  0.448675  0.243889  1
  O  O78  1  0.026279  0.051325  0.743889  1
  O  O79  1  0.526279  0.948675  0.256111  1
  O  O80  1  0.005450  0.458053  0.603800  1
  O  O81  1  0.505450  0.541947  0.396200  1
  O  O82  1  0.505450  0.958053  0.896200  1
  O  O83  1  0.005450  0.041947  0.103800  1
