# generated using pymatgen
data_TiSiRu
_symmetry_space_group_name_H-M   'P 1'
_cell_length_a   7.38707746
_cell_length_b   7.38707746
_cell_length_c   7.38707746
_cell_angle_alpha   127.80674118
_cell_angle_beta   122.68076936
_cell_angle_gamma   81.20162185
_symmetry_Int_Tables_number   1
_chemical_formula_structural   TiSiRu
_chemical_formula_sum   'Ti6 Si6 Ru6'
_cell_volume   258.28189372
_cell_formula_units_Z   6
loop_
 _symmetry_equiv_pos_site_id
 _symmetry_equiv_pos_as_xyz
  1  'x, y, z'
loop_
 _atom_site_type_symbol
 _atom_site_label
 _atom_site_symmetry_multiplicity
 _atom_site_fract_x
 _atom_site_fract_y
 _atom_site_fract_z
 _atom_site_occupancy
  Ti  Ti0  1  0.245908  0.912262  0.166354  1
  Ti  Ti1  1  0.973307  0.493171  0.019863  1
  Ti  Ti2  1  0.026693  0.046556  0.519863  1
  Ti  Ti3  1  0.445455  0.491167  0.545712  1
  Ti  Ti4  1  0.754092  0.920446  0.666354  1
  Ti  Ti5  1  0.554545  0.100257  0.045712  1
  Si  Si6  1  0.781141  0.538196  0.257056  1
  Si  Si7  1  0.174492  0.162360  0.001652  1
  Si  Si8  1  0.660708  0.162360  0.487867  1
  Si  Si9  1  0.339292  0.827159  0.501652  1
  Si  Si10  1  0.218859  0.475915  0.757056  1
  Si  Si11  1  0.825508  0.827159  0.987867  1
  Ru  Ru12  1  0.500000  0.245510  0.745510  1
  Ru  Ru13  1  1.000000  0.245510  0.245510  1
  Ru  Ru14  1  0.838427  0.497079  0.588439  1
  Ru  Ru15  1  0.591361  0.750012  0.088439  1
  Ru  Ru16  1  0.408639  0.497079  0.158652  1
  Ru  Ru17  1  0.161573  0.750012  0.658652  1
