# generated using pymatgen
data_Si3Mo5
_symmetry_space_group_name_H-M   'P 1'
_cell_length_a   7.28393142
_cell_length_b   7.28393142
_cell_length_c   7.28393142
_cell_angle_alpha   96.59132180
_cell_angle_beta   96.59132180
_cell_angle_gamma   140.39221445
_symmetry_Int_Tables_number   1
_chemical_formula_structural   Si3Mo5
_chemical_formula_sum   'Si6 Mo10'
_cell_volume   231.80416899
_cell_formula_units_Z   2
loop_
 _symmetry_equiv_pos_site_id
 _symmetry_equiv_pos_as_xyz
  1  'x, y, z'
loop_
 _atom_site_type_symbol
 _atom_site_label
 _atom_site_symmetry_multiplicity
 _atom_site_fract_x
 _atom_site_fract_y
 _atom_site_fract_z
 _atom_site_occupancy
  Si  Si0  1  0.667359  0.832641  0.500000  1
  Si  Si1  1  0.167359  0.667359  0.834718  1
  Si  Si2  1  0.832641  0.332641  0.165282  1
  Si  Si3  1  0.332641  0.167359  0.500000  1
  Si  Si4  1  0.750000  0.750000  0.000000  1
  Si  Si5  1  0.250000  0.250000  0.000000  1
  Mo  Mo6  1  0.576545  0.276062  0.852607  1
  Mo  Mo7  1  0.423455  0.723938  0.147393  1
  Mo  Mo8  1  0.276062  0.423455  0.699518  1
  Mo  Mo9  1  0.723938  0.576545  0.300482  1
  Mo  Mo10  1  0.223938  0.923455  0.147393  1
  Mo  Mo11  1  0.076545  0.223938  0.300482  1
  Mo  Mo12  1  0.923455  0.776062  0.699518  1
  Mo  Mo13  1  0.776062  0.076545  0.852607  1
  Mo  Mo14  1  0.250000  0.750000  0.500000  1
  Mo  Mo15  1  0.750000  0.250000  0.500000  1
