# generated using pymatgen
data_Co4B6O13
_symmetry_space_group_name_H-M   'P 1'
_cell_length_a   6.53567673
_cell_length_b   6.53567673
_cell_length_c   6.53567673
_cell_angle_alpha   109.47122063
_cell_angle_beta   109.47122063
_cell_angle_gamma   109.47122063
_symmetry_Int_Tables_number   1
_chemical_formula_structural   Co4B6O13
_chemical_formula_sum   'Co4 B6 O13'
_cell_volume   214.90662167
_cell_formula_units_Z   1
loop_
 _symmetry_equiv_pos_site_id
 _symmetry_equiv_pos_as_xyz
  1  'x, y, z'
loop_
 _atom_site_type_symbol
 _atom_site_label
 _atom_site_symmetry_multiplicity
 _atom_site_fract_x
 _atom_site_fract_y
 _atom_site_fract_z
 _atom_site_occupancy
  Co  Co0  1  0.000000  0.000000  0.692382  1
  Co  Co1  1  0.000000  0.692382  0.000000  1
  Co  Co2  1  0.692382  0.000000  0.000000  1
  Co  Co3  1  0.307618  0.307618  0.307618  1
  B  B4  1  0.500000  0.750000  0.250000  1
  B  B5  1  0.250000  0.750000  0.500000  1
  B  B6  1  0.750000  0.250000  0.500000  1
  B  B7  1  0.250000  0.500000  0.750000  1
  B  B8  1  0.750000  0.500000  0.250000  1
  B  B9  1  0.500000  0.250000  0.750000  1
  O  O10  1  0.558075  0.558075  0.281902  1
  O  O11  1  0.723827  0.441925  0.000000  1
  O  O12  1  1.000000  0.723827  0.441925  1
  O  O13  1  0.441925  0.723827  0.000000  1
  O  O14  1  0.276173  0.718098  0.276173  1
  O  O15  1  0.723827  1.000000  0.441925  1
  O  O16  1  0.441925  0.000000  0.723827  1
  O  O17  1  0.000000  0.441925  0.723827  1
  O  O18  1  0.281902  0.558075  0.558075  1
  O  O19  1  0.558075  0.281902  0.558075  1
  O  O20  1  0.276173  0.276173  0.718098  1
  O  O21  1  0.718098  0.276173  0.276173  1
  O  O22  1  0.000000  0.000000  0.000000  1
