# generated using pymatgen
data_NdCrGe3
_symmetry_space_group_name_H-M   'P 1'
_cell_length_a   6.16496501
_cell_length_b   6.16496501
_cell_length_c   5.75008508
_cell_angle_alpha   90.00000000
_cell_angle_beta   90.00000000
_cell_angle_gamma   120.00000000
_symmetry_Int_Tables_number   1
_chemical_formula_structural   NdCrGe3
_chemical_formula_sum   'Nd2 Cr2 Ge6'
_cell_volume   189.26318076
_cell_formula_units_Z   2
loop_
 _symmetry_equiv_pos_site_id
 _symmetry_equiv_pos_as_xyz
  1  'x, y, z'
loop_
 _atom_site_type_symbol
 _atom_site_label
 _atom_site_symmetry_multiplicity
 _atom_site_fract_x
 _atom_site_fract_y
 _atom_site_fract_z
 _atom_site_occupancy
  Nd  Nd0  1  0.666667  0.333333  0.250000  1
  Nd  Nd1  1  0.333333  0.666667  0.750000  1
  Cr  Cr2  1  0.000000  0.000000  0.500000  1
  Cr  Cr3  1  0.000000  0.000000  0.000000  1
  Ge  Ge4  1  0.807632  0.615265  0.750000  1
  Ge  Ge5  1  0.807632  0.192368  0.750000  1
  Ge  Ge6  1  0.384735  0.192368  0.750000  1
  Ge  Ge7  1  0.192368  0.384735  0.250000  1
  Ge  Ge8  1  0.192368  0.807632  0.250000  1
  Ge  Ge9  1  0.615265  0.807632  0.250000  1
