# generated using pymatgen
data_Na4FeO4
_symmetry_space_group_name_H-M   'P 1'
_cell_length_a   5.82861782
_cell_length_b   5.82906255
_cell_length_c   8.37229889
_cell_angle_alpha   87.83341309
_cell_angle_beta   108.17909526
_cell_angle_gamma   110.78068998
_symmetry_Int_Tables_number   1
_chemical_formula_structural   Na4FeO4
_chemical_formula_sum   'Na8 Fe2 O8'
_cell_volume   251.82056265
_cell_formula_units_Z   2
loop_
 _symmetry_equiv_pos_site_id
 _symmetry_equiv_pos_as_xyz
  1  'x, y, z'
loop_
 _atom_site_type_symbol
 _atom_site_label
 _atom_site_symmetry_multiplicity
 _atom_site_fract_x
 _atom_site_fract_y
 _atom_site_fract_z
 _atom_site_occupancy
  Na  Na0  1  0.413985  0.216172  0.371473  1
  Na  Na1  1  0.586015  0.783828  0.628527  1
  Na  Na2  1  0.791832  0.743738  0.018972  1
  Na  Na3  1  0.208168  0.256262  0.981028  1
  Na  Na4  1  0.950554  0.724449  0.432324  1
  Na  Na5  1  0.049446  0.275551  0.567676  1
  Na  Na6  1  0.759567  0.236972  0.169322  1
  Na  Na7  1  0.240433  0.763028  0.830678  1
  Fe  Fe8  1  0.594004  0.279742  0.749910  1
  Fe  Fe9  1  0.405996  0.720258  0.250090  1
  O  O10  1  0.238008  0.892470  0.101608  1
  O  O11  1  0.761992  0.107530  0.898392  1
  O  O12  1  0.687191  0.971786  0.383279  1
  O  O13  1  0.312809  0.028214  0.616721  1
  O  O14  1  0.436583  0.474585  0.801453  1
  O  O15  1  0.563417  0.525415  0.198547  1
  O  O16  1  0.171383  0.501507  0.337695  1
  O  O17  1  0.828617  0.498493  0.662305  1
