# generated using pymatgen
data_MgP4O11
_symmetry_space_group_name_H-M   'P 1'
_cell_length_a   5.47310669
_cell_length_b   22.56848552
_cell_length_c   7.57533926
_cell_angle_alpha   90.00000000
_cell_angle_beta   111.25531222
_cell_angle_gamma   90.00000000
_symmetry_Int_Tables_number   1
_chemical_formula_structural   MgP4O11
_chemical_formula_sum   'Mg4 P16 O44'
_cell_volume   872.05190707
_cell_formula_units_Z   4
loop_
 _symmetry_equiv_pos_site_id
 _symmetry_equiv_pos_as_xyz
  1  'x, y, z'
loop_
 _atom_site_type_symbol
 _atom_site_label
 _atom_site_symmetry_multiplicity
 _atom_site_fract_x
 _atom_site_fract_y
 _atom_site_fract_z
 _atom_site_occupancy
  Mg  Mg0  1  0.001545  0.614669  0.364909  1
  Mg  Mg1  1  0.998455  0.114669  0.135091  1
  Mg  Mg2  1  0.998455  0.385331  0.635091  1
  Mg  Mg3  1  0.001545  0.885331  0.864909  1
  P  P4  1  0.685030  0.071331  0.694088  1
  P  P5  1  0.314970  0.571331  0.805912  1
  P  P6  1  0.314970  0.928669  0.305912  1
  P  P7  1  0.685030  0.428669  0.194088  1
  P  P8  1  0.403681  0.195044  0.972386  1
  P  P9  1  0.596319  0.695044  0.527614  1
  P  P10  1  0.596319  0.804956  0.027614  1
  P  P11  1  0.403681  0.304956  0.472386  1
  P  P12  1  0.401530  0.962855  0.700074  1
  P  P13  1  0.598470  0.462855  0.799926  1
  P  P14  1  0.598470  0.037145  0.299926  1
  P  P15  1  0.401530  0.537145  0.200074  1
  P  P16  1  0.325236  0.320696  0.058957  1
  P  P17  1  0.674764  0.820696  0.441043  1
  P  P18  1  0.674764  0.679304  0.941043  1
  P  P19  1  0.325236  0.179304  0.558957  1
  O  O20  1  0.659197  0.335417  0.523593  1
  O  O21  1  0.340803  0.835417  0.976407  1
  O  O22  1  0.340803  0.664583  0.476407  1
  O  O23  1  0.659197  0.164583  0.023593  1
  O  O24  1  0.216375  0.549040  0.297084  1
  O  O25  1  0.783625  0.049040  0.202916  1
  O  O26  1  0.783625  0.450960  0.702916  1
  O  O27  1  0.216375  0.950960  0.797084  1
  O  O28  1  0.662265  0.565501  0.248358  1
  O  O29  1  0.337735  0.065501  0.251642  1
  O  O30  1  0.337735  0.434499  0.751642  1
  O  O31  1  0.662265  0.934499  0.748358  1
  O  O32  1  0.200021  0.320375  0.550649  1
  O  O33  1  0.799979  0.820375  0.949351  1
  O  O34  1  0.799979  0.679625  0.449351  1
  O  O35  1  0.200021  0.179625  0.050649  1
  O  O36  1  0.259003  0.305190  0.239178  1
  O  O37  1  0.235153  0.953430  0.471466  1
  O  O38  1  0.235153  0.546570  0.971466  1
  O  O39  1  0.764847  0.046570  0.528534  1
  O  O40  1  0.438110  0.464432  0.198870  1
  O  O41  1  0.561890  0.964432  0.301130  1
  O  O42  1  0.561890  0.535568  0.801130  1
  O  O43  1  0.438110  0.035568  0.698870  1
  O  O44  1  0.259003  0.194810  0.739178  1
  O  O45  1  0.740997  0.694810  0.760822  1
  O  O46  1  0.740997  0.805190  0.260822  1
  O  O47  1  0.468648  0.265930  0.009545  1
  O  O48  1  0.912973  0.425787  0.371610  1
  O  O49  1  0.087027  0.925787  0.128390  1
  O  O50  1  0.087027  0.574213  0.628390  1
  O  O51  1  0.912973  0.074213  0.871610  1
  O  O52  1  0.568857  0.364517  0.124974  1
  O  O53  1  0.431143  0.864517  0.375026  1
  O  O54  1  0.431143  0.635483  0.875026  1
  O  O55  1  0.568857  0.135483  0.624974  1
  O  O56  1  0.092503  0.342901  0.903747  1
  O  O57  1  0.907497  0.842901  0.596253  1
  O  O58  1  0.907497  0.657099  0.096253  1
  O  O59  1  0.092503  0.157099  0.403747  1
  O  O60  1  0.468648  0.234070  0.509545  1
  O  O61  1  0.531352  0.734070  0.990455  1
  O  O62  1  0.531352  0.765930  0.490455  1
  O  O63  1  0.764847  0.453430  0.028534  1
