# generated using pymatgen
data_SrNi3(P2O7)2
_symmetry_space_group_name_H-M   'P 1'
_cell_length_a   7.50633615
_cell_length_b   7.76731515
_cell_length_c   9.54997483
_cell_angle_alpha   90.00000000
_cell_angle_beta   112.26142269
_cell_angle_gamma   90.00000000
_symmetry_Int_Tables_number   1
_chemical_formula_structural   SrNi3(P2O7)2
_chemical_formula_sum   'Sr2 Ni6 P8 O28'
_cell_volume   515.30120768
_cell_formula_units_Z   2
loop_
 _symmetry_equiv_pos_site_id
 _symmetry_equiv_pos_as_xyz
  1  'x, y, z'
loop_
 _atom_site_type_symbol
 _atom_site_label
 _atom_site_symmetry_multiplicity
 _atom_site_fract_x
 _atom_site_fract_y
 _atom_site_fract_z
 _atom_site_occupancy
  Sr  Sr0  1  0.500000  0.500000  0.500000  1
  Sr  Sr1  1  0.500000  0.000000  0.000000  1
  Ni  Ni2  1  0.000000  0.500000  0.500000  1
  Ni  Ni3  1  0.000000  0.000000  0.000000  1
  Ni  Ni4  1  0.815682  0.126070  0.475220  1
  Ni  Ni5  1  0.184318  0.626070  0.024780  1
  Ni  Ni6  1  0.184318  0.873930  0.524780  1
  Ni  Ni7  1  0.815682  0.373930  0.975220  1
  P  P8  1  0.396307  0.941737  0.298716  1
  P  P9  1  0.603693  0.441737  0.201284  1
  P  P10  1  0.603693  0.058263  0.701284  1
  P  P11  1  0.396307  0.558263  0.798716  1
  P  P12  1  0.110753  0.202975  0.306929  1
  P  P13  1  0.889247  0.702975  0.193071  1
  P  P14  1  0.889247  0.797025  0.693071  1
  P  P15  1  0.110753  0.297025  0.806929  1
  O  O16  1  0.155547  0.375024  0.389307  1
  O  O17  1  0.844453  0.875024  0.110693  1
  O  O18  1  0.844453  0.624976  0.610693  1
  O  O19  1  0.155547  0.124976  0.889307  1
  O  O20  1  0.731334  0.383545  0.365578  1
  O  O21  1  0.268666  0.883545  0.134422  1
  O  O22  1  0.268666  0.616455  0.634422  1
  O  O23  1  0.731334  0.116455  0.865578  1
  O  O24  1  0.375231  0.819356  0.416056  1
  O  O25  1  0.624769  0.319356  0.083944  1
  O  O26  1  0.624769  0.180644  0.583944  1
  O  O27  1  0.375231  0.680644  0.916056  1
  O  O28  1  0.317854  0.128358  0.322993  1
  O  O29  1  0.682146  0.628358  0.177007  1
  O  O30  1  0.682146  0.871642  0.677007  1
  O  O31  1  0.317854  0.371642  0.822993  1
  O  O32  1  0.599610  0.518920  0.807219  1
  O  O33  1  0.400390  0.018920  0.692781  1
  O  O34  1  0.400390  0.481080  0.192781  1
  O  O35  1  0.599610  0.981080  0.307219  1
  O  O36  1  0.999071  0.790419  0.865154  1
  O  O37  1  0.000929  0.290419  0.634846  1
  O  O38  1  0.000929  0.209581  0.134846  1
  O  O39  1  0.999071  0.709581  0.365154  1
  O  O40  1  0.025871  0.425118  0.887651  1
  O  O41  1  0.974129  0.925118  0.612349  1
  O  O42  1  0.974129  0.574882  0.112349  1
  O  O43  1  0.025871  0.074882  0.387651  1
