# generated using pymatgen
data_K2S5
_symmetry_space_group_name_H-M   'P 1'
_cell_length_a   6.60004864
_cell_length_b   6.61862054
_cell_length_c   18.71872631
_cell_angle_alpha   90.00000000
_cell_angle_beta   90.00000000
_cell_angle_gamma   90.00000000
_symmetry_Int_Tables_number   1
_chemical_formula_structural   K2S5
_chemical_formula_sum   'K8 S20'
_cell_volume   817.69419260
_cell_formula_units_Z   4
loop_
 _symmetry_equiv_pos_site_id
 _symmetry_equiv_pos_as_xyz
  1  'x, y, z'
loop_
 _atom_site_type_symbol
 _atom_site_label
 _atom_site_symmetry_multiplicity
 _atom_site_fract_x
 _atom_site_fract_y
 _atom_site_fract_z
 _atom_site_occupancy
  K  K0  1  0.058038  0.340353  0.428298  1
  K  K1  1  0.941962  0.840353  0.071702  1
  K  K2  1  0.558038  0.159647  0.571702  1
  K  K3  1  0.441962  0.659647  0.928298  1
  K  K4  1  0.174131  0.900733  0.740193  1
  K  K5  1  0.825869  0.400733  0.759807  1
  K  K6  1  0.674131  0.599267  0.259807  1
  K  K7  1  0.325869  0.099267  0.240193  1
  S  S8  1  0.063339  0.206659  0.599314  1
  S  S9  1  0.936661  0.706659  0.900686  1
  S  S10  1  0.563339  0.293341  0.400686  1
  S  S11  1  0.436661  0.793341  0.099314  1
  S  S12  1  0.142766  0.504004  0.617483  1
  S  S13  1  0.857234  0.004004  0.882517  1
  S  S14  1  0.642766  0.995996  0.382517  1
  S  S15  1  0.357234  0.495996  0.117483  1
  S  S16  1  0.834887  0.154055  0.206663  1
  S  S17  1  0.165113  0.654055  0.293337  1
  S  S18  1  0.334887  0.345945  0.793337  1
  S  S19  1  0.665113  0.845945  0.706663  1
  S  S20  1  0.838373  0.317636  0.113172  1
  S  S21  1  0.161627  0.817636  0.386828  1
  S  S22  1  0.338373  0.182364  0.886828  1
  S  S23  1  0.661627  0.682364  0.613172  1
  S  S24  1  0.555729  0.305650  0.063063  1
  S  S25  1  0.444271  0.805650  0.436937  1
  S  S26  1  0.055729  0.194350  0.936937  1
  S  S27  1  0.944271  0.694350  0.563063  1
