# generated using pymatgen
data_Ba2Mg(PO4)2
_symmetry_space_group_name_H-M   'P 1'
_cell_length_a   5.39517775
_cell_length_b   8.96467655
_cell_length_c   17.16086928
_cell_angle_alpha   90.00000000
_cell_angle_beta   107.80455453
_cell_angle_gamma   90.00000000
_symmetry_Int_Tables_number   1
_chemical_formula_structural   Ba2Mg(PO4)2
_chemical_formula_sum   'Ba8 Mg4 P8 O32'
_cell_volume   790.25008601
_cell_formula_units_Z   4
loop_
 _symmetry_equiv_pos_site_id
 _symmetry_equiv_pos_as_xyz
  1  'x, y, z'
loop_
 _atom_site_type_symbol
 _atom_site_label
 _atom_site_symmetry_multiplicity
 _atom_site_fract_x
 _atom_site_fract_y
 _atom_site_fract_z
 _atom_site_occupancy
  Ba  Ba0  1  0.524567  0.657567  0.771385  1
  Ba  Ba1  1  0.475433  0.157567  0.728615  1
  Ba  Ba2  1  0.475433  0.342433  0.228615  1
  Ba  Ba3  1  0.524567  0.842433  0.271385  1
  Ba  Ba4  1  0.681438  0.203965  0.480289  1
  Ba  Ba5  1  0.318562  0.703965  0.019711  1
  Ba  Ba6  1  0.318562  0.796035  0.519711  1
  Ba  Ba7  1  0.681438  0.296035  0.980289  1
  Mg  Mg8  1  0.906754  0.983624  0.133911  1
  Mg  Mg9  1  0.093246  0.483624  0.366089  1
  Mg  Mg10  1  0.906754  0.516376  0.633911  1
  Mg  Mg11  1  0.093246  0.016376  0.866089  1
  P  P12  1  0.313700  0.411783  0.577501  1
  P  P13  1  0.916625  0.891467  0.666665  1
  P  P14  1  0.313700  0.088217  0.077501  1
  P  P15  1  0.686300  0.588217  0.422499  1
  P  P16  1  0.916625  0.608533  0.166665  1
  P  P17  1  0.083375  0.108533  0.333335  1
  P  P18  1  0.083375  0.391467  0.833335  1
  P  P19  1  0.686300  0.911783  0.922499  1
  O  O20  1  0.204523  0.891009  0.665479  1
  O  O21  1  0.795477  0.391009  0.834521  1
  O  O22  1  0.795477  0.108991  0.334521  1
  O  O23  1  0.204523  0.608991  0.165479  1
  O  O24  1  0.813803  0.728053  0.667704  1
  O  O25  1  0.186197  0.228053  0.832296  1
  O  O26  1  0.186197  0.271947  0.332296  1
  O  O27  1  0.813803  0.771947  0.167704  1
  O  O28  1  0.737461  0.973316  0.589822  1
  O  O29  1  0.262539  0.473316  0.910178  1
  O  O30  1  0.262539  0.026684  0.410178  1
  O  O31  1  0.737461  0.526684  0.089822  1
  O  O32  1  0.897211  0.972654  0.745013  1
  O  O33  1  0.102789  0.472654  0.754987  1
  O  O34  1  0.102789  0.027346  0.254987  1
  O  O35  1  0.897211  0.527346  0.245013  1
  O  O36  1  0.399173  0.864307  0.876807  1
  O  O37  1  0.600827  0.364307  0.623193  1
  O  O38  1  0.600827  0.135693  0.123193  1
  O  O39  1  0.399173  0.635693  0.376807  1
  O  O40  1  0.729267  0.585266  0.514993  1
  O  O41  1  0.270733  0.085266  0.985007  1
  O  O42  1  0.270733  0.414734  0.485007  1
  O  O43  1  0.729267  0.914734  0.014993  1
  O  O44  1  0.877939  0.698815  0.400980  1
  O  O45  1  0.122061  0.198815  0.099020  1
  O  O46  1  0.122061  0.301185  0.599020  1
  O  O47  1  0.877939  0.801185  0.900980  1
  O  O48  1  0.737061  0.434341  0.387361  1
  O  O49  1  0.262939  0.934341  0.112639  1
  O  O50  1  0.262939  0.565659  0.612639  1
  O  O51  1  0.737061  0.065659  0.887361  1
