# generated using pymatgen
data_Nd2NiO4
_symmetry_space_group_name_H-M   'P 1'
_cell_length_a   6.66813500
_cell_length_b   6.66813500
_cell_length_c   5.68211585
_cell_angle_alpha   90.00000000
_cell_angle_beta   90.00000000
_cell_angle_gamma   132.02043553
_symmetry_Int_Tables_number   1
_chemical_formula_structural   Nd2NiO4
_chemical_formula_sum   'Nd4 Ni2 O8'
_cell_volume   187.69503640
_cell_formula_units_Z   2
loop_
 _symmetry_equiv_pos_site_id
 _symmetry_equiv_pos_as_xyz
  1  'x, y, z'
loop_
 _atom_site_type_symbol
 _atom_site_label
 _atom_site_symmetry_multiplicity
 _atom_site_fract_x
 _atom_site_fract_y
 _atom_site_fract_z
 _atom_site_occupancy
  Nd  Nd0  1  0.136952  0.863048  0.517373  1
  Nd  Nd1  1  0.363048  0.636952  0.017373  1
  Nd  Nd2  1  0.636952  0.363048  0.982627  1
  Nd  Nd3  1  0.863048  0.136952  0.482627  1
  Ni  Ni4  1  0.000000  0.000000  0.000000  1
  Ni  Ni5  1  0.500000  0.500000  0.500000  1
  O  O6  1  0.729457  0.770543  0.750000  1
  O  O7  1  0.179735  0.820265  0.929154  1
  O  O8  1  0.770543  0.729457  0.250000  1
  O  O9  1  0.320265  0.679735  0.429154  1
  O  O10  1  0.229457  0.270543  0.750000  1
  O  O11  1  0.820265  0.179735  0.070846  1
  O  O12  1  0.270543  0.229457  0.250000  1
  O  O13  1  0.679735  0.320265  0.570846  1
