# generated using pymatgen
data_Li7NbN4
_symmetry_space_group_name_H-M   'P 1'
_cell_length_a   9.85966214
_cell_length_b   9.85966214
_cell_length_c   9.85966214
_cell_angle_alpha   90.00000000
_cell_angle_beta   90.00000000
_cell_angle_gamma   90.00000000
_symmetry_Int_Tables_number   1
_chemical_formula_structural   Li7NbN4
_chemical_formula_sum   'Li56 Nb8 N32'
_cell_volume   958.48671953
_cell_formula_units_Z   8
loop_
 _symmetry_equiv_pos_site_id
 _symmetry_equiv_pos_as_xyz
  1  'x, y, z'
loop_
 _atom_site_type_symbol
 _atom_site_label
 _atom_site_symmetry_multiplicity
 _atom_site_fract_x
 _atom_site_fract_y
 _atom_site_fract_z
 _atom_site_occupancy
  Li  Li0  1  0.131574  0.368426  0.631574  1
  Li  Li1  1  0.368426  0.631574  0.131574  1
  Li  Li2  1  0.631574  0.131574  0.368426  1
  Li  Li3  1  0.868426  0.868426  0.868426  1
  Li  Li4  1  0.868426  0.631574  0.368426  1
  Li  Li5  1  0.631574  0.368426  0.868426  1
  Li  Li6  1  0.368426  0.868426  0.631574  1
  Li  Li7  1  0.131574  0.131574  0.131574  1
  Li  Li8  1  0.620322  0.899522  0.631906  1
  Li  Li9  1  0.120322  0.600478  0.368094  1
  Li  Li10  1  0.379678  0.399522  0.868094  1
  Li  Li11  1  0.600478  0.368094  0.120322  1
  Li  Li12  1  0.868094  0.379678  0.399522  1
  Li  Li13  1  0.368094  0.120322  0.600478  1
  Li  Li14  1  0.899522  0.631906  0.620322  1
  Li  Li15  1  0.631906  0.620322  0.899522  1
  Li  Li16  1  0.399522  0.868094  0.379678  1
  Li  Li17  1  0.100478  0.131906  0.879678  1
  Li  Li18  1  0.131906  0.879678  0.100478  1
  Li  Li19  1  0.879678  0.100478  0.131906  1
  Li  Li20  1  0.379678  0.100478  0.368094  1
  Li  Li21  1  0.879678  0.399522  0.631906  1
  Li  Li22  1  0.620322  0.600478  0.131906  1
  Li  Li23  1  0.639239  0.116209  0.868873  1
  Li  Li24  1  0.399522  0.631906  0.879678  1
  Li  Li25  1  0.631906  0.879678  0.399522  1
  Li  Li26  1  0.100478  0.368094  0.379678  1
  Li  Li27  1  0.368094  0.379678  0.100478  1
  Li  Li28  1  0.600478  0.131906  0.620322  1
  Li  Li29  1  0.899522  0.868094  0.120322  1
  Li  Li30  1  0.868094  0.120322  0.899522  1
  Li  Li31  1  0.120322  0.899522  0.868094  1
  Li  Li32  1  0.131127  0.139239  0.383791  1
  Li  Li33  1  0.631127  0.360761  0.616209  1
  Li  Li34  1  0.868873  0.639239  0.116209  1
  Li  Li35  1  0.360761  0.616209  0.631127  1
  Li  Li36  1  0.116209  0.868873  0.639239  1
  Li  Li37  1  0.616209  0.631127  0.360761  1
  Li  Li38  1  0.139239  0.383791  0.131127  1
  Li  Li39  1  0.383791  0.131127  0.139239  1
  Li  Li40  1  0.631127  0.139239  0.116209  1
  Li  Li41  1  0.116209  0.631127  0.139239  1
  Li  Li42  1  0.139239  0.116209  0.631127  1
  Li  Li43  1  0.360761  0.883791  0.131127  1
  Li  Li44  1  0.616209  0.868873  0.860761  1
  Li  Li45  1  0.860761  0.616209  0.868873  1
  Li  Li46  1  0.383791  0.368873  0.639239  1
  Li  Li47  1  0.883791  0.131127  0.360761  1
  Li  Li48  1  0.639239  0.383791  0.368873  1
  Li  Li49  1  0.131127  0.360761  0.883791  1
  Li  Li50  1  0.368873  0.639239  0.383791  1
  Li  Li51  1  0.868873  0.860761  0.616209  1
  Li  Li52  1  0.368873  0.860761  0.883791  1
  Li  Li53  1  0.883791  0.368873  0.860761  1
  Li  Li54  1  0.860761  0.883791  0.368873  1
  Li  Li55  1  0.131906  0.620322  0.600478  1
  Nb  Nb56  1  0.372461  0.127539  0.872461  1
  Nb  Nb57  1  0.127539  0.872461  0.372461  1
  Nb  Nb58  1  0.872461  0.372461  0.127539  1
  Nb  Nb59  1  0.627539  0.627539  0.627539  1
  Nb  Nb60  1  0.627539  0.872461  0.127539  1
  Nb  Nb61  1  0.872461  0.127539  0.627539  1
  Nb  Nb62  1  0.127539  0.627539  0.872461  1
  Nb  Nb63  1  0.372461  0.372461  0.372461  1
  N  N64  1  0.257308  0.242692  0.757308  1
  N  N65  1  0.242692  0.757308  0.257308  1
  N  N66  1  0.757308  0.257308  0.242692  1
  N  N67  1  0.742692  0.742692  0.742692  1
  N  N68  1  0.742692  0.757308  0.242692  1
  N  N69  1  0.757308  0.242692  0.742692  1
  N  N70  1  0.242692  0.742692  0.757308  1
  N  N71  1  0.257308  0.257308  0.257308  1
  N  N72  1  0.755373  0.013669  0.509601  1
  N  N73  1  0.255373  0.486331  0.490399  1
  N  N74  1  0.244627  0.513669  0.990399  1
  N  N75  1  0.486331  0.490399  0.255373  1
  N  N76  1  0.990399  0.244627  0.513669  1
  N  N77  1  0.490399  0.255373  0.486331  1
  N  N78  1  0.013669  0.509601  0.755373  1
  N  N79  1  0.509601  0.755373  0.013669  1
  N  N80  1  0.513669  0.990399  0.244627  1
  N  N81  1  0.986331  0.009601  0.744627  1
  N  N82  1  0.009601  0.744627  0.986331  1
  N  N83  1  0.744627  0.986331  0.009601  1
  N  N84  1  0.244627  0.986331  0.490399  1
  N  N85  1  0.744627  0.513669  0.509601  1
  N  N86  1  0.755373  0.486331  0.009601  1
  N  N87  1  0.513669  0.509601  0.744627  1
  N  N88  1  0.009601  0.755373  0.486331  1
  N  N89  1  0.509601  0.744627  0.513669  1
  N  N90  1  0.986331  0.490399  0.244627  1
  N  N91  1  0.490399  0.244627  0.986331  1
  N  N92  1  0.486331  0.009601  0.755373  1
  N  N93  1  0.013669  0.990399  0.255373  1
  N  N94  1  0.990399  0.255373  0.013669  1
  N  N95  1  0.255373  0.013669  0.990399  1
