# generated using pymatgen
data_Cs2NaVO4
_symmetry_space_group_name_H-M   'P 1'
_cell_length_a   6.19135693
_cell_length_b   6.28297527
_cell_length_c   8.43564513
_cell_angle_alpha   90.00000000
_cell_angle_beta   93.12397489
_cell_angle_gamma   90.00000000
_symmetry_Int_Tables_number   1
_chemical_formula_structural   Cs2NaVO4
_chemical_formula_sum   'Cs4 Na2 V2 O8'
_cell_volume   327.66015456
_cell_formula_units_Z   2
loop_
 _symmetry_equiv_pos_site_id
 _symmetry_equiv_pos_as_xyz
  1  'x, y, z'
loop_
 _atom_site_type_symbol
 _atom_site_label
 _atom_site_symmetry_multiplicity
 _atom_site_fract_x
 _atom_site_fract_y
 _atom_site_fract_z
 _atom_site_occupancy
  Cs  Cs0  1  0.201982  0.750000  0.486301  1
  Cs  Cs1  1  0.798018  0.250000  0.513699  1
  Cs  Cs2  1  0.351279  0.250000  0.819010  1
  Cs  Cs3  1  0.648721  0.750000  0.180990  1
  Na  Na4  1  0.872120  0.250000  0.027374  1
  Na  Na5  1  0.127880  0.750000  0.972626  1
  V  V6  1  0.704282  0.750000  0.758337  1
  V  V7  1  0.295718  0.250000  0.241663  1
  O  O8  1  0.841957  0.974922  0.834491  1
  O  O9  1  0.158043  0.474922  0.165509  1
  O  O10  1  0.158043  0.025078  0.165509  1
  O  O11  1  0.841957  0.525078  0.834491  1
  O  O12  1  0.562553  0.250000  0.180683  1
  O  O13  1  0.298135  0.250000  0.448638  1
  O  O14  1  0.437447  0.750000  0.819317  1
  O  O15  1  0.701865  0.750000  0.551362  1
