# generated using pymatgen
data_Dy2Si5Rh3
_symmetry_space_group_name_H-M   'P 1'
_cell_length_a   8.15550074
_cell_length_b   8.15550074
_cell_length_c   8.15550074
_cell_angle_alpha   138.63492876
_cell_angle_beta   105.32937119
_cell_angle_gamma   89.14731847
_symmetry_Int_Tables_number   1
_chemical_formula_structural   Dy2Si5Rh3
_chemical_formula_sum   'Dy4 Si10 Rh6'
_cell_volume   331.07626984
_cell_formula_units_Z   2
loop_
 _symmetry_equiv_pos_site_id
 _symmetry_equiv_pos_as_xyz
  1  'x, y, z'
loop_
 _atom_site_type_symbol
 _atom_site_label
 _atom_site_symmetry_multiplicity
 _atom_site_fract_x
 _atom_site_fract_y
 _atom_site_fract_z
 _atom_site_occupancy
  Dy  Dy0  1  0.599464  0.867869  0.731594  1
  Dy  Dy1  1  0.400536  0.132131  0.268406  1
  Dy  Dy2  1  0.863725  0.632131  0.231594  1
  Dy  Dy3  1  0.136275  0.367869  0.768406  1
  Si  Si4  1  0.263650  0.605912  0.657738  1
  Si  Si5  1  0.736350  0.394088  0.342262  1
  Si  Si6  1  0.051826  0.894088  0.157738  1
  Si  Si7  1  0.948174  0.105912  0.842262  1
  Si  Si8  1  0.778608  0.528608  0.750000  1
  Si  Si9  1  0.221392  0.971392  0.750000  1
  Si  Si10  1  0.221392  0.471392  0.250000  1
  Si  Si11  1  0.500000  0.250000  0.750000  1
  Si  Si12  1  0.500000  0.750000  0.250000  1
  Si  Si13  1  0.778608  0.028608  0.250000  1
  Rh  Rh14  1  1.000000  0.250000  0.250000  1
  Rh  Rh15  1  0.469036  0.359972  0.109065  1
  Rh  Rh16  1  0.250907  0.859972  0.390935  1
  Rh  Rh17  1  0.749093  0.140028  0.609065  1
  Rh  Rh18  1  0.000000  0.750000  0.750000  1
  Rh  Rh19  1  0.530964  0.640028  0.890935  1
