# generated using pymatgen
data_CaFe(SiO3)2
_symmetry_space_group_name_H-M   'P 1'
_cell_length_a   6.76733677
_cell_length_b   6.76733677
_cell_length_c   5.33460802
_cell_angle_alpha   78.72803008
_cell_angle_beta   101.27196992
_cell_angle_gamma   94.91039929
_symmetry_Int_Tables_number   1
_chemical_formula_structural   CaFe(SiO3)2
_chemical_formula_sum   'Ca2 Fe2 Si4 O12'
_cell_volume   234.68850197
_cell_formula_units_Z   2
loop_
 _symmetry_equiv_pos_site_id
 _symmetry_equiv_pos_as_xyz
  1  'x, y, z'
loop_
 _atom_site_type_symbol
 _atom_site_label
 _atom_site_symmetry_multiplicity
 _atom_site_fract_x
 _atom_site_fract_y
 _atom_site_fract_z
 _atom_site_occupancy
  Ca  Ca0  1  0.701405  0.701405  0.750000  1
  Ca  Ca1  1  0.298595  0.298595  0.250000  1
  Fe  Fe2  1  0.091704  0.091704  0.750000  1
  Fe  Fe3  1  0.908296  0.908296  0.250000  1
  Si  Si4  1  0.804315  0.380197  0.263053  1
  Si  Si5  1  0.619803  0.195685  0.763053  1
  Si  Si6  1  0.195685  0.619803  0.736947  1
  Si  Si7  1  0.380197  0.804315  0.236947  1
  O  O8  1  0.027968  0.789425  0.653967  1
  O  O9  1  0.609947  0.880497  0.324832  1
  O  O10  1  0.210575  0.972032  0.153967  1
  O  O11  1  0.667395  0.365837  0.498557  1
  O  O12  1  0.880497  0.609947  0.175168  1
  O  O13  1  0.789425  0.027968  0.846033  1
  O  O14  1  0.390053  0.119503  0.675168  1
  O  O15  1  0.119503  0.390053  0.824832  1
  O  O16  1  0.634163  0.332605  0.998557  1
  O  O17  1  0.365837  0.667395  0.001443  1
  O  O18  1  0.972032  0.210575  0.346033  1
  O  O19  1  0.332605  0.634163  0.501443  1
