# generated using pymatgen
data_Sr5As3
_symmetry_space_group_name_H-M   'P 1'
_cell_length_a   9.04719438
_cell_length_b   9.04719438
_cell_length_c   7.30451995
_cell_angle_alpha   90.00000000
_cell_angle_beta   90.00000000
_cell_angle_gamma   120.00000000
_symmetry_Int_Tables_number   1
_chemical_formula_structural   Sr5As3
_chemical_formula_sum   'Sr10 As6'
_cell_volume   517.78582148
_cell_formula_units_Z   2
loop_
 _symmetry_equiv_pos_site_id
 _symmetry_equiv_pos_as_xyz
  1  'x, y, z'
loop_
 _atom_site_type_symbol
 _atom_site_label
 _atom_site_symmetry_multiplicity
 _atom_site_fract_x
 _atom_site_fract_y
 _atom_site_fract_z
 _atom_site_occupancy
  Sr  Sr0  1  0.000000  0.255099  0.750000  1
  Sr  Sr1  1  0.000000  0.744901  0.250000  1
  Sr  Sr2  1  0.255099  0.255099  0.250000  1
  Sr  Sr3  1  0.255099  0.000000  0.750000  1
  Sr  Sr4  1  0.744901  0.744901  0.750000  1
  Sr  Sr5  1  0.744901  0.000000  0.250000  1
  Sr  Sr6  1  0.333333  0.666667  0.500000  1
  Sr  Sr7  1  0.666667  0.333333  0.000000  1
  Sr  Sr8  1  0.666667  0.333333  0.500000  1
  Sr  Sr9  1  0.333333  0.666667  0.000000  1
  As  As10  1  0.608805  0.000000  0.750000  1
  As  As11  1  0.608805  0.608805  0.250000  1
  As  As12  1  0.000000  0.391195  0.250000  1
  As  As13  1  0.000000  0.608805  0.750000  1
  As  As14  1  0.391195  0.391195  0.750000  1
  As  As15  1  0.391195  0.000000  0.250000  1
