# generated using pymatgen
data_VAuS2
_symmetry_space_group_name_H-M   'P 1'
_cell_length_a   3.22547472
_cell_length_b   3.22547472
_cell_length_c   15.18863671
_cell_angle_alpha   90.00000000
_cell_angle_beta   90.00000000
_cell_angle_gamma   120.00000000
_symmetry_Int_Tables_number   1
_chemical_formula_structural   VAuS2
_chemical_formula_sum   'V2 Au2 S4'
_cell_volume   136.84745033
_cell_formula_units_Z   2
loop_
 _symmetry_equiv_pos_site_id
 _symmetry_equiv_pos_as_xyz
  1  'x, y, z'
loop_
 _atom_site_type_symbol
 _atom_site_label
 _atom_site_symmetry_multiplicity
 _atom_site_fract_x
 _atom_site_fract_y
 _atom_site_fract_z
 _atom_site_occupancy
  V  V0  1  0.333333  0.666667  0.250000  1
  V  V1  1  0.666667  0.333333  0.750000  1
  Au  Au2  1  0.000000  0.000000  0.000000  1
  Au  Au3  1  0.000000  0.000000  0.500000  1
  S  S4  1  0.000000  0.000000  0.344196  1
  S  S5  1  0.000000  0.000000  0.844196  1
  S  S6  1  0.000000  0.000000  0.155804  1
  S  S7  1  0.000000  0.000000  0.655804  1
