# generated using pymatgen
data_CsYHgSe3
_symmetry_space_group_name_H-M   'P 1'
_cell_length_a   8.48437266
_cell_length_b   8.48437266
_cell_length_c   11.18974595
_cell_angle_alpha   90.00000000
_cell_angle_beta   90.00000000
_cell_angle_gamma   150.58373466
_symmetry_Int_Tables_number   1
_chemical_formula_structural   CsYHgSe3
_chemical_formula_sum   'Cs2 Y2 Hg2 Se6'
_cell_volume   395.61685099
_cell_formula_units_Z   2
loop_
 _symmetry_equiv_pos_site_id
 _symmetry_equiv_pos_as_xyz
  1  'x, y, z'
loop_
 _atom_site_type_symbol
 _atom_site_label
 _atom_site_symmetry_multiplicity
 _atom_site_fract_x
 _atom_site_fract_y
 _atom_site_fract_z
 _atom_site_occupancy
  Cs  Cs0  1  0.744657  0.255343  0.250000  1
  Cs  Cs1  1  0.255343  0.744657  0.750000  1
  Y  Y2  1  0.000000  0.000000  0.000000  1
  Y  Y3  1  0.000000  0.000000  0.500000  1
  Hg  Hg4  1  0.454885  0.545115  0.250000  1
  Hg  Hg5  1  0.545115  0.454885  0.750000  1
  Se  Se6  1  0.060574  0.939426  0.250000  1
  Se  Se7  1  0.939426  0.060574  0.750000  1
  Se  Se8  1  0.617876  0.382124  0.540684  1
  Se  Se9  1  0.617876  0.382124  0.959316  1
  Se  Se10  1  0.382124  0.617876  0.040684  1
  Se  Se11  1  0.382124  0.617876  0.459316  1
