# generated using pymatgen
data_BaLuCo4O7
_symmetry_space_group_name_H-M   'P 1'
_cell_length_a   6.33937740
_cell_length_b   6.33937740
_cell_length_c   10.32753701
_cell_angle_alpha   90.00000000
_cell_angle_beta   90.00000000
_cell_angle_gamma   120.00000000
_symmetry_Int_Tables_number   1
_chemical_formula_structural   BaLuCo4O7
_chemical_formula_sum   'Ba2 Lu2 Co8 O14'
_cell_volume   359.43520009
_cell_formula_units_Z   2
loop_
 _symmetry_equiv_pos_site_id
 _symmetry_equiv_pos_as_xyz
  1  'x, y, z'
loop_
 _atom_site_type_symbol
 _atom_site_label
 _atom_site_symmetry_multiplicity
 _atom_site_fract_x
 _atom_site_fract_y
 _atom_site_fract_z
 _atom_site_occupancy
  Ba  Ba0  1  0.333333  0.666667  0.981898  1
  Ba  Ba1  1  0.666667  0.333333  0.481898  1
  Lu  Lu2  1  0.333333  0.666667  0.375249  1
  Lu  Lu3  1  0.666667  0.333333  0.875249  1
  Co  Co4  1  0.829856  0.170144  0.184840  1
  Co  Co5  1  0.659712  0.829856  0.684840  1
  Co  Co6  1  0.170144  0.340288  0.684840  1
  Co  Co7  1  0.829856  0.659712  0.184840  1
  Co  Co8  1  0.340288  0.170144  0.184840  1
  Co  Co9  1  0.170144  0.829856  0.684840  1
  Co  Co10  1  0.000000  0.000000  0.940027  1
  Co  Co11  1  0.000000  0.000000  0.440027  1
  O  O12  1  0.830352  0.169648  0.998673  1
  O  O13  1  0.660703  0.830352  0.498673  1
  O  O14  1  0.169648  0.339297  0.498673  1
  O  O15  1  0.830352  0.660703  0.998673  1
  O  O16  1  0.339297  0.169648  0.998673  1
  O  O17  1  0.169648  0.830352  0.498673  1
  O  O18  1  0.000000  0.000000  0.740150  1
  O  O19  1  0.000000  0.000000  0.240150  1
  O  O20  1  0.505303  0.494697  0.258313  1
  O  O21  1  0.010606  0.505303  0.758313  1
  O  O22  1  0.494697  0.989394  0.758313  1
  O  O23  1  0.505303  0.010606  0.258313  1
  O  O24  1  0.494697  0.505303  0.758313  1
  O  O25  1  0.989394  0.494697  0.258313  1
