# generated using pymatgen
data_SmCd(BO2)5
_symmetry_space_group_name_H-M   'P 1'
_cell_length_a   8.70857805
_cell_length_b   7.98028698
_cell_length_c   12.75591526
_cell_angle_alpha   90.00000000
_cell_angle_beta   130.97070164
_cell_angle_gamma   90.00000000
_symmetry_Int_Tables_number   1
_chemical_formula_structural   SmCd(BO2)5
_chemical_formula_sum   'Sm4 Cd4 B20 O40'
_cell_volume   669.34526544
_cell_formula_units_Z   4
loop_
 _symmetry_equiv_pos_site_id
 _symmetry_equiv_pos_as_xyz
  1  'x, y, z'
loop_
 _atom_site_type_symbol
 _atom_site_label
 _atom_site_symmetry_multiplicity
 _atom_site_fract_x
 _atom_site_fract_y
 _atom_site_fract_z
 _atom_site_occupancy
  Sm  Sm0  1  0.952036  0.183091  0.759691  1
  Sm  Sm1  1  0.047964  0.683091  0.740309  1
  Sm  Sm2  1  0.047964  0.816909  0.240309  1
  Sm  Sm3  1  0.952036  0.316909  0.259691  1
  Cd  Cd4  1  0.473088  0.405045  0.871258  1
  Cd  Cd5  1  0.526912  0.905045  0.628742  1
  Cd  Cd6  1  0.526912  0.594955  0.128742  1
  Cd  Cd7  1  0.473088  0.094955  0.371258  1
  B  B8  1  0.668341  0.573797  0.752185  1
  B  B9  1  0.529186  0.174617  0.094451  1
  B  B10  1  0.470814  0.674618  0.405549  1
  B  B11  1  0.470814  0.825383  0.905549  1
  B  B12  1  0.529186  0.325383  0.594451  1
  B  B13  1  0.854724  0.894467  0.511050  1
  B  B14  1  0.145276  0.394467  0.988950  1
  B  B15  1  0.145276  0.105533  0.488950  1
  B  B16  1  0.854724  0.605533  0.011050  1
  B  B17  1  0.331659  0.073797  0.747815  1
  B  B18  1  0.331659  0.426203  0.247815  1
  B  B19  1  0.668341  0.926203  0.252185  1
  B  B20  1  0.077621  0.323815  0.594809  1
  B  B21  1  0.922379  0.823815  0.905191  1
  B  B22  1  0.922379  0.676185  0.405191  1
  B  B23  1  0.077621  0.176185  0.094809  1
  B  B24  1  0.279059  0.530349  0.558212  1
  B  B25  1  0.720941  0.030349  0.941788  1
  B  B26  1  0.720941  0.469651  0.441788  1
  B  B27  1  0.279059  0.969651  0.058212  1
  O  O28  1  0.184929  0.205365  0.717690  1
  O  O29  1  0.413507  0.670876  0.919436  1
  O  O30  1  0.586493  0.170876  0.580564  1
  O  O31  1  0.586493  0.329124  0.080564  1
  O  O32  1  0.413507  0.829124  0.419436  1
  O  O33  1  0.122860  0.440079  0.876658  1
  O  O34  1  0.877140  0.940079  0.623342  1
  O  O35  1  0.877140  0.559921  0.123342  1
  O  O36  1  0.815071  0.705365  0.782310  1
  O  O37  1  0.122860  0.059921  0.376658  1
  O  O38  1  0.184929  0.294635  0.217690  1
  O  O39  1  0.815071  0.794635  0.282310  1
  O  O40  1  0.712584  0.532116  0.883459  1
  O  O41  1  0.287416  0.032116  0.616541  1
  O  O42  1  0.287416  0.467884  0.116541  1
  O  O43  1  0.712584  0.967884  0.383459  1
  O  O44  1  0.693082  0.418625  0.702391  1
  O  O45  1  0.306918  0.918625  0.797609  1
  O  O46  1  0.306918  0.581375  0.297609  1
  O  O47  1  0.693082  0.081375  0.202391  1
  O  O48  1  0.458922  0.637733  0.649501  1
  O  O49  1  0.541078  0.137733  0.850499  1
  O  O50  1  0.541078  0.362267  0.350499  1
  O  O51  1  0.458922  0.862267  0.149501  1
  O  O52  1  0.218403  0.466122  0.637218  1
  O  O53  1  0.781597  0.966122  0.862782  1
  O  O54  1  0.781597  0.533878  0.362782  1
  O  O55  1  0.218403  0.033878  0.137218  1
  O  O56  1  0.897007  0.383919  0.573020  1
  O  O57  1  0.102993  0.883919  0.926980  1
  O  O58  1  0.102993  0.616081  0.426980  1
  O  O59  1  0.332362  0.117081  0.012132  1
  O  O60  1  0.022722  0.234209  0.472924  1
  O  O61  1  0.977278  0.734209  0.027076  1
  O  O62  1  0.977278  0.765791  0.527076  1
  O  O63  1  0.022722  0.265791  0.972924  1
  O  O64  1  0.332362  0.382919  0.512132  1
  O  O65  1  0.667638  0.882919  0.987868  1
  O  O66  1  0.667638  0.617081  0.487868  1
  O  O67  1  0.897007  0.116081  0.073020  1
