# generated using pymatgen
data_Dy4Sb3
_symmetry_space_group_name_H-M   'P 1'
_cell_length_a   7.96572510
_cell_length_b   7.96572510
_cell_length_c   7.96572510
_cell_angle_alpha   109.47122063
_cell_angle_beta   109.47122063
_cell_angle_gamma   109.47122063
_symmetry_Int_Tables_number   1
_chemical_formula_structural   Dy4Sb3
_chemical_formula_sum   'Dy8 Sb6'
_cell_volume   389.09356967
_cell_formula_units_Z   2
loop_
 _symmetry_equiv_pos_site_id
 _symmetry_equiv_pos_as_xyz
  1  'x, y, z'
loop_
 _atom_site_type_symbol
 _atom_site_label
 _atom_site_symmetry_multiplicity
 _atom_site_fract_x
 _atom_site_fract_y
 _atom_site_fract_z
 _atom_site_occupancy
  Dy  Dy0  1  0.144484  0.144484  0.144484  1
  Dy  Dy1  1  0.855516  0.500000  1.000000  1
  Dy  Dy2  1  1.000000  0.855516  0.500000  1
  Dy  Dy3  1  0.500000  1.000000  0.855516  1
  Dy  Dy4  1  0.000000  0.355516  0.500000  1
  Dy  Dy5  1  0.500000  0.000000  0.355516  1
  Dy  Dy6  1  0.355516  0.500000  1.000000  1
  Dy  Dy7  1  0.644484  0.644484  0.644484  1
  Sb  Sb8  1  0.250000  0.625000  0.375000  1
  Sb  Sb9  1  0.375000  0.250000  0.625000  1
  Sb  Sb10  1  0.125000  0.750000  0.875000  1
  Sb  Sb11  1  0.875000  0.125000  0.750000  1
  Sb  Sb12  1  0.625000  0.375000  0.250000  1
  Sb  Sb13  1  0.750000  0.875000  0.125000  1
