# generated using pymatgen
data_Na5AlO4
_symmetry_space_group_name_H-M   'P 1'
_cell_length_a   5.96427838
_cell_length_b   10.28152218
_cell_length_c   18.04662177
_cell_angle_alpha   90.00000000
_cell_angle_beta   90.00000000
_cell_angle_gamma   90.00000000
_symmetry_Int_Tables_number   1
_chemical_formula_structural   Na5AlO4
_chemical_formula_sum   'Na40 Al8 O32'
_cell_volume   1106.65242180
_cell_formula_units_Z   8
loop_
 _symmetry_equiv_pos_site_id
 _symmetry_equiv_pos_as_xyz
  1  'x, y, z'
loop_
 _atom_site_type_symbol
 _atom_site_label
 _atom_site_symmetry_multiplicity
 _atom_site_fract_x
 _atom_site_fract_y
 _atom_site_fract_z
 _atom_site_occupancy
  Na  Na0  1  0.105790  0.326249  0.172898  1
  Na  Na1  1  0.605790  0.673751  0.327102  1
  Na  Na2  1  0.394210  0.826249  0.827102  1
  Na  Na3  1  0.894210  0.173751  0.672898  1
  Na  Na4  1  0.894210  0.673751  0.827102  1
  Na  Na5  1  0.394210  0.326249  0.672898  1
  Na  Na6  1  0.605790  0.173751  0.172898  1
  Na  Na7  1  0.105790  0.826249  0.327102  1
  Na  Na8  1  0.100343  0.579756  0.250917  1
  Na  Na9  1  0.600343  0.420244  0.249083  1
  Na  Na10  1  0.399657  0.079756  0.749083  1
  Na  Na11  1  0.899657  0.920244  0.750917  1
  Na  Na12  1  0.899657  0.420244  0.749083  1
  Na  Na13  1  0.399657  0.579756  0.750917  1
  Na  Na14  1  0.600343  0.920244  0.250917  1
  Na  Na15  1  0.100343  0.079756  0.249083  1
  Na  Na16  1  0.086526  0.162414  0.497660  1
  Na  Na17  1  0.586526  0.837586  0.002340  1
  Na  Na18  1  0.413474  0.662414  0.502340  1
  Na  Na19  1  0.913474  0.337586  0.997660  1
  Na  Na20  1  0.913474  0.837586  0.502340  1
  Na  Na21  1  0.413474  0.162414  0.997660  1
  Na  Na22  1  0.586526  0.337586  0.497660  1
  Na  Na23  1  0.086526  0.662414  0.002340  1
  Na  Na24  1  0.916634  0.302183  0.360665  1
  Na  Na25  1  0.411110  0.440611  0.064258  1
  Na  Na26  1  0.588890  0.059389  0.564258  1
  Na  Na27  1  0.088890  0.940611  0.935742  1
  Na  Na28  1  0.088890  0.440611  0.564258  1
  Na  Na29  1  0.588890  0.559389  0.935742  1
  Na  Na30  1  0.411110  0.940611  0.435742  1
  Na  Na31  1  0.911110  0.059389  0.064258  1
  Na  Na32  1  0.916634  0.802183  0.139335  1
  Na  Na33  1  0.416634  0.197817  0.360665  1
  Na  Na34  1  0.583366  0.302183  0.860665  1
  Na  Na35  1  0.083366  0.697817  0.639335  1
  Na  Na36  1  0.083366  0.197817  0.860665  1
  Na  Na37  1  0.583366  0.802183  0.639335  1
  Na  Na38  1  0.416634  0.697817  0.139335  1
  Na  Na39  1  0.911110  0.559389  0.435742  1
  Al  Al40  1  0.322616  0.460633  0.375984  1
  Al  Al41  1  0.822616  0.539367  0.124016  1
  Al  Al42  1  0.177384  0.960633  0.624016  1
  Al  Al43  1  0.677384  0.039367  0.875984  1
  Al  Al44  1  0.677384  0.539367  0.624016  1
  Al  Al45  1  0.177384  0.460633  0.875984  1
  Al  Al46  1  0.822616  0.039367  0.375984  1
  Al  Al47  1  0.322616  0.960633  0.124016  1
  O  O48  1  0.622058  0.454120  0.380091  1
  O  O49  1  0.122058  0.545880  0.119909  1
  O  O50  1  0.877942  0.954120  0.619909  1
  O  O51  1  0.377942  0.045880  0.880091  1
  O  O52  1  0.377942  0.545880  0.619909  1
  O  O53  1  0.877942  0.454120  0.880091  1
  O  O54  1  0.122058  0.045880  0.380091  1
  O  O55  1  0.622058  0.954120  0.119909  1
  O  O56  1  0.235159  0.378273  0.291738  1
  O  O57  1  0.735159  0.621727  0.208262  1
  O  O58  1  0.264841  0.878273  0.708262  1
  O  O59  1  0.235615  0.129107  0.126196  1
  O  O60  1  0.764841  0.621727  0.708262  1
  O  O61  1  0.264841  0.378273  0.791738  1
  O  O62  1  0.735159  0.121727  0.291738  1
  O  O63  1  0.235159  0.878273  0.208262  1
  O  O64  1  0.198081  0.373358  0.451410  1
  O  O65  1  0.698081  0.626642  0.048590  1
  O  O66  1  0.301919  0.873358  0.548590  1
  O  O67  1  0.801919  0.126642  0.951410  1
  O  O68  1  0.801919  0.626642  0.548590  1
  O  O69  1  0.301919  0.373358  0.951410  1
  O  O70  1  0.698081  0.126642  0.451410  1
  O  O71  1  0.198081  0.873358  0.048590  1
  O  O72  1  0.235615  0.629107  0.373804  1
  O  O73  1  0.735615  0.370893  0.126196  1
  O  O74  1  0.264385  0.129107  0.626196  1
  O  O75  1  0.764385  0.870893  0.873804  1
  O  O76  1  0.764385  0.370893  0.626196  1
  O  O77  1  0.264385  0.629107  0.873804  1
  O  O78  1  0.735615  0.870893  0.373804  1
  O  O79  1  0.764841  0.121727  0.791738  1
