# generated using pymatgen
data_Dy2AlCo2
_symmetry_space_group_name_H-M   'P 1'
_cell_length_a   5.39228884
_cell_length_b   5.39228884
_cell_length_c   5.39228884
_cell_angle_alpha   136.25202508
_cell_angle_beta   119.04764428
_cell_angle_gamma   77.99921191
_symmetry_Int_Tables_number   1
_chemical_formula_structural   Dy2AlCo2
_chemical_formula_sum   'Dy2 Al1 Co2'
_cell_volume   92.09805014
_cell_formula_units_Z   1
loop_
 _symmetry_equiv_pos_site_id
 _symmetry_equiv_pos_as_xyz
  1  'x, y, z'
loop_
 _atom_site_type_symbol
 _atom_site_label
 _atom_site_symmetry_multiplicity
 _atom_site_fract_x
 _atom_site_fract_y
 _atom_site_fract_z
 _atom_site_occupancy
  Dy  Dy0  1  0.703524  0.203524  0.500000  1
  Dy  Dy1  1  0.296476  0.796476  0.500000  1
  Al  Al2  1  0.000000  0.000000  0.000000  1
  Co  Co3  1  0.276973  0.500000  0.776973  1
  Co  Co4  1  0.723027  0.500000  0.223027  1
