# generated using pymatgen
data_KPSO2
_symmetry_space_group_name_H-M   'P 1'
_cell_length_a   8.19049420
_cell_length_b   11.34433290
_cell_length_c   13.86995610
_cell_angle_alpha   90.00000000
_cell_angle_beta   90.00000000
_cell_angle_gamma   90.00000000
_symmetry_Int_Tables_number   1
_chemical_formula_structural   KPSO2
_chemical_formula_sum   'K12 P12 S12 O24'
_cell_volume   1288.73658042
_cell_formula_units_Z   12
loop_
 _symmetry_equiv_pos_site_id
 _symmetry_equiv_pos_as_xyz
  1  'x, y, z'
loop_
 _atom_site_type_symbol
 _atom_site_label
 _atom_site_symmetry_multiplicity
 _atom_site_fract_x
 _atom_site_fract_y
 _atom_site_fract_z
 _atom_site_occupancy
  K  K0  1  0.324397  0.918313  0.173947  1
  K  K1  1  0.675603  0.081687  0.673947  1
  K  K2  1  0.824397  0.581687  0.673947  1
  K  K3  1  0.175603  0.418313  0.173947  1
  K  K4  1  0.315039  0.921968  0.830030  1
  K  K5  1  0.684961  0.078032  0.330030  1
  K  K6  1  0.815039  0.578032  0.330030  1
  K  K7  1  0.184961  0.421968  0.830030  1
  K  K8  1  0.187863  0.005203  0.502934  1
  K  K9  1  0.812137  0.994797  0.002934  1
  K  K10  1  0.687863  0.494797  0.002934  1
  K  K11  1  0.312137  0.505203  0.502934  1
  P  P12  1  0.481748  0.792791  0.394796  1
  P  P13  1  0.518252  0.207209  0.894796  1
  P  P14  1  0.981748  0.707209  0.894796  1
  P  P15  1  0.018252  0.292791  0.394796  1
  P  P16  1  0.293939  0.663026  0.002402  1
  P  P17  1  0.706061  0.336974  0.502402  1
  P  P18  1  0.793939  0.836974  0.502402  1
  P  P19  1  0.206061  0.163026  0.002402  1
  P  P20  1  0.483805  0.790918  0.611196  1
  P  P21  1  0.516195  0.209082  0.111196  1
  P  P22  1  0.983805  0.709082  0.111196  1
  P  P23  1  0.016195  0.290918  0.611196  1
  S  S24  1  0.497690  0.753211  0.000228  1
  S  S25  1  0.502310  0.246789  0.500228  1
  S  S26  1  0.997690  0.746789  0.500228  1
  S  S27  1  0.002310  0.253211  0.000228  1
  S  S28  1  0.431602  0.661484  0.699109  1
  S  S29  1  0.568398  0.338516  0.199109  1
  S  S30  1  0.931602  0.838516  0.199109  1
  S  S31  1  0.068398  0.161484  0.699109  1
  S  S32  1  0.426769  0.664957  0.305984  1
  S  S33  1  0.573231  0.335043  0.805984  1
  S  S34  1  0.926769  0.835043  0.805984  1
  S  S35  1  0.073231  0.164957  0.305984  1
  O  O36  1  0.417593  0.755162  0.502935  1
  O  O37  1  0.582407  0.244838  0.002935  1
  O  O38  1  0.917593  0.744838  0.002935  1
  O  O39  1  0.082407  0.255162  0.502935  1
  O  O40  1  0.071755  0.416672  0.371740  1
  O  O41  1  0.928245  0.583328  0.871740  1
  O  O42  1  0.571755  0.083328  0.871740  1
  O  O43  1  0.428245  0.916672  0.371740  1
  O  O44  1  0.429351  0.914353  0.635189  1
  O  O45  1  0.570649  0.085647  0.135189  1
  O  O46  1  0.929351  0.585647  0.135189  1
  O  O47  1  0.070649  0.414353  0.635189  1
  O  O48  1  0.198726  0.030771  0.003394  1
  O  O49  1  0.801274  0.969229  0.503394  1
  O  O50  1  0.698726  0.469229  0.503394  1
  O  O51  1  0.301274  0.530771  0.003394  1
  O  O52  1  0.319449  0.209044  0.911606  1
  O  O53  1  0.680551  0.790956  0.411606  1
  O  O54  1  0.819449  0.290956  0.411606  1
  O  O55  1  0.180551  0.709044  0.911606  1
  O  O56  1  0.317354  0.210172  0.093810  1
  O  O57  1  0.682646  0.789828  0.593810  1
  O  O58  1  0.817354  0.289828  0.593810  1
  O  O59  1  0.182646  0.710172  0.093810  1
