# generated using pymatgen
data_LuAl
_symmetry_space_group_name_H-M   'P 1'
_cell_length_a   5.52384536
_cell_length_b   5.76383516
_cell_length_c   11.20538506
_cell_angle_alpha   90.00000000
_cell_angle_beta   90.00000000
_cell_angle_gamma   90.00000000
_symmetry_Int_Tables_number   1
_chemical_formula_structural   LuAl
_chemical_formula_sum   'Lu8 Al8'
_cell_volume   356.76303439
_cell_formula_units_Z   8
loop_
 _symmetry_equiv_pos_site_id
 _symmetry_equiv_pos_as_xyz
  1  'x, y, z'
loop_
 _atom_site_type_symbol
 _atom_site_label
 _atom_site_symmetry_multiplicity
 _atom_site_fract_x
 _atom_site_fract_y
 _atom_site_fract_z
 _atom_site_occupancy
  Lu  Lu0  1  0.250000  0.394563  0.330439  1
  Lu  Lu1  1  0.750000  0.605437  0.669561  1
  Lu  Lu2  1  0.750000  0.394563  0.169561  1
  Lu  Lu3  1  0.250000  0.605437  0.830439  1
  Lu  Lu4  1  0.250000  0.158877  0.018167  1
  Lu  Lu5  1  0.750000  0.841123  0.981833  1
  Lu  Lu6  1  0.750000  0.158877  0.481833  1
  Lu  Lu7  1  0.250000  0.841123  0.518167  1
  Al  Al8  1  0.000000  0.929188  0.250000  1
  Al  Al9  1  0.500000  0.070812  0.750000  1
  Al  Al10  1  0.000000  0.070812  0.750000  1
  Al  Al11  1  0.500000  0.929188  0.250000  1
  Al  Al12  1  0.250000  0.656169  0.095949  1
  Al  Al13  1  0.750000  0.343831  0.904051  1
  Al  Al14  1  0.750000  0.656169  0.404051  1
  Al  Al15  1  0.250000  0.343831  0.595949  1
