# generated using pymatgen
data_V3Te4
_symmetry_space_group_name_H-M   'P 1'
_cell_length_a   7.29080072
_cell_length_b   7.29080072
_cell_length_c   6.87439263
_cell_angle_alpha   63.57915576
_cell_angle_beta   116.42084424
_cell_angle_gamma   148.47965136
_symmetry_Int_Tables_number   1
_chemical_formula_structural   V3Te4
_chemical_formula_sum   'V3 Te4'
_cell_volume   169.39440683
_cell_formula_units_Z   1
loop_
 _symmetry_equiv_pos_site_id
 _symmetry_equiv_pos_as_xyz
  1  'x, y, z'
loop_
 _atom_site_type_symbol
 _atom_site_label
 _atom_site_symmetry_multiplicity
 _atom_site_fract_x
 _atom_site_fract_y
 _atom_site_fract_z
 _atom_site_occupancy
  V  V0  1  0.255786  0.744214  0.293612  1
  V  V1  1  0.744214  0.255786  0.706388  1
  V  V2  1  0.000000  0.000000  0.000000  1
  Te  Te3  1  0.636694  0.363306  0.976307  1
  Te  Te4  1  0.363306  0.636694  0.023693  1
  Te  Te5  1  0.111167  0.888833  0.452540  1
  Te  Te6  1  0.888833  0.111167  0.547460  1
