# generated using pymatgen
data_K4Al3(SiO4)3
_symmetry_space_group_name_H-M   'P 1'
_cell_length_a   9.36018000
_cell_length_b   9.36018000
_cell_length_c   9.36018000
_cell_angle_alpha   90.00000000
_cell_angle_beta   90.00000000
_cell_angle_gamma   90.00000000
_symmetry_Int_Tables_number   1
_chemical_formula_structural   K4Al3(SiO4)3
_chemical_formula_sum   'K8 Al6 Si6 O24'
_cell_volume   820.07316609
_cell_formula_units_Z   2
loop_
 _symmetry_equiv_pos_site_id
 _symmetry_equiv_pos_as_xyz
  1  'x, y, z'
loop_
 _atom_site_type_symbol
 _atom_site_label
 _atom_site_symmetry_multiplicity
 _atom_site_fract_x
 _atom_site_fract_y
 _atom_site_fract_z
 _atom_site_occupancy
  K  K0  1  0.317130  0.682870  0.317130  1
  K  K1  1  0.682870  0.317130  0.317130  1
  K  K2  1  0.317130  0.317130  0.682870  1
  K  K3  1  0.682870  0.682870  0.682870  1
  K  K4  1  0.817130  0.817130  0.182870  1
  K  K5  1  0.182870  0.817130  0.817130  1
  K  K6  1  0.817130  0.182870  0.817130  1
  K  K7  1  0.182870  0.182870  0.182870  1
  Al  Al8  1  0.500000  0.000000  0.250000  1
  Al  Al9  1  0.000000  0.750000  0.500000  1
  Al  Al10  1  0.250000  0.500000  0.000000  1
  Al  Al11  1  0.000000  0.250000  0.500000  1
  Al  Al12  1  0.750000  0.500000  0.000000  1
  Al  Al13  1  0.500000  0.000000  0.750000  1
  Si  Si14  1  0.000000  0.500000  0.250000  1
  Si  Si15  1  0.500000  0.750000  0.000000  1
  Si  Si16  1  0.250000  0.000000  0.500000  1
  Si  Si17  1  0.500000  0.250000  0.000000  1
  Si  Si18  1  0.750000  0.000000  0.500000  1
  Si  Si19  1  0.000000  0.500000  0.750000  1
  O  O20  1  0.346798  0.975742  0.356059  1
  O  O21  1  0.024258  0.643941  0.346798  1
  O  O22  1  0.356059  0.653202  0.024258  1
  O  O23  1  0.653202  0.024258  0.356059  1
  O  O24  1  0.975742  0.356059  0.346798  1
  O  O25  1  0.643941  0.346798  0.024258  1
  O  O26  1  0.346798  0.024258  0.643941  1
  O  O27  1  0.024258  0.356059  0.653202  1
  O  O28  1  0.356059  0.346798  0.975742  1
  O  O29  1  0.653202  0.975742  0.643941  1
  O  O30  1  0.975742  0.643941  0.653202  1
  O  O31  1  0.643941  0.653202  0.975742  1
  O  O32  1  0.846798  0.856059  0.475742  1
  O  O33  1  0.524258  0.846798  0.143941  1
  O  O34  1  0.856059  0.524258  0.153202  1
  O  O35  1  0.153202  0.856059  0.524258  1
  O  O36  1  0.475742  0.846798  0.856059  1
  O  O37  1  0.143941  0.524258  0.846798  1
  O  O38  1  0.846798  0.143941  0.524258  1
  O  O39  1  0.524258  0.153202  0.856059  1
  O  O40  1  0.856059  0.475742  0.846798  1
  O  O41  1  0.153202  0.143941  0.475742  1
  O  O42  1  0.475742  0.153202  0.143941  1
  O  O43  1  0.143941  0.475742  0.153202  1
