# generated using pymatgen
data_PdF3
_symmetry_space_group_name_H-M   'P 1'
_cell_length_a   5.40914948
_cell_length_b   5.40914948
_cell_length_c   7.27088987
_cell_angle_alpha   90.00000000
_cell_angle_beta   90.00000000
_cell_angle_gamma   120.00000000
_symmetry_Int_Tables_number   1
_chemical_formula_structural   PdF3
_chemical_formula_sum   'Pd3 F9'
_cell_volume   184.23670781
_cell_formula_units_Z   3
loop_
 _symmetry_equiv_pos_site_id
 _symmetry_equiv_pos_as_xyz
  1  'x, y, z'
loop_
 _atom_site_type_symbol
 _atom_site_label
 _atom_site_symmetry_multiplicity
 _atom_site_fract_x
 _atom_site_fract_y
 _atom_site_fract_z
 _atom_site_occupancy
  Pd  Pd0  1  0.666667  0.333333  0.340699  1
  Pd  Pd1  1  0.333333  0.666667  0.659301  1
  Pd  Pd2  1  0.000000  0.000000  0.000000  1
  F  F3  1  0.663281  0.915520  0.820334  1
  F  F4  1  0.084480  0.747761  0.820334  1
  F  F5  1  0.252239  0.336719  0.820334  1
  F  F6  1  0.613686  0.613686  0.500000  1
  F  F7  1  0.386314  0.000000  0.500000  1
  F  F8  1  0.000000  0.386314  0.500000  1
  F  F9  1  0.915520  0.663281  0.179666  1
  F  F10  1  0.336719  0.252239  0.179666  1
  F  F11  1  0.747761  0.084480  0.179666  1
