# generated using pymatgen
data_Ti4O7
_symmetry_space_group_name_H-M   'P 1'
_cell_length_a   5.63783799
_cell_length_b   6.95705418
_cell_length_c   7.18364035
_cell_angle_alpha   64.17772309
_cell_angle_beta   71.10295490
_cell_angle_gamma   75.11049641
_symmetry_Int_Tables_number   1
_chemical_formula_structural   Ti4O7
_chemical_formula_sum   'Ti8 O14'
_cell_volume   237.72606334
_cell_formula_units_Z   2
loop_
 _symmetry_equiv_pos_site_id
 _symmetry_equiv_pos_as_xyz
  1  'x, y, z'
loop_
 _atom_site_type_symbol
 _atom_site_label
 _atom_site_symmetry_multiplicity
 _atom_site_fract_x
 _atom_site_fract_y
 _atom_site_fract_z
 _atom_site_occupancy
  Ti  Ti0  1  0.687580  0.597341  0.261055  1
  Ti  Ti1  1  0.312420  0.402659  0.738945  1
  Ti  Ti2  1  0.682620  0.597516  0.763312  1
  Ti  Ti3  1  0.317380  0.402484  0.236688  1
  Ti  Ti4  1  0.216164  0.868212  0.415130  1
  Ti  Ti5  1  0.783836  0.131788  0.584870  1
  Ti  Ti6  1  0.216614  0.875279  0.909248  1
  Ti  Ti7  1  0.783386  0.124721  0.090752  1
  O  O8  1  0.107456  0.966622  0.153927  1
  O  O9  1  0.892544  0.033378  0.846073  1
  O  O10  1  0.586030  0.884911  0.263122  1
  O  O11  1  0.413970  0.115089  0.736878  1
  O  O12  1  0.855026  0.836211  0.586855  1
  O  O13  1  0.144974  0.163789  0.413145  1
  O  O14  1  0.328027  0.722693  0.701060  1
  O  O15  1  0.671973  0.277307  0.298940  1
  O  O16  1  0.526023  0.672391  0.019331  1
  O  O17  1  0.473977  0.327609  0.980669  1
  O  O18  1  0.035123  0.603152  0.130181  1
  O  O19  1  0.964877  0.396848  0.869819  1
  O  O20  1  0.295263  0.553257  0.432996  1
  O  O21  1  0.704737  0.446743  0.567004  1
