# generated using pymatgen
data_Ca3(AlGe)2
_symmetry_space_group_name_H-M   'P 1'
_cell_length_a   9.82671752
_cell_length_b   9.82671752
_cell_length_c   9.82671752
_cell_angle_alpha   155.75812463
_cell_angle_beta   153.14386263
_cell_angle_gamma   36.48968794
_symmetry_Int_Tables_number   1
_chemical_formula_structural   Ca3(AlGe)2
_chemical_formula_sum   'Ca3 Al2 Ge2'
_cell_volume   175.77682178
_cell_formula_units_Z   1
loop_
 _symmetry_equiv_pos_site_id
 _symmetry_equiv_pos_as_xyz
  1  'x, y, z'
loop_
 _atom_site_type_symbol
 _atom_site_label
 _atom_site_symmetry_multiplicity
 _atom_site_fract_x
 _atom_site_fract_y
 _atom_site_fract_z
 _atom_site_occupancy
  Ca  Ca0  1  0.000000  0.000000  0.000000  1
  Ca  Ca1  1  0.185673  0.685673  0.500000  1
  Ca  Ca2  1  0.814327  0.314327  0.500000  1
  Al  Al3  1  0.431886  0.431886  0.000000  1
  Al  Al4  1  0.568114  0.568114  0.000000  1
  Ge  Ge5  1  0.353906  0.853906  0.500000  1
  Ge  Ge6  1  0.646094  0.146094  0.500000  1
