# generated using pymatgen
data_ErVO4
_symmetry_space_group_name_H-M   'P 1'
_cell_length_a   5.96572421
_cell_length_b   5.96572421
_cell_length_c   5.96572421
_cell_angle_alpha   106.29777521
_cell_angle_beta   106.29777521
_cell_angle_gamma   116.02358725
_symmetry_Int_Tables_number   1
_chemical_formula_structural   ErVO4
_chemical_formula_sum   'Er2 V2 O8'
_cell_volume   161.82245565
_cell_formula_units_Z   2
loop_
 _symmetry_equiv_pos_site_id
 _symmetry_equiv_pos_as_xyz
  1  'x, y, z'
loop_
 _atom_site_type_symbol
 _atom_site_label
 _atom_site_symmetry_multiplicity
 _atom_site_fract_x
 _atom_site_fract_y
 _atom_site_fract_z
 _atom_site_occupancy
  Er  Er0  1  0.000000  0.000000  0.000000  1
  Er  Er1  1  0.250000  0.750000  0.500000  1
  V  V2  1  0.750000  0.250000  0.500000  1
  V  V3  1  0.500000  0.500000  0.000000  1
  O  O4  1  0.491212  0.677176  0.814036  1
  O  O5  1  0.927176  0.613140  0.685964  1
  O  O6  1  0.927176  0.241212  0.314036  1
  O  O7  1  0.863140  0.677176  0.185964  1
  O  O8  1  0.322824  0.136860  0.814036  1
  O  O9  1  0.758788  0.072824  0.685964  1
  O  O10  1  0.386860  0.072824  0.314036  1
  O  O11  1  0.322824  0.508788  0.185964  1
