# generated using pymatgen
data_Mn3Fe2(SiO4)3
_symmetry_space_group_name_H-M   'P 1'
_cell_length_a   10.36266400
_cell_length_b   10.36266400
_cell_length_c   10.36266400
_cell_angle_alpha   109.47122063
_cell_angle_beta   109.47122063
_cell_angle_gamma   109.47122063
_symmetry_Int_Tables_number   1
_chemical_formula_structural   Mn3Fe2(SiO4)3
_chemical_formula_sum   'Mn12 Fe8 Si12 O48'
_cell_volume   856.62818531
_cell_formula_units_Z   4
loop_
 _symmetry_equiv_pos_site_id
 _symmetry_equiv_pos_as_xyz
  1  'x, y, z'
loop_
 _atom_site_type_symbol
 _atom_site_label
 _atom_site_symmetry_multiplicity
 _atom_site_fract_x
 _atom_site_fract_y
 _atom_site_fract_z
 _atom_site_occupancy
  Mn  Mn0  1  0.875000  0.625000  0.250000  1
  Mn  Mn1  1  0.625000  0.875000  0.750000  1
  Mn  Mn2  1  0.875000  0.750000  0.625000  1
  Mn  Mn3  1  0.625000  0.250000  0.875000  1
  Mn  Mn4  1  0.750000  0.625000  0.875000  1
  Mn  Mn5  1  0.750000  0.125000  0.375000  1
  Mn  Mn6  1  0.125000  0.375000  0.750000  1
  Mn  Mn7  1  0.375000  0.125000  0.250000  1
  Mn  Mn8  1  0.125000  0.250000  0.375000  1
  Mn  Mn9  1  0.375000  0.750000  0.125000  1
  Mn  Mn10  1  0.250000  0.875000  0.625000  1
  Mn  Mn11  1  0.250000  0.375000  0.125000  1
  Fe  Fe12  1  0.500000  0.500000  0.500000  1
  Fe  Fe13  1  0.500000  0.500000  0.000000  1
  Fe  Fe14  1  0.500000  0.000000  0.500000  1
  Fe  Fe15  1  0.500000  0.000000  0.000000  1
  Fe  Fe16  1  0.000000  0.000000  0.500000  1
  Fe  Fe17  1  0.000000  0.500000  0.000000  1
  Fe  Fe18  1  0.000000  0.000000  0.000000  1
  Fe  Fe19  1  0.000000  0.500000  0.500000  1
  Si  Si20  1  0.250000  0.125000  0.875000  1
  Si  Si21  1  0.625000  0.750000  0.375000  1
  Si  Si22  1  0.250000  0.625000  0.375000  1
  Si  Si23  1  0.375000  0.625000  0.750000  1
  Si  Si24  1  0.750000  0.375000  0.625000  1
  Si  Si25  1  0.875000  0.125000  0.750000  1
  Si  Si26  1  0.125000  0.875000  0.250000  1
  Si  Si27  1  0.125000  0.750000  0.875000  1
  Si  Si28  1  0.625000  0.375000  0.250000  1
  Si  Si29  1  0.375000  0.250000  0.625000  1
  Si  Si30  1  0.750000  0.875000  0.125000  1
  Si  Si31  1  0.875000  0.250000  0.125000  1
  O  O32  1  0.708490  0.693097  0.087859  1
  O  O33  1  0.693097  0.105238  0.984607  1
  O  O34  1  0.620631  0.708490  0.515393  1
  O  O35  1  0.515393  0.620631  0.708490  1
  O  O36  1  0.087859  0.879369  0.394762  1
  O  O37  1  0.394762  0.087859  0.879369  1
  O  O38  1  0.105238  0.984607  0.693097  1
  O  O39  1  0.620631  0.412141  0.105238  1
  O  O40  1  0.515393  0.394762  0.806903  1
  O  O41  1  0.879369  0.984607  0.791510  1
  O  O42  1  0.412141  0.105238  0.620631  1
  O  O43  1  0.806903  0.515393  0.394762  1
  O  O44  1  0.984607  0.791510  0.879369  1
  O  O45  1  0.087859  0.708490  0.693097  1
  O  O46  1  0.693097  0.087859  0.708490  1
  O  O47  1  0.105238  0.620631  0.412141  1
  O  O48  1  0.806903  0.791510  0.412141  1
  O  O49  1  0.394762  0.806903  0.515393  1
  O  O50  1  0.412141  0.806903  0.791510  1
  O  O51  1  0.791510  0.879369  0.984607  1
  O  O52  1  0.291510  0.484607  0.379369  1
  O  O53  1  0.879369  0.394762  0.087859  1
  O  O54  1  0.984607  0.693097  0.105238  1
  O  O55  1  0.708490  0.515393  0.620631  1
  O  O56  1  0.291510  0.306903  0.912141  1
  O  O57  1  0.306903  0.894762  0.015393  1
  O  O58  1  0.379369  0.291510  0.484607  1
  O  O59  1  0.484607  0.379369  0.291510  1
  O  O60  1  0.912141  0.120631  0.605238  1
  O  O61  1  0.605238  0.912141  0.120631  1
  O  O62  1  0.894762  0.015393  0.306903  1
  O  O63  1  0.379369  0.587859  0.894762  1
  O  O64  1  0.484607  0.605238  0.193097  1
  O  O65  1  0.120631  0.015393  0.208490  1
  O  O66  1  0.587859  0.894762  0.379369  1
  O  O67  1  0.193097  0.484607  0.605238  1
  O  O68  1  0.015393  0.208490  0.120631  1
  O  O69  1  0.912141  0.291510  0.306903  1
  O  O70  1  0.306903  0.912141  0.291510  1
  O  O71  1  0.894762  0.379369  0.587859  1
  O  O72  1  0.193097  0.208490  0.587859  1
  O  O73  1  0.605238  0.193097  0.484607  1
  O  O74  1  0.587859  0.193097  0.208490  1
  O  O75  1  0.208490  0.120631  0.015393  1
  O  O76  1  0.208490  0.587859  0.193097  1
  O  O77  1  0.120631  0.605238  0.912141  1
  O  O78  1  0.015393  0.306903  0.894762  1
  O  O79  1  0.791510  0.412141  0.806903  1
