# generated using pymatgen
data_Zr(CoGe)6
_symmetry_space_group_name_H-M   'P 1'
_cell_length_a   5.07411313
_cell_length_b   5.07411313
_cell_length_c   7.77670990
_cell_angle_alpha   90.00000000
_cell_angle_beta   90.00000000
_cell_angle_gamma   120.00000000
_symmetry_Int_Tables_number   1
_chemical_formula_structural   Zr(CoGe)6
_chemical_formula_sum   'Zr1 Co6 Ge6'
_cell_volume   173.39909344
_cell_formula_units_Z   1
loop_
 _symmetry_equiv_pos_site_id
 _symmetry_equiv_pos_as_xyz
  1  'x, y, z'
loop_
 _atom_site_type_symbol
 _atom_site_label
 _atom_site_symmetry_multiplicity
 _atom_site_fract_x
 _atom_site_fract_y
 _atom_site_fract_z
 _atom_site_occupancy
  Zr  Zr0  1  0.000000  0.000000  0.000000  1
  Co  Co1  1  0.000000  0.500000  0.749980  1
  Co  Co2  1  0.500000  0.000000  0.250020  1
  Co  Co3  1  0.500000  0.500000  0.250020  1
  Co  Co4  1  0.000000  0.500000  0.250020  1
  Co  Co5  1  0.500000  0.000000  0.749980  1
  Co  Co6  1  0.500000  0.500000  0.749980  1
  Ge  Ge7  1  0.666667  0.333333  0.500000  1
  Ge  Ge8  1  0.000000  0.000000  0.340107  1
  Ge  Ge9  1  0.000000  0.000000  0.659893  1
  Ge  Ge10  1  0.333333  0.666667  0.000000  1
  Ge  Ge11  1  0.666667  0.333333  0.000000  1
  Ge  Ge12  1  0.333333  0.666667  0.500000  1
