# generated using pymatgen
data_Zn11Rh2
_symmetry_space_group_name_H-M   'P 1'
_cell_length_a   7.91253888
_cell_length_b   7.91253888
_cell_length_c   7.91253888
_cell_angle_alpha   109.47122063
_cell_angle_beta   109.47122063
_cell_angle_gamma   109.47122063
_symmetry_Int_Tables_number   1
_chemical_formula_structural   Zn11Rh2
_chemical_formula_sum   'Zn22 Rh4'
_cell_volume   381.35169437
_cell_formula_units_Z   2
loop_
 _symmetry_equiv_pos_site_id
 _symmetry_equiv_pos_as_xyz
  1  'x, y, z'
loop_
 _atom_site_type_symbol
 _atom_site_label
 _atom_site_symmetry_multiplicity
 _atom_site_fract_x
 _atom_site_fract_y
 _atom_site_fract_z
 _atom_site_occupancy
  Zn  Zn0  1  1.000000  1.000000  0.786667  1
  Zn  Zn1  1  1.000000  0.786667  0.000000  1
  Zn  Zn2  1  0.786667  1.000000  0.000000  1
  Zn  Zn3  1  0.213333  0.213333  0.213333  1
  Zn  Zn4  1  0.351192  0.351192  0.617159  1
  Zn  Zn5  1  0.648808  0.265967  0.000000  1
  Zn  Zn6  1  0.265967  0.648808  0.000000  1
  Zn  Zn7  1  1.000000  0.265967  0.648808  1
  Zn  Zn8  1  0.382841  0.734033  0.734033  1
  Zn  Zn9  1  0.734033  0.382841  0.734033  1
  Zn  Zn10  1  0.265967  1.000000  0.648808  1
  Zn  Zn11  1  0.648808  1.000000  0.265967  1
  Zn  Zn12  1  1.000000  0.648808  0.265967  1
  Zn  Zn13  1  0.617159  0.351192  0.351192  1
  Zn  Zn14  1  0.351192  0.617159  0.351192  1
  Zn  Zn15  1  0.734033  0.734033  0.382841  1
  Zn  Zn16  1  1.000000  0.355994  0.355994  1
  Zn  Zn17  1  0.644006  1.000000  0.644006  1
  Zn  Zn18  1  0.355994  1.000000  0.355994  1
  Zn  Zn19  1  0.355994  0.355994  0.000000  1
  Zn  Zn20  1  0.644006  0.644006  0.000000  1
  Zn  Zn21  1  1.000000  0.644006  0.644006  1
  Rh  Rh22  1  1.000000  1.000000  0.343351  1
  Rh  Rh23  1  1.000000  0.343351  0.000000  1
  Rh  Rh24  1  0.343351  1.000000  0.000000  1
  Rh  Rh25  1  0.656649  0.656649  0.656649  1
