# generated using pymatgen
data_Sr2ScIrO6
_symmetry_space_group_name_H-M   'P 1'
_cell_length_a   5.69036828
_cell_length_b   5.69036828
_cell_length_c   5.74219247
_cell_angle_alpha   59.85534287
_cell_angle_beta   120.14465713
_cell_angle_gamma   120.05625261
_symmetry_Int_Tables_number   1
_chemical_formula_structural   Sr2ScIrO6
_chemical_formula_sum   'Sr2 Sc1 Ir1 O6'
_cell_volume   131.13127586
_cell_formula_units_Z   1
loop_
 _symmetry_equiv_pos_site_id
 _symmetry_equiv_pos_as_xyz
  1  'x, y, z'
loop_
 _atom_site_type_symbol
 _atom_site_label
 _atom_site_symmetry_multiplicity
 _atom_site_fract_x
 _atom_site_fract_y
 _atom_site_fract_z
 _atom_site_occupancy
  Sr  Sr0  1  0.250853  0.749147  0.254989  1
  Sr  Sr1  1  0.749147  0.250853  0.745011  1
  Sc  Sc2  1  0.500000  0.500000  0.000000  1
  Ir  Ir3  1  0.000000  0.000000  0.500000  1
  O  O4  1  0.243031  0.756969  0.801451  1
  O  O5  1  0.756969  0.243031  0.198549  1
  O  O6  1  0.724836  0.786732  0.711912  1
  O  O7  1  0.786732  0.724836  0.288088  1
  O  O8  1  0.275164  0.213268  0.288088  1
  O  O9  1  0.213268  0.275164  0.711912  1
