# generated using pymatgen
data_MgCd
_symmetry_space_group_name_H-M   'P 1'
_cell_length_a   3.25518953
_cell_length_b   4.97647834
_cell_length_c   5.34563018
_cell_angle_alpha   90.00000000
_cell_angle_beta   90.00000000
_cell_angle_gamma   90.00000000
_symmetry_Int_Tables_number   1
_chemical_formula_structural   MgCd
_chemical_formula_sum   'Mg2 Cd2'
_cell_volume   86.59589563
_cell_formula_units_Z   2
loop_
 _symmetry_equiv_pos_site_id
 _symmetry_equiv_pos_as_xyz
  1  'x, y, z'
loop_
 _atom_site_type_symbol
 _atom_site_label
 _atom_site_symmetry_multiplicity
 _atom_site_fract_x
 _atom_site_fract_y
 _atom_site_fract_z
 _atom_site_occupancy
  Mg  Mg0  1  0.500000  0.250000  0.316637  1
  Mg  Mg1  1  0.500000  0.750000  0.683363  1
  Cd  Cd2  1  0.000000  0.250000  0.817858  1
  Cd  Cd3  1  0.000000  0.750000  0.182142  1
