# generated using pymatgen
data_CsLaCdTe3
_symmetry_space_group_name_H-M   'P 1'
_cell_length_a   8.97687259
_cell_length_b   8.97687259
_cell_length_c   12.30546364
_cell_angle_alpha   90.00000000
_cell_angle_beta   90.00000000
_cell_angle_gamma   149.54131127
_symmetry_Int_Tables_number   1
_chemical_formula_structural   CsLaCdTe3
_chemical_formula_sum   'Cs2 La2 Cd2 Te6'
_cell_volume   502.67228811
_cell_formula_units_Z   2
loop_
 _symmetry_equiv_pos_site_id
 _symmetry_equiv_pos_as_xyz
  1  'x, y, z'
loop_
 _atom_site_type_symbol
 _atom_site_label
 _atom_site_symmetry_multiplicity
 _atom_site_fract_x
 _atom_site_fract_y
 _atom_site_fract_z
 _atom_site_occupancy
  Cs  Cs0  1  0.250217  0.749783  0.750000  1
  Cs  Cs1  1  0.749783  0.250217  0.250000  1
  La  La2  1  0.000000  0.000000  0.500000  1
  La  La3  1  0.000000  0.000000  0.000000  1
  Cd  Cd4  1  0.534423  0.465577  0.750000  1
  Cd  Cd5  1  0.465577  0.534423  0.250000  1
  Te  Te6  1  0.377080  0.622920  0.443703  1
  Te  Te7  1  0.622920  0.377080  0.556297  1
  Te  Te8  1  0.622920  0.377080  0.943703  1
  Te  Te9  1  0.377080  0.622920  0.056297  1
  Te  Te10  1  0.933650  0.066350  0.750000  1
  Te  Te11  1  0.066350  0.933650  0.250000  1
