# generated using pymatgen
data_Sr2Si
_symmetry_space_group_name_H-M   'P 1'
_cell_length_a   5.14963245
_cell_length_b   8.13175474
_cell_length_c   9.61716422
_cell_angle_alpha   90.00000000
_cell_angle_beta   90.00000000
_cell_angle_gamma   90.00000000
_symmetry_Int_Tables_number   1
_chemical_formula_structural   Sr2Si
_chemical_formula_sum   'Sr8 Si4'
_cell_volume   402.72402273
_cell_formula_units_Z   4
loop_
 _symmetry_equiv_pos_site_id
 _symmetry_equiv_pos_as_xyz
  1  'x, y, z'
loop_
 _atom_site_type_symbol
 _atom_site_label
 _atom_site_symmetry_multiplicity
 _atom_site_fract_x
 _atom_site_fract_y
 _atom_site_fract_z
 _atom_site_occupancy
  Sr  Sr0  1  0.750000  0.981182  0.326700  1
  Sr  Sr1  1  0.250000  0.018818  0.673300  1
  Sr  Sr2  1  0.750000  0.481182  0.173300  1
  Sr  Sr3  1  0.250000  0.518818  0.826700  1
  Sr  Sr4  1  0.250000  0.650486  0.422147  1
  Sr  Sr5  1  0.750000  0.349514  0.577853  1
  Sr  Sr6  1  0.250000  0.150486  0.077853  1
  Sr  Sr7  1  0.750000  0.849514  0.922147  1
  Si  Si8  1  0.250000  0.252304  0.397544  1
  Si  Si9  1  0.750000  0.747696  0.602456  1
  Si  Si10  1  0.250000  0.752304  0.102456  1
  Si  Si11  1  0.750000  0.247696  0.897544  1
