# generated using pymatgen
data_ScSi7Rh3
_symmetry_space_group_name_H-M   'P 1'
_cell_length_a   7.92077218
_cell_length_b   7.92077218
_cell_length_c   7.92077218
_cell_angle_alpha   57.07655155
_cell_angle_beta   57.07655155
_cell_angle_gamma   57.07655155
_symmetry_Int_Tables_number   1
_chemical_formula_structural   ScSi7Rh3
_chemical_formula_sum   'Sc2 Si14 Rh6'
_cell_volume   327.71111932
_cell_formula_units_Z   2
loop_
 _symmetry_equiv_pos_site_id
 _symmetry_equiv_pos_as_xyz
  1  'x, y, z'
loop_
 _atom_site_type_symbol
 _atom_site_label
 _atom_site_symmetry_multiplicity
 _atom_site_fract_x
 _atom_site_fract_y
 _atom_site_fract_z
 _atom_site_occupancy
  Sc  Sc0  1  0.000000  0.000000  0.000000  1
  Sc  Sc1  1  0.500000  0.500000  0.500000  1
  Si  Si2  1  0.250000  0.250000  0.250000  1
  Si  Si3  1  0.750000  0.750000  0.750000  1
  Si  Si4  1  0.148475  0.327671  0.933606  1
  Si  Si5  1  0.327671  0.933606  0.148475  1
  Si  Si6  1  0.933606  0.148475  0.327671  1
  Si  Si7  1  0.351525  0.566394  0.172329  1
  Si  Si8  1  0.566394  0.172329  0.351525  1
  Si  Si9  1  0.172329  0.351525  0.566394  1
  Si  Si10  1  0.827671  0.648475  0.433606  1
  Si  Si11  1  0.433606  0.827671  0.648475  1
  Si  Si12  1  0.648475  0.433606  0.827671  1
  Si  Si13  1  0.066394  0.851525  0.672329  1
  Si  Si14  1  0.672329  0.066394  0.851525  1
  Si  Si15  1  0.851525  0.672329  0.066394  1
  Rh  Rh16  1  0.927969  0.250000  0.572031  1
  Rh  Rh17  1  0.750000  0.427969  0.072031  1
  Rh  Rh18  1  0.427969  0.072031  0.750000  1
  Rh  Rh19  1  0.072031  0.750000  0.427969  1
  Rh  Rh20  1  0.572031  0.927969  0.250000  1
  Rh  Rh21  1  0.250000  0.572031  0.927969  1
