# generated using pymatgen
data_K6CoS4
_symmetry_space_group_name_H-M   'P 1'
_cell_length_a   9.80833795
_cell_length_b   9.80833795
_cell_length_c   7.71733085
_cell_angle_alpha   90.00000000
_cell_angle_beta   90.00000000
_cell_angle_gamma   120.00000000
_symmetry_Int_Tables_number   1
_chemical_formula_structural   K6CoS4
_chemical_formula_sum   'K12 Co2 S8'
_cell_volume   642.96686658
_cell_formula_units_Z   2
loop_
 _symmetry_equiv_pos_site_id
 _symmetry_equiv_pos_as_xyz
  1  'x, y, z'
loop_
 _atom_site_type_symbol
 _atom_site_label
 _atom_site_symmetry_multiplicity
 _atom_site_fract_x
 _atom_site_fract_y
 _atom_site_fract_z
 _atom_site_occupancy
  K  K0  1  0.529345  0.058689  0.366407  1
  K  K1  1  0.470655  0.529345  0.866407  1
  K  K2  1  0.941311  0.470655  0.366407  1
  K  K3  1  0.529345  0.470655  0.366407  1
  K  K4  1  0.146618  0.853382  0.542435  1
  K  K5  1  0.293235  0.146618  0.042435  1
  K  K6  1  0.058689  0.529345  0.866407  1
  K  K7  1  0.853382  0.706765  0.042435  1
  K  K8  1  0.853382  0.146618  0.042435  1
  K  K9  1  0.706765  0.853382  0.542435  1
  K  K10  1  0.146618  0.293235  0.542435  1
  K  K11  1  0.470655  0.941311  0.866407  1
  Co  Co12  1  0.666667  0.333333  0.752694  1
  Co  Co13  1  0.333333  0.666667  0.252694  1
  S  S14  1  0.799616  0.200384  0.656110  1
  S  S15  1  0.599233  0.799616  0.156110  1
  S  S16  1  0.200384  0.400767  0.156110  1
  S  S17  1  0.799616  0.599233  0.656110  1
  S  S18  1  0.400767  0.200384  0.656110  1
  S  S19  1  0.200384  0.799616  0.156110  1
  S  S20  1  0.666667  0.333333  0.059550  1
  S  S21  1  0.333333  0.666667  0.559550  1
