# generated using pymatgen
data_RbDy2CuSe4
_symmetry_space_group_name_H-M   'P 1'
_cell_length_a   7.45626144
_cell_length_b   7.45626144
_cell_length_c   14.43578636
_cell_angle_alpha   90.00000000
_cell_angle_beta   90.00000000
_cell_angle_gamma   147.76451920
_symmetry_Int_Tables_number   1
_chemical_formula_structural   RbDy2CuSe4
_chemical_formula_sum   'Rb2 Dy4 Cu2 Se8'
_cell_volume   428.09076873
_cell_formula_units_Z   2
loop_
 _symmetry_equiv_pos_site_id
 _symmetry_equiv_pos_as_xyz
  1  'x, y, z'
loop_
 _atom_site_type_symbol
 _atom_site_label
 _atom_site_symmetry_multiplicity
 _atom_site_fract_x
 _atom_site_fract_y
 _atom_site_fract_z
 _atom_site_occupancy
  Rb  Rb0  1  0.889714  0.110286  0.750000  1
  Rb  Rb1  1  0.110286  0.889714  0.250000  1
  Dy  Dy2  1  0.366028  0.633972  0.063853  1
  Dy  Dy3  1  0.633972  0.366028  0.936147  1
  Dy  Dy4  1  0.366028  0.633972  0.436147  1
  Dy  Dy5  1  0.633972  0.366028  0.563853  1
  Cu  Cu6  1  0.163217  0.836783  0.750000  1
  Cu  Cu7  1  0.836783  0.163217  0.250000  1
  Se  Se8  1  0.429508  0.570492  0.250000  1
  Se  Se9  1  0.570492  0.429508  0.750000  1
  Se  Se10  1  0.738284  0.261716  0.109034  1
  Se  Se11  1  0.261716  0.738284  0.890966  1
  Se  Se12  1  0.000000  0.000000  0.500000  1
  Se  Se13  1  0.000000  0.000000  0.000000  1
  Se  Se14  1  0.738284  0.261716  0.390966  1
  Se  Se15  1  0.261716  0.738284  0.609034  1
