# generated using pymatgen
data_NaEr(PS3)2
_symmetry_space_group_name_H-M   'P 1'
_cell_length_a   6.99970079
_cell_length_b   7.18350630
_cell_length_c   9.17673123
_cell_angle_alpha   86.55022413
_cell_angle_beta   87.95477481
_cell_angle_gamma   87.71729749
_symmetry_Int_Tables_number   1
_chemical_formula_structural   NaEr(PS3)2
_chemical_formula_sum   'Na2 Er2 P4 S12'
_cell_volume   459.96993906
_cell_formula_units_Z   2
loop_
 _symmetry_equiv_pos_site_id
 _symmetry_equiv_pos_as_xyz
  1  'x, y, z'
loop_
 _atom_site_type_symbol
 _atom_site_label
 _atom_site_symmetry_multiplicity
 _atom_site_fract_x
 _atom_site_fract_y
 _atom_site_fract_z
 _atom_site_occupancy
  Na  Na0  1  0.471727  0.397157  0.278992  1
  Na  Na1  1  0.528273  0.602843  0.721008  1
  Er  Er2  1  0.978388  0.117956  0.747714  1
  Er  Er3  1  0.021612  0.882044  0.252286  1
  P  P4  1  0.350550  0.961815  0.972767  1
  P  P5  1  0.649450  0.038185  0.027233  1
  P  P6  1  0.934837  0.393025  0.435152  1
  P  P7  1  0.065163  0.606975  0.564848  1
  S  S8  1  0.127767  0.475616  0.759004  1
  S  S9  1  0.834754  0.837137  0.950480  1
  S  S10  1  0.290361  0.701631  0.438782  1
  S  S11  1  0.872233  0.524384  0.240996  1
  S  S12  1  0.859205  0.818622  0.561879  1
  S  S13  1  0.709639  0.298369  0.561218  1
  S  S14  1  0.140795  0.181378  0.438121  1
  S  S15  1  0.347793  0.967388  0.751116  1
  S  S16  1  0.299008  0.712237  0.075799  1
  S  S17  1  0.700992  0.287763  0.924201  1
  S  S18  1  0.652207  0.032612  0.248884  1
  S  S19  1  0.165246  0.162863  0.049520  1
