# generated using pymatgen
data_GdPtF7
_symmetry_space_group_name_H-M   'P 1'
_cell_length_a   9.01833443
_cell_length_b   5.60576347
_cell_length_c   12.13947605
_cell_angle_alpha   90.00000000
_cell_angle_beta   117.74651181
_cell_angle_gamma   90.00000000
_symmetry_Int_Tables_number   1
_chemical_formula_structural   GdPtF7
_chemical_formula_sum   'Gd4 Pt4 F28'
_cell_volume   543.14046753
_cell_formula_units_Z   4
loop_
 _symmetry_equiv_pos_site_id
 _symmetry_equiv_pos_as_xyz
  1  'x, y, z'
loop_
 _atom_site_type_symbol
 _atom_site_label
 _atom_site_symmetry_multiplicity
 _atom_site_fract_x
 _atom_site_fract_y
 _atom_site_fract_z
 _atom_site_occupancy
  Gd  Gd0  1  0.312779  0.760984  0.735723  1
  Gd  Gd1  1  0.687221  0.260984  0.764277  1
  Gd  Gd2  1  0.687221  0.239016  0.264277  1
  Gd  Gd3  1  0.312779  0.739016  0.235723  1
  Pt  Pt4  1  0.772729  0.758099  0.542908  1
  Pt  Pt5  1  0.227271  0.258099  0.957092  1
  Pt  Pt6  1  0.227271  0.241901  0.457092  1
  Pt  Pt7  1  0.772729  0.741901  0.042908  1
  F  F8  1  0.204565  0.433526  0.584174  1
  F  F9  1  0.795435  0.933526  0.915826  1
  F  F10  1  0.795435  0.566474  0.415826  1
  F  F11  1  0.204565  0.066474  0.084174  1
  F  F12  1  0.778841  0.443648  0.958751  1
  F  F13  1  0.221159  0.943648  0.541249  1
  F  F14  1  0.221159  0.556352  0.041249  1
  F  F15  1  0.778841  0.056352  0.458751  1
  F  F16  1  0.018731  0.772127  0.640183  1
  F  F17  1  0.981269  0.272127  0.859817  1
  F  F18  1  0.981269  0.227873  0.359817  1
  F  F19  1  0.018731  0.727873  0.140183  1
  F  F20  1  0.526738  0.754901  0.450399  1
  F  F21  1  0.473262  0.254901  0.049601  1
  F  F22  1  0.473262  0.245099  0.549601  1
  F  F23  1  0.526738  0.745099  0.950399  1
  F  F24  1  0.225944  0.966391  0.866510  1
  F  F25  1  0.774056  0.466391  0.633490  1
  F  F26  1  0.774056  0.033609  0.133490  1
  F  F27  1  0.225944  0.533609  0.366510  1
  F  F28  1  0.244512  0.055405  0.325808  1
  F  F29  1  0.755488  0.555405  0.174192  1
  F  F30  1  0.755488  0.944595  0.674192  1
  F  F31  1  0.244512  0.444595  0.825808  1
  F  F32  1  0.468724  0.411235  0.268119  1
  F  F33  1  0.531276  0.911235  0.231881  1
  F  F34  1  0.531276  0.588765  0.731881  1
  F  F35  1  0.468724  0.088765  0.768119  1
