# generated using pymatgen
data_K2SrCu(NO2)6
_symmetry_space_group_name_H-M   'P 1'
_cell_length_a   7.64446209
_cell_length_b   7.63690885
_cell_length_c   7.47921560
_cell_angle_alpha   60.74711415
_cell_angle_beta   60.64619652
_cell_angle_gamma   58.60668933
_symmetry_Int_Tables_number   1
_chemical_formula_structural   K2SrCu(NO2)6
_chemical_formula_sum   'K2 Sr1 Cu1 N6 O12'
_cell_volume   308.47841929
_cell_formula_units_Z   1
loop_
 _symmetry_equiv_pos_site_id
 _symmetry_equiv_pos_as_xyz
  1  'x, y, z'
loop_
 _atom_site_type_symbol
 _atom_site_label
 _atom_site_symmetry_multiplicity
 _atom_site_fract_x
 _atom_site_fract_y
 _atom_site_fract_z
 _atom_site_occupancy
  K  K0  1  0.250000  0.250000  0.250000  1
  K  K1  1  0.750000  0.750000  0.750000  1
  Sr  Sr2  1  0.500000  0.500000  0.500000  1
  Cu  Cu3  1  0.000000  0.000000  0.000000  1
  N  N4  1  0.197799  0.802201  0.802201  1
  N  N5  1  0.788275  0.788275  0.211725  1
  N  N6  1  0.802210  0.197790  0.802210  1
  N  N7  1  0.197790  0.802210  0.197790  1
  N  N8  1  0.211725  0.211725  0.788275  1
  N  N9  1  0.802201  0.197799  0.197799  1
  O  O10  1  0.838491  0.357460  0.161509  1
  O  O11  1  0.642540  0.161509  0.357460  1
  O  O12  1  0.842894  0.157106  0.638572  1
  O  O13  1  0.161509  0.642540  0.838491  1
  O  O14  1  0.829110  0.625718  0.374282  1
  O  O15  1  0.170890  0.374282  0.625718  1
  O  O16  1  0.361428  0.638572  0.157106  1
  O  O17  1  0.357460  0.838491  0.642540  1
  O  O18  1  0.625718  0.829110  0.170890  1
  O  O19  1  0.638572  0.361428  0.842894  1
  O  O20  1  0.374282  0.170890  0.829110  1
  O  O21  1  0.157106  0.842894  0.361428  1
