# generated using pymatgen
data_GeSe2
_symmetry_space_group_name_H-M   'P 1'
_cell_length_a   6.45829149
_cell_length_b   6.45829149
_cell_length_c   6.45829149
_cell_angle_alpha   123.93302446
_cell_angle_beta   123.93302446
_cell_angle_gamma   83.31291601
_symmetry_Int_Tables_number   1
_chemical_formula_structural   GeSe2
_chemical_formula_sum   'Ge2 Se4'
_cell_volume   177.82369795
_cell_formula_units_Z   2
loop_
 _symmetry_equiv_pos_site_id
 _symmetry_equiv_pos_as_xyz
  1  'x, y, z'
loop_
 _atom_site_type_symbol
 _atom_site_label
 _atom_site_symmetry_multiplicity
 _atom_site_fract_x
 _atom_site_fract_y
 _atom_site_fract_z
 _atom_site_occupancy
  Ge  Ge0  1  0.750000  0.250000  0.500000  1
  Ge  Ge1  1  0.000000  0.000000  0.000000  1
  Se  Se2  1  0.108921  0.125000  0.483921  1
  Se  Se3  1  0.875000  0.358921  0.983921  1
  Se  Se4  1  0.375000  0.891079  0.016079  1
  Se  Se5  1  0.641079  0.625000  0.516079  1
