# generated using pymatgen
data_Sr2YbNbO6
_symmetry_space_group_name_H-M   'P 1'
_cell_length_a   5.83972685
_cell_length_b   6.01004623
_cell_length_c   10.14691628
_cell_angle_alpha   90.00000000
_cell_angle_beta   124.92215090
_cell_angle_gamma   90.00000000
_symmetry_Int_Tables_number   1
_chemical_formula_structural   Sr2YbNbO6
_chemical_formula_sum   'Sr4 Yb2 Nb2 O12'
_cell_volume   291.99911050
_cell_formula_units_Z   2
loop_
 _symmetry_equiv_pos_site_id
 _symmetry_equiv_pos_as_xyz
  1  'x, y, z'
loop_
 _atom_site_type_symbol
 _atom_site_label
 _atom_site_symmetry_multiplicity
 _atom_site_fract_x
 _atom_site_fract_y
 _atom_site_fract_z
 _atom_site_occupancy
  Sr  Sr0  1  0.767032  0.951747  0.253358  1
  Sr  Sr1  1  0.232968  0.451747  0.246642  1
  Sr  Sr2  1  0.767032  0.548253  0.753358  1
  Sr  Sr3  1  0.232968  0.048253  0.746642  1
  Yb  Yb4  1  0.000000  0.500000  0.500000  1
  Yb  Yb5  1  0.000000  0.000000  0.000000  1
  Nb  Nb6  1  0.500000  0.500000  0.000000  1
  Nb  Nb7  1  0.500000  0.000000  0.500000  1
  O  O8  1  0.640917  0.534222  0.233001  1
  O  O9  1  0.359083  0.034222  0.266999  1
  O  O10  1  0.359083  0.465778  0.766999  1
  O  O11  1  0.640917  0.965778  0.733001  1
  O  O12  1  0.819380  0.807524  0.543206  1
  O  O13  1  0.180620  0.307524  0.956794  1
  O  O14  1  0.180620  0.192476  0.456794  1
  O  O15  1  0.819380  0.692476  0.043206  1
  O  O16  1  0.743554  0.227473  0.053915  1
  O  O17  1  0.256446  0.727473  0.446085  1
  O  O18  1  0.256446  0.772527  0.946085  1
  O  O19  1  0.743554  0.272527  0.553915  1
