# generated using pymatgen
data_Li16Ta2N8O
_symmetry_space_group_name_H-M   'P 1'
_cell_length_a   9.19911639
_cell_length_b   9.19911639
_cell_length_c   9.19911639
_cell_angle_alpha   38.06644391
_cell_angle_beta   38.06644391
_cell_angle_gamma   38.06644391
_symmetry_Int_Tables_number   1
_chemical_formula_structural   Li16Ta2N8O
_chemical_formula_sum   'Li16 Ta2 N8 O1'
_cell_volume   265.68541494
_cell_formula_units_Z   1
loop_
 _symmetry_equiv_pos_site_id
 _symmetry_equiv_pos_as_xyz
  1  'x, y, z'
loop_
 _atom_site_type_symbol
 _atom_site_label
 _atom_site_symmetry_multiplicity
 _atom_site_fract_x
 _atom_site_fract_y
 _atom_site_fract_z
 _atom_site_occupancy
  Li  Li0  1  0.417445  0.417445  0.417445  1
  Li  Li1  1  0.582555  0.582555  0.582555  1
  Li  Li2  1  0.077672  0.077672  0.077672  1
  Li  Li3  1  0.922328  0.922328  0.922328  1
  Li  Li4  1  0.682461  0.057158  0.331481  1
  Li  Li5  1  0.057158  0.331481  0.682461  1
  Li  Li6  1  0.331481  0.682461  0.057158  1
  Li  Li7  1  0.317539  0.942842  0.668519  1
  Li  Li8  1  0.942842  0.668519  0.317539  1
  Li  Li9  1  0.668519  0.317539  0.942842  1
  Li  Li10  1  0.174048  0.832621  0.418909  1
  Li  Li11  1  0.581091  0.825952  0.167379  1
  Li  Li12  1  0.167379  0.581091  0.825952  1
  Li  Li13  1  0.825952  0.167379  0.581091  1
  Li  Li14  1  0.418909  0.174048  0.832621  1
  Li  Li15  1  0.832621  0.418909  0.174048  1
  Ta  Ta16  1  0.249312  0.249312  0.249312  1
  Ta  Ta17  1  0.750688  0.750688  0.750688  1
  N  N18  1  0.225977  0.912931  0.534827  1
  N  N19  1  0.326215  0.326215  0.326215  1
  N  N20  1  0.673785  0.673785  0.673785  1
  N  N21  1  0.912931  0.534827  0.225977  1
  N  N22  1  0.534827  0.225977  0.912931  1
  N  N23  1  0.465173  0.774023  0.087069  1
  N  N24  1  0.087069  0.465173  0.774023  1
  N  N25  1  0.774023  0.087069  0.465173  1
  O  O26  1  0.000000  0.000000  0.000000  1
