# generated using pymatgen
data_AsPdS
_symmetry_space_group_name_H-M   'P 1'
_cell_length_a   6.03348564
_cell_length_b   6.03348564
_cell_length_c   6.03348564
_cell_angle_alpha   90.00000000
_cell_angle_beta   90.00000000
_cell_angle_gamma   90.00000000
_symmetry_Int_Tables_number   1
_chemical_formula_structural   AsPdS
_chemical_formula_sum   'As4 Pd4 S4'
_cell_volume   219.63666985
_cell_formula_units_Z   4
loop_
 _symmetry_equiv_pos_site_id
 _symmetry_equiv_pos_as_xyz
  1  'x, y, z'
loop_
 _atom_site_type_symbol
 _atom_site_label
 _atom_site_symmetry_multiplicity
 _atom_site_fract_x
 _atom_site_fract_y
 _atom_site_fract_z
 _atom_site_occupancy
  As  As0  1  0.612639  0.612639  0.612639  1
  As  As1  1  0.887361  0.387361  0.112639  1
  As  As2  1  0.112639  0.887361  0.387361  1
  As  As3  1  0.387361  0.112639  0.887361  1
  Pd  Pd4  1  0.000394  0.499606  0.500394  1
  Pd  Pd5  1  0.499606  0.500394  0.000394  1
  Pd  Pd6  1  0.500394  0.000394  0.499606  1
  Pd  Pd7  1  0.999606  0.999606  0.999606  1
  S  S8  1  0.606857  0.893143  0.106857  1
  S  S9  1  0.893143  0.106857  0.606857  1
  S  S10  1  0.106857  0.606857  0.893143  1
  S  S11  1  0.393143  0.393143  0.393143  1
