# generated using pymatgen
data_Lu(FeGe)6
_symmetry_space_group_name_H-M   'P 1'
_cell_length_a   5.09794731
_cell_length_b   5.09794731
_cell_length_c   8.13381658
_cell_angle_alpha   90.00000000
_cell_angle_beta   90.00000000
_cell_angle_gamma   120.00000000
_symmetry_Int_Tables_number   1
_chemical_formula_structural   Lu(FeGe)6
_chemical_formula_sum   'Lu1 Fe6 Ge6'
_cell_volume   183.06937152
_cell_formula_units_Z   1
loop_
 _symmetry_equiv_pos_site_id
 _symmetry_equiv_pos_as_xyz
  1  'x, y, z'
loop_
 _atom_site_type_symbol
 _atom_site_label
 _atom_site_symmetry_multiplicity
 _atom_site_fract_x
 _atom_site_fract_y
 _atom_site_fract_z
 _atom_site_occupancy
  Lu  Lu0  1  0.000000  0.000000  0.000000  1
  Fe  Fe1  1  0.500000  0.000000  0.249384  1
  Fe  Fe2  1  0.500000  0.500000  0.249384  1
  Fe  Fe3  1  0.000000  0.500000  0.249384  1
  Fe  Fe4  1  0.500000  0.000000  0.750616  1
  Fe  Fe5  1  0.500000  0.500000  0.750616  1
  Fe  Fe6  1  0.000000  0.500000  0.750616  1
  Ge  Ge7  1  0.000000  0.000000  0.344988  1
  Ge  Ge8  1  0.000000  0.000000  0.655012  1
  Ge  Ge9  1  0.333333  0.666667  0.500000  1
  Ge  Ge10  1  0.666667  0.333333  0.500000  1
  Ge  Ge11  1  0.333333  0.666667  0.000000  1
  Ge  Ge12  1  0.666667  0.333333  0.000000  1
