# generated using pymatgen
data_LiTi2P2O9
_symmetry_space_group_name_H-M   'P 1'
_cell_length_a   6.41052494
_cell_length_b   7.64232098
_cell_length_c   14.06062666
_cell_angle_alpha   90.00000000
_cell_angle_beta   90.00000000
_cell_angle_gamma   90.00000000
_symmetry_Int_Tables_number   1
_chemical_formula_structural   LiTi2P2O9
_chemical_formula_sum   'Li4 Ti8 P8 O36'
_cell_volume   688.84822762
_cell_formula_units_Z   4
loop_
 _symmetry_equiv_pos_site_id
 _symmetry_equiv_pos_as_xyz
  1  'x, y, z'
loop_
 _atom_site_type_symbol
 _atom_site_label
 _atom_site_symmetry_multiplicity
 _atom_site_fract_x
 _atom_site_fract_y
 _atom_site_fract_z
 _atom_site_occupancy
  Li  Li0  1  0.750000  0.952306  0.773611  1
  Li  Li1  1  0.750000  0.547694  0.273611  1
  Li  Li2  1  0.250000  0.452306  0.726389  1
  Li  Li3  1  0.250000  0.047694  0.226389  1
  Ti  Ti4  1  0.750000  0.353128  0.879549  1
  Ti  Ti5  1  0.250000  0.646872  0.120451  1
  Ti  Ti6  1  0.250000  0.853128  0.620451  1
  Ti  Ti7  1  0.750000  0.146872  0.379549  1
  Ti  Ti8  1  0.500000  0.000000  0.000000  1
  Ti  Ti9  1  0.500000  0.500000  0.500000  1
  Ti  Ti10  1  0.000000  0.500000  0.500000  1
  Ti  Ti11  1  0.000000  0.000000  0.000000  1
  P  P12  1  0.250000  0.358226  0.931978  1
  P  P13  1  0.750000  0.641774  0.068022  1
  P  P14  1  0.750000  0.858226  0.568022  1
  P  P15  1  0.250000  0.141774  0.431978  1
  P  P16  1  0.750000  0.377044  0.689955  1
  P  P17  1  0.750000  0.122956  0.189955  1
  P  P18  1  0.250000  0.877044  0.810045  1
  P  P19  1  0.250000  0.622956  0.310045  1
  O  O20  1  0.050313  0.608136  0.372590  1
  O  O21  1  0.550313  0.391864  0.627410  1
  O  O22  1  0.949687  0.108136  0.127410  1
  O  O23  1  0.449687  0.891864  0.872590  1
  O  O24  1  0.949687  0.391864  0.627410  1
  O  O25  1  0.449687  0.608136  0.372590  1
  O  O26  1  0.050313  0.891864  0.872590  1
  O  O27  1  0.550313  0.108136  0.127410  1
  O  O28  1  0.250000  0.329779  0.478227  1
  O  O29  1  0.750000  0.670221  0.521773  1
  O  O30  1  0.750000  0.829779  0.021773  1
  O  O31  1  0.250000  0.170221  0.978227  1
  O  O32  1  0.750000  0.133172  0.941468  1
  O  O33  1  0.250000  0.866828  0.058532  1
  O  O34  1  0.250000  0.633172  0.558532  1
  O  O35  1  0.750000  0.366828  0.441468  1
  O  O36  1  0.750000  0.207131  0.750715  1
  O  O37  1  0.250000  0.792869  0.249285  1
  O  O38  1  0.250000  0.707131  0.749285  1
  O  O39  1  0.750000  0.292869  0.250715  1
  O  O40  1  0.441112  0.125374  0.367092  1
  O  O41  1  0.941112  0.874626  0.632908  1
  O  O42  1  0.558888  0.625374  0.132908  1
  O  O43  1  0.058888  0.374626  0.867092  1
  O  O44  1  0.558888  0.874626  0.632908  1
  O  O45  1  0.058888  0.125374  0.367092  1
  O  O46  1  0.441112  0.374626  0.867092  1
  O  O47  1  0.941112  0.625374  0.132908  1
  O  O48  1  0.750000  0.505706  0.988199  1
  O  O49  1  0.250000  0.020946  0.732181  1
  O  O50  1  0.250000  0.479054  0.232181  1
  O  O51  1  0.750000  0.520946  0.767819  1
  O  O52  1  0.750000  0.994294  0.488199  1
  O  O53  1  0.250000  0.005706  0.511801  1
  O  O54  1  0.250000  0.494294  0.011801  1
  O  O55  1  0.750000  0.979054  0.267819  1
