# generated using pymatgen
data_Na2Cu(Si2O5)2
_symmetry_space_group_name_H-M   'P 1'
_cell_length_a   7.00289747
_cell_length_b   7.79261567
_cell_length_c   9.87051415
_cell_angle_alpha   105.86849890
_cell_angle_beta   99.03010601
_cell_angle_gamma   114.32530060
_symmetry_Int_Tables_number   1
_chemical_formula_structural   Na2Cu(Si2O5)2
_chemical_formula_sum   'Na4 Cu2 Si8 O20'
_cell_volume   449.23271493
_cell_formula_units_Z   2
loop_
 _symmetry_equiv_pos_site_id
 _symmetry_equiv_pos_as_xyz
  1  'x, y, z'
loop_
 _atom_site_type_symbol
 _atom_site_label
 _atom_site_symmetry_multiplicity
 _atom_site_fract_x
 _atom_site_fract_y
 _atom_site_fract_z
 _atom_site_occupancy
  Na  Na0  1  0.658468  0.756760  0.024692  1
  Na  Na1  1  0.341532  0.243240  0.975308  1
  Na  Na2  1  0.733703  0.282013  0.579050  1
  Na  Na3  1  0.266297  0.717987  0.420950  1
  Cu  Cu4  1  0.232983  0.273301  0.573250  1
  Cu  Cu5  1  0.767017  0.726699  0.426750  1
  Si  Si6  1  0.070650  0.705133  0.150125  1
  Si  Si7  1  0.929350  0.294867  0.849875  1
  Si  Si8  1  0.183163  0.378716  0.249102  1
  Si  Si9  1  0.586785  0.342247  0.264353  1
  Si  Si10  1  0.413215  0.657753  0.735647  1
  Si  Si11  1  0.230622  0.934973  0.811435  1
  Si  Si12  1  0.769378  0.065027  0.188565  1
  Si  Si13  1  0.816837  0.621284  0.750898  1
  O  O14  1  0.184516  0.894051  0.990542  1
  O  O15  1  0.759588  0.394917  0.856426  1
  O  O16  1  0.329233  0.172599  0.734193  1
  O  O17  1  0.670767  0.827401  0.265807  1
  O  O18  1  0.167622  0.465321  0.848752  1
  O  O19  1  0.832378  0.534679  0.151248  1
  O  O20  1  0.110860  0.352606  0.420142  1
  O  O21  1  0.889140  0.647394  0.579858  1
  O  O22  1  0.049177  0.781578  0.286192  1
  O  O23  1  0.950823  0.218422  0.713808  1
  O  O24  1  0.520956  0.335218  0.431371  1
  O  O25  1  0.418393  0.373776  0.179602  1
  O  O26  1  0.414514  0.866196  0.746638  1
  O  O27  1  0.585486  0.133804  0.253362  1
  O  O28  1  0.991630  0.791944  0.798551  1
  O  O29  1  0.008370  0.208056  0.201449  1
  O  O30  1  0.815484  0.105949  0.009458  1
  O  O31  1  0.479044  0.664782  0.568629  1
  O  O32  1  0.581607  0.626224  0.820398  1
  O  O33  1  0.240412  0.605083  0.143574  1
