# generated using pymatgen
data_TbTiGe
_symmetry_space_group_name_H-M   'P 1'
_cell_length_a   8.28394700
_cell_length_b   8.28394700
_cell_length_c   8.28394700
_cell_angle_alpha   151.59543886
_cell_angle_beta   151.59543886
_cell_angle_gamma   40.60439252
_symmetry_Int_Tables_number   1
_chemical_formula_structural   TbTiGe
_chemical_formula_sum   'Tb2 Ti2 Ge2'
_cell_volume   128.37340117
_cell_formula_units_Z   2
loop_
 _symmetry_equiv_pos_site_id
 _symmetry_equiv_pos_as_xyz
  1  'x, y, z'
loop_
 _atom_site_type_symbol
 _atom_site_label
 _atom_site_symmetry_multiplicity
 _atom_site_fract_x
 _atom_site_fract_y
 _atom_site_fract_z
 _atom_site_occupancy
  Tb  Tb0  1  0.674146  0.674146  0.000000  1
  Tb  Tb1  1  0.325854  0.325854  0.000000  1
  Ti  Ti2  1  0.500000  0.000000  0.500000  1
  Ti  Ti3  1  1.000000  0.500000  0.500000  1
  Ge  Ge4  1  0.121820  0.121820  0.000000  1
  Ge  Ge5  1  0.878180  0.878180  0.000000  1
