# generated using pymatgen
data_MgV2O4
_symmetry_space_group_name_H-M   'P 1'
_cell_length_a   6.06387634
_cell_length_b   6.06387634
_cell_length_c   6.06387634
_cell_angle_alpha   60.00000000
_cell_angle_beta   60.00000000
_cell_angle_gamma   60.00000000
_symmetry_Int_Tables_number   1
_chemical_formula_structural   MgV2O4
_chemical_formula_sum   'Mg2 V4 O8'
_cell_volume   157.66525948
_cell_formula_units_Z   2
loop_
 _symmetry_equiv_pos_site_id
 _symmetry_equiv_pos_as_xyz
  1  'x, y, z'
loop_
 _atom_site_type_symbol
 _atom_site_label
 _atom_site_symmetry_multiplicity
 _atom_site_fract_x
 _atom_site_fract_y
 _atom_site_fract_z
 _atom_site_occupancy
  Mg  Mg0  1  1.000000  1.000000  1.000000  1
  Mg  Mg1  1  0.250000  0.250000  0.250000  1
  V  V2  1  0.625000  0.625000  0.625000  1
  V  V3  1  0.625000  0.125000  0.625000  1
  V  V4  1  0.625000  0.625000  0.125000  1
  V  V5  1  0.125000  0.625000  0.625000  1
  O  O6  1  0.385614  0.843157  0.385614  1
  O  O7  1  0.864386  0.864386  0.864386  1
  O  O8  1  0.406843  0.864386  0.864386  1
  O  O9  1  0.864386  0.864386  0.406843  1
  O  O10  1  0.843157  0.385614  0.385614  1
  O  O11  1  0.385614  0.385614  0.843157  1
  O  O12  1  0.864386  0.406843  0.864386  1
  O  O13  1  0.385614  0.385614  0.385614  1
