# generated using pymatgen
data_SrHfO3
_symmetry_space_group_name_H-M   'P 1'
_cell_length_a   5.81033520
_cell_length_b   5.81033520
_cell_length_c   5.81033520
_cell_angle_alpha   119.80900771
_cell_angle_beta   119.70104285
_cell_angle_gamma   90.42486021
_symmetry_Int_Tables_number   1
_chemical_formula_structural   SrHfO3
_chemical_formula_sum   'Sr2 Hf2 O6'
_cell_volume   139.21315940
_cell_formula_units_Z   2
loop_
 _symmetry_equiv_pos_site_id
 _symmetry_equiv_pos_as_xyz
  1  'x, y, z'
loop_
 _atom_site_type_symbol
 _atom_site_label
 _atom_site_symmetry_multiplicity
 _atom_site_fract_x
 _atom_site_fract_y
 _atom_site_fract_z
 _atom_site_occupancy
  Sr  Sr0  1  0.241162  0.250000  0.491162  1
  Sr  Sr1  1  0.758838  0.750000  0.508838  1
  Hf  Hf2  1  0.000000  0.500000  0.000000  1
  Hf  Hf3  1  0.500000  0.000000  0.000000  1
  O  O4  1  0.790538  0.790538  0.000000  1
  O  O5  1  0.209462  0.709462  0.500000  1
  O  O6  1  0.209462  0.209462  0.000000  1
  O  O7  1  0.790538  0.290538  0.500000  1
  O  O8  1  0.675148  0.250000  0.925148  1
  O  O9  1  0.324852  0.750000  0.074852  1
