# generated using pymatgen
data_TmAl2Ni
_symmetry_space_group_name_H-M   'P 1'
_cell_length_a   5.38585687
_cell_length_b   5.38585687
_cell_length_c   6.85429098
_cell_angle_alpha   90.00000000
_cell_angle_beta   90.00000000
_cell_angle_gamma   135.86744320
_symmetry_Int_Tables_number   1
_chemical_formula_structural   TmAl2Ni
_chemical_formula_sum   'Tm2 Al4 Ni2'
_cell_volume   138.44634172
_cell_formula_units_Z   2
loop_
 _symmetry_equiv_pos_site_id
 _symmetry_equiv_pos_as_xyz
  1  'x, y, z'
loop_
 _atom_site_type_symbol
 _atom_site_label
 _atom_site_symmetry_multiplicity
 _atom_site_fract_x
 _atom_site_fract_y
 _atom_site_fract_z
 _atom_site_occupancy
  Tm  Tm0  1  0.936876  0.063124  0.750000  1
  Tm  Tm1  1  0.063124  0.936876  0.250000  1
  Al  Al2  1  0.653034  0.346966  0.553618  1
  Al  Al3  1  0.346966  0.653034  0.446382  1
  Al  Al4  1  0.653034  0.346966  0.946382  1
  Al  Al5  1  0.346966  0.653034  0.053618  1
  Ni  Ni6  1  0.785045  0.214955  0.250000  1
  Ni  Ni7  1  0.214955  0.785045  0.750000  1
