# generated using pymatgen
data_V2Cd2O7
_symmetry_space_group_name_H-M   'P 1'
_cell_length_a   5.84026927
_cell_length_b   5.84026927
_cell_length_c   5.10125905
_cell_angle_alpha   81.79328775
_cell_angle_beta   98.20671225
_cell_angle_gamma   75.46906994
_symmetry_Int_Tables_number   1
_chemical_formula_structural   V2Cd2O7
_chemical_formula_sum   'V2 Cd2 O7'
_cell_volume   163.78621379
_cell_formula_units_Z   1
loop_
 _symmetry_equiv_pos_site_id
 _symmetry_equiv_pos_as_xyz
  1  'x, y, z'
loop_
 _atom_site_type_symbol
 _atom_site_label
 _atom_site_symmetry_multiplicity
 _atom_site_fract_x
 _atom_site_fract_y
 _atom_site_fract_z
 _atom_site_occupancy
  V  V0  1  0.774063  0.225937  0.094105  1
  V  V1  1  0.225937  0.774063  0.905895  1
  Cd  Cd2  1  0.308003  0.308003  0.500000  1
  Cd  Cd3  1  0.691997  0.691997  0.500000  1
  O  O4  1  0.389254  0.920466  0.717647  1
  O  O5  1  0.920466  0.389254  0.282353  1
  O  O6  1  0.610746  0.079534  0.282353  1
  O  O7  1  0.079534  0.610746  0.717647  1
  O  O8  1  0.000000  0.000000  0.000000  1
  O  O9  1  0.396874  0.603126  0.210342  1
  O  O10  1  0.603126  0.396874  0.789658  1
