# generated using pymatgen
data_Ca5Al6O14
_symmetry_space_group_name_H-M   'P 1'
_cell_length_a   7.94461148
_cell_length_b   7.94461148
_cell_length_c   10.39684968
_cell_angle_alpha   90.00000000
_cell_angle_beta   90.00000000
_cell_angle_gamma   91.48730834
_symmetry_Int_Tables_number   1
_chemical_formula_structural   Ca5Al6O14
_chemical_formula_sum   'Ca10 Al12 O28'
_cell_volume   655.99533773
_cell_formula_units_Z   2
loop_
 _symmetry_equiv_pos_site_id
 _symmetry_equiv_pos_as_xyz
  1  'x, y, z'
loop_
 _atom_site_type_symbol
 _atom_site_label
 _atom_site_symmetry_multiplicity
 _atom_site_fract_x
 _atom_site_fract_y
 _atom_site_fract_z
 _atom_site_occupancy
  Ca  Ca0  1  0.474764  0.474764  0.742067  1
  Ca  Ca1  1  0.525236  0.525236  0.242067  1
  Ca  Ca2  1  0.675437  0.959389  0.199090  1
  Ca  Ca3  1  0.324563  0.040611  0.699090  1
  Ca  Ca4  1  0.040611  0.324563  0.699090  1
  Ca  Ca5  1  0.959389  0.675437  0.199090  1
  Ca  Ca6  1  0.264285  0.947370  0.249659  1
  Ca  Ca7  1  0.735715  0.052630  0.749659  1
  Ca  Ca8  1  0.052630  0.735715  0.749659  1
  Ca  Ca9  1  0.947370  0.264285  0.249659  1
  Al  Al10  1  0.646588  0.156957  0.475944  1
  Al  Al11  1  0.353412  0.843043  0.975944  1
  Al  Al12  1  0.843043  0.353412  0.975944  1
  Al  Al13  1  0.156957  0.646588  0.475944  1
  Al  Al14  1  0.000681  0.000681  0.962529  1
  Al  Al15  1  0.999319  0.999319  0.462529  1
  Al  Al16  1  0.700860  0.700860  0.940772  1
  Al  Al17  1  0.299140  0.299140  0.440772  1
  Al  Al18  1  0.502362  0.789086  0.508472  1
  Al  Al19  1  0.497638  0.210914  0.008472  1
  Al  Al20  1  0.210914  0.497638  0.008472  1
  Al  Al21  1  0.789086  0.502362  0.508472  1
  O  O22  1  0.699745  0.699745  0.109695  1
  O  O23  1  0.300255  0.300255  0.609695  1
  O  O24  1  0.495013  0.243242  0.373082  1
  O  O25  1  0.504987  0.756758  0.873082  1
  O  O26  1  0.756758  0.504987  0.873082  1
  O  O27  1  0.243242  0.495013  0.373082  1
  O  O28  1  0.993035  0.993035  0.131260  1
  O  O29  1  0.006965  0.006965  0.631260  1
  O  O30  1  0.489320  0.808754  0.339724  1
  O  O31  1  0.510680  0.191246  0.839724  1
  O  O32  1  0.191246  0.510680  0.839724  1
  O  O33  1  0.808754  0.489320  0.339724  1
  O  O34  1  0.853917  0.853917  0.887801  1
  O  O35  1  0.146083  0.146083  0.387801  1
  O  O36  1  0.808887  0.062858  0.384487  1
  O  O37  1  0.191113  0.937142  0.884487  1
  O  O38  1  0.937142  0.191113  0.884487  1
  O  O39  1  0.062858  0.808887  0.384487  1
  O  O40  1  0.298635  0.752344  0.584423  1
  O  O41  1  0.701365  0.247656  0.084423  1
  O  O42  1  0.247656  0.701365  0.084423  1
  O  O43  1  0.752344  0.298635  0.584423  1
  O  O44  1  0.991023  0.562811  0.576096  1
  O  O45  1  0.008977  0.437189  0.076096  1
  O  O46  1  0.437189  0.008977  0.076096  1
  O  O47  1  0.562811  0.991023  0.576096  1
  O  O48  1  0.625578  0.625578  0.566824  1
  O  O49  1  0.374422  0.374422  0.066824  1
