# generated using pymatgen
data_Mn(SbO2)2
_symmetry_space_group_name_H-M   'P 1'
_cell_length_a   8.86296436
_cell_length_b   8.86296436
_cell_length_c   6.17494865
_cell_angle_alpha   90.00000000
_cell_angle_beta   90.00000000
_cell_angle_gamma   90.00000000
_symmetry_Int_Tables_number   1
_chemical_formula_structural   Mn(SbO2)2
_chemical_formula_sum   'Mn4 Sb8 O16'
_cell_volume   485.05541385
_cell_formula_units_Z   4
loop_
 _symmetry_equiv_pos_site_id
 _symmetry_equiv_pos_as_xyz
  1  'x, y, z'
loop_
 _atom_site_type_symbol
 _atom_site_label
 _atom_site_symmetry_multiplicity
 _atom_site_fract_x
 _atom_site_fract_y
 _atom_site_fract_z
 _atom_site_occupancy
  Mn  Mn0  1  0.500000  0.000000  0.250000  1
  Mn  Mn1  1  0.000000  0.500000  0.750000  1
  Mn  Mn2  1  0.500000  0.000000  0.750000  1
  Mn  Mn3  1  0.000000  0.500000  0.250000  1
  Sb  Sb4  1  0.830890  0.819136  0.000000  1
  Sb  Sb5  1  0.819136  0.169110  0.500000  1
  Sb  Sb6  1  0.180864  0.830890  0.500000  1
  Sb  Sb7  1  0.169110  0.180864  0.000000  1
  Sb  Sb8  1  0.330890  0.680864  0.000000  1
  Sb  Sb9  1  0.669110  0.319136  0.000000  1
  Sb  Sb10  1  0.680864  0.669110  0.500000  1
  Sb  Sb11  1  0.319136  0.330890  0.500000  1
  O  O12  1  0.400256  0.859149  0.500000  1
  O  O13  1  0.599744  0.140851  0.500000  1
  O  O14  1  0.140851  0.400256  0.000000  1
  O  O15  1  0.859149  0.599744  0.000000  1
  O  O16  1  0.359149  0.900256  0.000000  1
  O  O17  1  0.900256  0.640851  0.500000  1
  O  O18  1  0.099744  0.359149  0.500000  1
  O  O19  1  0.640851  0.099744  0.000000  1
  O  O20  1  0.180581  0.680581  0.750000  1
  O  O21  1  0.680581  0.819419  0.250000  1
  O  O22  1  0.319419  0.180581  0.250000  1
  O  O23  1  0.819419  0.319419  0.750000  1
  O  O24  1  0.180581  0.680581  0.250000  1
  O  O25  1  0.680581  0.819419  0.750000  1
  O  O26  1  0.319419  0.180581  0.750000  1
  O  O27  1  0.819419  0.319419  0.250000  1
