# generated using pymatgen
data_Sm(SiPt)2
_symmetry_space_group_name_H-M   'P 1'
_cell_length_a   4.25514302
_cell_length_b   4.25514302
_cell_length_c   9.83763154
_cell_angle_alpha   90.00000000
_cell_angle_beta   90.00000000
_cell_angle_gamma   90.00000000
_symmetry_Int_Tables_number   1
_chemical_formula_structural   Sm(SiPt)2
_chemical_formula_sum   'Sm2 Si4 Pt4'
_cell_volume   178.12253856
_cell_formula_units_Z   2
loop_
 _symmetry_equiv_pos_site_id
 _symmetry_equiv_pos_as_xyz
  1  'x, y, z'
loop_
 _atom_site_type_symbol
 _atom_site_label
 _atom_site_symmetry_multiplicity
 _atom_site_fract_x
 _atom_site_fract_y
 _atom_site_fract_z
 _atom_site_occupancy
  Sm  Sm0  1  0.000000  0.500000  0.744885  1
  Sm  Sm1  1  0.500000  0.000000  0.255115  1
  Si  Si2  1  0.000000  0.500000  0.132549  1
  Si  Si3  1  0.500000  0.500000  0.500000  1
  Si  Si4  1  0.500000  0.000000  0.867451  1
  Si  Si5  1  0.000000  0.000000  0.500000  1
  Pt  Pt6  1  0.500000  0.000000  0.621591  1
  Pt  Pt7  1  0.000000  0.000000  0.000000  1
  Pt  Pt8  1  0.500000  0.500000  0.000000  1
  Pt  Pt9  1  0.000000  0.500000  0.378409  1
