# generated using pymatgen
data_CoSe2O5
_symmetry_space_group_name_H-M   'P 1'
_cell_length_a   6.14540042
_cell_length_b   6.98090159
_cell_length_c   10.51419753
_cell_angle_alpha   90.00000000
_cell_angle_beta   90.00000000
_cell_angle_gamma   90.00000000
_symmetry_Int_Tables_number   1
_chemical_formula_structural   CoSe2O5
_chemical_formula_sum   'Co4 Se8 O20'
_cell_volume   451.06365363
_cell_formula_units_Z   4
loop_
 _symmetry_equiv_pos_site_id
 _symmetry_equiv_pos_as_xyz
  1  'x, y, z'
loop_
 _atom_site_type_symbol
 _atom_site_label
 _atom_site_symmetry_multiplicity
 _atom_site_fract_x
 _atom_site_fract_y
 _atom_site_fract_z
 _atom_site_occupancy
  Co  Co0  1  0.250000  0.500000  0.935204  1
  Co  Co1  1  0.750000  0.000000  0.564796  1
  Co  Co2  1  0.750000  0.500000  0.064796  1
  Co  Co3  1  0.250000  0.000000  0.435204  1
  Se  Se4  1  0.464190  0.136658  0.153485  1
  Se  Se5  1  0.964190  0.363342  0.346515  1
  Se  Se6  1  0.535810  0.636658  0.346515  1
  Se  Se7  1  0.035810  0.863342  0.153485  1
  Se  Se8  1  0.964190  0.136658  0.846515  1
  Se  Se9  1  0.464190  0.363342  0.653485  1
  Se  Se10  1  0.035810  0.636658  0.653485  1
  Se  Se11  1  0.535810  0.863342  0.846515  1
  O  O12  1  0.052282  0.654764  0.066412  1
  O  O13  1  0.552282  0.845236  0.433588  1
  O  O14  1  0.947718  0.154764  0.433588  1
  O  O15  1  0.447718  0.345236  0.066412  1
  O  O16  1  0.947718  0.345236  0.933588  1
  O  O17  1  0.447718  0.154764  0.566412  1
  O  O18  1  0.052282  0.845236  0.566412  1
  O  O19  1  0.552282  0.654764  0.933588  1
  O  O20  1  0.750000  0.500000  0.435291  1
  O  O21  1  0.250000  0.000000  0.064709  1
  O  O22  1  0.250000  0.500000  0.564709  1
  O  O23  1  0.750000  0.000000  0.935291  1
  O  O24  1  0.670267  0.695645  0.210188  1
  O  O25  1  0.170267  0.804355  0.289812  1
  O  O26  1  0.329733  0.195645  0.289812  1
  O  O27  1  0.829733  0.304355  0.210188  1
  O  O28  1  0.329733  0.304355  0.789812  1
  O  O29  1  0.829733  0.195645  0.710188  1
  O  O30  1  0.670267  0.804355  0.710188  1
  O  O31  1  0.170267  0.695645  0.789812  1
