# generated using pymatgen
data_K2SrV4O12
_symmetry_space_group_name_H-M   'P 1'
_cell_length_a   11.09957238
_cell_length_b   11.09957238
_cell_length_c   5.44315328
_cell_angle_alpha   90.00000000
_cell_angle_beta   90.00000000
_cell_angle_gamma   90.00000000
_symmetry_Int_Tables_number   1
_chemical_formula_structural   K2SrV4O12
_chemical_formula_sum   'K4 Sr2 V8 O24'
_cell_volume   670.59924388
_cell_formula_units_Z   2
loop_
 _symmetry_equiv_pos_site_id
 _symmetry_equiv_pos_as_xyz
  1  'x, y, z'
loop_
 _atom_site_type_symbol
 _atom_site_label
 _atom_site_symmetry_multiplicity
 _atom_site_fract_x
 _atom_site_fract_y
 _atom_site_fract_z
 _atom_site_occupancy
  K  K0  1  0.750000  0.750000  0.500000  1
  K  K1  1  0.750000  0.250000  0.500000  1
  K  K2  1  0.250000  0.750000  0.500000  1
  K  K3  1  0.250000  0.250000  0.500000  1
  Sr  Sr4  1  0.500000  0.500000  0.500000  1
  Sr  Sr5  1  0.000000  0.000000  0.500000  1
  V  V6  1  0.719931  0.000000  0.000000  1
  V  V7  1  0.000000  0.280069  0.000000  1
  V  V8  1  0.280069  0.000000  0.000000  1
  V  V9  1  0.500000  0.780069  0.000000  1
  V  V10  1  0.780069  0.500000  0.000000  1
  V  V11  1  0.219931  0.500000  0.000000  1
  V  V12  1  0.500000  0.219931  0.000000  1
  V  V13  1  0.000000  0.719931  0.000000  1
  O  O14  1  0.455335  0.305205  0.237854  1
  O  O15  1  0.544665  0.694795  0.237854  1
  O  O16  1  0.694795  0.455335  0.237854  1
  O  O17  1  0.305205  0.544665  0.237854  1
  O  O18  1  0.305205  0.455335  0.762146  1
  O  O19  1  0.455335  0.694795  0.762146  1
  O  O20  1  0.544665  0.305205  0.762146  1
  O  O21  1  0.694795  0.544665  0.762146  1
  O  O22  1  0.044665  0.194795  0.762146  1
  O  O23  1  0.955335  0.805205  0.762146  1
  O  O24  1  0.805205  0.044665  0.762146  1
  O  O25  1  0.194795  0.955335  0.762146  1
  O  O26  1  0.194795  0.044665  0.237854  1
  O  O27  1  0.044665  0.805205  0.237854  1
  O  O28  1  0.124448  0.375552  0.102363  1
  O  O29  1  0.375552  0.875552  0.102363  1
  O  O30  1  0.624448  0.124448  0.102363  1
  O  O31  1  0.875552  0.624448  0.102363  1
  O  O32  1  0.875552  0.375552  0.897637  1
  O  O33  1  0.124448  0.624448  0.897637  1
  O  O34  1  0.375552  0.124448  0.897637  1
  O  O35  1  0.624448  0.875552  0.897637  1
  O  O36  1  0.805205  0.955335  0.237854  1
  O  O37  1  0.955335  0.194795  0.237854  1
