# generated using pymatgen
data_K3UF7
_symmetry_space_group_name_H-M   'P 1'
_cell_length_a   11.36985582
_cell_length_b   11.36985582
_cell_length_c   11.36985582
_cell_angle_alpha   131.24883256
_cell_angle_beta   131.24883256
_cell_angle_gamma   71.41803337
_symmetry_Int_Tables_number   1
_chemical_formula_structural   K3UF7
_chemical_formula_sum   'K12 U4 F28'
_cell_volume   813.16692941
_cell_formula_units_Z   4
loop_
 _symmetry_equiv_pos_site_id
 _symmetry_equiv_pos_as_xyz
  1  'x, y, z'
loop_
 _atom_site_type_symbol
 _atom_site_label
 _atom_site_symmetry_multiplicity
 _atom_site_fract_x
 _atom_site_fract_y
 _atom_site_fract_z
 _atom_site_occupancy
  K  K0  1  0.250000  0.750000  0.500000  1
  K  K1  1  0.500000  0.500000  0.000000  1
  K  K2  1  0.750000  0.250000  0.500000  1
  K  K3  1  0.000000  0.000000  0.000000  1
  K  K4  1  0.352201  0.832789  0.956592  1
  K  K5  1  0.582789  0.126197  0.980588  1
  K  K6  1  0.145609  0.602201  0.019412  1
  K  K7  1  0.876197  0.395609  0.043408  1
  K  K8  1  0.397799  0.417211  0.543408  1
  K  K9  1  0.167211  0.123803  0.519412  1
  K  K10  1  0.604391  0.647799  0.480588  1
  K  K11  1  0.873803  0.854391  0.456592  1
  U  U12  1  0.518430  0.018430  0.500000  1
  U  U13  1  0.768430  0.768430  0.000000  1
  U  U14  1  0.231570  0.231570  0.000000  1
  U  U15  1  0.981570  0.481570  0.500000  1
  F  F16  1  0.008148  0.297759  0.845490  1
  F  F17  1  0.047759  0.702269  0.789612  1
  F  F18  1  0.912658  0.258148  0.210388  1
  F  F19  1  0.452269  0.162658  0.154510  1
  F  F20  1  0.741852  0.952241  0.654510  1
  F  F21  1  0.702241  0.547731  0.710388  1
  F  F22  1  0.837342  0.991852  0.289612  1
  F  F23  1  0.297731  0.087342  0.345490  1
  F  F24  1  0.418759  0.755685  0.212216  1
  F  F25  1  0.505685  0.793469  0.836926  1
  F  F26  1  0.956543  0.668759  0.163074  1
  F  F27  1  0.543469  0.206543  0.787784  1
  F  F28  1  0.331241  0.494315  0.287784  1
  F  F29  1  0.244315  0.456531  0.663074  1
  F  F30  1  0.793457  0.581241  0.336926  1
  F  F31  1  0.206531  0.043457  0.712216  1
  F  F32  1  0.394781  0.894781  0.500000  1
  F  F33  1  0.644781  0.644781  0.000000  1
  F  F34  1  0.355219  0.355219  0.000000  1
  F  F35  1  0.105219  0.605219  0.500000  1
  F  F36  1  0.117151  0.991346  0.842998  1
  F  F37  1  0.741346  0.398348  0.374195  1
  F  F38  1  0.024154  0.367151  0.625805  1
  F  F39  1  0.148348  0.274154  0.157002  1
  F  F40  1  0.632849  0.258654  0.657002  1
  F  F41  1  0.008654  0.851652  0.125805  1
  F  F42  1  0.725846  0.882849  0.874195  1
  F  F43  1  0.601652  0.975846  0.342998  1
