# generated using pymatgen
data_CsAg5Se3
_symmetry_space_group_name_H-M   'P 1'
_cell_length_a   14.34091047
_cell_length_b   14.34091047
_cell_length_c   4.47240889
_cell_angle_alpha   90.00000000
_cell_angle_beta   90.00000000
_cell_angle_gamma   90.00000000
_symmetry_Int_Tables_number   1
_chemical_formula_structural   CsAg5Se3
_chemical_formula_sum   'Cs4 Ag20 Se12'
_cell_volume   919.80327404
_cell_formula_units_Z   4
loop_
 _symmetry_equiv_pos_site_id
 _symmetry_equiv_pos_as_xyz
  1  'x, y, z'
loop_
 _atom_site_type_symbol
 _atom_site_label
 _atom_site_symmetry_multiplicity
 _atom_site_fract_x
 _atom_site_fract_y
 _atom_site_fract_z
 _atom_site_occupancy
  Cs  Cs0  1  0.114745  0.114745  0.000000  1
  Cs  Cs1  1  0.614745  0.385255  0.500000  1
  Cs  Cs2  1  0.385255  0.614745  0.500000  1
  Cs  Cs3  1  0.885255  0.885255  0.000000  1
  Ag  Ag4  1  0.674709  0.674709  0.500000  1
  Ag  Ag5  1  0.174709  0.825291  0.000000  1
  Ag  Ag6  1  0.825291  0.174709  0.000000  1
  Ag  Ag7  1  0.325291  0.325291  0.500000  1
  Ag  Ag8  1  0.983210  0.608212  0.000000  1
  Ag  Ag9  1  0.108212  0.516790  0.500000  1
  Ag  Ag10  1  0.891788  0.483210  0.500000  1
  Ag  Ag11  1  0.016790  0.391788  0.000000  1
  Ag  Ag12  1  0.516790  0.108212  0.500000  1
  Ag  Ag13  1  0.483210  0.891788  0.500000  1
  Ag  Ag14  1  0.608212  0.983210  0.000000  1
  Ag  Ag15  1  0.391788  0.016790  0.000000  1
  Ag  Ag16  1  0.782241  0.575518  0.000000  1
  Ag  Ag17  1  0.075518  0.717759  0.500000  1
  Ag  Ag18  1  0.924482  0.282241  0.500000  1
  Ag  Ag19  1  0.217759  0.424482  0.000000  1
  Ag  Ag20  1  0.717759  0.075518  0.500000  1
  Ag  Ag21  1  0.282241  0.924482  0.500000  1
  Ag  Ag22  1  0.575518  0.782241  0.000000  1
  Ag  Ag23  1  0.424482  0.217759  0.000000  1
  Se  Se24  1  0.399530  0.399530  0.000000  1
  Se  Se25  1  0.899530  0.100470  0.500000  1
  Se  Se26  1  0.100470  0.899530  0.500000  1
  Se  Se27  1  0.600470  0.600470  0.000000  1
  Se  Se28  1  0.882601  0.669320  0.500000  1
  Se  Se29  1  0.169320  0.617399  0.000000  1
  Se  Se30  1  0.830680  0.382601  0.000000  1
  Se  Se31  1  0.117399  0.330680  0.500000  1
  Se  Se32  1  0.617399  0.169320  0.000000  1
  Se  Se33  1  0.382601  0.830680  0.000000  1
  Se  Se34  1  0.669320  0.882601  0.500000  1
  Se  Se35  1  0.330680  0.117399  0.500000  1
