# generated using pymatgen
data_Rb2NbCuSe4
_symmetry_space_group_name_H-M   'P 1'
_cell_length_a   14.46854381
_cell_length_b   12.91482524
_cell_length_c   7.70575895
_cell_angle_alpha   85.14867022
_cell_angle_beta   62.79998305
_cell_angle_gamma   32.05134673
_symmetry_Int_Tables_number   1
_chemical_formula_structural   Rb2NbCuSe4
_chemical_formula_sum   'Rb4 Nb2 Cu2 Se8'
_cell_volume   521.26864104
_cell_formula_units_Z   2
loop_
 _symmetry_equiv_pos_site_id
 _symmetry_equiv_pos_as_xyz
  1  'x, y, z'
loop_
 _atom_site_type_symbol
 _atom_site_label
 _atom_site_symmetry_multiplicity
 _atom_site_fract_x
 _atom_site_fract_y
 _atom_site_fract_z
 _atom_site_occupancy
  Rb  Rb0  1  0.178770  0.178770  0.821230  1
  Rb  Rb1  1  0.821230  0.821230  0.178770  1
  Rb  Rb2  1  0.428770  0.428770  0.071230  1
  Rb  Rb3  1  0.071230  0.071230  0.428770  1
  Nb  Nb4  1  0.250000  0.250000  0.250000  1
  Nb  Nb5  1  0.000000  0.000000  0.000000  1
  Cu  Cu6  1  0.750000  0.750000  0.750000  1
  Cu  Cu7  1  0.500000  0.500000  0.500000  1
  Se  Se8  1  0.797472  0.092117  0.399228  1
  Se  Se9  1  0.711183  0.399228  0.092117  1
  Se  Se10  1  0.399228  0.711183  0.797472  1
  Se  Se11  1  0.092117  0.797472  0.711183  1
  Se  Se12  1  0.850772  0.538817  0.452528  1
  Se  Se13  1  0.157883  0.452528  0.538817  1
  Se  Se14  1  0.538817  0.850772  0.157883  1
  Se  Se15  1  0.452528  0.157883  0.850772  1
