# generated using pymatgen
data_Tb(Ni2B)6
_symmetry_space_group_name_H-M   'P 1'
_cell_length_a   6.02682989
_cell_length_b   6.02682989
_cell_length_c   10.96144599
_cell_angle_alpha   90.00000000
_cell_angle_beta   90.00000000
_cell_angle_gamma   104.77147321
_symmetry_Int_Tables_number   1
_chemical_formula_structural   Tb(Ni2B)6
_chemical_formula_sum   'Tb2 Ni24 B12'
_cell_volume   384.99043218
_cell_formula_units_Z   2
loop_
 _symmetry_equiv_pos_site_id
 _symmetry_equiv_pos_as_xyz
  1  'x, y, z'
loop_
 _atom_site_type_symbol
 _atom_site_label
 _atom_site_symmetry_multiplicity
 _atom_site_fract_x
 _atom_site_fract_y
 _atom_site_fract_z
 _atom_site_occupancy
  Tb  Tb0  1  0.833201  0.833201  0.003576  1
  Tb  Tb1  1  0.166799  0.166799  0.503576  1
  Ni  Ni2  1  0.997594  0.631706  0.562732  1
  Ni  Ni3  1  0.730688  0.342602  0.432175  1
  Ni  Ni4  1  0.342602  0.730688  0.432175  1
  Ni  Ni5  1  0.657398  0.269312  0.932175  1
  Ni  Ni6  1  0.002406  0.368294  0.062732  1
  Ni  Ni7  1  0.368294  0.002406  0.062732  1
  Ni  Ni8  1  0.631706  0.997594  0.562732  1
  Ni  Ni9  1  0.433207  0.433207  0.081545  1
  Ni  Ni10  1  0.212521  0.473993  0.723487  1
  Ni  Ni11  1  0.787479  0.526007  0.223487  1
  Ni  Ni12  1  0.526007  0.787479  0.223487  1
  Ni  Ni13  1  0.473993  0.212521  0.723487  1
  Ni  Ni14  1  0.566793  0.566793  0.581545  1
  Ni  Ni15  1  0.217616  0.217616  0.900821  1
  Ni  Ni16  1  0.145772  0.882324  0.744357  1
  Ni  Ni17  1  0.854228  0.117676  0.244357  1
  Ni  Ni18  1  0.117676  0.854228  0.244357  1
  Ni  Ni19  1  0.882324  0.145772  0.744357  1
  Ni  Ni20  1  0.544213  0.805575  0.766762  1
  Ni  Ni21  1  0.455787  0.194425  0.266762  1
  Ni  Ni22  1  0.194425  0.455787  0.266762  1
  Ni  Ni23  1  0.805575  0.544213  0.766762  1
  Ni  Ni24  1  0.782384  0.782384  0.400821  1
  Ni  Ni25  1  0.269312  0.657398  0.932175  1
  B  B26  1  0.400104  0.987522  0.877464  1
  B  B27  1  0.599896  0.012478  0.377464  1
  B  B28  1  0.012478  0.599896  0.377464  1
  B  B29  1  0.987522  0.400104  0.877464  1
  B  B30  1  0.327591  0.758606  0.615134  1
  B  B31  1  0.672409  0.241394  0.115134  1
  B  B32  1  0.241394  0.672409  0.115134  1
  B  B33  1  0.758606  0.327591  0.615134  1
  B  B34  1  0.512329  0.512329  0.344796  1
  B  B35  1  0.487671  0.487671  0.844796  1
  B  B36  1  0.163444  0.163444  0.162041  1
  B  B37  1  0.836556  0.836556  0.662041  1
