# generated using pymatgen
data_LiCrP2O7
_symmetry_space_group_name_H-M   'P 1'
_cell_length_a   4.86832772
_cell_length_b   8.18370561
_cell_length_c   7.00223681
_cell_angle_alpha   90.00000000
_cell_angle_beta   108.44877531
_cell_angle_gamma   90.00000000
_symmetry_Int_Tables_number   1
_chemical_formula_structural   LiCrP2O7
_chemical_formula_sum   'Li2 Cr2 P4 O14'
_cell_volume   264.63842579
_cell_formula_units_Z   2
loop_
 _symmetry_equiv_pos_site_id
 _symmetry_equiv_pos_as_xyz
  1  'x, y, z'
loop_
 _atom_site_type_symbol
 _atom_site_label
 _atom_site_symmetry_multiplicity
 _atom_site_fract_x
 _atom_site_fract_y
 _atom_site_fract_z
 _atom_site_occupancy
  Li  Li0  1  0.820938  0.885894  0.825388  1
  Li  Li1  1  0.179062  0.385894  0.174612  1
  Cr  Cr2  1  0.214949  0.748631  0.228806  1
  Cr  Cr3  1  0.785051  0.248631  0.771194  1
  P  P4  1  0.398563  0.068217  0.022304  1
  P  P5  1  0.601437  0.568217  0.977696  1
  P  P6  1  0.784523  0.965293  0.413480  1
  P  P7  1  0.215477  0.465293  0.586520  1
  O  O8  1  0.593347  0.098480  0.252955  1
  O  O9  1  0.406653  0.598480  0.747045  1
  O  O10  1  0.598248  0.068661  0.891867  1
  O  O11  1  0.401752  0.568661  0.108133  1
  O  O12  1  0.402108  0.315070  0.583385  1
  O  O13  1  0.597892  0.815070  0.416615  1
  O  O14  1  0.135440  0.555245  0.384386  1
  O  O15  1  0.864560  0.055245  0.615614  1
  O  O16  1  0.948572  0.425220  0.645576  1
  O  O17  1  0.051428  0.925220  0.354424  1
  O  O18  1  0.751500  0.401475  0.989640  1
  O  O19  1  0.248500  0.901475  0.010360  1
  O  O20  1  0.817327  0.710115  0.018880  1
  O  O21  1  0.182673  0.210115  0.981120  1
