# generated using pymatgen
data_UF3
_symmetry_space_group_name_H-M   'P 1'
_cell_length_a   7.20166062
_cell_length_b   7.20166062
_cell_length_c   7.39865503
_cell_angle_alpha   90.00000000
_cell_angle_beta   90.00000000
_cell_angle_gamma   120.00000000
_symmetry_Int_Tables_number   1
_chemical_formula_structural   UF3
_chemical_formula_sum   'U6 F18'
_cell_volume   332.31405686
_cell_formula_units_Z   6
loop_
 _symmetry_equiv_pos_site_id
 _symmetry_equiv_pos_as_xyz
  1  'x, y, z'
loop_
 _atom_site_type_symbol
 _atom_site_label
 _atom_site_symmetry_multiplicity
 _atom_site_fract_x
 _atom_site_fract_y
 _atom_site_fract_z
 _atom_site_occupancy
  U  U0  1  0.326397  0.000000  0.751543  1
  U  U1  1  0.326397  0.326397  0.251543  1
  U  U2  1  0.000000  0.673603  0.251543  1
  U  U3  1  0.000000  0.326397  0.751543  1
  U  U4  1  0.673603  0.673603  0.751543  1
  U  U5  1  0.673603  0.000000  0.251543  1
  F  F6  1  0.623202  0.000000  0.916846  1
  F  F7  1  0.623202  0.623202  0.416846  1
  F  F8  1  0.000000  0.376798  0.416846  1
  F  F9  1  0.000000  0.623202  0.916846  1
  F  F10  1  0.376798  0.376798  0.916846  1
  F  F11  1  0.376798  0.000000  0.416846  1
  F  F12  1  0.000000  0.000000  0.320369  1
  F  F13  1  0.000000  0.000000  0.820369  1
  F  F14  1  0.333333  0.666667  0.202850  1
  F  F15  1  0.666667  0.333333  0.702850  1
  F  F16  1  0.333333  0.666667  0.702850  1
  F  F17  1  0.666667  0.333333  0.202850  1
  F  F18  1  0.278842  0.000000  0.078288  1
  F  F19  1  0.278842  0.278842  0.578288  1
  F  F20  1  0.000000  0.721158  0.578288  1
  F  F21  1  0.000000  0.278842  0.078288  1
  F  F22  1  0.721158  0.721158  0.078288  1
  F  F23  1  0.721158  0.000000  0.578288  1
