# generated using pymatgen
data_BaCaB2O5
_symmetry_space_group_name_H-M   'P 1'
_cell_length_a   6.65599645
_cell_length_b   20.83190702
_cell_length_c   8.29179681
_cell_angle_alpha   90.00000000
_cell_angle_beta   116.96130163
_cell_angle_gamma   90.00000000
_symmetry_Int_Tables_number   1
_chemical_formula_structural   BaCaB2O5
_chemical_formula_sum   'Ba8 Ca8 B16 O40'
_cell_volume   1024.75720061
_cell_formula_units_Z   8
loop_
 _symmetry_equiv_pos_site_id
 _symmetry_equiv_pos_as_xyz
  1  'x, y, z'
loop_
 _atom_site_type_symbol
 _atom_site_label
 _atom_site_symmetry_multiplicity
 _atom_site_fract_x
 _atom_site_fract_y
 _atom_site_fract_z
 _atom_site_occupancy
  Ba  Ba0  1  0.521405  0.469067  0.761464  1
  Ba  Ba1  1  0.478595  0.969067  0.738536  1
  Ba  Ba2  1  0.478595  0.530933  0.238536  1
  Ba  Ba3  1  0.521405  0.030933  0.261464  1
  Ba  Ba4  1  0.992545  0.279328  0.732870  1
  Ba  Ba5  1  0.007455  0.779328  0.767130  1
  Ba  Ba6  1  0.007455  0.720672  0.267130  1
  Ba  Ba7  1  0.992545  0.220672  0.232870  1
  Ca  Ca8  1  0.010324  0.414844  0.267449  1
  Ca  Ca9  1  0.989676  0.914844  0.232551  1
  Ca  Ca10  1  0.989676  0.585156  0.732551  1
  Ca  Ca11  1  0.010324  0.085156  0.767449  1
  Ca  Ca12  1  0.503914  0.336073  0.251633  1
  Ca  Ca13  1  0.496086  0.836073  0.248367  1
  Ca  Ca14  1  0.496086  0.663927  0.748367  1
  Ca  Ca15  1  0.503914  0.163927  0.751633  1
  B  B16  1  0.135057  0.441625  0.924953  1
  B  B17  1  0.864943  0.941625  0.575047  1
  B  B18  1  0.864943  0.558375  0.075047  1
  B  B19  1  0.135057  0.058375  0.424953  1
  B  B20  1  0.347718  0.309207  0.584607  1
  B  B21  1  0.652282  0.809207  0.915393  1
  B  B22  1  0.652282  0.690793  0.415393  1
  B  B23  1  0.347718  0.190793  0.084607  1
  B  B24  1  0.629795  0.312417  0.917485  1
  B  B25  1  0.370205  0.812417  0.582515  1
  B  B26  1  0.370205  0.687583  0.082515  1
  B  B27  1  0.629795  0.187583  0.417485  1
  B  B28  1  0.854168  0.435084  0.592330  1
  B  B29  1  0.145832  0.935084  0.907670  1
  B  B30  1  0.145832  0.564916  0.407670  1
  B  B31  1  0.854168  0.064916  0.092330  1
  O  O32  1  0.218948  0.496962  0.889291  1
  O  O33  1  0.781052  0.996962  0.610709  1
  O  O34  1  0.781052  0.503038  0.110709  1
  O  O35  1  0.218948  0.003038  0.389291  1
  O  O36  1  0.718917  0.256212  0.893813  1
  O  O37  1  0.281083  0.756212  0.606187  1
  O  O38  1  0.281083  0.743788  0.106187  1
  O  O39  1  0.718917  0.243788  0.393813  1
  O  O40  1  0.273090  0.247786  0.577615  1
  O  O41  1  0.726910  0.747786  0.922385  1
  O  O42  1  0.726910  0.752214  0.422385  1
  O  O43  1  0.273090  0.252214  0.077615  1
  O  O44  1  0.771185  0.495831  0.569584  1
  O  O45  1  0.228815  0.995831  0.930416  1
  O  O46  1  0.228815  0.504169  0.430416  1
  O  O47  1  0.771185  0.004169  0.069584  1
  O  O48  1  0.217077  0.414686  0.093377  1
  O  O49  1  0.782923  0.914686  0.406623  1
  O  O50  1  0.782923  0.585314  0.906623  1
  O  O51  1  0.217077  0.085314  0.593377  1
  O  O52  1  0.953833  0.409357  0.776793  1
  O  O53  1  0.046167  0.909357  0.723207  1
  O  O54  1  0.046167  0.590643  0.223207  1
  O  O55  1  0.953833  0.090643  0.276793  1
  O  O56  1  0.707888  0.345411  0.077055  1
  O  O57  1  0.292112  0.845411  0.422945  1
  O  O58  1  0.292112  0.654589  0.922945  1
  O  O59  1  0.707888  0.154589  0.577055  1
  O  O60  1  0.835728  0.393241  0.459973  1
  O  O61  1  0.164272  0.893241  0.040027  1
  O  O62  1  0.164272  0.606759  0.540027  1
  O  O63  1  0.835728  0.106759  0.959973  1
  O  O64  1  0.445967  0.340518  0.760869  1
  O  O65  1  0.554033  0.840518  0.739131  1
  O  O66  1  0.554033  0.659482  0.239131  1
  O  O67  1  0.445967  0.159482  0.260869  1
  O  O68  1  0.319715  0.345404  0.439191  1
  O  O69  1  0.680285  0.845404  0.060809  1
  O  O70  1  0.680285  0.654596  0.560809  1
  O  O71  1  0.319715  0.154596  0.939191  1
