# generated using pymatgen
data_Mn2Te3O8
_symmetry_space_group_name_H-M   'P 1'
_cell_length_a   7.10789846
_cell_length_b   7.10789846
_cell_length_c   12.05514169
_cell_angle_alpha   82.79507168
_cell_angle_beta   97.20492832
_cell_angle_gamma   134.40898558
_symmetry_Int_Tables_number   1
_chemical_formula_structural   Mn2Te3O8
_chemical_formula_sum   'Mn4 Te6 O16'
_cell_volume   431.03945526
_cell_formula_units_Z   2
loop_
 _symmetry_equiv_pos_site_id
 _symmetry_equiv_pos_as_xyz
  1  'x, y, z'
loop_
 _atom_site_type_symbol
 _atom_site_label
 _atom_site_symmetry_multiplicity
 _atom_site_fract_x
 _atom_site_fract_y
 _atom_site_fract_z
 _atom_site_occupancy
  Mn  Mn0  1  0.965949  0.425550  0.148842  1
  Mn  Mn1  1  0.425550  0.965949  0.351158  1
  Mn  Mn2  1  0.034051  0.574450  0.851158  1
  Mn  Mn3  1  0.574450  0.034051  0.648842  1
  Te  Te4  1  0.045219  0.323450  0.442149  1
  Te  Te5  1  0.323450  0.045219  0.057851  1
  Te  Te6  1  0.954781  0.676550  0.557851  1
  Te  Te7  1  0.676550  0.954781  0.942149  1
  Te  Te8  1  0.864665  0.864665  0.250000  1
  Te  Te9  1  0.135335  0.135335  0.750000  1
  O  O10  1  0.162111  0.554623  0.312208  1
  O  O11  1  0.554623  0.162111  0.187792  1
  O  O12  1  0.837889  0.445377  0.687792  1
  O  O13  1  0.445377  0.837889  0.812208  1
  O  O14  1  0.751410  0.276562  0.471845  1
  O  O15  1  0.276562  0.751410  0.028155  1
  O  O16  1  0.248590  0.723438  0.528155  1
  O  O17  1  0.723438  0.248590  0.971845  1
  O  O18  1  0.002010  0.768339  0.142272  1
  O  O19  1  0.768339  0.002010  0.357728  1
  O  O20  1  0.848271  0.999809  0.645558  1
  O  O21  1  0.999809  0.848271  0.854442  1
  O  O22  1  0.151729  0.000191  0.354442  1
  O  O23  1  0.000191  0.151729  0.145558  1
  O  O24  1  0.231661  0.997990  0.642272  1
  O  O25  1  0.997990  0.231661  0.857728  1
