# generated using pymatgen
data_P2W
_symmetry_space_group_name_H-M   'P 1'
_cell_length_a   5.83943660
_cell_length_b   5.83943660
_cell_length_c   5.00739215
_cell_angle_alpha   90.00000000
_cell_angle_beta   90.00000000
_cell_angle_gamma   148.38555324
_symmetry_Int_Tables_number   1
_chemical_formula_structural   P2W
_chemical_formula_sum   'P4 W2'
_cell_volume   89.50577372
_cell_formula_units_Z   2
loop_
 _symmetry_equiv_pos_site_id
 _symmetry_equiv_pos_as_xyz
  1  'x, y, z'
loop_
 _atom_site_type_symbol
 _atom_site_label
 _atom_site_symmetry_multiplicity
 _atom_site_fract_x
 _atom_site_fract_y
 _atom_site_fract_z
 _atom_site_occupancy
  P  P0  1  0.569645  0.430355  0.383318  1
  P  P1  1  0.430355  0.569645  0.883318  1
  P  P2  1  0.298227  0.701773  0.199418  1
  P  P3  1  0.701773  0.298227  0.699418  1
  W  W4  1  0.906261  0.093739  0.500264  1
  W  W5  1  0.093739  0.906261  0.000264  1
