# generated using pymatgen
data_Zr5Al3
_symmetry_space_group_name_H-M   'P 1'
_cell_length_a   8.29995183
_cell_length_b   8.29995183
_cell_length_c   8.29995183
_cell_angle_alpha   96.06714539
_cell_angle_beta   96.06714539
_cell_angle_gamma   142.05601172
_symmetry_Int_Tables_number   1
_chemical_formula_structural   Zr5Al3
_chemical_formula_sum   'Zr10 Al6'
_cell_volume   332.48176762
_cell_formula_units_Z   2
loop_
 _symmetry_equiv_pos_site_id
 _symmetry_equiv_pos_as_xyz
  1  'x, y, z'
loop_
 _atom_site_type_symbol
 _atom_site_label
 _atom_site_symmetry_multiplicity
 _atom_site_fract_x
 _atom_site_fract_y
 _atom_site_fract_z
 _atom_site_occupancy
  Zr  Zr0  1  0.750000  0.250000  0.500000  1
  Zr  Zr1  1  0.250000  0.750000  0.500000  1
  Zr  Zr2  1  0.780650  0.078762  0.859413  1
  Zr  Zr3  1  0.921238  0.780650  0.701888  1
  Zr  Zr4  1  0.078762  0.219349  0.298112  1
  Zr  Zr5  1  0.219349  0.921238  0.140587  1
  Zr  Zr6  1  0.578762  0.280650  0.859413  1
  Zr  Zr7  1  0.421238  0.719349  0.140587  1
  Zr  Zr8  1  0.280650  0.421238  0.701888  1
  Zr  Zr9  1  0.719349  0.578762  0.298112  1
  Al  Al10  1  0.250000  0.250000  0.000000  1
  Al  Al11  1  0.750000  0.750000  0.000000  1
  Al  Al12  1  0.336669  0.163331  0.500000  1
  Al  Al13  1  0.836669  0.336669  0.173338  1
  Al  Al14  1  0.163331  0.663331  0.826662  1
  Al  Al15  1  0.663331  0.836669  0.500000  1
