# generated using pymatgen
data_Ba2V(SiO4)2
_symmetry_space_group_name_H-M   'P 1'
_cell_length_a   8.60498400
_cell_length_b   8.60498400
_cell_length_c   5.33279300
_cell_angle_alpha   90.00000000
_cell_angle_beta   90.00000000
_cell_angle_gamma   90.00000000
_symmetry_Int_Tables_number   1
_chemical_formula_structural   Ba2V(SiO4)2
_chemical_formula_sum   'Ba4 V2 Si4 O16'
_cell_volume   394.87065536
_cell_formula_units_Z   2
loop_
 _symmetry_equiv_pos_site_id
 _symmetry_equiv_pos_as_xyz
  1  'x, y, z'
loop_
 _atom_site_type_symbol
 _atom_site_label
 _atom_site_symmetry_multiplicity
 _atom_site_fract_x
 _atom_site_fract_y
 _atom_site_fract_z
 _atom_site_occupancy
  Ba  Ba0  1  0.171665  0.671665  0.995654  1
  Ba  Ba1  1  0.671665  0.828335  0.995654  1
  Ba  Ba2  1  0.328335  0.171665  0.995654  1
  Ba  Ba3  1  0.828335  0.328335  0.995654  1
  V  V4  1  0.500000  0.500000  0.538654  1
  V  V5  1  0.000000  0.000000  0.538654  1
  Si  Si6  1  0.370527  0.870527  0.519561  1
  Si  Si7  1  0.870527  0.629473  0.519561  1
  Si  Si8  1  0.129473  0.370527  0.519561  1
  Si  Si9  1  0.629473  0.129473  0.519561  1
  O  O10  1  0.500000  0.500000  0.225592  1
  O  O11  1  0.000000  0.000000  0.225592  1
  O  O12  1  0.793574  0.077399  0.652851  1
  O  O13  1  0.206426  0.922601  0.652851  1
  O  O14  1  0.922601  0.793574  0.652851  1
  O  O15  1  0.077399  0.206426  0.652851  1
  O  O16  1  0.422601  0.706426  0.652851  1
  O  O17  1  0.706426  0.577399  0.652851  1
  O  O18  1  0.293574  0.422601  0.652851  1
  O  O19  1  0.577399  0.293574  0.652851  1
  O  O20  1  0.500000  0.000000  0.631208  1
  O  O21  1  0.000000  0.500000  0.631208  1
  O  O22  1  0.629185  0.129185  0.217706  1
  O  O23  1  0.129185  0.370815  0.217706  1
  O  O24  1  0.870815  0.629185  0.217706  1
  O  O25  1  0.370815  0.870815  0.217706  1
