# generated using pymatgen
data_CaZn11
_symmetry_space_group_name_H-M   'P 1'
_cell_length_a   8.30506358
_cell_length_b   8.30506358
_cell_length_c   8.30506358
_cell_angle_alpha   99.75886028
_cell_angle_beta   99.75886028
_cell_angle_gamma   131.37589158
_symmetry_Int_Tables_number   1
_chemical_formula_structural   CaZn11
_chemical_formula_sum   'Ca2 Zn22'
_cell_volume   391.72818102
_cell_formula_units_Z   2
loop_
 _symmetry_equiv_pos_site_id
 _symmetry_equiv_pos_as_xyz
  1  'x, y, z'
loop_
 _atom_site_type_symbol
 _atom_site_label
 _atom_site_symmetry_multiplicity
 _atom_site_fract_x
 _atom_site_fract_y
 _atom_site_fract_z
 _atom_site_occupancy
  Ca  Ca0  1  0.750000  0.250000  0.500000  1
  Ca  Ca1  1  0.500000  0.500000  0.000000  1
  Zn  Zn2  1  0.568335  0.152328  0.826799  1
  Zn  Zn3  1  0.991536  0.318335  0.916007  1
  Zn  Zn4  1  0.402328  0.075529  0.083993  1
  Zn  Zn5  1  0.325529  0.741536  0.173201  1
  Zn  Zn6  1  0.258464  0.674471  0.826799  1
  Zn  Zn7  1  0.847672  0.431665  0.173201  1
  Zn  Zn8  1  0.924471  0.597672  0.916007  1
  Zn  Zn9  1  0.681665  0.008465  0.083993  1
  Zn  Zn10  1  0.681665  0.597672  0.673201  1
  Zn  Zn11  1  0.258464  0.431665  0.583993  1
  Zn  Zn12  1  0.847672  0.674471  0.416007  1
  Zn  Zn13  1  0.924471  0.008465  0.326799  1
  Zn  Zn14  1  0.991535  0.075529  0.673201  1
  Zn  Zn15  1  0.402328  0.318335  0.326799  1
  Zn  Zn16  1  0.325529  0.152328  0.583993  1
  Zn  Zn17  1  0.568335  0.741536  0.416007  1
  Zn  Zn18  1  0.625000  0.875000  0.750000  1
  Zn  Zn19  1  0.125000  0.375000  0.250000  1
  Zn  Zn20  1  0.125000  0.875000  0.750000  1
  Zn  Zn21  1  0.125000  0.875000  0.250000  1
  Zn  Zn22  1  0.000000  0.000000  0.000000  1
  Zn  Zn23  1  0.250000  0.750000  0.500000  1
