# generated using pymatgen
data_NaMg4(AsO4)3
_symmetry_space_group_name_H-M   'P 1'
_cell_length_a   10.90760918
_cell_length_b   10.90760918
_cell_length_c   10.90760918
_cell_angle_alpha   143.08880635
_cell_angle_beta   143.08880635
_cell_angle_gamma   53.19205102
_symmetry_Int_Tables_number   1
_chemical_formula_structural   NaMg4(AsO4)3
_chemical_formula_sum   'Na2 Mg8 As6 O24'
_cell_volume   465.17322901
_cell_formula_units_Z   2
loop_
 _symmetry_equiv_pos_site_id
 _symmetry_equiv_pos_as_xyz
  1  'x, y, z'
loop_
 _atom_site_type_symbol
 _atom_site_label
 _atom_site_symmetry_multiplicity
 _atom_site_fract_x
 _atom_site_fract_y
 _atom_site_fract_z
 _atom_site_occupancy
  Na  Na0  1  0.250000  0.750000  0.500000  1
  Na  Na1  1  0.500000  0.500000  0.000000  1
  Mg  Mg2  1  0.375000  0.881910  0.006910  1
  Mg  Mg3  1  0.118090  0.125000  0.493090  1
  Mg  Mg4  1  0.631910  0.625000  0.506910  1
  Mg  Mg5  1  0.875000  0.368090  0.993090  1
  Mg  Mg6  1  0.770033  0.770033  0.000000  1
  Mg  Mg7  1  0.229967  0.229967  0.000000  1
  Mg  Mg8  1  0.979967  0.479967  0.500000  1
  Mg  Mg9  1  0.520033  0.020033  0.500000  1
  As  As10  1  0.375000  0.468838  0.593838  1
  As  As11  1  0.531162  0.125000  0.906162  1
  As  As12  1  0.218838  0.625000  0.093838  1
  As  As13  1  0.875000  0.781162  0.406162  1
  As  As14  1  0.750000  0.250000  0.500000  1
  As  As15  1  0.000000  0.000000  0.000000  1
  O  O16  1  0.734631  0.501749  0.648366  1
  O  O17  1  0.853383  0.086264  0.351634  1
  O  O18  1  0.251749  0.984631  0.148366  1
  O  O19  1  0.913736  0.265369  0.767118  1
  O  O20  1  0.498251  0.146617  0.232882  1
  O  O21  1  0.015369  0.163736  0.267118  1
  O  O22  1  0.896617  0.748251  0.732882  1
  O  O23  1  0.836264  0.103383  0.851634  1
  O  O24  1  0.071195  0.803173  0.177402  1
  O  O25  1  0.625772  0.893793  0.822598  1
  O  O26  1  0.553173  0.321195  0.677402  1
  O  O27  1  0.106207  0.928805  0.731979  1
  O  O28  1  0.196827  0.374228  0.268021  1
  O  O29  1  0.678805  0.356207  0.231979  1
  O  O30  1  0.124228  0.446827  0.768021  1
  O  O31  1  0.643793  0.875772  0.322598  1
  O  O32  1  0.856336  0.551466  0.288531  1
  O  O33  1  0.448534  0.737065  0.304870  1
  O  O34  1  0.432195  0.143664  0.695130  1
  O  O35  1  0.487065  0.698534  0.804870  1
  O  O36  1  0.893664  0.682195  0.195130  1
  O  O37  1  0.262935  0.567805  0.711469  1
  O  O38  1  0.301466  0.106336  0.788531  1
  O  O39  1  0.317805  0.512935  0.211469  1
