# generated using pymatgen
data_NbTe2
_symmetry_space_group_name_H-M   'P 1'
_cell_length_a   7.69828397
_cell_length_b   7.69828397
_cell_length_c   9.54795835
_cell_angle_alpha   69.49729818
_cell_angle_beta   110.50270182
_cell_angle_gamma   152.40907578
_symmetry_Int_Tables_number   1
_chemical_formula_structural   NbTe2
_chemical_formula_sum   'Nb3 Te6'
_cell_volume   244.43699176
_cell_formula_units_Z   3
loop_
 _symmetry_equiv_pos_site_id
 _symmetry_equiv_pos_as_xyz
  1  'x, y, z'
loop_
 _atom_site_type_symbol
 _atom_site_label
 _atom_site_symmetry_multiplicity
 _atom_site_fract_x
 _atom_site_fract_y
 _atom_site_fract_z
 _atom_site_occupancy
  Nb  Nb0  1  0.000000  0.000000  0.000000  1
  Nb  Nb1  1  0.362282  0.637718  0.711978  1
  Nb  Nb2  1  0.637718  0.362282  0.288022  1
  Te  Te3  1  0.351974  0.648026  0.989018  1
  Te  Te4  1  0.648026  0.351974  0.010982  1
  Te  Te5  1  0.704388  0.295612  0.617706  1
  Te  Te6  1  0.295612  0.704388  0.382294  1
  Te  Te7  1  0.005155  0.994845  0.308188  1
  Te  Te8  1  0.994845  0.005155  0.691812  1
