# generated using pymatgen
data_Tb2Si5Rh3
_symmetry_space_group_name_H-M   'P 1'
_cell_length_a   8.12734802
_cell_length_b   8.12734802
_cell_length_c   5.71636696
_cell_angle_alpha   71.03028208
_cell_angle_beta   108.96971792
_cell_angle_gamma   86.53278873
_symmetry_Int_Tables_number   1
_chemical_formula_structural   Tb2Si5Rh3
_chemical_formula_sum   'Tb4 Si10 Rh6'
_cell_volume   331.80964446
_cell_formula_units_Z   2
loop_
 _symmetry_equiv_pos_site_id
 _symmetry_equiv_pos_as_xyz
  1  'x, y, z'
loop_
 _atom_site_type_symbol
 _atom_site_label
 _atom_site_symmetry_multiplicity
 _atom_site_fract_x
 _atom_site_fract_y
 _atom_site_fract_z
 _atom_site_occupancy
  Tb  Tb0  1  0.867248  0.400928  0.239753  1
  Tb  Tb1  1  0.400928  0.867248  0.260247  1
  Tb  Tb2  1  0.132752  0.599072  0.760247  1
  Tb  Tb3  1  0.599072  0.132752  0.739753  1
  Si  Si4  1  0.057967  0.733755  0.161401  1
  Si  Si5  1  0.733755  0.057967  0.338599  1
  Si  Si6  1  0.942033  0.266245  0.838599  1
  Si  Si7  1  0.266245  0.942033  0.661401  1
  Si  Si8  1  0.512426  0.512426  0.250000  1
  Si  Si9  1  0.487574  0.487574  0.750000  1
  Si  Si10  1  0.776002  0.776002  0.250000  1
  Si  Si11  1  0.789586  0.789586  0.750000  1
  Si  Si12  1  0.210414  0.210414  0.250000  1
  Si  Si13  1  0.223998  0.223998  0.750000  1
  Rh  Rh14  1  0.997998  0.997998  0.750000  1
  Rh  Rh15  1  0.460420  0.260985  0.126335  1
  Rh  Rh16  1  0.739015  0.539580  0.626335  1
  Rh  Rh17  1  0.539580  0.739015  0.873665  1
  Rh  Rh18  1  0.002002  0.002002  0.250000  1
  Rh  Rh19  1  0.260985  0.460420  0.373665  1
