# generated using pymatgen
data_B12W
_symmetry_space_group_name_H-M   'P 1'
_cell_length_a   5.18761318
_cell_length_b   5.18761318
_cell_length_c   5.18761318
_cell_angle_alpha   60.00000000
_cell_angle_beta   60.00000000
_cell_angle_gamma   60.00000000
_symmetry_Int_Tables_number   1
_chemical_formula_structural   B12W
_chemical_formula_sum   'B12 W1'
_cell_volume   98.71604719
_cell_formula_units_Z   1
loop_
 _symmetry_equiv_pos_site_id
 _symmetry_equiv_pos_as_xyz
  1  'x, y, z'
loop_
 _atom_site_type_symbol
 _atom_site_label
 _atom_site_symmetry_multiplicity
 _atom_site_fract_x
 _atom_site_fract_y
 _atom_site_fract_z
 _atom_site_occupancy
  B  B0  1  0.500000  0.840587  0.159413  1
  B  B1  1  0.500000  0.840587  0.500000  1
  B  B2  1  0.840587  0.500000  0.159413  1
  B  B3  1  0.159413  0.500000  0.500000  1
  B  B4  1  0.840587  0.500000  0.500000  1
  B  B5  1  0.159413  0.840587  0.500000  1
  B  B6  1  0.500000  0.500000  0.159413  1
  B  B7  1  0.159413  0.500000  0.840587  1
  B  B8  1  0.840587  0.159413  0.500000  1
  B  B9  1  0.500000  0.500000  0.840587  1
  B  B10  1  0.500000  0.159413  0.500000  1
  B  B11  1  0.500000  0.159413  0.840587  1
  W  W12  1  0.000000  0.000000  0.000000  1
