# generated using pymatgen
data_TaMn2
_symmetry_space_group_name_H-M   'P 1'
_cell_length_a   4.80771592
_cell_length_b   4.80771592
_cell_length_c   7.90994546
_cell_angle_alpha   90.00000000
_cell_angle_beta   90.00000000
_cell_angle_gamma   120.00000000
_symmetry_Int_Tables_number   1
_chemical_formula_structural   TaMn2
_chemical_formula_sum   'Ta4 Mn8'
_cell_volume   158.33674643
_cell_formula_units_Z   4
loop_
 _symmetry_equiv_pos_site_id
 _symmetry_equiv_pos_as_xyz
  1  'x, y, z'
loop_
 _atom_site_type_symbol
 _atom_site_label
 _atom_site_symmetry_multiplicity
 _atom_site_fract_x
 _atom_site_fract_y
 _atom_site_fract_z
 _atom_site_occupancy
  Ta  Ta0  1  0.333333  0.666667  0.063394  1
  Ta  Ta1  1  0.666667  0.333333  0.563394  1
  Ta  Ta2  1  0.666667  0.333333  0.936606  1
  Ta  Ta3  1  0.333333  0.666667  0.436606  1
  Mn  Mn4  1  0.000000  0.000000  0.000000  1
  Mn  Mn5  1  0.000000  0.000000  0.500000  1
  Mn  Mn6  1  0.828145  0.656289  0.250000  1
  Mn  Mn7  1  0.171855  0.828145  0.750000  1
  Mn  Mn8  1  0.656289  0.828145  0.750000  1
  Mn  Mn9  1  0.343711  0.171855  0.250000  1
  Mn  Mn10  1  0.828145  0.171855  0.250000  1
  Mn  Mn11  1  0.171855  0.343711  0.750000  1
