# generated using pymatgen
data_CsNa3TiO4
_symmetry_space_group_name_H-M   'P 1'
_cell_length_a   6.61475036
_cell_length_b   8.63947577
_cell_length_c   11.43176928
_cell_angle_alpha   82.67514693
_cell_angle_beta   76.15017858
_cell_angle_gamma   79.67761621
_symmetry_Int_Tables_number   1
_chemical_formula_structural   CsNa3TiO4
_chemical_formula_sum   'Cs4 Na12 Ti4 O16'
_cell_volume   621.59003982
_cell_formula_units_Z   4
loop_
 _symmetry_equiv_pos_site_id
 _symmetry_equiv_pos_as_xyz
  1  'x, y, z'
loop_
 _atom_site_type_symbol
 _atom_site_label
 _atom_site_symmetry_multiplicity
 _atom_site_fract_x
 _atom_site_fract_y
 _atom_site_fract_z
 _atom_site_occupancy
  Cs  Cs0  1  0.041240  0.135101  0.626058  1
  Cs  Cs1  1  0.958760  0.864899  0.373942  1
  Cs  Cs2  1  0.032891  0.379857  0.873657  1
  Cs  Cs3  1  0.967109  0.620143  0.126343  1
  Na  Na4  1  0.203671  0.166274  0.145087  1
  Na  Na5  1  0.796329  0.833726  0.854913  1
  Na  Na6  1  0.504879  0.665840  0.392627  1
  Na  Na7  1  0.495121  0.334160  0.607373  1
  Na  Na8  1  0.182510  0.446394  0.396234  1
  Na  Na9  1  0.539325  0.429674  0.125391  1
  Na  Na10  1  0.204719  0.942515  0.895884  1
  Na  Na11  1  0.795281  0.057485  0.104116  1
  Na  Na12  1  0.570677  0.956172  0.625173  1
  Na  Na13  1  0.429323  0.043828  0.374827  1
  Na  Na14  1  0.460675  0.570326  0.874609  1
  Na  Na15  1  0.817490  0.553606  0.603766  1
  Ti  Ti16  1  0.165434  0.715087  0.645294  1
  Ti  Ti17  1  0.834566  0.284913  0.354706  1
  Ti  Ti18  1  0.580170  0.212828  0.862345  1
  Ti  Ti19  1  0.419830  0.787172  0.137655  1
  O  O20  1  0.347081  0.838145  0.541870  1
  O  O21  1  0.652919  0.161855  0.458130  1
  O  O22  1  0.429447  0.114412  0.784932  1
  O  O23  1  0.570553  0.885588  0.215068  1
  O  O24  1  0.181737  0.713757  0.804311  1
  O  O25  1  0.818263  0.286243  0.195689  1
  O  O26  1  0.817208  0.083607  0.897285  1
  O  O27  1  0.182792  0.916393  0.102715  1
  O  O28  1  0.669358  0.377284  0.753054  1
  O  O29  1  0.330642  0.622716  0.246946  1
  O  O30  1  0.586787  0.690230  0.004856  1
  O  O31  1  0.413213  0.309770  0.995144  1
  O  O32  1  0.887553  0.798280  0.645221  1
  O  O33  1  0.798058  0.482145  0.412115  1
  O  O34  1  0.112447  0.201720  0.354779  1
  O  O35  1  0.201942  0.517855  0.587885  1
