# generated using pymatgen
data_B3Ru2
_symmetry_space_group_name_H-M   'P 1'
_cell_length_a   2.92546790
_cell_length_b   2.92546790
_cell_length_c   12.83638126
_cell_angle_alpha   90.00000000
_cell_angle_beta   90.00000000
_cell_angle_gamma   120.00000000
_symmetry_Int_Tables_number   1
_chemical_formula_structural   B3Ru2
_chemical_formula_sum   'B6 Ru4'
_cell_volume   95.14016798
_cell_formula_units_Z   2
loop_
 _symmetry_equiv_pos_site_id
 _symmetry_equiv_pos_as_xyz
  1  'x, y, z'
loop_
 _atom_site_type_symbol
 _atom_site_label
 _atom_site_symmetry_multiplicity
 _atom_site_fract_x
 _atom_site_fract_y
 _atom_site_fract_z
 _atom_site_occupancy
  B  B0  1  0.666667  0.333333  0.250000  1
  B  B1  1  0.333333  0.666667  0.750000  1
  B  B2  1  0.333333  0.666667  0.530554  1
  B  B3  1  0.666667  0.333333  0.030554  1
  B  B4  1  0.333333  0.666667  0.969446  1
  B  B5  1  0.666667  0.333333  0.469446  1
  Ru  Ru6  1  0.333333  0.666667  0.360109  1
  Ru  Ru7  1  0.666667  0.333333  0.860109  1
  Ru  Ru8  1  0.666667  0.333333  0.639891  1
  Ru  Ru9  1  0.333333  0.666667  0.139891  1
