# generated using pymatgen
data_Dy2Al6Si4Pt
_symmetry_space_group_name_H-M   'P 1'
_cell_length_a   17.04877720
_cell_length_b   17.04877720
_cell_length_c   17.04877720
_cell_angle_alpha   14.05028540
_cell_angle_beta   14.05028540
_cell_angle_gamma   14.05028540
_symmetry_Int_Tables_number   1
_chemical_formula_structural   Dy2Al6Si4Pt
_chemical_formula_sum   'Dy2 Al6 Si4 Pt1'
_cell_volume   254.20449709
_cell_formula_units_Z   1
loop_
 _symmetry_equiv_pos_site_id
 _symmetry_equiv_pos_as_xyz
  1  'x, y, z'
loop_
 _atom_site_type_symbol
 _atom_site_label
 _atom_site_symmetry_multiplicity
 _atom_site_fract_x
 _atom_site_fract_y
 _atom_site_fract_z
 _atom_site_occupancy
  Dy  Dy0  1  0.434157  0.434157  0.434157  1
  Dy  Dy1  1  0.565843  0.565843  0.565843  1
  Al  Al2  1  0.050441  0.050441  0.050441  1
  Al  Al3  1  0.949559  0.949559  0.949559  1
  Al  Al4  1  0.682527  0.682527  0.682527  1
  Al  Al5  1  0.185204  0.185204  0.185204  1
  Al  Al6  1  0.814796  0.814796  0.814796  1
  Al  Al7  1  0.317473  0.317473  0.317473  1
  Si  Si8  1  0.734325  0.734325  0.734325  1
  Si  Si9  1  0.864955  0.864955  0.864955  1
  Si  Si10  1  0.135045  0.135045  0.135045  1
  Si  Si11  1  0.265675  0.265675  0.265675  1
  Pt  Pt12  1  0.000000  0.000000  0.000000  1
