# generated using pymatgen
data_URe2
_symmetry_space_group_name_H-M   'P 1'
_cell_length_a   5.50723312
_cell_length_b   5.50723312
_cell_length_c   8.26491897
_cell_angle_alpha   90.00000000
_cell_angle_beta   90.00000000
_cell_angle_gamma   120.00000000
_symmetry_Int_Tables_number   1
_chemical_formula_structural   URe2
_chemical_formula_sum   'U4 Re8'
_cell_volume   217.08816724
_cell_formula_units_Z   4
loop_
 _symmetry_equiv_pos_site_id
 _symmetry_equiv_pos_as_xyz
  1  'x, y, z'
loop_
 _atom_site_type_symbol
 _atom_site_label
 _atom_site_symmetry_multiplicity
 _atom_site_fract_x
 _atom_site_fract_y
 _atom_site_fract_z
 _atom_site_occupancy
  U  U0  1  0.666667  0.333333  0.589263  1
  U  U1  1  0.333333  0.666667  0.410737  1
  U  U2  1  0.333333  0.666667  0.089263  1
  U  U3  1  0.666667  0.333333  0.910737  1
  Re  Re4  1  0.000000  0.000000  0.500000  1
  Re  Re5  1  0.000000  0.000000  0.000000  1
  Re  Re6  1  0.171369  0.342738  0.750000  1
  Re  Re7  1  0.171369  0.828631  0.750000  1
  Re  Re8  1  0.657262  0.828631  0.750000  1
  Re  Re9  1  0.828631  0.657262  0.250000  1
  Re  Re10  1  0.828631  0.171369  0.250000  1
  Re  Re11  1  0.342738  0.171369  0.250000  1
