# generated using pymatgen
data_Ba2Nb6Te2O21
_symmetry_space_group_name_H-M   'P 1'
_cell_length_a   8.96369586
_cell_length_b   8.96369586
_cell_length_c   9.83049072
_cell_angle_alpha   83.52663462
_cell_angle_beta   96.47336538
_cell_angle_gamma   142.36069472
_symmetry_Int_Tables_number   1
_chemical_formula_structural   Ba2Nb6Te2O21
_chemical_formula_sum   'Ba2 Nb6 Te2 O21'
_cell_volume   478.92385292
_cell_formula_units_Z   1
loop_
 _symmetry_equiv_pos_site_id
 _symmetry_equiv_pos_as_xyz
  1  'x, y, z'
loop_
 _atom_site_type_symbol
 _atom_site_label
 _atom_site_symmetry_multiplicity
 _atom_site_fract_x
 _atom_site_fract_y
 _atom_site_fract_z
 _atom_site_occupancy
  Ba  Ba0  1  0.140381  0.859619  0.528712  1
  Ba  Ba1  1  0.859619  0.140381  0.471288  1
  Nb  Nb2  1  0.323430  0.676570  0.831966  1
  Nb  Nb3  1  0.676570  0.323430  0.168034  1
  Nb  Nb4  1  0.518863  0.481137  0.662405  1
  Nb  Nb5  1  0.481137  0.518863  0.337595  1
  Nb  Nb6  1  0.902279  0.097721  0.085996  1
  Nb  Nb7  1  0.097721  0.902279  0.914004  1
  Te  Te8  1  0.273830  0.726170  0.249310  1
  Te  Te9  1  0.726170  0.273830  0.750690  1
  O  O10  1  0.418445  0.581555  0.721460  1
  O  O11  1  0.581555  0.418445  0.278540  1
  O  O12  1  0.209198  0.790802  0.849385  1
  O  O13  1  0.790802  0.209198  0.150615  1
  O  O14  1  0.000000  0.000000  0.000000  1
  O  O15  1  0.175743  0.305836  0.220759  1
  O  O16  1  0.305836  0.175743  0.779241  1
  O  O17  1  0.824257  0.694164  0.779241  1
  O  O18  1  0.694164  0.824257  0.220759  1
  O  O19  1  0.895899  0.605727  0.052978  1
  O  O20  1  0.277761  0.277761  0.500000  1
  O  O21  1  0.722239  0.722239  0.500000  1
  O  O22  1  0.642121  0.357879  0.604247  1
  O  O23  1  0.357879  0.642121  0.395753  1
  O  O24  1  0.541630  0.977580  0.668743  1
  O  O25  1  0.977580  0.541630  0.331257  1
  O  O26  1  0.458370  0.022420  0.331257  1
  O  O27  1  0.022420  0.458370  0.668743  1
  O  O28  1  0.394273  0.104101  0.052978  1
  O  O29  1  0.104101  0.394273  0.947022  1
  O  O30  1  0.605727  0.895899  0.947022  1
