# generated using pymatgen
data_Mn5Si3
_symmetry_space_group_name_H-M   'P 1'
_cell_length_a   6.89455399
_cell_length_b   6.89455399
_cell_length_c   4.78896115
_cell_angle_alpha   90.00000000
_cell_angle_beta   90.00000000
_cell_angle_gamma   120.00000000
_symmetry_Int_Tables_number   1
_chemical_formula_structural   Mn5Si3
_chemical_formula_sum   'Mn10 Si6'
_cell_volume   197.14433357
_cell_formula_units_Z   2
loop_
 _symmetry_equiv_pos_site_id
 _symmetry_equiv_pos_as_xyz
  1  'x, y, z'
loop_
 _atom_site_type_symbol
 _atom_site_label
 _atom_site_symmetry_multiplicity
 _atom_site_fract_x
 _atom_site_fract_y
 _atom_site_fract_z
 _atom_site_occupancy
  Mn  Mn0  1  0.000000  0.755103  0.750000  1
  Mn  Mn1  1  0.000000  0.244897  0.250000  1
  Mn  Mn2  1  0.755103  0.755103  0.250000  1
  Mn  Mn3  1  0.755103  0.000000  0.750000  1
  Mn  Mn4  1  0.244897  0.244897  0.750000  1
  Mn  Mn5  1  0.244897  0.000000  0.250000  1
  Mn  Mn6  1  0.333333  0.666667  0.500000  1
  Mn  Mn7  1  0.666667  0.333333  0.000000  1
  Mn  Mn8  1  0.666667  0.333333  0.500000  1
  Mn  Mn9  1  0.333333  0.666667  0.000000  1
  Si  Si10  1  0.397703  0.000000  0.750000  1
  Si  Si11  1  0.397703  0.397703  0.250000  1
  Si  Si12  1  0.000000  0.602297  0.250000  1
  Si  Si13  1  0.000000  0.397703  0.750000  1
  Si  Si14  1  0.602297  0.602297  0.750000  1
  Si  Si15  1  0.602297  0.000000  0.250000  1
