# generated using pymatgen
data_Ca2NiWO6
_symmetry_space_group_name_H-M   'P 1'
_cell_length_a   5.43530014
_cell_length_b   5.63865154
_cell_length_c   9.43161116
_cell_angle_alpha   90.00000000
_cell_angle_beta   124.60682974
_cell_angle_gamma   90.00000000
_symmetry_Int_Tables_number   1
_chemical_formula_structural   Ca2NiWO6
_chemical_formula_sum   'Ca4 Ni2 W2 O12'
_cell_volume   237.91441061
_cell_formula_units_Z   2
loop_
 _symmetry_equiv_pos_site_id
 _symmetry_equiv_pos_as_xyz
  1  'x, y, z'
loop_
 _atom_site_type_symbol
 _atom_site_label
 _atom_site_symmetry_multiplicity
 _atom_site_fract_x
 _atom_site_fract_y
 _atom_site_fract_z
 _atom_site_occupancy
  Ca  Ca0  1  0.268588  0.056598  0.253470  1
  Ca  Ca1  1  0.731412  0.556598  0.246530  1
  Ca  Ca2  1  0.731412  0.943402  0.746530  1
  Ca  Ca3  1  0.268588  0.443402  0.753470  1
  Ni  Ni4  1  0.500000  0.000000  0.000000  1
  Ni  Ni5  1  0.500000  0.500000  0.500000  1
  W  W6  1  0.000000  0.000000  0.500000  1
  W  W7  1  0.000000  0.500000  0.000000  1
  O  O8  1  0.755718  0.284389  0.446203  1
  O  O9  1  0.244282  0.784389  0.053797  1
  O  O10  1  0.244282  0.715611  0.553797  1
  O  O11  1  0.755718  0.215611  0.946203  1
  O  O12  1  0.334613  0.194465  0.544791  1
  O  O13  1  0.665387  0.694465  0.955209  1
  O  O14  1  0.665387  0.805535  0.455209  1
  O  O15  1  0.334613  0.305535  0.044791  1
  O  O16  1  0.145823  0.467689  0.241702  1
  O  O17  1  0.854177  0.967689  0.258298  1
  O  O18  1  0.145823  0.032311  0.741702  1
  O  O19  1  0.854177  0.532311  0.758298  1
