# generated using pymatgen
data_KAsSe2
_symmetry_space_group_name_H-M   'P 1'
_cell_length_a   6.87739155
_cell_length_b   6.87739155
_cell_length_c   12.88727140
_cell_angle_alpha   80.15508682
_cell_angle_beta   99.84491318
_cell_angle_gamma   70.49642888
_symmetry_Int_Tables_number   1
_chemical_formula_structural   KAsSe2
_chemical_formula_sum   'K4 As4 Se8'
_cell_volume   548.77781324
_cell_formula_units_Z   4
loop_
 _symmetry_equiv_pos_site_id
 _symmetry_equiv_pos_as_xyz
  1  'x, y, z'
loop_
 _atom_site_type_symbol
 _atom_site_label
 _atom_site_symmetry_multiplicity
 _atom_site_fract_x
 _atom_site_fract_y
 _atom_site_fract_z
 _atom_site_occupancy
  K  K0  1  0.789800  0.659089  0.744496  1
  K  K1  1  0.126067  0.866927  0.504987  1
  K  K2  1  0.340911  0.210200  0.244496  1
  K  K3  1  0.133073  0.873933  0.004987  1
  As  As4  1  0.407925  0.304951  0.823378  1
  As  As5  1  0.541861  0.303887  0.555598  1
  As  As6  1  0.695049  0.592075  0.323378  1
  As  As7  1  0.696113  0.458139  0.055598  1
  Se  Se8  1  0.311133  0.675327  0.791257  1
  Se  Se9  1  0.612806  0.151973  0.016091  1
  Se  Se10  1  0.582527  0.986952  0.502349  1
  Se  Se11  1  0.731262  0.180984  0.752008  1
  Se  Se12  1  0.324673  0.688867  0.291257  1
  Se  Se13  1  0.848027  0.387194  0.516091  1
  Se  Se14  1  0.013048  0.417473  0.002349  1
  Se  Se15  1  0.819016  0.268738  0.252008  1
