# generated using pymatgen
data_Ba(ErTe2)2
_symmetry_space_group_name_H-M   'P 1'
_cell_length_a   4.46315971
_cell_length_b   13.77075614
_cell_length_c   16.22346901
_cell_angle_alpha   90.00000000
_cell_angle_beta   90.00000000
_cell_angle_gamma   90.00000000
_symmetry_Int_Tables_number   1
_chemical_formula_structural   Ba(ErTe2)2
_chemical_formula_sum   'Ba4 Er8 Te16'
_cell_volume   997.11199128
_cell_formula_units_Z   4
loop_
 _symmetry_equiv_pos_site_id
 _symmetry_equiv_pos_as_xyz
  1  'x, y, z'
loop_
 _atom_site_type_symbol
 _atom_site_label
 _atom_site_symmetry_multiplicity
 _atom_site_fract_x
 _atom_site_fract_y
 _atom_site_fract_z
 _atom_site_occupancy
  Ba  Ba0  1  0.750000  0.761513  0.669845  1
  Ba  Ba1  1  0.250000  0.238487  0.330155  1
  Ba  Ba2  1  0.750000  0.261513  0.830155  1
  Ba  Ba3  1  0.250000  0.738487  0.169845  1
  Er  Er4  1  0.250000  0.580815  0.903551  1
  Er  Er5  1  0.750000  0.419185  0.096449  1
  Er  Er6  1  0.250000  0.080815  0.596449  1
  Er  Er7  1  0.750000  0.919185  0.403551  1
  Er  Er8  1  0.750000  0.441510  0.609831  1
  Er  Er9  1  0.250000  0.558490  0.390169  1
  Er  Er10  1  0.750000  0.941510  0.890169  1
  Er  Er11  1  0.250000  0.058490  0.109831  1
  Te  Te12  1  0.250000  0.972220  0.284220  1
  Te  Te13  1  0.750000  0.027780  0.715780  1
  Te  Te14  1  0.250000  0.472220  0.215780  1
  Te  Te15  1  0.750000  0.527780  0.784220  1
  Te  Te16  1  0.250000  0.873768  0.528211  1
  Te  Te17  1  0.750000  0.126232  0.471789  1
  Te  Te18  1  0.250000  0.373768  0.971789  1
  Te  Te19  1  0.750000  0.626232  0.028211  1
  Te  Te20  1  0.250000  0.795570  0.841253  1
  Te  Te21  1  0.750000  0.204430  0.158747  1
  Te  Te22  1  0.250000  0.295570  0.658747  1
  Te  Te23  1  0.750000  0.704430  0.341253  1
  Te  Te24  1  0.750000  0.910222  0.075660  1
  Te  Te25  1  0.250000  0.089778  0.924340  1
  Te  Te26  1  0.750000  0.410222  0.424340  1
  Te  Te27  1  0.250000  0.589778  0.575660  1
