# generated using pymatgen
data_Li14P2(N2O)3
_symmetry_space_group_name_H-M   'P 1'
_cell_length_a   5.69863813
_cell_length_b   5.69863813
_cell_length_c   8.07204018
_cell_angle_alpha   90.00000000
_cell_angle_beta   90.00000000
_cell_angle_gamma   120.00000000
_symmetry_Int_Tables_number   1
_chemical_formula_structural   Li14P2(N2O)3
_chemical_formula_sum   'Li14 P2 N6 O3'
_cell_volume   227.01581121
_cell_formula_units_Z   1
loop_
 _symmetry_equiv_pos_site_id
 _symmetry_equiv_pos_as_xyz
  1  'x, y, z'
loop_
 _atom_site_type_symbol
 _atom_site_label
 _atom_site_symmetry_multiplicity
 _atom_site_fract_x
 _atom_site_fract_y
 _atom_site_fract_z
 _atom_site_occupancy
  Li  Li0  1  0.378417  0.082726  0.091007  1
  Li  Li1  1  0.704308  0.621583  0.091007  1
  Li  Li2  1  0.917274  0.295692  0.091007  1
  Li  Li3  1  0.621583  0.917274  0.908993  1
  Li  Li4  1  0.295692  0.378417  0.908993  1
  Li  Li5  1  0.082726  0.704308  0.908993  1
  Li  Li6  1  0.042915  0.352758  0.589177  1
  Li  Li7  1  0.309843  0.957085  0.589177  1
  Li  Li8  1  0.647242  0.690157  0.589177  1
  Li  Li9  1  0.957085  0.647242  0.410823  1
  Li  Li10  1  0.690157  0.042915  0.410823  1
  Li  Li11  1  0.352758  0.309843  0.410823  1
  Li  Li12  1  0.000000  0.000000  0.249699  1
  Li  Li13  1  0.000000  0.000000  0.750301  1
  P  P14  1  0.666667  0.333333  0.774089  1
  P  P15  1  0.333333  0.666667  0.225911  1
  N  N16  1  0.376855  0.071281  0.825801  1
  N  N17  1  0.694425  0.623145  0.825801  1
  N  N18  1  0.928719  0.305575  0.825801  1
  N  N19  1  0.623145  0.928719  0.174199  1
  N  N20  1  0.305575  0.376855  0.174199  1
  N  N21  1  0.071281  0.694425  0.174199  1
  O  O22  1  0.666667  0.333333  0.553646  1
  O  O23  1  0.333333  0.666667  0.446354  1
  O  O24  1  0.000000  0.000000  0.500000  1
