# generated using pymatgen
data_NdCo(BO2)5
_symmetry_space_group_name_H-M   'P 1'
_cell_length_a   8.78948338
_cell_length_b   7.67707721
_cell_length_c   12.63912980
_cell_angle_alpha   90.00000000
_cell_angle_beta   131.23040325
_cell_angle_gamma   90.00000000
_symmetry_Int_Tables_number   1
_chemical_formula_structural   NdCo(BO2)5
_chemical_formula_sum   'Nd4 Co4 B20 O40'
_cell_volume   641.40445187
_cell_formula_units_Z   4
loop_
 _symmetry_equiv_pos_site_id
 _symmetry_equiv_pos_as_xyz
  1  'x, y, z'
loop_
 _atom_site_type_symbol
 _atom_site_label
 _atom_site_symmetry_multiplicity
 _atom_site_fract_x
 _atom_site_fract_y
 _atom_site_fract_z
 _atom_site_occupancy
  Nd  Nd0  1  0.446441  0.313264  0.763784  1
  Nd  Nd1  1  0.553559  0.813264  0.736216  1
  Nd  Nd2  1  0.553559  0.686736  0.236216  1
  Nd  Nd3  1  0.446441  0.186736  0.263784  1
  Co  Co4  1  0.974401  0.090772  0.874177  1
  Co  Co5  1  0.025599  0.590772  0.625823  1
  Co  Co6  1  0.025599  0.909228  0.125823  1
  Co  Co7  1  0.974401  0.409228  0.374177  1
  B  B8  1  0.147549  0.579819  0.236439  1
  B  B9  1  0.014263  0.184864  0.585601  1
  B  B10  1  0.985737  0.684864  0.914399  1
  B  B11  1  0.985737  0.815136  0.414399  1
  B  B12  1  0.014263  0.315136  0.085601  1
  B  B13  1  0.344266  0.904668  0.997541  1
  B  B14  1  0.655734  0.404668  0.502459  1
  B  B15  1  0.655734  0.095332  0.002459  1
  B  B16  1  0.344266  0.595332  0.497541  1
  B  B17  1  0.852451  0.079819  0.263561  1
  B  B18  1  0.852451  0.420181  0.763561  1
  B  B19  1  0.147549  0.920181  0.736439  1
  B  B20  1  0.593204  0.327245  0.108092  1
  B  B21  1  0.406796  0.827245  0.391908  1
  B  B22  1  0.406796  0.672755  0.891908  1
  B  B23  1  0.593204  0.172755  0.608092  1
  B  B24  1  0.770751  0.533737  0.052599  1
  B  B25  1  0.229249  0.033737  0.447401  1
  B  B26  1  0.229249  0.466263  0.947401  1
  B  B27  1  0.770751  0.966263  0.552599  1
  O  O28  1  0.711616  0.217621  0.238167  1
  O  O29  1  0.933063  0.654062  0.431093  1
  O  O30  1  0.066937  0.154062  0.068907  1
  O  O31  1  0.066937  0.345938  0.568907  1
  O  O32  1  0.933063  0.845938  0.931093  1
  O  O33  1  0.616147  0.457101  0.384274  1
  O  O34  1  0.383853  0.957101  0.115726  1
  O  O35  1  0.383853  0.542899  0.615726  1
  O  O36  1  0.288384  0.717621  0.261833  1
  O  O37  1  0.616147  0.042899  0.884274  1
  O  O38  1  0.711616  0.282379  0.738167  1
  O  O39  1  0.288384  0.782379  0.761833  1
  O  O40  1  0.182328  0.534120  0.366032  1
  O  O41  1  0.817672  0.034120  0.133968  1
  O  O42  1  0.817672  0.465880  0.633968  1
  O  O43  1  0.182328  0.965880  0.866032  1
  O  O44  1  0.177249  0.416400  0.190233  1
  O  O45  1  0.822751  0.916400  0.309767  1
  O  O46  1  0.822751  0.583600  0.809767  1
  O  O47  1  0.177249  0.083600  0.690233  1
  O  O48  1  0.943562  0.651470  0.130414  1
  O  O49  1  0.056438  0.151470  0.369586  1
  O  O50  1  0.056438  0.348530  0.869586  1
  O  O51  1  0.943562  0.848530  0.630414  1
  O  O52  1  0.728711  0.476700  0.144288  1
  O  O53  1  0.271289  0.976700  0.355712  1
  O  O54  1  0.271289  0.523300  0.855712  1
  O  O55  1  0.728711  0.023300  0.644288  1
  O  O56  1  0.413727  0.392289  0.085002  1
  O  O57  1  0.586273  0.892289  0.414998  1
  O  O58  1  0.586273  0.607711  0.914998  1
  O  O59  1  0.819904  0.125549  0.508763  1
  O  O60  1  0.529644  0.223325  0.987653  1
  O  O61  1  0.470356  0.723325  0.512347  1
  O  O62  1  0.470356  0.776675  0.012347  1
  O  O63  1  0.529644  0.276675  0.487653  1
  O  O64  1  0.819904  0.374451  0.008763  1
  O  O65  1  0.180096  0.874451  0.491237  1
  O  O66  1  0.180096  0.625549  0.991237  1
  O  O67  1  0.413727  0.107711  0.585002  1
