# generated using pymatgen
data_Zr3Al2
_symmetry_space_group_name_H-M   'P 1'
_cell_length_a   7.67099095
_cell_length_b   7.67099095
_cell_length_c   7.00680170
_cell_angle_alpha   90.00000000
_cell_angle_beta   90.00000000
_cell_angle_gamma   90.00000000
_symmetry_Int_Tables_number   1
_chemical_formula_structural   Zr3Al2
_chemical_formula_sum   'Zr12 Al8'
_cell_volume   412.30895501
_cell_formula_units_Z   4
loop_
 _symmetry_equiv_pos_site_id
 _symmetry_equiv_pos_as_xyz
  1  'x, y, z'
loop_
 _atom_site_type_symbol
 _atom_site_label
 _atom_site_symmetry_multiplicity
 _atom_site_fract_x
 _atom_site_fract_y
 _atom_site_fract_z
 _atom_site_occupancy
  Zr  Zr0  1  0.500000  0.000000  0.250000  1
  Zr  Zr1  1  0.000000  0.500000  0.750000  1
  Zr  Zr2  1  0.500000  0.000000  0.750000  1
  Zr  Zr3  1  0.000000  0.500000  0.250000  1
  Zr  Zr4  1  0.843407  0.156593  0.500000  1
  Zr  Zr5  1  0.156593  0.843407  0.500000  1
  Zr  Zr6  1  0.343407  0.343407  0.000000  1
  Zr  Zr7  1  0.656593  0.656593  0.000000  1
  Zr  Zr8  1  0.699402  0.699402  0.500000  1
  Zr  Zr9  1  0.300598  0.300598  0.500000  1
  Zr  Zr10  1  0.199402  0.800598  0.000000  1
  Zr  Zr11  1  0.800598  0.199402  0.000000  1
  Al  Al12  1  0.621038  0.378962  0.287006  1
  Al  Al13  1  0.378962  0.621038  0.287006  1
  Al  Al14  1  0.121038  0.121038  0.787006  1
  Al  Al15  1  0.878962  0.878962  0.787006  1
  Al  Al16  1  0.378962  0.621038  0.712994  1
  Al  Al17  1  0.621038  0.378962  0.712994  1
  Al  Al18  1  0.878962  0.878962  0.212994  1
  Al  Al19  1  0.121038  0.121038  0.212994  1
