# generated using pymatgen
data_Cs3BO3
_symmetry_space_group_name_H-M   'P 1'
_cell_length_a   10.61512198
_cell_length_b   11.15245131
_cell_length_c   11.19763489
_cell_angle_alpha   90.00000000
_cell_angle_beta   90.00000000
_cell_angle_gamma   90.00000000
_symmetry_Int_Tables_number   1
_chemical_formula_structural   Cs3BO3
_chemical_formula_sum   'Cs24 B8 O24'
_cell_volume   1325.62787488
_cell_formula_units_Z   8
loop_
 _symmetry_equiv_pos_site_id
 _symmetry_equiv_pos_as_xyz
  1  'x, y, z'
loop_
 _atom_site_type_symbol
 _atom_site_label
 _atom_site_symmetry_multiplicity
 _atom_site_fract_x
 _atom_site_fract_y
 _atom_site_fract_z
 _atom_site_occupancy
  Cs  Cs0  1  0.249485  0.753357  0.255931  1
  Cs  Cs1  1  0.249485  0.246643  0.744069  1
  Cs  Cs2  1  0.750515  0.253357  0.244069  1
  Cs  Cs3  1  0.750515  0.746643  0.755931  1
  Cs  Cs4  1  0.750515  0.246643  0.744069  1
  Cs  Cs5  1  0.750515  0.753357  0.255931  1
  Cs  Cs6  1  0.249485  0.746643  0.755931  1
  Cs  Cs7  1  0.249485  0.253357  0.244069  1
  Cs  Cs8  1  0.500000  0.669454  0.483527  1
  Cs  Cs9  1  0.500000  0.330546  0.516473  1
  Cs  Cs10  1  0.500000  0.169454  0.016473  1
  Cs  Cs11  1  0.500000  0.830546  0.983527  1
  Cs  Cs12  1  0.000000  0.520435  0.169396  1
  Cs  Cs13  1  0.000000  0.479565  0.830604  1
  Cs  Cs14  1  0.000000  0.020435  0.330604  1
  Cs  Cs15  1  0.000000  0.979565  0.669396  1
  Cs  Cs16  1  0.315297  0.500000  0.000000  1
  Cs  Cs17  1  0.684703  0.000000  0.500000  1
  Cs  Cs18  1  0.684703  0.500000  0.000000  1
  Cs  Cs19  1  0.315297  0.000000  0.500000  1
  Cs  Cs20  1  0.184300  0.500000  0.500000  1
  Cs  Cs21  1  0.815700  0.000000  0.000000  1
  Cs  Cs22  1  0.815700  0.500000  0.500000  1
  Cs  Cs23  1  0.184300  0.000000  0.000000  1
  B  B24  1  0.000000  0.755996  0.466762  1
  B  B25  1  0.000000  0.244004  0.533238  1
  B  B26  1  0.000000  0.255996  0.033238  1
  B  B27  1  0.000000  0.744004  0.966762  1
  B  B28  1  0.500000  0.966065  0.244150  1
  B  B29  1  0.500000  0.033935  0.755850  1
  B  B30  1  0.500000  0.466065  0.255850  1
  B  B31  1  0.500000  0.533935  0.744150  1
  O  O32  1  0.115692  0.697419  0.008621  1
  O  O33  1  0.115692  0.302581  0.991379  1
  O  O34  1  0.884308  0.197419  0.491379  1
  O  O35  1  0.884308  0.802581  0.508621  1
  O  O36  1  0.884308  0.302581  0.991379  1
  O  O37  1  0.884308  0.697419  0.008621  1
  O  O38  1  0.115692  0.802581  0.508621  1
  O  O39  1  0.115692  0.197419  0.491379  1
  O  O40  1  0.000000  0.665419  0.380081  1
  O  O41  1  0.000000  0.334581  0.619919  1
  O  O42  1  0.000000  0.165419  0.119919  1
  O  O43  1  0.000000  0.834581  0.880081  1
  O  O44  1  0.500000  0.880784  0.335861  1
  O  O45  1  0.500000  0.119216  0.664139  1
  O  O46  1  0.500000  0.380784  0.164139  1
  O  O47  1  0.500000  0.619216  0.835861  1
  O  O48  1  0.384361  0.507321  0.303289  1
  O  O49  1  0.384361  0.492679  0.696711  1
  O  O50  1  0.615639  0.007321  0.196711  1
  O  O51  1  0.615639  0.992679  0.803289  1
  O  O52  1  0.615639  0.492679  0.696711  1
  O  O53  1  0.615639  0.507321  0.303289  1
  O  O54  1  0.384361  0.992679  0.803289  1
  O  O55  1  0.384361  0.007321  0.196711  1
