# generated using pymatgen
data_K3Na(SeO4)2
_symmetry_space_group_name_H-M   'P 1'
_cell_length_a   5.98253899
_cell_length_b   5.98253899
_cell_length_c   15.41041971
_cell_angle_alpha   89.86870653
_cell_angle_beta   90.13129347
_cell_angle_gamma   120.01541325
_symmetry_Int_Tables_number   1
_chemical_formula_structural   K3Na(SeO4)2
_chemical_formula_sum   'K6 Na2 Se4 O16'
_cell_volume   477.58115524
_cell_formula_units_Z   2
loop_
 _symmetry_equiv_pos_site_id
 _symmetry_equiv_pos_as_xyz
  1  'x, y, z'
loop_
 _atom_site_type_symbol
 _atom_site_label
 _atom_site_symmetry_multiplicity
 _atom_site_fract_x
 _atom_site_fract_y
 _atom_site_fract_z
 _atom_site_occupancy
  K  K0  1  0.052805  0.052805  0.250000  1
  K  K1  1  0.947195  0.947195  0.750000  1
  K  K2  1  0.695328  0.356106  0.093053  1
  K  K3  1  0.356106  0.695328  0.406947  1
  K  K4  1  0.304672  0.643894  0.906947  1
  K  K5  1  0.643894  0.304672  0.593053  1
  Na  Na6  1  0.000000  0.000000  0.500000  1
  Na  Na7  1  0.000000  0.000000  0.000000  1
  Se  Se8  1  0.683057  0.354433  0.366225  1
  Se  Se9  1  0.354433  0.683057  0.133775  1
  Se  Se10  1  0.316943  0.645567  0.633775  1
  Se  Se11  1  0.645567  0.316943  0.866225  1
  O  O12  1  0.859241  0.228983  0.405640  1
  O  O13  1  0.228983  0.859241  0.094360  1
  O  O14  1  0.140759  0.771017  0.594360  1
  O  O15  1  0.771017  0.140759  0.905640  1
  O  O16  1  0.845435  0.675415  0.382001  1
  O  O17  1  0.675415  0.845435  0.117999  1
  O  O18  1  0.154565  0.324585  0.617999  1
  O  O19  1  0.324585  0.154565  0.882001  1
  O  O20  1  0.405568  0.226676  0.423015  1
  O  O21  1  0.226676  0.405568  0.076985  1
  O  O22  1  0.594432  0.773324  0.576985  1
  O  O23  1  0.773324  0.594432  0.923015  1
  O  O24  1  0.723182  0.387037  0.762411  1
  O  O25  1  0.387037  0.723182  0.737589  1
  O  O26  1  0.276818  0.612963  0.237589  1
  O  O27  1  0.612963  0.276818  0.262411  1
