# generated using pymatgen
data_BaSm2FeS5
_symmetry_space_group_name_H-M   'P 1'
_cell_length_a   8.72053833
_cell_length_b   8.72053833
_cell_length_c   8.72053833
_cell_angle_alpha   126.71675821
_cell_angle_beta   126.71675821
_cell_angle_gamma   78.71325625
_symmetry_Int_Tables_number   1
_chemical_formula_structural   BaSm2FeS5
_chemical_formula_sum   'Ba2 Sm4 Fe2 S10'
_cell_volume   412.41758077
_cell_formula_units_Z   2
loop_
 _symmetry_equiv_pos_site_id
 _symmetry_equiv_pos_as_xyz
  1  'x, y, z'
loop_
 _atom_site_type_symbol
 _atom_site_label
 _atom_site_symmetry_multiplicity
 _atom_site_fract_x
 _atom_site_fract_y
 _atom_site_fract_z
 _atom_site_occupancy
  Ba  Ba0  1  0.750000  0.750000  0.000000  1
  Ba  Ba1  1  0.250000  0.250000  0.000000  1
  Sm  Sm2  1  0.838130  0.661870  0.500000  1
  Sm  Sm3  1  0.661870  0.161870  0.823740  1
  Sm  Sm4  1  0.338130  0.838130  0.176260  1
  Sm  Sm5  1  0.161870  0.338130  0.500000  1
  Fe  Fe6  1  0.250000  0.750000  0.500000  1
  Fe  Fe7  1  0.750000  0.250000  0.500000  1
  S  S8  1  0.986240  0.486240  0.204735  1
  S  S9  1  0.718495  0.218495  0.204735  1
  S  S10  1  0.013760  0.513760  0.795265  1
  S  S11  1  0.513760  0.718495  0.500000  1
  S  S12  1  0.218495  0.013760  0.500000  1
  S  S13  1  0.486240  0.281505  0.500000  1
  S  S14  1  0.781505  0.986240  0.500000  1
  S  S15  1  0.281505  0.781505  0.795265  1
  S  S16  1  0.000000  0.000000  0.000000  1
  S  S17  1  0.500000  0.500000  0.000000  1
