# generated using pymatgen
data_Ba2Ca(PdO2)3
_symmetry_space_group_name_H-M   'P 1'
_cell_length_a   9.57608347
_cell_length_b   8.82222623
_cell_length_c   7.31242562
_cell_angle_alpha   72.12539979
_cell_angle_beta   61.25962655
_cell_angle_gamma   46.61497366
_symmetry_Int_Tables_number   1
_chemical_formula_structural   Ba2Ca(PdO2)3
_chemical_formula_sum   'Ba4 Ca2 Pd6 O12'
_cell_volume   393.39383061
_cell_formula_units_Z   2
loop_
 _symmetry_equiv_pos_site_id
 _symmetry_equiv_pos_as_xyz
  1  'x, y, z'
loop_
 _atom_site_type_symbol
 _atom_site_label
 _atom_site_symmetry_multiplicity
 _atom_site_fract_x
 _atom_site_fract_y
 _atom_site_fract_z
 _atom_site_occupancy
  Ba  Ba0  1  0.250000  0.250000  0.250000  1
  Ba  Ba1  1  0.750000  0.750000  0.750000  1
  Ba  Ba2  1  0.732980  0.267020  0.732980  1
  Ba  Ba3  1  0.267020  0.732980  0.267020  1
  Ca  Ca4  1  0.170630  0.170630  0.829370  1
  Ca  Ca5  1  0.829370  0.829370  0.170630  1
  Pd  Pd6  1  0.189930  0.506466  0.810070  1
  Pd  Pd7  1  0.493534  0.810070  0.506466  1
  Pd  Pd8  1  0.506466  0.189930  0.493534  1
  Pd  Pd9  1  0.810070  0.493534  0.189930  1
  Pd  Pd10  1  0.825340  0.174660  0.174660  1
  Pd  Pd11  1  0.174660  0.825340  0.825340  1
  O  O12  1  0.828000  0.968760  0.405804  1
  O  O13  1  0.797436  0.405804  0.968760  1
  O  O14  1  0.405804  0.797436  0.828000  1
  O  O15  1  0.968760  0.828000  0.797436  1
  O  O16  1  0.172000  0.031240  0.594196  1
  O  O17  1  0.202564  0.594196  0.031240  1
  O  O18  1  0.187278  0.422109  0.577891  1
  O  O19  1  0.031240  0.172000  0.202564  1
  O  O20  1  0.422109  0.187278  0.812722  1
  O  O21  1  0.577891  0.812722  0.187278  1
  O  O22  1  0.812722  0.577891  0.422109  1
  O  O23  1  0.594196  0.202564  0.172000  1
