# generated using pymatgen
data_KSrPO4
_symmetry_space_group_name_H-M   'P 1'
_cell_length_a   5.63248038
_cell_length_b   7.44783069
_cell_length_c   9.76307396
_cell_angle_alpha   90.00000000
_cell_angle_beta   90.00000000
_cell_angle_gamma   90.00000000
_symmetry_Int_Tables_number   1
_chemical_formula_structural   KSrPO4
_chemical_formula_sum   'K4 Sr4 P4 O16'
_cell_volume   409.55861178
_cell_formula_units_Z   4
loop_
 _symmetry_equiv_pos_site_id
 _symmetry_equiv_pos_as_xyz
  1  'x, y, z'
loop_
 _atom_site_type_symbol
 _atom_site_label
 _atom_site_symmetry_multiplicity
 _atom_site_fract_x
 _atom_site_fract_y
 _atom_site_fract_z
 _atom_site_occupancy
  K  K0  1  0.250000  0.158634  0.417562  1
  K  K1  1  0.750000  0.341366  0.917562  1
  K  K2  1  0.750000  0.841366  0.582438  1
  K  K3  1  0.250000  0.658634  0.082438  1
  Sr  Sr4  1  0.750000  0.999429  0.196172  1
  Sr  Sr5  1  0.750000  0.499429  0.303828  1
  Sr  Sr6  1  0.250000  0.500571  0.696172  1
  Sr  Sr7  1  0.250000  0.000571  0.803828  1
  P  P8  1  0.250000  0.726186  0.416180  1
  P  P9  1  0.750000  0.273814  0.583820  1
  P  P10  1  0.250000  0.226186  0.083820  1
  P  P11  1  0.750000  0.773814  0.916180  1
  O  O12  1  0.250000  0.018173  0.073221  1
  O  O13  1  0.750000  0.981827  0.926779  1
  O  O14  1  0.250000  0.518173  0.426779  1
  O  O15  1  0.750000  0.481827  0.573221  1
  O  O16  1  0.977453  0.211797  0.661976  1
  O  O17  1  0.477453  0.788203  0.338024  1
  O  O18  1  0.522547  0.711797  0.838024  1
  O  O19  1  0.022547  0.288203  0.161976  1
  O  O20  1  0.022547  0.788203  0.338024  1
  O  O21  1  0.522547  0.211797  0.661976  1
  O  O22  1  0.477453  0.288203  0.161976  1
  O  O23  1  0.977453  0.711797  0.838024  1
  O  O24  1  0.750000  0.691949  0.064037  1
  O  O25  1  0.250000  0.308051  0.935963  1
  O  O26  1  0.750000  0.191949  0.435963  1
  O  O27  1  0.250000  0.808051  0.564037  1
