# generated using pymatgen
data_Lu2PdO4
_symmetry_space_group_name_H-M   'P 1'
_cell_length_a   6.45042435
_cell_length_b   6.45042435
_cell_length_c   5.53087102
_cell_angle_alpha   90.00000000
_cell_angle_beta   90.00000000
_cell_angle_gamma   129.19021583
_symmetry_Int_Tables_number   1
_chemical_formula_structural   Lu2PdO4
_chemical_formula_sum   'Lu4 Pd2 O8'
_cell_volume   178.36152288
_cell_formula_units_Z   2
loop_
 _symmetry_equiv_pos_site_id
 _symmetry_equiv_pos_as_xyz
  1  'x, y, z'
loop_
 _atom_site_type_symbol
 _atom_site_label
 _atom_site_symmetry_multiplicity
 _atom_site_fract_x
 _atom_site_fract_y
 _atom_site_fract_z
 _atom_site_occupancy
  Lu  Lu0  1  0.338433  0.661567  0.000000  1
  Lu  Lu1  1  0.161567  0.838433  0.500000  1
  Lu  Lu2  1  0.661567  0.338433  0.000000  1
  Lu  Lu3  1  0.838433  0.161567  0.500000  1
  Pd  Pd4  1  0.000000  0.000000  0.000000  1
  Pd  Pd5  1  0.500000  0.500000  0.500000  1
  O  O6  1  0.990610  0.490610  0.750000  1
  O  O7  1  0.509390  0.009390  0.250000  1
  O  O8  1  0.009390  0.509390  0.250000  1
  O  O9  1  0.490610  0.990610  0.750000  1
  O  O10  1  0.831557  0.831557  0.668457  1
  O  O11  1  0.331557  0.331557  0.831543  1
  O  O12  1  0.668443  0.668443  0.168457  1
  O  O13  1  0.168443  0.168443  0.331543  1
