# generated using pymatgen
data_Ba4Ir3O10
_symmetry_space_group_name_H-M   'P 1'
_cell_length_a   5.82780159
_cell_length_b   13.36581203
_cell_length_c   7.36315099
_cell_angle_alpha   90.00000000
_cell_angle_beta   112.41388697
_cell_angle_gamma   90.00000000
_symmetry_Int_Tables_number   1
_chemical_formula_structural   Ba4Ir3O10
_chemical_formula_sum   'Ba8 Ir6 O20'
_cell_volume   530.21126646
_cell_formula_units_Z   2
loop_
 _symmetry_equiv_pos_site_id
 _symmetry_equiv_pos_as_xyz
  1  'x, y, z'
loop_
 _atom_site_type_symbol
 _atom_site_label
 _atom_site_symmetry_multiplicity
 _atom_site_fract_x
 _atom_site_fract_y
 _atom_site_fract_z
 _atom_site_occupancy
  Ba  Ba0  1  0.036572  0.637091  0.086203  1
  Ba  Ba1  1  0.463428  0.137091  0.913797  1
  Ba  Ba2  1  0.963428  0.362909  0.913797  1
  Ba  Ba3  1  0.536572  0.862909  0.086203  1
  Ba  Ba4  1  0.739417  0.613185  0.485429  1
  Ba  Ba5  1  0.760583  0.113185  0.514571  1
  Ba  Ba6  1  0.239417  0.886815  0.485429  1
  Ba  Ba7  1  0.260583  0.386815  0.514571  1
  Ir  Ir8  1  0.000000  0.000000  0.000000  1
  Ir  Ir9  1  0.500000  0.500000  0.000000  1
  Ir  Ir10  1  0.868876  0.849051  0.759890  1
  Ir  Ir11  1  0.631124  0.349051  0.240110  1
  Ir  Ir12  1  0.131124  0.150949  0.240110  1
  Ir  Ir13  1  0.368876  0.650949  0.759890  1
  O  O14  1  0.932291  0.274614  0.229180  1
  O  O15  1  0.567709  0.774614  0.770820  1
  O  O16  1  0.067709  0.725386  0.770820  1
  O  O17  1  0.432291  0.225386  0.229180  1
  O  O18  1  0.769917  0.345631  0.530218  1
  O  O19  1  0.730083  0.845631  0.469782  1
  O  O20  1  0.230083  0.654369  0.469782  1
  O  O21  1  0.269917  0.154369  0.530218  1
  O  O22  1  0.365493  0.457558  0.210244  1
  O  O23  1  0.134507  0.957558  0.789756  1
  O  O24  1  0.634507  0.542442  0.789756  1
  O  O25  1  0.865493  0.042442  0.210244  1
  O  O26  1  0.835934  0.474820  0.226141  1
  O  O27  1  0.664066  0.974820  0.773859  1
  O  O28  1  0.974290  0.149974  0.924827  1
  O  O29  1  0.525710  0.649974  0.075173  1
  O  O30  1  0.025710  0.850026  0.075173  1
  O  O31  1  0.474290  0.350026  0.924827  1
  O  O32  1  0.335934  0.025180  0.226141  1
  O  O33  1  0.164066  0.525180  0.773859  1
