# generated using pymatgen
data_UTeS
_symmetry_space_group_name_H-M   'P 1'
_cell_length_a   4.21473496
_cell_length_b   7.68406058
_cell_length_c   8.96113208
_cell_angle_alpha   90.00000000
_cell_angle_beta   90.00000000
_cell_angle_gamma   90.00000000
_symmetry_Int_Tables_number   1
_chemical_formula_structural   UTeS
_chemical_formula_sum   'U4 Te4 S4'
_cell_volume   290.21772156
_cell_formula_units_Z   4
loop_
 _symmetry_equiv_pos_site_id
 _symmetry_equiv_pos_as_xyz
  1  'x, y, z'
loop_
 _atom_site_type_symbol
 _atom_site_label
 _atom_site_symmetry_multiplicity
 _atom_site_fract_x
 _atom_site_fract_y
 _atom_site_fract_z
 _atom_site_occupancy
  U  U0  1  0.250000  0.703795  0.621000  1
  U  U1  1  0.750000  0.296205  0.379000  1
  U  U2  1  0.250000  0.203795  0.879000  1
  U  U3  1  0.750000  0.796205  0.121000  1
  Te  Te4  1  0.250000  0.475397  0.159449  1
  Te  Te5  1  0.750000  0.024603  0.659449  1
  Te  Te6  1  0.250000  0.975397  0.340551  1
  Te  Te7  1  0.750000  0.524603  0.840551  1
  S  S8  1  0.750000  0.649308  0.427713  1
  S  S9  1  0.250000  0.850692  0.927713  1
  S  S10  1  0.750000  0.149308  0.072287  1
  S  S11  1  0.250000  0.350692  0.572287  1
