# generated using pymatgen
data_Ba4Ru3O10
_symmetry_space_group_name_H-M   'P 1'
_cell_length_a   7.31161253
_cell_length_b   7.31161253
_cell_length_c   13.30290956
_cell_angle_alpha   90.00000000
_cell_angle_beta   90.00000000
_cell_angle_gamma   132.66704530
_symmetry_Int_Tables_number   1
_chemical_formula_structural   Ba4Ru3O10
_chemical_formula_sum   'Ba8 Ru6 O20'
_cell_volume   522.92597701
_cell_formula_units_Z   2
loop_
 _symmetry_equiv_pos_site_id
 _symmetry_equiv_pos_as_xyz
  1  'x, y, z'
loop_
 _atom_site_type_symbol
 _atom_site_label
 _atom_site_symmetry_multiplicity
 _atom_site_fract_x
 _atom_site_fract_y
 _atom_site_fract_z
 _atom_site_occupancy
  Ba  Ba0  1  0.965386  0.034614  0.639494  1
  Ba  Ba1  1  0.034614  0.965386  0.360506  1
  Ba  Ba2  1  0.534614  0.465386  0.139494  1
  Ba  Ba3  1  0.465386  0.534614  0.860506  1
  Ba  Ba4  1  0.259628  0.740372  0.613100  1
  Ba  Ba5  1  0.740372  0.259628  0.386900  1
  Ba  Ba6  1  0.240372  0.759628  0.113100  1
  Ba  Ba7  1  0.759628  0.240372  0.886900  1
  Ru  Ru8  1  0.624151  0.375849  0.649113  1
  Ru  Ru9  1  0.375849  0.624151  0.350887  1
  Ru  Ru10  1  0.875849  0.124151  0.149113  1
  Ru  Ru11  1  0.124151  0.875849  0.850887  1
  Ru  Ru12  1  0.500000  0.500000  0.500000  1
  Ru  Ru13  1  0.000000  0.000000  0.000000  1
  O  O14  1  0.769427  0.230573  0.650315  1
  O  O15  1  0.230573  0.769427  0.349685  1
  O  O16  1  0.730573  0.269427  0.150315  1
  O  O17  1  0.269427  0.730573  0.849685  1
  O  O18  1  0.620762  0.840695  0.464785  1
  O  O19  1  0.840695  0.620762  0.535215  1
  O  O20  1  0.879238  0.659305  0.964785  1
  O  O21  1  0.659305  0.879238  0.035215  1
  O  O22  1  0.379238  0.159305  0.535215  1
  O  O23  1  0.159305  0.379238  0.464785  1
  O  O24  1  0.120762  0.340695  0.035215  1
  O  O25  1  0.340695  0.120762  0.964785  1
  O  O26  1  0.464808  0.535192  0.649861  1
  O  O27  1  0.535192  0.464808  0.350139  1
  O  O28  1  0.369346  0.130654  0.750000  1
  O  O29  1  0.130654  0.369346  0.250000  1
  O  O30  1  0.630654  0.869346  0.250000  1
  O  O31  1  0.869346  0.630654  0.750000  1
  O  O32  1  0.964808  0.035192  0.850139  1
  O  O33  1  0.035192  0.964808  0.149861  1
