# generated using pymatgen
data_Ca3Cd2
_symmetry_space_group_name_H-M   'P 1'
_cell_length_a   8.90399520
_cell_length_b   8.90399520
_cell_length_c   7.98471614
_cell_angle_alpha   90.00000000
_cell_angle_beta   90.00000000
_cell_angle_gamma   90.00000000
_symmetry_Int_Tables_number   1
_chemical_formula_structural   Ca3Cd2
_chemical_formula_sum   'Ca12 Cd8'
_cell_volume   633.03732249
_cell_formula_units_Z   4
loop_
 _symmetry_equiv_pos_site_id
 _symmetry_equiv_pos_as_xyz
  1  'x, y, z'
loop_
 _atom_site_type_symbol
 _atom_site_label
 _atom_site_symmetry_multiplicity
 _atom_site_fract_x
 _atom_site_fract_y
 _atom_site_fract_z
 _atom_site_occupancy
  Ca  Ca0  1  0.146081  0.146081  0.000000  1
  Ca  Ca1  1  0.646081  0.353919  0.500000  1
  Ca  Ca2  1  0.353919  0.646081  0.500000  1
  Ca  Ca3  1  0.853919  0.853919  0.000000  1
  Ca  Ca4  1  0.197132  0.197132  0.500000  1
  Ca  Ca5  1  0.697132  0.302868  0.000000  1
  Ca  Ca6  1  0.302868  0.697132  0.000000  1
  Ca  Ca7  1  0.802868  0.802868  0.500000  1
  Ca  Ca8  1  0.500000  0.000000  0.250000  1
  Ca  Ca9  1  0.500000  0.000000  0.750000  1
  Ca  Ca10  1  0.000000  0.500000  0.750000  1
  Ca  Ca11  1  0.000000  0.500000  0.250000  1
  Cd  Cd12  1  0.375312  0.375312  0.802035  1
  Cd  Cd13  1  0.875312  0.124688  0.302035  1
  Cd  Cd14  1  0.124688  0.875312  0.302035  1
  Cd  Cd15  1  0.624688  0.624688  0.802035  1
  Cd  Cd16  1  0.375312  0.375312  0.197965  1
  Cd  Cd17  1  0.875312  0.124688  0.697965  1
  Cd  Cd18  1  0.124688  0.875312  0.697965  1
  Cd  Cd19  1  0.624688  0.624688  0.197965  1
