# generated using pymatgen
data_Yb3Cu6Sn5
_symmetry_space_group_name_H-M   'P 1'
_cell_length_a   8.36354985
_cell_length_b   8.36354985
_cell_length_c   8.36354985
_cell_angle_alpha   149.57366433
_cell_angle_beta   107.46460366
_cell_angle_gamma   80.65391478
_symmetry_Int_Tables_number   1
_chemical_formula_structural   Yb3Cu6Sn5
_chemical_formula_sum   'Yb3 Cu6 Sn5'
_cell_volume   276.93261527
_cell_formula_units_Z   1
loop_
 _symmetry_equiv_pos_site_id
 _symmetry_equiv_pos_as_xyz
  1  'x, y, z'
loop_
 _atom_site_type_symbol
 _atom_site_label
 _atom_site_symmetry_multiplicity
 _atom_site_fract_x
 _atom_site_fract_y
 _atom_site_fract_z
 _atom_site_occupancy
  Yb  Yb0  1  0.000000  0.000000  0.000000  1
  Yb  Yb1  1  0.312930  0.312930  0.000000  1
  Yb  Yb2  1  0.687070  0.687070  0.000000  1
  Cu  Cu3  1  0.305758  0.500000  0.805758  1
  Cu  Cu4  1  0.694242  0.500000  0.194242  1
  Cu  Cu5  1  0.163412  0.883183  0.280229  1
  Cu  Cu6  1  0.602953  0.883183  0.719771  1
  Cu  Cu7  1  0.397047  0.116817  0.280229  1
  Cu  Cu8  1  0.836588  0.116817  0.719771  1
  Sn  Sn9  1  0.980234  0.326834  0.653400  1
  Sn  Sn10  1  0.500000  1.000000  0.500000  1
  Sn  Sn11  1  0.019766  0.673166  0.346600  1
  Sn  Sn12  1  0.326566  0.673166  0.653400  1
  Sn  Sn13  1  0.673434  0.326834  0.346600  1
