# generated using pymatgen
data_Ti3ZnN
_symmetry_space_group_name_H-M   'P 1'
_cell_length_a   5.57436019
_cell_length_b   5.57436019
_cell_length_c   8.34463691
_cell_angle_alpha   90.00000000
_cell_angle_beta   90.00000000
_cell_angle_gamma   147.92445222
_symmetry_Int_Tables_number   1
_chemical_formula_structural   Ti3ZnN
_chemical_formula_sum   'Ti6 Zn2 N2'
_cell_volume   137.69630405
_cell_formula_units_Z   2
loop_
 _symmetry_equiv_pos_site_id
 _symmetry_equiv_pos_as_xyz
  1  'x, y, z'
loop_
 _atom_site_type_symbol
 _atom_site_label
 _atom_site_symmetry_multiplicity
 _atom_site_fract_x
 _atom_site_fract_y
 _atom_site_fract_z
 _atom_site_occupancy
  Ti  Ti0  1  0.624437  0.375563  0.958112  1
  Ti  Ti1  1  0.375563  0.624437  0.458112  1
  Ti  Ti2  1  0.375563  0.624437  0.041888  1
  Ti  Ti3  1  0.624437  0.375563  0.541888  1
  Ti  Ti4  1  0.962115  0.037885  0.750000  1
  Ti  Ti5  1  0.037885  0.962115  0.250000  1
  Zn  Zn6  1  0.254401  0.745599  0.750000  1
  Zn  Zn7  1  0.745599  0.254401  0.250000  1
  N  N8  1  0.000000  0.000000  0.000000  1
  N  N9  1  0.000000  0.000000  0.500000  1
