# generated using pymatgen
data_Nb2Tl4S11
_symmetry_space_group_name_H-M   'P 1'
_cell_length_a   8.15813075
_cell_length_b   9.19623144
_cell_length_c   13.50160417
_cell_angle_alpha   107.75708980
_cell_angle_beta   89.04470803
_cell_angle_gamma   94.96228724
_symmetry_Int_Tables_number   1
_chemical_formula_structural   Nb2Tl4S11
_chemical_formula_sum   'Nb4 Tl8 S22'
_cell_volume   961.02036976
_cell_formula_units_Z   2
loop_
 _symmetry_equiv_pos_site_id
 _symmetry_equiv_pos_as_xyz
  1  'x, y, z'
loop_
 _atom_site_type_symbol
 _atom_site_label
 _atom_site_symmetry_multiplicity
 _atom_site_fract_x
 _atom_site_fract_y
 _atom_site_fract_z
 _atom_site_occupancy
  Nb  Nb0  1  0.123335  0.639652  0.307088  1
  Nb  Nb1  1  0.876665  0.360348  0.692912  1
  Nb  Nb2  1  0.332353  0.887508  0.189859  1
  Nb  Nb3  1  0.667647  0.112492  0.810141  1
  Tl  Tl4  1  0.232514  0.578322  0.584149  1
  Tl  Tl5  1  0.767486  0.421678  0.415851  1
  Tl  Tl6  1  0.499502  0.737303  0.889252  1
  Tl  Tl7  1  0.500498  0.262697  0.110748  1
  Tl  Tl8  1  0.213341  0.032738  0.575477  1
  Tl  Tl9  1  0.786659  0.967262  0.424523  1
  Tl  Tl10  1  0.048202  0.241338  0.975470  1
  Tl  Tl11  1  0.951798  0.758662  0.024530  1
  S  S12  1  0.007349  0.288334  0.533405  1
  S  S13  1  0.992651  0.711666  0.466595  1
  S  S14  1  0.613863  0.191710  0.628385  1
  S  S15  1  0.386137  0.808290  0.371615  1
  S  S16  1  0.046833  0.361175  0.248544  1
  S  S17  1  0.953167  0.638825  0.751456  1
  S  S18  1  0.100718  0.510473  0.811404  1
  S  S19  1  0.899282  0.489527  0.188596  1
  S  S20  1  0.390604  0.575913  0.353749  1
  S  S21  1  0.609396  0.424087  0.646251  1
  S  S22  1  0.360328  0.128270  0.332418  1
  S  S23  1  0.639672  0.871730  0.667582  1
  S  S24  1  0.728262  0.043346  0.955516  1
  S  S25  1  0.271738  0.956654  0.044484  1
  S  S26  1  0.516286  0.683868  0.118017  1
  S  S27  1  0.483714  0.316132  0.881983  1
  S  S28  1  0.729286  0.396520  0.886362  1
  S  S29  1  0.270714  0.603480  0.113638  1
  S  S30  1  0.957710  0.136854  0.747801  1
  S  S31  1  0.042290  0.863146  0.252199  1
  S  S32  1  0.580265  0.069964  0.255721  1
  S  S33  1  0.419735  0.930036  0.744279  1
