# generated using pymatgen
data_UCoO4
_symmetry_space_group_name_H-M   'P 1'
_cell_length_a   5.82812625
_cell_length_b   5.82812625
_cell_length_c   5.82812625
_cell_angle_alpha   111.20544988
_cell_angle_beta   111.07424242
_cell_angle_gamma   106.18319230
_symmetry_Int_Tables_number   1
_chemical_formula_structural   UCoO4
_chemical_formula_sum   'U2 Co2 O8'
_cell_volume   152.01912977
_cell_formula_units_Z   2
loop_
 _symmetry_equiv_pos_site_id
 _symmetry_equiv_pos_as_xyz
  1  'x, y, z'
loop_
 _atom_site_type_symbol
 _atom_site_label
 _atom_site_symmetry_multiplicity
 _atom_site_fract_x
 _atom_site_fract_y
 _atom_site_fract_z
 _atom_site_occupancy
  U  U0  1  0.250000  0.726835  0.976835  1
  U  U1  1  0.750000  0.273165  0.023165  1
  Co  Co2  1  0.500000  0.500000  0.500000  1
  Co  Co3  1  1.000000  1.000000  0.500000  1
  O  O4  1  0.017009  0.711109  0.194100  1
  O  O5  1  0.482991  0.177091  0.194100  1
  O  O6  1  0.982991  0.288891  0.805900  1
  O  O7  1  0.517009  0.822909  0.805900  1
  O  O8  1  0.951009  0.727745  0.678753  1
  O  O9  1  0.548991  0.727745  0.276736  1
  O  O10  1  0.451009  0.272255  0.723264  1
  O  O11  1  0.048991  0.272255  0.321247  1
