# generated using pymatgen
data_Yb2Ge
_symmetry_space_group_name_H-M   'P 1'
_cell_length_a   4.81772991
_cell_length_b   7.46135020
_cell_length_c   8.95410824
_cell_angle_alpha   90.00000000
_cell_angle_beta   90.00000000
_cell_angle_gamma   90.00000000
_symmetry_Int_Tables_number   1
_chemical_formula_structural   Yb2Ge
_chemical_formula_sum   'Yb8 Ge4'
_cell_volume   321.87126970
_cell_formula_units_Z   4
loop_
 _symmetry_equiv_pos_site_id
 _symmetry_equiv_pos_as_xyz
  1  'x, y, z'
loop_
 _atom_site_type_symbol
 _atom_site_label
 _atom_site_symmetry_multiplicity
 _atom_site_fract_x
 _atom_site_fract_y
 _atom_site_fract_z
 _atom_site_occupancy
  Yb  Yb0  1  0.750000  0.843516  0.076003  1
  Yb  Yb1  1  0.250000  0.156484  0.923997  1
  Yb  Yb2  1  0.750000  0.343516  0.423997  1
  Yb  Yb3  1  0.250000  0.656484  0.576003  1
  Yb  Yb4  1  0.250000  0.519373  0.180937  1
  Yb  Yb5  1  0.750000  0.480627  0.819063  1
  Yb  Yb6  1  0.250000  0.019373  0.319063  1
  Yb  Yb7  1  0.750000  0.980627  0.680937  1
  Ge  Ge8  1  0.250000  0.751388  0.896697  1
  Ge  Ge9  1  0.750000  0.248612  0.103303  1
  Ge  Ge10  1  0.250000  0.251388  0.603303  1
  Ge  Ge11  1  0.750000  0.748612  0.396697  1
