# generated using pymatgen
data_Li2Ca2Ta3O10
_symmetry_space_group_name_H-M   'P 1'
_cell_length_a   13.56230424
_cell_length_b   13.56230424
_cell_length_c   13.56230424
_cell_angle_alpha   163.09418199
_cell_angle_beta   163.09418199
_cell_angle_gamma   23.99680736
_symmetry_Int_Tables_number   1
_chemical_formula_structural   Li2Ca2Ta3O10
_chemical_formula_sum   'Li2 Ca2 Ta3 O10'
_cell_volume   210.90232680
_cell_formula_units_Z   1
loop_
 _symmetry_equiv_pos_site_id
 _symmetry_equiv_pos_as_xyz
  1  'x, y, z'
loop_
 _atom_site_type_symbol
 _atom_site_label
 _atom_site_symmetry_multiplicity
 _atom_site_fract_x
 _atom_site_fract_y
 _atom_site_fract_z
 _atom_site_occupancy
  Li  Li0  1  0.250000  0.750000  0.500000  1
  Li  Li1  1  0.750000  0.250000  0.500000  1
  Ca  Ca2  1  0.415070  0.415070  0.000000  1
  Ca  Ca3  1  0.584930  0.584930  0.000000  1
  Ta  Ta4  1  0.845500  0.845500  0.000000  1
  Ta  Ta5  1  1.000000  1.000000  0.000000  1
  Ta  Ta6  1  0.154500  0.154500  0.000000  1
  O  O7  1  0.355523  0.855523  0.500000  1
  O  O8  1  0.773945  0.773945  0.000000  1
  O  O9  1  0.226055  0.226055  0.000000  1
  O  O10  1  0.500000  0.000000  0.500000  1
  O  O11  1  0.855523  0.355523  0.500000  1
  O  O12  1  1.000000  0.500000  0.500000  1
  O  O13  1  0.925175  0.925175  0.000000  1
  O  O14  1  0.074825  0.074825  0.000000  1
  O  O15  1  0.144477  0.644477  0.500000  1
  O  O16  1  0.644477  0.144477  0.500000  1
