# generated using pymatgen
data_TmSnAu
_symmetry_space_group_name_H-M   'P 1'
_cell_length_a   4.68235077
_cell_length_b   4.68235077
_cell_length_c   7.40751466
_cell_angle_alpha   90.00000000
_cell_angle_beta   90.00000000
_cell_angle_gamma   120.00000000
_symmetry_Int_Tables_number   1
_chemical_formula_structural   TmSnAu
_chemical_formula_sum   'Tm2 Sn2 Au2'
_cell_volume   140.64718419
_cell_formula_units_Z   2
loop_
 _symmetry_equiv_pos_site_id
 _symmetry_equiv_pos_as_xyz
  1  'x, y, z'
loop_
 _atom_site_type_symbol
 _atom_site_label
 _atom_site_symmetry_multiplicity
 _atom_site_fract_x
 _atom_site_fract_y
 _atom_site_fract_z
 _atom_site_occupancy
  Tm  Tm0  1  0.000000  0.000000  0.479054  1
  Tm  Tm1  1  0.000000  0.000000  0.979054  1
  Sn  Sn2  1  0.333333  0.666667  0.707244  1
  Sn  Sn3  1  0.666667  0.333333  0.207244  1
  Au  Au4  1  0.666667  0.333333  0.813702  1
  Au  Au5  1  0.333333  0.666667  0.313702  1
