# generated using pymatgen
data_KNdTe4
_symmetry_space_group_name_H-M   'P 1'
_cell_length_a   6.94901084
_cell_length_b   6.94901084
_cell_length_c   9.00790960
_cell_angle_alpha   90.00000000
_cell_angle_beta   90.00000000
_cell_angle_gamma   90.00000000
_symmetry_Int_Tables_number   1
_chemical_formula_structural   KNdTe4
_chemical_formula_sum   'K2 Nd2 Te8'
_cell_volume   434.98070960
_cell_formula_units_Z   2
loop_
 _symmetry_equiv_pos_site_id
 _symmetry_equiv_pos_as_xyz
  1  'x, y, z'
loop_
 _atom_site_type_symbol
 _atom_site_label
 _atom_site_symmetry_multiplicity
 _atom_site_fract_x
 _atom_site_fract_y
 _atom_site_fract_z
 _atom_site_occupancy
  K  K0  1  0.500000  0.500000  0.000000  1
  K  K1  1  0.000000  0.000000  0.000000  1
  Nd  Nd2  1  0.500000  0.500000  0.500000  1
  Nd  Nd3  1  0.000000  0.000000  0.500000  1
  Te  Te4  1  0.355885  0.855885  0.286811  1
  Te  Te5  1  0.144115  0.355885  0.286811  1
  Te  Te6  1  0.855885  0.644115  0.286811  1
  Te  Te7  1  0.355885  0.144115  0.713189  1
  Te  Te8  1  0.644115  0.855885  0.713189  1
  Te  Te9  1  0.644115  0.144115  0.286811  1
  Te  Te10  1  0.855885  0.355885  0.713189  1
  Te  Te11  1  0.144115  0.644115  0.713189  1
