# generated using pymatgen
data_ScZn12
_symmetry_space_group_name_H-M   'P 1'
_cell_length_a   6.75675980
_cell_length_b   6.75675980
_cell_length_c   6.75675980
_cell_angle_alpha   98.33723357
_cell_angle_beta   98.33723357
_cell_angle_gamma   135.23504352
_symmetry_Int_Tables_number   1
_chemical_formula_structural   ScZn12
_chemical_formula_sum   'Sc1 Zn12'
_cell_volume   200.86060740
_cell_formula_units_Z   1
loop_
 _symmetry_equiv_pos_site_id
 _symmetry_equiv_pos_as_xyz
  1  'x, y, z'
loop_
 _atom_site_type_symbol
 _atom_site_label
 _atom_site_symmetry_multiplicity
 _atom_site_fract_x
 _atom_site_fract_y
 _atom_site_fract_z
 _atom_site_occupancy
  Sc  Sc0  1  0.000000  0.000000  0.000000  1
  Zn  Zn1  1  0.000000  0.500000  0.000000  1
  Zn  Zn2  1  0.000000  0.000000  0.500000  1
  Zn  Zn3  1  0.500000  0.500000  0.500000  1
  Zn  Zn4  1  0.500000  0.000000  0.000000  1
  Zn  Zn5  1  1.000000  0.351874  0.351874  1
  Zn  Zn6  1  0.648126  0.000000  0.648126  1
  Zn  Zn7  1  0.351874  0.000000  0.351874  1
  Zn  Zn8  1  1.000000  0.648126  0.648126  1
  Zn  Zn9  1  0.500000  0.288128  0.788128  1
  Zn  Zn10  1  0.711872  0.500000  0.211872  1
  Zn  Zn11  1  0.288128  0.500000  0.788128  1
  Zn  Zn12  1  0.500000  0.711872  0.211872  1
