# generated using pymatgen
data_Sn4As3
_symmetry_space_group_name_H-M   'P 1'
_cell_length_a   12.44076889
_cell_length_b   12.44076889
_cell_length_c   12.44076889
_cell_angle_alpha   19.24004531
_cell_angle_beta   19.24004531
_cell_angle_gamma   19.24004531
_symmetry_Int_Tables_number   1
_chemical_formula_structural   Sn4As3
_chemical_formula_sum   'Sn4 As3'
_cell_volume   182.77395324
_cell_formula_units_Z   1
loop_
 _symmetry_equiv_pos_site_id
 _symmetry_equiv_pos_as_xyz
  1  'x, y, z'
loop_
 _atom_site_type_symbol
 _atom_site_label
 _atom_site_symmetry_multiplicity
 _atom_site_fract_x
 _atom_site_fract_y
 _atom_site_fract_z
 _atom_site_occupancy
  Sn  Sn0  1  0.635029  0.635029  0.635029  1
  Sn  Sn1  1  0.364971  0.364971  0.364971  1
  Sn  Sn2  1  0.789438  0.789438  0.789438  1
  Sn  Sn3  1  0.210562  0.210562  0.210562  1
  As  As4  1  0.070284  0.070284  0.070284  1
  As  As5  1  0.500000  0.500000  0.500000  1
  As  As6  1  0.929716  0.929716  0.929716  1
