# generated using pymatgen
data_BaSbTe3
_symmetry_space_group_name_H-M   'P 1'
_cell_length_a   4.61707245
_cell_length_b   17.35766688
_cell_length_c   18.35850183
_cell_angle_alpha   90.00000000
_cell_angle_beta   90.00000000
_cell_angle_gamma   90.00000000
_symmetry_Int_Tables_number   1
_chemical_formula_structural   BaSbTe3
_chemical_formula_sum   'Ba8 Sb8 Te24'
_cell_volume   1471.27981211
_cell_formula_units_Z   8
loop_
 _symmetry_equiv_pos_site_id
 _symmetry_equiv_pos_as_xyz
  1  'x, y, z'
loop_
 _atom_site_type_symbol
 _atom_site_label
 _atom_site_symmetry_multiplicity
 _atom_site_fract_x
 _atom_site_fract_y
 _atom_site_fract_z
 _atom_site_occupancy
  Ba  Ba0  1  0.258350  0.540151  0.666294  1
  Ba  Ba1  1  0.758350  0.959849  0.333706  1
  Ba  Ba2  1  0.741650  0.040151  0.833706  1
  Ba  Ba3  1  0.241650  0.459849  0.166294  1
  Ba  Ba4  1  0.262574  0.396027  0.904503  1
  Ba  Ba5  1  0.762574  0.103973  0.095497  1
  Ba  Ba6  1  0.737426  0.896027  0.595497  1
  Ba  Ba7  1  0.237426  0.603973  0.404503  1
  Sb  Sb8  1  0.775404  0.281176  0.699550  1
  Sb  Sb9  1  0.275404  0.218824  0.300450  1
  Sb  Sb10  1  0.224596  0.781176  0.800450  1
  Sb  Sb11  1  0.724596  0.718824  0.199550  1
  Sb  Sb12  1  0.729124  0.632309  0.970918  1
  Sb  Sb13  1  0.229124  0.867691  0.029082  1
  Sb  Sb14  1  0.270876  0.132309  0.529082  1
  Sb  Sb15  1  0.770876  0.367691  0.470918  1
  Te  Te16  1  0.752145  0.475102  0.025385  1
  Te  Te17  1  0.252145  0.024898  0.974615  1
  Te  Te18  1  0.247855  0.975102  0.474615  1
  Te  Te19  1  0.747855  0.524898  0.525385  1
  Te  Te20  1  0.691545  0.288324  0.191852  1
  Te  Te21  1  0.191545  0.211676  0.808148  1
  Te  Te22  1  0.308455  0.788324  0.308148  1
  Te  Te23  1  0.808455  0.711676  0.691852  1
  Te  Te24  1  0.279512  0.681165  0.091963  1
  Te  Te25  1  0.779512  0.818835  0.908037  1
  Te  Te26  1  0.720488  0.181165  0.408037  1
  Te  Te27  1  0.220488  0.318835  0.591963  1
  Te  Te28  1  0.212845  0.736808  0.558677  1
  Te  Te29  1  0.712845  0.763192  0.441323  1
  Te  Te30  1  0.787155  0.236808  0.941323  1
  Te  Te31  1  0.287155  0.263192  0.058677  1
  Te  Te32  1  0.238192  0.397306  0.368394  1
  Te  Te33  1  0.738192  0.102694  0.631606  1
  Te  Te34  1  0.761808  0.897306  0.131606  1
  Te  Te35  1  0.261808  0.602694  0.868394  1
  Te  Te36  1  0.739089  0.567042  0.267027  1
  Te  Te37  1  0.239089  0.932958  0.732973  1
  Te  Te38  1  0.260911  0.067042  0.232973  1
  Te  Te39  1  0.760911  0.432958  0.767027  1
