# generated using pymatgen
data_Ge2Os
_symmetry_space_group_name_H-M   'P 1'
_cell_length_a   4.81341787
_cell_length_b   4.81341787
_cell_length_c   7.77021222
_cell_angle_alpha   62.48661774
_cell_angle_beta   117.51338226
_cell_angle_gamma   142.02057783
_symmetry_Int_Tables_number   1
_chemical_formula_structural   Ge2Os
_chemical_formula_sum   'Ge4 Os2'
_cell_volume   96.66456763
_cell_formula_units_Z   2
loop_
 _symmetry_equiv_pos_site_id
 _symmetry_equiv_pos_as_xyz
  1  'x, y, z'
loop_
 _atom_site_type_symbol
 _atom_site_label
 _atom_site_symmetry_multiplicity
 _atom_site_fract_x
 _atom_site_fract_y
 _atom_site_fract_z
 _atom_site_occupancy
  Ge  Ge0  1  0.143853  0.856147  0.532156  1
  Ge  Ge1  1  0.856147  0.143853  0.467844  1
  Ge  Ge2  1  0.399238  0.600762  0.111468  1
  Ge  Ge3  1  0.600762  0.399238  0.888532  1
  Os  Os4  1  0.845810  0.154190  0.799042  1
  Os  Os5  1  0.154190  0.845810  0.200958  1
