# generated using pymatgen
data_Ho2Fe14B
_symmetry_space_group_name_H-M   'P 1'
_cell_length_a   8.72324785
_cell_length_b   8.72324785
_cell_length_c   11.87205904
_cell_angle_alpha   90.00000000
_cell_angle_beta   90.00000000
_cell_angle_gamma   90.00000000
_symmetry_Int_Tables_number   1
_chemical_formula_structural   Ho2Fe14B
_chemical_formula_sum   'Ho8 Fe56 B4'
_cell_volume   903.40496249
_cell_formula_units_Z   4
loop_
 _symmetry_equiv_pos_site_id
 _symmetry_equiv_pos_as_xyz
  1  'x, y, z'
loop_
 _atom_site_type_symbol
 _atom_site_label
 _atom_site_symmetry_multiplicity
 _atom_site_fract_x
 _atom_site_fract_y
 _atom_site_fract_z
 _atom_site_occupancy
  Ho  Ho0  1  0.266918  0.733082  0.000000  1
  Ho  Ho1  1  0.766918  0.766918  0.500000  1
  Ho  Ho2  1  0.233082  0.233082  0.500000  1
  Ho  Ho3  1  0.733082  0.266918  0.000000  1
  Ho  Ho4  1  0.856433  0.856433  0.000000  1
  Ho  Ho5  1  0.643567  0.356433  0.500000  1
  Ho  Ho6  1  0.356433  0.643567  0.500000  1
  Ho  Ho7  1  0.143567  0.143567  0.000000  1
  Fe  Fe8  1  0.000000  0.000000  0.615924  1
  Fe  Fe9  1  0.500000  0.500000  0.115924  1
  Fe  Fe10  1  0.500000  0.500000  0.884076  1
  Fe  Fe11  1  0.000000  0.000000  0.384076  1
  Fe  Fe12  1  0.597236  0.597236  0.699953  1
  Fe  Fe13  1  0.402764  0.402764  0.699953  1
  Fe  Fe14  1  0.597236  0.597236  0.300047  1
  Fe  Fe15  1  0.097236  0.902764  0.199953  1
  Fe  Fe16  1  0.902764  0.097236  0.199953  1
  Fe  Fe17  1  0.902764  0.097236  0.800047  1
  Fe  Fe18  1  0.097236  0.902764  0.800047  1
  Fe  Fe19  1  0.402764  0.402764  0.300047  1
  Fe  Fe20  1  0.817070  0.817070  0.745873  1
  Fe  Fe21  1  0.182930  0.182930  0.745873  1
  Fe  Fe22  1  0.817070  0.817070  0.254127  1
  Fe  Fe23  1  0.317070  0.682930  0.245872  1
  Fe  Fe24  1  0.682930  0.317070  0.245872  1
  Fe  Fe25  1  0.682930  0.317070  0.754127  1
  Fe  Fe26  1  0.317070  0.682930  0.754127  1
  Fe  Fe27  1  0.182930  0.182930  0.254127  1
  Fe  Fe28  1  0.141324  0.462916  0.325492  1
  Fe  Fe29  1  0.858676  0.537084  0.325492  1
  Fe  Fe30  1  0.462916  0.141324  0.674508  1
  Fe  Fe31  1  0.962916  0.358676  0.825492  1
  Fe  Fe32  1  0.037084  0.641324  0.825492  1
  Fe  Fe33  1  0.358676  0.962916  0.174508  1
  Fe  Fe34  1  0.641324  0.037084  0.174508  1
  Fe  Fe35  1  0.537084  0.858676  0.674508  1
  Fe  Fe36  1  0.858676  0.537084  0.674508  1
  Fe  Fe37  1  0.141324  0.462916  0.674508  1
  Fe  Fe38  1  0.537084  0.858676  0.325492  1
  Fe  Fe39  1  0.037084  0.641324  0.174508  1
  Fe  Fe40  1  0.962916  0.358676  0.174508  1
  Fe  Fe41  1  0.641324  0.037084  0.825492  1
  Fe  Fe42  1  0.358676  0.962916  0.825492  1
  Fe  Fe43  1  0.462916  0.141324  0.325492  1
  Fe  Fe44  1  0.066108  0.724419  0.373918  1
  Fe  Fe45  1  0.933892  0.275581  0.373918  1
  Fe  Fe46  1  0.724419  0.066108  0.626082  1
  Fe  Fe47  1  0.224419  0.433892  0.873918  1
  Fe  Fe48  1  0.775581  0.566108  0.873918  1
  Fe  Fe49  1  0.433892  0.224419  0.126082  1
  Fe  Fe50  1  0.566108  0.775581  0.126082  1
  Fe  Fe51  1  0.275581  0.933892  0.626082  1
  Fe  Fe52  1  0.933892  0.275581  0.626082  1
  Fe  Fe53  1  0.066108  0.724419  0.626082  1
  Fe  Fe54  1  0.275581  0.933892  0.373918  1
  Fe  Fe55  1  0.775581  0.566108  0.126082  1
  Fe  Fe56  1  0.224419  0.433892  0.126082  1
  Fe  Fe57  1  0.566108  0.775581  0.873918  1
  Fe  Fe58  1  0.433892  0.224419  0.873918  1
  Fe  Fe59  1  0.724419  0.066108  0.373918  1
  Fe  Fe60  1  0.500000  0.000000  0.000000  1
  Fe  Fe61  1  0.500000  0.000000  0.500000  1
  Fe  Fe62  1  0.000000  0.500000  0.500000  1
  Fe  Fe63  1  0.000000  0.500000  0.000000  1
  B  B64  1  0.624762  0.624762  0.000000  1
  B  B65  1  0.875238  0.124762  0.500000  1
  B  B66  1  0.124762  0.875238  0.500000  1
  B  B67  1  0.375238  0.375238  0.000000  1
