# generated using pymatgen
data_ScPPt
_symmetry_space_group_name_H-M   'P 1'
_cell_length_a   3.85887727
_cell_length_b   6.64498548
_cell_length_c   7.48330536
_cell_angle_alpha   90.00000000
_cell_angle_beta   90.00000000
_cell_angle_gamma   90.00000000
_symmetry_Int_Tables_number   1
_chemical_formula_structural   ScPPt
_chemical_formula_sum   'Sc4 P4 Pt4'
_cell_volume   191.88828869
_cell_formula_units_Z   4
loop_
 _symmetry_equiv_pos_site_id
 _symmetry_equiv_pos_as_xyz
  1  'x, y, z'
loop_
 _atom_site_type_symbol
 _atom_site_label
 _atom_site_symmetry_multiplicity
 _atom_site_fract_x
 _atom_site_fract_y
 _atom_site_fract_z
 _atom_site_occupancy
  Sc  Sc0  1  0.250000  0.468351  0.180591  1
  Sc  Sc1  1  0.250000  0.968351  0.319409  1
  Sc  Sc2  1  0.750000  0.031649  0.680591  1
  Sc  Sc3  1  0.750000  0.531649  0.819409  1
  P  P4  1  0.750000  0.744965  0.125146  1
  P  P5  1  0.750000  0.244965  0.374854  1
  P  P6  1  0.250000  0.755035  0.625146  1
  P  P7  1  0.250000  0.255035  0.874854  1
  Pt  Pt8  1  0.750000  0.152464  0.061891  1
  Pt  Pt9  1  0.750000  0.652464  0.438109  1
  Pt  Pt10  1  0.250000  0.347536  0.561891  1
  Pt  Pt11  1  0.250000  0.847536  0.938109  1
