# generated using pymatgen
data_Ca3AlSb3
_symmetry_space_group_name_H-M   'P 1'
_cell_length_a   4.52391758
_cell_length_b   12.96918840
_cell_length_c   14.34802471
_cell_angle_alpha   90.00000000
_cell_angle_beta   90.00000000
_cell_angle_gamma   90.00000000
_symmetry_Int_Tables_number   1
_chemical_formula_structural   Ca3AlSb3
_chemical_formula_sum   'Ca12 Al4 Sb12'
_cell_volume   841.82069710
_cell_formula_units_Z   4
loop_
 _symmetry_equiv_pos_site_id
 _symmetry_equiv_pos_as_xyz
  1  'x, y, z'
loop_
 _atom_site_type_symbol
 _atom_site_label
 _atom_site_symmetry_multiplicity
 _atom_site_fract_x
 _atom_site_fract_y
 _atom_site_fract_z
 _atom_site_occupancy
  Ca  Ca0  1  0.250000  0.558122  0.612082  1
  Ca  Ca1  1  0.750000  0.441878  0.387918  1
  Ca  Ca2  1  0.250000  0.058122  0.887918  1
  Ca  Ca3  1  0.750000  0.941878  0.112082  1
  Ca  Ca4  1  0.250000  0.349978  0.003342  1
  Ca  Ca5  1  0.750000  0.650022  0.996658  1
  Ca  Ca6  1  0.250000  0.849978  0.496658  1
  Ca  Ca7  1  0.750000  0.150022  0.503342  1
  Ca  Ca8  1  0.750000  0.727564  0.279298  1
  Ca  Ca9  1  0.250000  0.272436  0.720702  1
  Ca  Ca10  1  0.750000  0.227564  0.220702  1
  Ca  Ca11  1  0.250000  0.772436  0.779298  1
  Al  Al12  1  0.250000  0.567859  0.203401  1
  Al  Al13  1  0.750000  0.432141  0.796599  1
  Al  Al14  1  0.250000  0.067859  0.296599  1
  Al  Al15  1  0.750000  0.932141  0.703401  1
  Sb  Sb16  1  0.250000  0.756608  0.118534  1
  Sb  Sb17  1  0.750000  0.243392  0.881466  1
  Sb  Sb18  1  0.250000  0.256608  0.381466  1
  Sb  Sb19  1  0.750000  0.743392  0.618534  1
  Sb  Sb20  1  0.250000  0.614183  0.390727  1
  Sb  Sb21  1  0.750000  0.385817  0.609273  1
  Sb  Sb22  1  0.250000  0.114183  0.109273  1
  Sb  Sb23  1  0.750000  0.885817  0.890727  1
  Sb  Sb24  1  0.250000  0.540094  0.850418  1
  Sb  Sb25  1  0.750000  0.459906  0.149582  1
  Sb  Sb26  1  0.250000  0.040094  0.649582  1
  Sb  Sb27  1  0.750000  0.959906  0.350418  1
