# generated using pymatgen
data_LiB(S2O7)2
_symmetry_space_group_name_H-M   'P 1'
_cell_length_a   11.15555852
_cell_length_b   11.20169502
_cell_length_c   18.56885920
_cell_angle_alpha   90.00000000
_cell_angle_beta   90.00000000
_cell_angle_gamma   90.00000000
_symmetry_Int_Tables_number   1
_chemical_formula_structural   LiB(S2O7)2
_chemical_formula_sum   'Li8 B8 S32 O112'
_cell_volume   2320.38626570
_cell_formula_units_Z   8
loop_
 _symmetry_equiv_pos_site_id
 _symmetry_equiv_pos_as_xyz
  1  'x, y, z'
loop_
 _atom_site_type_symbol
 _atom_site_label
 _atom_site_symmetry_multiplicity
 _atom_site_fract_x
 _atom_site_fract_y
 _atom_site_fract_z
 _atom_site_occupancy
  Li  Li0  1  0.893736  0.137502  0.093810  1
  Li  Li1  1  0.606264  0.862498  0.593810  1
  Li  Li2  1  0.393736  0.362498  0.906190  1
  Li  Li3  1  0.106264  0.637502  0.406190  1
  Li  Li4  1  0.380236  0.655367  0.153654  1
  Li  Li5  1  0.119764  0.344633  0.653654  1
  Li  Li6  1  0.880236  0.844633  0.846346  1
  Li  Li7  1  0.619764  0.155367  0.346346  1
  B  B8  1  0.094161  0.145764  0.373807  1
  B  B9  1  0.405839  0.854236  0.873807  1
  B  B10  1  0.594161  0.354236  0.626193  1
  B  B11  1  0.905839  0.645764  0.126193  1
  B  B12  1  0.361353  0.120637  0.125689  1
  B  B13  1  0.138647  0.879363  0.625689  1
  B  B14  1  0.861353  0.379363  0.874311  1
  B  B15  1  0.638647  0.620637  0.374311  1
  S  S16  1  0.158893  0.337202  0.459771  1
  S  S17  1  0.341107  0.662798  0.959771  1
  S  S18  1  0.658893  0.162798  0.540229  1
  S  S19  1  0.841107  0.837202  0.040229  1
  S  S20  1  0.315236  0.230246  0.355999  1
  S  S21  1  0.184764  0.769754  0.855999  1
  S  S22  1  0.815236  0.269754  0.644001  1
  S  S23  1  0.684764  0.730246  0.144001  1
  S  S24  1  0.909786  0.092301  0.287072  1
  S  S25  1  0.590214  0.907699  0.787072  1
  S  S26  1  0.409786  0.407699  0.712928  1
  S  S27  1  0.090214  0.592301  0.212928  1
  S  S28  1  0.984530  0.927943  0.396538  1
  S  S29  1  0.515470  0.072057  0.896538  1
  S  S30  1  0.484530  0.572057  0.603462  1
  S  S31  1  0.015470  0.427943  0.103462  1
  S  S32  1  0.278597  0.923995  0.190495  1
  S  S33  1  0.221403  0.076005  0.690495  1
  S  S34  1  0.778597  0.576005  0.809505  1
  S  S35  1  0.721403  0.423995  0.309505  1
  S  S36  1  0.167179  0.028892  0.064288  1
  S  S37  1  0.332821  0.971108  0.564288  1
  S  S38  1  0.667179  0.471108  0.935712  1
  S  S39  1  0.832821  0.528892  0.435712  1
  S  S40  1  0.593063  0.173531  0.145566  1
  S  S41  1  0.906937  0.826469  0.645566  1
  S  S42  1  0.093063  0.326469  0.854434  1
  S  S43  1  0.406937  0.673531  0.354434  1
  S  S44  1  0.413426  0.347912  0.106627  1
  S  S45  1  0.086574  0.652088  0.606627  1
  S  S46  1  0.913426  0.152088  0.893373  1
  S  S47  1  0.586574  0.847912  0.393373  1
  O  O48  1  0.151712  0.314540  0.535368  1
  O  O49  1  0.348288  0.685460  0.035368  1
  O  O50  1  0.651712  0.185460  0.464632  1
  O  O51  1  0.848288  0.814540  0.964632  1
  O  O52  1  0.144738  0.455703  0.433006  1
  O  O53  1  0.355262  0.544297  0.933006  1
  O  O54  1  0.644738  0.044297  0.566994  1
  O  O55  1  0.855262  0.955703  0.066994  1
  O  O56  1  0.430934  0.177738  0.361949  1
  O  O57  1  0.069066  0.822262  0.861949  1
  O  O58  1  0.930934  0.322262  0.638051  1
  O  O59  1  0.569066  0.677738  0.138051  1
  O  O60  1  0.288165  0.319543  0.303693  1
  O  O61  1  0.211835  0.680457  0.803693  1
  O  O62  1  0.788165  0.180457  0.696307  1
  O  O63  1  0.711835  0.819543  0.196307  1
  O  O64  1  0.813123  0.135088  0.331188  1
  O  O65  1  0.686877  0.864912  0.831188  1
  O  O66  1  0.313123  0.364912  0.668812  1
  O  O67  1  0.186877  0.635088  0.168812  1
  O  O68  1  0.897610  0.085245  0.210991  1
  O  O69  1  0.602390  0.914755  0.710991  1
  O  O70  1  0.397610  0.414755  0.789009  1
  O  O71  1  0.102390  0.585245  0.289009  1
  O  O72  1  0.880001  0.917063  0.439788  1
  O  O73  1  0.619999  0.082937  0.939788  1
  O  O74  1  0.380001  0.582937  0.560212  1
  O  O75  1  0.119999  0.417063  0.060212  1
  O  O76  1  0.067252  0.831117  0.388784  1
  O  O77  1  0.432748  0.168883  0.888784  1
  O  O78  1  0.567252  0.668883  0.611216  1
  O  O79  1  0.932748  0.331117  0.111216  1
  O  O80  1  0.215096  0.900730  0.255214  1
  O  O81  1  0.284904  0.099270  0.755214  1
  O  O82  1  0.715096  0.599270  0.744786  1
  O  O83  1  0.784904  0.400730  0.244786  1
  O  O84  1  0.372629  0.846261  0.166185  1
  O  O85  1  0.127371  0.153739  0.666185  1
  O  O86  1  0.872629  0.653739  0.833815  1
  O  O87  1  0.627371  0.346261  0.333815  1
  O  O88  1  0.141703  0.968130  0.998948  1
  O  O89  1  0.358297  0.031870  0.498948  1
  O  O90  1  0.641703  0.531870  0.001052  1
  O  O91  1  0.858297  0.468130  0.501052  1
  O  O92  1  0.087141  0.117058  0.093036  1
  O  O93  1  0.412859  0.882942  0.593036  1
  O  O94  1  0.587141  0.382942  0.906964  1
  O  O95  1  0.912859  0.617058  0.406964  1
  O  O96  1  0.697910  0.164418  0.102020  1
  O  O97  1  0.802090  0.835582  0.602020  1
  O  O98  1  0.197910  0.335582  0.897980  1
  O  O99  1  0.302090  0.664418  0.397980  1
  O  O100  1  0.597072  0.150115  0.221167  1
  O  O101  1  0.902928  0.849885  0.721167  1
  O  O102  1  0.097072  0.349885  0.778833  1
  O  O103  1  0.402928  0.650115  0.278833  1
  O  O104  1  0.388366  0.458103  0.141581  1
  O  O105  1  0.111634  0.541897  0.641581  1
  O  O106  1  0.888366  0.041897  0.858419  1
  O  O107  1  0.611634  0.958103  0.358419  1
  O  O108  1  0.414917  0.337656  0.029870  1
  O  O109  1  0.085083  0.662344  0.529870  1
  O  O110  1  0.914917  0.162344  0.970130  1
  O  O111  1  0.585083  0.837656  0.470130  1
  O  O112  1  0.073822  0.254686  0.417174  1
  O  O113  1  0.426178  0.745314  0.917174  1
  O  O114  1  0.573822  0.245314  0.582826  1
  O  O115  1  0.926178  0.754686  0.082826  1
  O  O116  1  0.221945  0.127976  0.357041  1
  O  O117  1  0.278055  0.872024  0.857041  1
  O  O118  1  0.721945  0.372024  0.642959  1
  O  O119  1  0.778055  0.627976  0.142959  1
  O  O120  1  0.027855  0.158133  0.304985  1
  O  O121  1  0.472145  0.841867  0.804985  1
  O  O122  1  0.527855  0.341867  0.695015  1
  O  O123  1  0.972145  0.658133  0.195015  1
  O  O124  1  0.050771  0.044366  0.416975  1
  O  O125  1  0.449229  0.955634  0.916975  1
  O  O126  1  0.550771  0.455634  0.583025  1
  O  O127  1  0.949229  0.544366  0.083025  1
  O  O128  1  0.320995  0.056248  0.190790  1
  O  O129  1  0.179005  0.943752  0.690790  1
  O  O130  1  0.820995  0.443752  0.809210  1
  O  O131  1  0.679005  0.556248  0.309210  1
  O  O132  1  0.297986  0.076355  0.061295  1
  O  O133  1  0.202014  0.923645  0.561295  1
  O  O134  1  0.797986  0.423645  0.938705  1
  O  O135  1  0.702014  0.576355  0.438705  1
  O  O136  1  0.490441  0.103174  0.108494  1
  O  O137  1  0.009559  0.896826  0.608494  1
  O  O138  1  0.990441  0.396826  0.891506  1
  O  O139  1  0.509559  0.603174  0.391506  1
  O  O140  1  0.336725  0.248049  0.141446  1
  O  O141  1  0.163275  0.751951  0.641446  1
  O  O142  1  0.836725  0.251951  0.858554  1
  O  O143  1  0.663275  0.748049  0.358554  1
  O  O144  1  0.292274  0.288094  0.437693  1
  O  O145  1  0.207726  0.711906  0.937693  1
  O  O146  1  0.792274  0.211906  0.562307  1
  O  O147  1  0.707726  0.788094  0.062307  1
  O  O148  1  0.942970  0.955923  0.311654  1
  O  O149  1  0.557030  0.044077  0.811654  1
  O  O150  1  0.442970  0.544077  0.688346  1
  O  O151  1  0.057030  0.455923  0.188346  1
  O  O152  1  0.177192  0.923316  0.125863  1
  O  O153  1  0.322808  0.076684  0.625863  1
  O  O154  1  0.677192  0.576684  0.874137  1
  O  O155  1  0.822808  0.423316  0.374137  1
  O  O156  1  0.548066  0.313241  0.136918  1
  O  O157  1  0.951934  0.686759  0.636918  1
  O  O158  1  0.048066  0.186759  0.863082  1
  O  O159  1  0.451934  0.813241  0.363082  1
