# generated using pymatgen
data_BaWO4
_symmetry_space_group_name_H-M   'P 1'
_cell_length_a   7.62845088
_cell_length_b   7.62845088
_cell_length_c   7.62845088
_cell_angle_alpha   135.82672073
_cell_angle_beta   135.82672073
_cell_angle_gamma   64.24834171
_symmetry_Int_Tables_number   1
_chemical_formula_structural   BaWO4
_chemical_formula_sum   'Ba2 W2 O8'
_cell_volume   212.61535738
_cell_formula_units_Z   2
loop_
 _symmetry_equiv_pos_site_id
 _symmetry_equiv_pos_as_xyz
  1  'x, y, z'
loop_
 _atom_site_type_symbol
 _atom_site_label
 _atom_site_symmetry_multiplicity
 _atom_site_fract_x
 _atom_site_fract_y
 _atom_site_fract_z
 _atom_site_occupancy
  Ba  Ba0  1  0.250000  0.750000  0.500000  1
  Ba  Ba1  1  0.500000  0.500000  0.000000  1
  W  W2  1  0.755078  0.255078  0.500000  1
  W  W3  1  0.005078  0.005078  0.000000  1
  O  O4  1  0.155417  0.049246  0.358874  1
  O  O5  1  0.690372  0.796543  0.641126  1
  O  O6  1  0.059628  0.453457  0.858874  1
  O  O7  1  0.546543  0.405417  0.606171  1
  O  O8  1  0.203457  0.844583  0.893829  1
  O  O9  1  0.950754  0.309628  0.106171  1
  O  O10  1  0.799246  0.940372  0.393829  1
  O  O11  1  0.594583  0.200754  0.141126  1
