# generated using pymatgen
data_Ca11Sb10
_symmetry_space_group_name_H-M   'P 1'
_cell_length_a   12.17583663
_cell_length_b   12.17583663
_cell_length_c   12.17583663
_cell_angle_alpha   120.59851288
_cell_angle_beta   120.59851288
_cell_angle_gamma   88.96643410
_symmetry_Int_Tables_number   1
_chemical_formula_structural   Ca11Sb10
_chemical_formula_sum   'Ca22 Sb20'
_cell_volume   1264.61427740
_cell_formula_units_Z   2
loop_
 _symmetry_equiv_pos_site_id
 _symmetry_equiv_pos_as_xyz
  1  'x, y, z'
loop_
 _atom_site_type_symbol
 _atom_site_label
 _atom_site_symmetry_multiplicity
 _atom_site_fract_x
 _atom_site_fract_y
 _atom_site_fract_z
 _atom_site_occupancy
  Ca  Ca0  1  0.440544  0.189024  0.251520  1
  Ca  Ca1  1  0.189024  0.937505  0.748480  1
  Ca  Ca2  1  0.189024  0.440544  0.251520  1
  Ca  Ca3  1  0.559456  0.810976  0.748480  1
  Ca  Ca4  1  0.062495  0.810976  0.251520  1
  Ca  Ca5  1  0.810976  0.062495  0.251520  1
  Ca  Ca6  1  0.810976  0.559456  0.748480  1
  Ca  Ca7  1  0.937505  0.189024  0.748480  1
  Ca  Ca8  1  0.164456  0.164456  0.328912  1
  Ca  Ca9  1  0.164456  0.835544  0.000000  1
  Ca  Ca10  1  0.835544  0.164456  0.000000  1
  Ca  Ca11  1  0.835544  0.835544  0.671088  1
  Ca  Ca12  1  0.334983  0.334983  0.000000  1
  Ca  Ca13  1  0.665017  0.665017  0.000000  1
  Ca  Ca14  1  0.735960  0.396627  0.339333  1
  Ca  Ca15  1  0.396627  0.057293  0.660667  1
  Ca  Ca16  1  0.396627  0.735960  0.339333  1
  Ca  Ca17  1  0.264040  0.603373  0.660667  1
  Ca  Ca18  1  0.942707  0.603373  0.339333  1
  Ca  Ca19  1  0.603373  0.942707  0.339333  1
  Ca  Ca20  1  0.603373  0.264040  0.660667  1
  Ca  Ca21  1  0.057293  0.396627  0.660667  1
  Sb  Sb22  1  0.000000  0.348326  0.348326  1
  Sb  Sb23  1  0.348326  1.000000  0.348326  1
  Sb  Sb24  1  0.651674  1.000000  0.651674  1
  Sb  Sb25  1  0.000000  0.651674  0.651674  1
  Sb  Sb26  1  0.128194  0.128194  0.000000  1
  Sb  Sb27  1  0.871806  0.871806  0.000000  1
  Sb  Sb28  1  0.373561  0.373561  0.747121  1
  Sb  Sb29  1  0.373561  0.626439  0.000000  1
  Sb  Sb30  1  0.626439  0.373561  0.000000  1
  Sb  Sb31  1  0.626439  0.626439  0.252879  1
  Sb  Sb32  1  0.750000  0.250000  0.500000  1
  Sb  Sb33  1  0.250000  0.750000  0.500000  1
  Sb  Sb34  1  0.530931  0.530931  0.412462  1
  Sb  Sb35  1  0.530931  0.118470  0.000000  1
  Sb  Sb36  1  0.118470  0.530931  0.000000  1
  Sb  Sb37  1  0.469069  0.881530  0.000000  1
  Sb  Sb38  1  0.881530  0.469069  0.000000  1
  Sb  Sb39  1  0.881530  0.881530  0.412462  1
  Sb  Sb40  1  0.469069  0.469069  0.587538  1
  Sb  Sb41  1  0.118470  0.118470  0.587538  1
