# generated using pymatgen
data_CdCu2GeS4
_symmetry_space_group_name_H-M   'P 1'
_cell_length_a   6.34310423
_cell_length_b   6.60492944
_cell_length_c   7.76274012
_cell_angle_alpha   90.00000000
_cell_angle_beta   90.00000000
_cell_angle_gamma   90.00000000
_symmetry_Int_Tables_number   1
_chemical_formula_structural   CdCu2GeS4
_chemical_formula_sum   'Cd2 Cu4 Ge2 S8'
_cell_volume   325.22586495
_cell_formula_units_Z   2
loop_
 _symmetry_equiv_pos_site_id
 _symmetry_equiv_pos_as_xyz
  1  'x, y, z'
loop_
 _atom_site_type_symbol
 _atom_site_label
 _atom_site_symmetry_multiplicity
 _atom_site_fract_x
 _atom_site_fract_y
 _atom_site_fract_z
 _atom_site_occupancy
  Cd  Cd0  1  0.506962  0.843067  0.500000  1
  Cd  Cd1  1  0.006962  0.156933  0.000000  1
  Cu  Cu2  1  0.005648  0.671609  0.748876  1
  Cu  Cu3  1  0.505648  0.328391  0.248876  1
  Cu  Cu4  1  0.505648  0.328391  0.751124  1
  Cu  Cu5  1  0.005648  0.671609  0.251124  1
  Ge  Ge6  1  0.009168  0.177422  0.500000  1
  Ge  Ge7  1  0.509168  0.822578  0.000000  1
  S  S8  1  0.102007  0.844062  0.500000  1
  S  S9  1  0.602007  0.155938  0.000000  1
  S  S10  1  0.650878  0.205067  0.500000  1
  S  S11  1  0.150878  0.794933  0.000000  1
  S  S12  1  0.642345  0.654259  0.769043  1
  S  S13  1  0.642345  0.654259  0.230957  1
  S  S14  1  0.142345  0.345741  0.269043  1
  S  S15  1  0.142345  0.345741  0.730957  1
