# generated using pymatgen
data_SrSiO3
_symmetry_space_group_name_H-M   'P 1'
_cell_length_a   7.03028659
_cell_length_b   7.04131002
_cell_length_c   9.84497603
_cell_angle_alpha   69.08136606
_cell_angle_beta   83.51060355
_cell_angle_gamma   75.34288703
_symmetry_Int_Tables_number   1
_chemical_formula_structural   SrSiO3
_chemical_formula_sum   'Sr6 Si6 O18'
_cell_volume   440.27521522
_cell_formula_units_Z   6
loop_
 _symmetry_equiv_pos_site_id
 _symmetry_equiv_pos_as_xyz
  1  'x, y, z'
loop_
 _atom_site_type_symbol
 _atom_site_label
 _atom_site_symmetry_multiplicity
 _atom_site_fract_x
 _atom_site_fract_y
 _atom_site_fract_z
 _atom_site_occupancy
  Sr  Sr0  1  0.585182  0.235749  0.654516  1
  Sr  Sr1  1  0.414818  0.764251  0.345484  1
  Sr  Sr2  1  0.083140  0.405571  0.339858  1
  Sr  Sr3  1  0.916860  0.594429  0.660142  1
  Sr  Sr4  1  0.238297  0.252401  0.996608  1
  Sr  Sr5  1  0.761703  0.747599  0.003392  1
  Si  Si6  1  0.039845  0.020940  0.705863  1
  Si  Si7  1  0.960155  0.979060  0.294137  1
  Si  Si8  1  0.269047  0.768936  0.978150  1
  Si  Si9  1  0.730953  0.231064  0.021850  1
  Si  Si10  1  0.379177  0.668655  0.706077  1
  Si  Si11  1  0.620823  0.331345  0.293923  1
  O  O12  1  0.963125  0.263361  0.607362  1
  O  O13  1  0.036875  0.736639  0.392638  1
  O  O14  1  0.859422  0.902364  0.739896  1
  O  O15  1  0.140578  0.097636  0.260104  1
  O  O16  1  0.134529  0.994519  0.862823  1
  O  O17  1  0.865471  0.005481  0.137177  1
  O  O18  1  0.135107  0.601719  0.056544  1
  O  O19  1  0.864893  0.398281  0.943456  1
  O  O20  1  0.384485  0.835966  0.080045  1
  O  O21  1  0.615515  0.164034  0.919955  1
  O  O22  1  0.437106  0.687926  0.860098  1
  O  O23  1  0.562894  0.312074  0.139902  1
  O  O24  1  0.731165  0.520225  0.263123  1
  O  O25  1  0.268835  0.479775  0.736877  1
  O  O26  1  0.772690  0.100277  0.377816  1
  O  O27  1  0.227310  0.899723  0.622184  1
  O  O28  1  0.431763  0.365711  0.400979  1
  O  O29  1  0.568237  0.634289  0.599021  1
