# generated using pymatgen
data_Na4WO5
_symmetry_space_group_name_H-M   'P 1'
_cell_length_a   5.74220015
_cell_length_b   5.77678674
_cell_length_c   8.61041341
_cell_angle_alpha   109.21437965
_cell_angle_beta   101.32926927
_cell_angle_gamma   102.32052243
_symmetry_Int_Tables_number   1
_chemical_formula_structural   Na4WO5
_chemical_formula_sum   'Na8 W2 O10'
_cell_volume   252.24914113
_cell_formula_units_Z   2
loop_
 _symmetry_equiv_pos_site_id
 _symmetry_equiv_pos_as_xyz
  1  'x, y, z'
loop_
 _atom_site_type_symbol
 _atom_site_label
 _atom_site_symmetry_multiplicity
 _atom_site_fract_x
 _atom_site_fract_y
 _atom_site_fract_z
 _atom_site_occupancy
  Na  Na0  1  0.308268  0.512422  0.902239  1
  Na  Na1  1  0.119453  0.507362  0.292849  1
  Na  Na2  1  0.302058  0.997113  0.397918  1
  Na  Na3  1  0.697942  0.002887  0.602082  1
  Na  Na4  1  0.691732  0.487578  0.097761  1
  Na  Na5  1  0.500000  0.500000  0.500000  1
  Na  Na6  1  0.500000  0.000000  0.000000  1
  Na  Na7  1  0.880547  0.492638  0.707151  1
  W  W8  1  0.101469  0.003100  0.795099  1
  W  W9  1  0.898531  0.996900  0.204901  1
  O  O10  1  0.759973  0.785120  0.844161  1
  O  O11  1  0.240027  0.214880  0.155839  1
  O  O12  1  0.091660  0.220913  0.600666  1
  O  O13  1  0.908340  0.779087  0.399334  1
  O  O14  1  0.563509  0.778240  0.241769  1
  O  O15  1  0.436491  0.221760  0.758231  1
  O  O16  1  0.922724  0.190739  0.963422  1
  O  O17  1  0.077276  0.809261  0.036578  1
  O  O18  1  0.740640  0.208977  0.314483  1
  O  O19  1  0.259360  0.791023  0.685517  1
