# generated using pymatgen
data_Th2Au
_symmetry_space_group_name_H-M   'P 1'
_cell_length_a   6.09043977
_cell_length_b   6.09043977
_cell_length_c   6.09043977
_cell_angle_alpha   104.34320072
_cell_angle_beta   104.34320072
_cell_angle_gamma   120.30087768
_symmetry_Int_Tables_number   1
_chemical_formula_structural   Th2Au
_chemical_formula_sum   'Th4 Au2'
_cell_volume   169.17604600
_cell_formula_units_Z   2
loop_
 _symmetry_equiv_pos_site_id
 _symmetry_equiv_pos_as_xyz
  1  'x, y, z'
loop_
 _atom_site_type_symbol
 _atom_site_label
 _atom_site_symmetry_multiplicity
 _atom_site_fract_x
 _atom_site_fract_y
 _atom_site_fract_z
 _atom_site_occupancy
  Th  Th0  1  0.157380  0.342620  0.500000  1
  Th  Th1  1  0.842620  0.657380  0.500000  1
  Th  Th2  1  0.342620  0.842620  0.185240  1
  Th  Th3  1  0.657380  0.157380  0.814760  1
  Au  Au4  1  0.750000  0.750000  0.000000  1
  Au  Au5  1  0.250000  0.250000  0.000000  1
