# generated using pymatgen
data_Nd5Ge4
_symmetry_space_group_name_H-M   'P 1'
_cell_length_a   7.95292715
_cell_length_b   8.04296994
_cell_length_c   15.23772484
_cell_angle_alpha   90.00000000
_cell_angle_beta   90.00000000
_cell_angle_gamma   90.00000000
_symmetry_Int_Tables_number   1
_chemical_formula_structural   Nd5Ge4
_chemical_formula_sum   'Nd20 Ge16'
_cell_volume   974.68341604
_cell_formula_units_Z   4
loop_
 _symmetry_equiv_pos_site_id
 _symmetry_equiv_pos_as_xyz
  1  'x, y, z'
loop_
 _atom_site_type_symbol
 _atom_site_label
 _atom_site_symmetry_multiplicity
 _atom_site_fract_x
 _atom_site_fract_y
 _atom_site_fract_z
 _atom_site_occupancy
  Nd  Nd0  1  0.379688  0.160063  0.114677  1
  Nd  Nd1  1  0.879688  0.339937  0.385323  1
  Nd  Nd2  1  0.120312  0.660063  0.885323  1
  Nd  Nd3  1  0.620312  0.839937  0.614677  1
  Nd  Nd4  1  0.379688  0.160063  0.385323  1
  Nd  Nd5  1  0.879688  0.339937  0.114677  1
  Nd  Nd6  1  0.120312  0.660063  0.614677  1
  Nd  Nd7  1  0.620312  0.839937  0.885323  1
  Nd  Nd8  1  0.024622  0.821354  0.397371  1
  Nd  Nd9  1  0.524622  0.678646  0.102629  1
  Nd  Nd10  1  0.475378  0.321354  0.602629  1
  Nd  Nd11  1  0.975378  0.178646  0.897371  1
  Nd  Nd12  1  0.975378  0.178646  0.602629  1
  Nd  Nd13  1  0.475378  0.321354  0.897371  1
  Nd  Nd14  1  0.524622  0.678646  0.397371  1
  Nd  Nd15  1  0.024622  0.821354  0.102629  1
  Nd  Nd16  1  0.285520  0.997086  0.750000  1
  Nd  Nd17  1  0.785520  0.502914  0.750000  1
  Nd  Nd18  1  0.214480  0.497086  0.250000  1
  Nd  Nd19  1  0.714480  0.002914  0.250000  1
  Ge  Ge20  1  0.778084  0.532204  0.544902  1
  Ge  Ge21  1  0.278084  0.967796  0.955098  1
  Ge  Ge22  1  0.721916  0.032204  0.455098  1
  Ge  Ge23  1  0.221916  0.467796  0.044902  1
  Ge  Ge24  1  0.221916  0.467796  0.455098  1
  Ge  Ge25  1  0.721916  0.032204  0.044902  1
  Ge  Ge26  1  0.278084  0.967796  0.544902  1
  Ge  Ge27  1  0.778084  0.532204  0.955098  1
  Ge  Ge28  1  0.911694  0.889935  0.750000  1
  Ge  Ge29  1  0.411694  0.610065  0.750000  1
  Ge  Ge30  1  0.588306  0.389935  0.250000  1
  Ge  Ge31  1  0.088306  0.110065  0.250000  1
  Ge  Ge32  1  0.174381  0.366847  0.750000  1
  Ge  Ge33  1  0.674381  0.133153  0.750000  1
  Ge  Ge34  1  0.325619  0.866847  0.250000  1
  Ge  Ge35  1  0.825619  0.633153  0.250000  1
