# generated using pymatgen
data_Mn3Cr2(SiO4)3
_symmetry_space_group_name_H-M   'P 1'
_cell_length_a   10.33695383
_cell_length_b   10.33695383
_cell_length_c   10.33695383
_cell_angle_alpha   109.47122063
_cell_angle_beta   109.47122063
_cell_angle_gamma   109.47122063
_symmetry_Int_Tables_number   1
_chemical_formula_structural   Mn3Cr2(SiO4)3
_chemical_formula_sum   'Mn12 Cr8 Si12 O48'
_cell_volume   850.26800785
_cell_formula_units_Z   4
loop_
 _symmetry_equiv_pos_site_id
 _symmetry_equiv_pos_as_xyz
  1  'x, y, z'
loop_
 _atom_site_type_symbol
 _atom_site_label
 _atom_site_symmetry_multiplicity
 _atom_site_fract_x
 _atom_site_fract_y
 _atom_site_fract_z
 _atom_site_occupancy
  Mn  Mn0  1  0.250000  0.875000  0.625000  1
  Mn  Mn1  1  0.875000  0.625000  0.250000  1
  Mn  Mn2  1  0.625000  0.875000  0.750000  1
  Mn  Mn3  1  0.875000  0.750000  0.625000  1
  Mn  Mn4  1  0.625000  0.250000  0.875000  1
  Mn  Mn5  1  0.750000  0.625000  0.875000  1
  Mn  Mn6  1  0.750000  0.125000  0.375000  1
  Mn  Mn7  1  0.125000  0.375000  0.750000  1
  Mn  Mn8  1  0.375000  0.125000  0.250000  1
  Mn  Mn9  1  0.125000  0.250000  0.375000  1
  Mn  Mn10  1  0.375000  0.750000  0.125000  1
  Mn  Mn11  1  0.250000  0.375000  0.125000  1
  Cr  Cr12  1  0.500000  0.500000  0.500000  1
  Cr  Cr13  1  0.500000  0.500000  0.000000  1
  Cr  Cr14  1  0.500000  1.000000  0.500000  1
  Cr  Cr15  1  1.000000  0.500000  0.500000  1
  Cr  Cr16  1  0.500000  1.000000  0.000000  1
  Cr  Cr17  1  1.000000  1.000000  0.500000  1
  Cr  Cr18  1  0.000000  0.500000  0.000000  1
  Cr  Cr19  1  0.000000  0.000000  0.000000  1
  Si  Si20  1  0.250000  0.125000  0.875000  1
  Si  Si21  1  0.750000  0.875000  0.125000  1
  Si  Si22  1  0.375000  0.250000  0.625000  1
  Si  Si23  1  0.625000  0.375000  0.250000  1
  Si  Si24  1  0.125000  0.750000  0.875000  1
  Si  Si25  1  0.875000  0.125000  0.750000  1
  Si  Si26  1  0.750000  0.375000  0.625000  1
  Si  Si27  1  0.375000  0.625000  0.750000  1
  Si  Si28  1  0.125000  0.875000  0.250000  1
  Si  Si29  1  0.875000  0.250000  0.125000  1
  Si  Si30  1  0.625000  0.750000  0.375000  1
  Si  Si31  1  0.250000  0.625000  0.375000  1
  O  O32  1  0.707282  0.692176  0.086739  1
  O  O33  1  0.692176  0.105437  0.984894  1
  O  O34  1  0.620543  0.707282  0.515106  1
  O  O35  1  0.515106  0.620543  0.707282  1
  O  O36  1  0.086739  0.879457  0.394563  1
  O  O37  1  0.394563  0.086739  0.879457  1
  O  O38  1  0.105437  0.984894  0.692176  1
  O  O39  1  0.620543  0.413261  0.105437  1
  O  O40  1  0.515106  0.394563  0.807824  1
  O  O41  1  0.879457  0.984894  0.792718  1
  O  O42  1  0.413261  0.105437  0.620543  1
  O  O43  1  0.807824  0.515106  0.394563  1
  O  O44  1  0.984894  0.792718  0.879457  1
  O  O45  1  0.086739  0.707282  0.692176  1
  O  O46  1  0.692176  0.086739  0.707282  1
  O  O47  1  0.105437  0.620543  0.413261  1
  O  O48  1  0.807824  0.792718  0.413261  1
  O  O49  1  0.394563  0.807824  0.515106  1
  O  O50  1  0.413261  0.807824  0.792718  1
  O  O51  1  0.792718  0.879457  0.984894  1
  O  O52  1  0.792718  0.413261  0.807824  1
  O  O53  1  0.879457  0.394563  0.086739  1
  O  O54  1  0.984894  0.692176  0.105437  1
  O  O55  1  0.707282  0.515106  0.620543  1
  O  O56  1  0.292718  0.307824  0.913261  1
  O  O57  1  0.307824  0.894563  0.015106  1
  O  O58  1  0.379457  0.292718  0.484894  1
  O  O59  1  0.484894  0.379457  0.292718  1
  O  O60  1  0.913261  0.120543  0.605437  1
  O  O61  1  0.605437  0.913261  0.120543  1
  O  O62  1  0.894563  0.015106  0.307824  1
  O  O63  1  0.379457  0.586739  0.894563  1
  O  O64  1  0.484894  0.605437  0.192176  1
  O  O65  1  0.120543  0.015106  0.207282  1
  O  O66  1  0.586739  0.894563  0.379457  1
  O  O67  1  0.192176  0.484894  0.605437  1
  O  O68  1  0.015106  0.207282  0.120543  1
  O  O69  1  0.913261  0.292718  0.307824  1
  O  O70  1  0.307824  0.913261  0.292718  1
  O  O71  1  0.894563  0.379457  0.586739  1
  O  O72  1  0.192176  0.207282  0.586739  1
  O  O73  1  0.605437  0.192176  0.484894  1
  O  O74  1  0.586739  0.192176  0.207282  1
  O  O75  1  0.207282  0.120543  0.015106  1
  O  O76  1  0.207282  0.586739  0.192176  1
  O  O77  1  0.120543  0.605437  0.913261  1
  O  O78  1  0.015106  0.307824  0.894563  1
  O  O79  1  0.292718  0.484894  0.379457  1
