# generated using pymatgen
data_Nb2(PO4)3
_symmetry_space_group_name_H-M   'P 1'
_cell_length_a   9.11067961
_cell_length_b   9.11067961
_cell_length_c   9.11067961
_cell_angle_alpha   58.00913016
_cell_angle_beta   58.00913016
_cell_angle_gamma   58.00913016
_symmetry_Int_Tables_number   1
_chemical_formula_structural   Nb2(PO4)3
_chemical_formula_sum   'Nb4 P6 O24'
_cell_volume   510.31426522
_cell_formula_units_Z   2
loop_
 _symmetry_equiv_pos_site_id
 _symmetry_equiv_pos_as_xyz
  1  'x, y, z'
loop_
 _atom_site_type_symbol
 _atom_site_label
 _atom_site_symmetry_multiplicity
 _atom_site_fract_x
 _atom_site_fract_y
 _atom_site_fract_z
 _atom_site_occupancy
  Nb  Nb0  1  0.357953  0.357953  0.357953  1
  Nb  Nb1  1  0.142047  0.142047  0.142047  1
  Nb  Nb2  1  0.642047  0.642047  0.642047  1
  Nb  Nb3  1  0.857953  0.857953  0.857953  1
  P  P4  1  0.250000  0.532131  0.967869  1
  P  P5  1  0.532131  0.967869  0.250000  1
  P  P6  1  0.967869  0.250000  0.532131  1
  P  P7  1  0.750000  0.467869  0.032131  1
  P  P8  1  0.467869  0.032131  0.750000  1
  P  P9  1  0.032131  0.750000  0.467869  1
  O  O10  1  0.578778  0.438361  0.205186  1
  O  O11  1  0.438361  0.205186  0.578778  1
  O  O12  1  0.205186  0.578778  0.438361  1
  O  O13  1  0.921222  0.294814  0.061639  1
  O  O14  1  0.294814  0.061639  0.921222  1
  O  O15  1  0.061639  0.921222  0.294814  1
  O  O16  1  0.421222  0.561639  0.794814  1
  O  O17  1  0.561639  0.794814  0.421222  1
  O  O18  1  0.794814  0.421222  0.561639  1
  O  O19  1  0.078778  0.705186  0.938361  1
  O  O20  1  0.004193  0.773398  0.637296  1
  O  O21  1  0.637296  0.004193  0.773398  1
  O  O22  1  0.773398  0.637296  0.004193  1
  O  O23  1  0.862704  0.726602  0.495807  1
  O  O24  1  0.495807  0.862704  0.726602  1
  O  O25  1  0.726602  0.495807  0.862704  1
  O  O26  1  0.995807  0.226602  0.362704  1
  O  O27  1  0.362704  0.995807  0.226602  1
  O  O28  1  0.226602  0.362704  0.995807  1
  O  O29  1  0.137296  0.273398  0.504193  1
  O  O30  1  0.504193  0.137296  0.273398  1
  O  O31  1  0.273398  0.504193  0.137296  1
  O  O32  1  0.938361  0.078778  0.705186  1
  O  O33  1  0.705186  0.938361  0.078778  1
