# generated using pymatgen
data_Ho2SiO5
_symmetry_space_group_name_H-M   'P 1'
_cell_length_a   6.72373245
_cell_length_b   6.84756506
_cell_length_c   9.12353353
_cell_angle_alpha   90.00000000
_cell_angle_beta   105.23494245
_cell_angle_gamma   90.00000000
_symmetry_Int_Tables_number   1
_chemical_formula_structural   Ho2SiO5
_chemical_formula_sum   'Ho8 Si4 O20'
_cell_volume   405.29603321
_cell_formula_units_Z   4
loop_
 _symmetry_equiv_pos_site_id
 _symmetry_equiv_pos_as_xyz
  1  'x, y, z'
loop_
 _atom_site_type_symbol
 _atom_site_label
 _atom_site_symmetry_multiplicity
 _atom_site_fract_x
 _atom_site_fract_y
 _atom_site_fract_z
 _atom_site_occupancy
  Ho  Ho0  1  0.731386  0.123757  0.529364  1
  Ho  Ho1  1  0.768614  0.623757  0.470636  1
  Ho  Ho2  1  0.268614  0.876243  0.470636  1
  Ho  Ho3  1  0.231386  0.376243  0.529364  1
  Ho  Ho4  1  0.951197  0.639281  0.130155  1
  Ho  Ho5  1  0.548803  0.139281  0.869845  1
  Ho  Ho6  1  0.048803  0.360719  0.869845  1
  Ho  Ho7  1  0.451197  0.860719  0.130155  1
  Si  Si8  1  0.978215  0.090644  0.200799  1
  Si  Si9  1  0.521785  0.590644  0.799201  1
  Si  Si10  1  0.021785  0.909356  0.799201  1
  Si  Si11  1  0.478215  0.409356  0.200799  1
  O  O12  1  0.562921  0.880628  0.387545  1
  O  O13  1  0.937079  0.380628  0.612455  1
  O  O14  1  0.437079  0.119372  0.612455  1
  O  O15  1  0.062921  0.619372  0.387545  1
  O  O16  1  0.983728  0.286345  0.103671  1
  O  O17  1  0.516272  0.786345  0.896329  1
  O  O18  1  0.016272  0.713655  0.896329  1
  O  O19  1  0.483728  0.213655  0.103671  1
  O  O20  1  0.013134  0.137504  0.385363  1
  O  O21  1  0.486866  0.637504  0.614637  1
  O  O22  1  0.986866  0.862496  0.614637  1
  O  O23  1  0.513134  0.362496  0.385363  1
  O  O24  1  0.668458  0.570039  0.209293  1
  O  O25  1  0.831542  0.070039  0.790707  1
  O  O26  1  0.331542  0.429961  0.790707  1
  O  O27  1  0.168458  0.929961  0.209293  1
  O  O28  1  0.281933  0.553621  0.129270  1
  O  O29  1  0.218067  0.053621  0.870730  1
  O  O30  1  0.718067  0.446379  0.870730  1
  O  O31  1  0.781933  0.946379  0.129270  1
