# generated using pymatgen
data_La3NbO7
_symmetry_space_group_name_H-M   'P 1'
_cell_length_a   6.78151368
_cell_length_b   6.78151368
_cell_length_c   7.85493739
_cell_angle_alpha   90.00000000
_cell_angle_beta   90.00000000
_cell_angle_gamma   111.43733600
_symmetry_Int_Tables_number   1
_chemical_formula_structural   La3NbO7
_chemical_formula_sum   'La6 Nb2 O14'
_cell_volume   336.24877857
_cell_formula_units_Z   2
loop_
 _symmetry_equiv_pos_site_id
 _symmetry_equiv_pos_as_xyz
  1  'x, y, z'
loop_
 _atom_site_type_symbol
 _atom_site_label
 _atom_site_symmetry_multiplicity
 _atom_site_fract_x
 _atom_site_fract_y
 _atom_site_fract_z
 _atom_site_occupancy
  La  La0  1  0.931985  0.477839  0.750000  1
  La  La1  1  0.068015  0.522161  0.250000  1
  La  La2  1  0.000000  0.000000  0.500000  1
  La  La3  1  0.000000  0.000000  0.000000  1
  La  La4  1  0.522161  0.068015  0.250000  1
  La  La5  1  0.477839  0.931985  0.750000  1
  Nb  Nb6  1  0.500000  0.500000  0.000000  1
  Nb  Nb7  1  0.500000  0.500000  0.500000  1
  O  O8  1  0.563276  0.563276  0.750000  1
  O  O9  1  0.436724  0.436724  0.250000  1
  O  O10  1  0.846625  0.107406  0.750000  1
  O  O11  1  0.153375  0.892594  0.250000  1
  O  O12  1  0.107406  0.846625  0.750000  1
  O  O13  1  0.892594  0.153375  0.250000  1
  O  O14  1  0.437975  0.187002  0.967888  1
  O  O15  1  0.562025  0.812998  0.467888  1
  O  O16  1  0.187002  0.437975  0.967888  1
  O  O17  1  0.812998  0.562025  0.467888  1
  O  O18  1  0.437975  0.187002  0.532112  1
  O  O19  1  0.562025  0.812998  0.032112  1
  O  O20  1  0.812998  0.562025  0.032112  1
  O  O21  1  0.187002  0.437975  0.532112  1
