# generated using pymatgen
data_CsLaHgSe3
_symmetry_space_group_name_H-M   'P 1'
_cell_length_a   8.46324017
_cell_length_b   8.46324017
_cell_length_c   11.57093928
_cell_angle_alpha   90.00000000
_cell_angle_beta   90.00000000
_cell_angle_gamma   149.24043161
_symmetry_Int_Tables_number   1
_chemical_formula_structural   CsLaHgSe3
_chemical_formula_sum   'Cs2 La2 Hg2 Se6'
_cell_volume   423.87104368
_cell_formula_units_Z   2
loop_
 _symmetry_equiv_pos_site_id
 _symmetry_equiv_pos_as_xyz
  1  'x, y, z'
loop_
 _atom_site_type_symbol
 _atom_site_label
 _atom_site_symmetry_multiplicity
 _atom_site_fract_x
 _atom_site_fract_y
 _atom_site_fract_z
 _atom_site_occupancy
  Cs  Cs0  1  0.255441  0.744559  0.750000  1
  Cs  Cs1  1  0.744559  0.255441  0.250000  1
  La  La2  1  0.000000  0.000000  0.500000  1
  La  La3  1  0.000000  0.000000  0.000000  1
  Hg  Hg4  1  0.459173  0.540827  0.250000  1
  Hg  Hg5  1  0.540827  0.459173  0.750000  1
  Se  Se6  1  0.062548  0.937452  0.250000  1
  Se  Se7  1  0.937452  0.062548  0.750000  1
  Se  Se8  1  0.621123  0.378877  0.551511  1
  Se  Se9  1  0.621123  0.378877  0.948489  1
  Se  Se10  1  0.378877  0.621123  0.051511  1
  Se  Se11  1  0.378877  0.621123  0.448489  1
