# generated using pymatgen
data_Sr2Ta2O7
_symmetry_space_group_name_H-M   'P 1'
_cell_length_a   13.96637815
_cell_length_b   13.96637815
_cell_length_c   5.75446030
_cell_angle_alpha   90.00000000
_cell_angle_beta   90.00000000
_cell_angle_gamma   163.57307791
_symmetry_Int_Tables_number   1
_chemical_formula_structural   Sr2Ta2O7
_chemical_formula_sum   'Sr4 Ta4 O14'
_cell_volume   317.42388214
_cell_formula_units_Z   2
loop_
 _symmetry_equiv_pos_site_id
 _symmetry_equiv_pos_as_xyz
  1  'x, y, z'
loop_
 _atom_site_type_symbol
 _atom_site_label
 _atom_site_symmetry_multiplicity
 _atom_site_fract_x
 _atom_site_fract_y
 _atom_site_fract_z
 _atom_site_occupancy
  Sr  Sr0  1  0.446621  0.553379  0.237487  1
  Sr  Sr1  1  0.553379  0.446621  0.737487  1
  Sr  Sr2  1  0.285498  0.714502  0.750237  1
  Sr  Sr3  1  0.714502  0.285498  0.250237  1
  Ta  Ta4  1  0.945272  0.054728  0.739603  1
  Ta  Ta5  1  0.054728  0.945272  0.239603  1
  Ta  Ta6  1  0.840914  0.159086  0.243745  1
  Ta  Ta7  1  0.159086  0.840914  0.743745  1
  O  O8  1  0.207195  0.792805  0.511074  1
  O  O9  1  0.792805  0.207195  0.011074  1
  O  O10  1  0.100882  0.899118  0.487194  1
  O  O11  1  0.899118  0.100882  0.987194  1
  O  O12  1  0.649058  0.350942  0.739202  1
  O  O13  1  0.350942  0.649058  0.239202  1
  O  O14  1  0.547025  0.452975  0.236578  1
  O  O15  1  0.452975  0.547025  0.736578  1
  O  O16  1  0.001902  0.998098  0.495573  1
  O  O17  1  0.998098  0.001902  0.995573  1
  O  O18  1  0.902874  0.097126  0.472160  1
  O  O19  1  0.097126  0.902874  0.972160  1
  O  O20  1  0.795588  0.204412  0.487348  1
  O  O21  1  0.204412  0.795588  0.987348  1
