# generated using pymatgen
data_Na2Mg2P3NO9
_symmetry_space_group_name_H-M   'P 1'
_cell_length_a   9.35243630
_cell_length_b   9.35243630
_cell_length_c   9.35243630
_cell_angle_alpha   90.00000000
_cell_angle_beta   90.00000000
_cell_angle_gamma   90.00000000
_symmetry_Int_Tables_number   1
_chemical_formula_structural   Na2Mg2P3NO9
_chemical_formula_sum   'Na8 Mg8 P12 N4 O36'
_cell_volume   818.03950382
_cell_formula_units_Z   4
loop_
 _symmetry_equiv_pos_site_id
 _symmetry_equiv_pos_as_xyz
  1  'x, y, z'
loop_
 _atom_site_type_symbol
 _atom_site_label
 _atom_site_symmetry_multiplicity
 _atom_site_fract_x
 _atom_site_fract_y
 _atom_site_fract_z
 _atom_site_occupancy
  Na  Na0  1  0.462675  0.962675  0.537325  1
  Na  Na1  1  0.962675  0.537325  0.462675  1
  Na  Na2  1  0.537325  0.462675  0.962675  1
  Na  Na3  1  0.037325  0.037325  0.037325  1
  Na  Na4  1  0.706569  0.206569  0.293431  1
  Na  Na5  1  0.206569  0.293431  0.706569  1
  Na  Na6  1  0.293431  0.706569  0.206569  1
  Na  Na7  1  0.793431  0.793431  0.793431  1
  Mg  Mg8  1  0.922805  0.422805  0.077195  1
  Mg  Mg9  1  0.422805  0.077195  0.922805  1
  Mg  Mg10  1  0.077195  0.922805  0.422805  1
  Mg  Mg11  1  0.577195  0.577195  0.577195  1
  Mg  Mg12  1  0.101948  0.601948  0.898052  1
  Mg  Mg13  1  0.601948  0.898052  0.101948  1
  Mg  Mg14  1  0.898052  0.101948  0.601948  1
  Mg  Mg15  1  0.398052  0.398052  0.398052  1
  P  P16  1  0.239602  0.658878  0.591497  1
  P  P17  1  0.408503  0.739602  0.841122  1
  P  P18  1  0.158878  0.908503  0.760398  1
  P  P19  1  0.739602  0.841122  0.408503  1
  P  P20  1  0.908503  0.760398  0.158878  1
  P  P21  1  0.658878  0.591497  0.239602  1
  P  P22  1  0.760398  0.158878  0.908503  1
  P  P23  1  0.591497  0.239602  0.658878  1
  P  P24  1  0.841122  0.408503  0.739602  1
  P  P25  1  0.260398  0.341122  0.091497  1
  P  P26  1  0.091497  0.260398  0.341122  1
  P  P27  1  0.341122  0.091497  0.260398  1
  N  N28  1  0.300600  0.800600  0.699400  1
  N  N29  1  0.800600  0.699400  0.300600  1
  N  N30  1  0.699400  0.300600  0.800600  1
  N  N31  1  0.199400  0.199400  0.199400  1
  O  O32  1  0.630875  0.778061  0.513337  1
  O  O33  1  0.486663  0.130875  0.721939  1
  O  O34  1  0.278061  0.986663  0.369125  1
  O  O35  1  0.130875  0.721939  0.486663  1
  O  O36  1  0.986663  0.369125  0.278061  1
  O  O37  1  0.778061  0.513337  0.630875  1
  O  O38  1  0.369125  0.278061  0.986663  1
  O  O39  1  0.513337  0.630875  0.778061  1
  O  O40  1  0.721939  0.486663  0.130875  1
  O  O41  1  0.869125  0.221939  0.013337  1
  O  O42  1  0.013337  0.869125  0.221939  1
  O  O43  1  0.221939  0.013337  0.869125  1
  O  O44  1  0.367158  0.600571  0.505889  1
  O  O45  1  0.494111  0.867158  0.899429  1
  O  O46  1  0.100571  0.994111  0.632842  1
  O  O47  1  0.867158  0.899429  0.494111  1
  O  O48  1  0.994111  0.632842  0.100571  1
  O  O49  1  0.600571  0.505889  0.367158  1
  O  O50  1  0.632842  0.100571  0.994111  1
  O  O51  1  0.505889  0.367158  0.600571  1
  O  O52  1  0.899429  0.494111  0.867158  1
  O  O53  1  0.132842  0.399429  0.005889  1
  O  O54  1  0.005889  0.132842  0.399429  1
  O  O55  1  0.399429  0.005889  0.132842  1
  O  O56  1  0.173580  0.549028  0.693805  1
  O  O57  1  0.306195  0.673580  0.950972  1
  O  O58  1  0.049028  0.806195  0.826420  1
  O  O59  1  0.673580  0.950972  0.306195  1
  O  O60  1  0.806195  0.826420  0.049028  1
  O  O61  1  0.549028  0.693805  0.173580  1
  O  O62  1  0.826420  0.049028  0.806195  1
  O  O63  1  0.693805  0.173580  0.549028  1
  O  O64  1  0.950972  0.306195  0.673580  1
  O  O65  1  0.326420  0.450972  0.193805  1
  O  O66  1  0.193805  0.326420  0.450972  1
  O  O67  1  0.450972  0.193805  0.326420  1
