# generated using pymatgen
data_VCoB3
_symmetry_space_group_name_H-M   'P 1'
_cell_length_a   8.87394134
_cell_length_b   8.87394134
_cell_length_c   2.97918061
_cell_angle_alpha   90.00000000
_cell_angle_beta   90.00000000
_cell_angle_gamma   160.45694598
_symmetry_Int_Tables_number   1
_chemical_formula_structural   VCoB3
_chemical_formula_sum   'V2 Co2 B6'
_cell_volume   78.47759119
_cell_formula_units_Z   2
loop_
 _symmetry_equiv_pos_site_id
 _symmetry_equiv_pos_as_xyz
  1  'x, y, z'
loop_
 _atom_site_type_symbol
 _atom_site_label
 _atom_site_symmetry_multiplicity
 _atom_site_fract_x
 _atom_site_fract_y
 _atom_site_fract_z
 _atom_site_occupancy
  V  V0  1  0.425584  0.574416  0.250000  1
  V  V1  1  0.574416  0.425584  0.750000  1
  Co  Co2  1  0.703840  0.296160  0.250000  1
  Co  Co3  1  0.296160  0.703840  0.750000  1
  B  B4  1  0.124555  0.875445  0.250000  1
  B  B5  1  0.875445  0.124555  0.750000  1
  B  B6  1  0.025021  0.974979  0.250000  1
  B  B7  1  0.974979  0.025021  0.750000  1
  B  B8  1  0.179136  0.820864  0.750000  1
  B  B9  1  0.820864  0.179136  0.250000  1
