# generated using pymatgen
data_TmCoC2
_symmetry_space_group_name_H-M   'P 1'
_cell_length_a   3.73264781
_cell_length_b   3.73264781
_cell_length_c   3.47962171
_cell_angle_alpha   90.00000000
_cell_angle_beta   90.00000000
_cell_angle_gamma   105.97714728
_symmetry_Int_Tables_number   1
_chemical_formula_structural   TmCoC2
_chemical_formula_sum   'Tm1 Co1 C2'
_cell_volume   46.60766339
_cell_formula_units_Z   1
loop_
 _symmetry_equiv_pos_site_id
 _symmetry_equiv_pos_as_xyz
  1  'x, y, z'
loop_
 _atom_site_type_symbol
 _atom_site_label
 _atom_site_symmetry_multiplicity
 _atom_site_fract_x
 _atom_site_fract_y
 _atom_site_fract_z
 _atom_site_occupancy
  Tm  Tm0  1  0.007273  0.992727  0.000000  1
  Co  Co1  1  0.390184  0.609816  0.500000  1
  C  C2  1  0.854871  0.452129  0.500000  1
  C  C3  1  0.547871  0.145129  0.500000  1
