# generated using pymatgen
data_Sr2CaWO6
_symmetry_space_group_name_H-M   'P 1'
_cell_length_a   5.83867995
_cell_length_b   6.10664375
_cell_length_c   8.36580941
_cell_angle_alpha   90.00000000
_cell_angle_beta   90.00000000
_cell_angle_gamma   90.00000000
_symmetry_Int_Tables_number   1
_chemical_formula_structural   Sr2CaWO6
_chemical_formula_sum   'Sr4 Ca2 W2 O12'
_cell_volume   298.28074623
_cell_formula_units_Z   2
loop_
 _symmetry_equiv_pos_site_id
 _symmetry_equiv_pos_as_xyz
  1  'x, y, z'
loop_
 _atom_site_type_symbol
 _atom_site_label
 _atom_site_symmetry_multiplicity
 _atom_site_fract_x
 _atom_site_fract_y
 _atom_site_fract_z
 _atom_site_occupancy
  Sr  Sr0  1  0.500000  0.795739  0.767627  1
  Sr  Sr1  1  0.000000  0.204261  0.267627  1
  Sr  Sr2  1  0.500000  0.795739  0.232373  1
  Sr  Sr3  1  0.000000  0.204261  0.732373  1
  Ca  Ca4  1  0.000000  0.724602  0.500000  1
  Ca  Ca5  1  0.500000  0.275398  0.000000  1
  W  W6  1  0.500000  0.234965  0.500000  1
  W  W7  1  0.000000  0.765035  0.000000  1
  O  O8  1  0.500000  0.217950  0.732628  1
  O  O9  1  0.500000  0.217950  0.267372  1
  O  O10  1  0.000000  0.782050  0.767372  1
  O  O11  1  0.000000  0.782050  0.232628  1
  O  O12  1  0.732985  0.998038  0.500000  1
  O  O13  1  0.267015  0.998038  0.500000  1
  O  O14  1  0.744601  0.444830  0.500000  1
  O  O15  1  0.255399  0.444830  0.500000  1
  O  O16  1  0.244601  0.555170  0.000000  1
  O  O17  1  0.755399  0.555170  0.000000  1
  O  O18  1  0.767015  0.001962  0.000000  1
  O  O19  1  0.232985  0.001962  0.000000  1
