# generated using pymatgen
data_NaSrAlF6
_symmetry_space_group_name_H-M   'P 1'
_cell_length_a   5.40400591
_cell_length_b   9.52999115
_cell_length_c   18.61233556
_cell_angle_alpha   90.00000000
_cell_angle_beta   90.00000000
_cell_angle_gamma   90.00000000
_symmetry_Int_Tables_number   1
_chemical_formula_structural   NaSrAlF6
_chemical_formula_sum   'Na8 Sr8 Al8 F48'
_cell_volume   958.53767297
_cell_formula_units_Z   8
loop_
 _symmetry_equiv_pos_site_id
 _symmetry_equiv_pos_as_xyz
  1  'x, y, z'
loop_
 _atom_site_type_symbol
 _atom_site_label
 _atom_site_symmetry_multiplicity
 _atom_site_fract_x
 _atom_site_fract_y
 _atom_site_fract_z
 _atom_site_occupancy
  Na  Na0  1  0.255571  0.868149  0.313161  1
  Na  Na1  1  0.744429  0.368149  0.686839  1
  Na  Na2  1  0.244429  0.868149  0.813161  1
  Na  Na3  1  0.755571  0.368149  0.186839  1
  Na  Na4  1  0.760158  0.772584  0.433373  1
  Na  Na5  1  0.239842  0.272584  0.566627  1
  Na  Na6  1  0.739842  0.772584  0.933373  1
  Na  Na7  1  0.260158  0.272584  0.066627  1
  Sr  Sr8  1  0.247984  0.639910  0.132729  1
  Sr  Sr9  1  0.752016  0.139910  0.867271  1
  Sr  Sr10  1  0.252016  0.639910  0.632729  1
  Sr  Sr11  1  0.747984  0.139910  0.367271  1
  Sr  Sr12  1  0.248753  0.502473  0.383716  1
  Sr  Sr13  1  0.751247  0.002473  0.616284  1
  Sr  Sr14  1  0.251247  0.502473  0.883716  1
  Sr  Sr15  1  0.748753  0.002473  0.116284  1
  Al  Al16  1  0.241290  0.899195  0.993351  1
  Al  Al17  1  0.758710  0.399195  0.006649  1
  Al  Al18  1  0.258710  0.899195  0.493351  1
  Al  Al19  1  0.741290  0.399195  0.506649  1
  Al  Al20  1  0.751856  0.741348  0.254702  1
  Al  Al21  1  0.248144  0.241348  0.745297  1
  Al  Al22  1  0.748144  0.741348  0.754703  1
  Al  Al23  1  0.251856  0.241348  0.245298  1
  F  F24  1  0.467881  0.174167  0.179187  1
  F  F25  1  0.532119  0.674167  0.820813  1
  F  F26  1  0.032119  0.174167  0.679187  1
  F  F27  1  0.967881  0.674167  0.320813  1
  F  F28  1  0.551510  0.463106  0.076320  1
  F  F29  1  0.448490  0.963106  0.923680  1
  F  F30  1  0.948490  0.463106  0.576320  1
  F  F31  1  0.051510  0.963106  0.423680  1
  F  F32  1  0.986376  0.149239  0.207846  1
  F  F33  1  0.013624  0.649239  0.792154  1
  F  F34  1  0.513624  0.149239  0.707846  1
  F  F35  1  0.486376  0.649239  0.292154  1
  F  F36  1  0.330941  0.749307  0.433184  1
  F  F37  1  0.669059  0.249307  0.566816  1
  F  F38  1  0.169059  0.749307  0.933184  1
  F  F39  1  0.830941  0.249307  0.066816  1
  F  F40  1  0.313957  0.101330  0.308491  1
  F  F41  1  0.320582  0.040122  0.054510  1
  F  F42  1  0.686043  0.601330  0.691509  1
  F  F43  1  0.813957  0.601330  0.191509  1
  F  F44  1  0.529085  0.993673  0.460078  1
  F  F45  1  0.470915  0.493673  0.539922  1
  F  F46  1  0.970915  0.993673  0.960078  1
  F  F47  1  0.029085  0.493673  0.039922  1
  F  F48  1  0.001780  0.839496  0.211173  1
  F  F49  1  0.998220  0.339496  0.788827  1
  F  F50  1  0.498219  0.839496  0.711173  1
  F  F51  1  0.501780  0.339496  0.288827  1
  F  F52  1  0.195268  0.390723  0.184084  1
  F  F53  1  0.804732  0.890723  0.815916  1
  F  F54  1  0.304732  0.390723  0.684084  1
  F  F55  1  0.695268  0.890723  0.315916  1
  F  F56  1  0.532916  0.821895  0.189893  1
  F  F57  1  0.467084  0.321895  0.810107  1
  F  F58  1  0.967084  0.821895  0.689893  1
  F  F59  1  0.032916  0.321895  0.310107  1
  F  F60  1  0.029345  0.822490  0.060842  1
  F  F61  1  0.970655  0.322490  0.939158  1
  F  F62  1  0.470655  0.822490  0.560842  1
  F  F63  1  0.529345  0.322490  0.439158  1
  F  F64  1  0.990185  0.296991  0.464672  1
  F  F65  1  0.009815  0.796991  0.535328  1
  F  F66  1  0.509815  0.296991  0.964672  1
  F  F67  1  0.490185  0.796991  0.035328  1
  F  F68  1  0.820582  0.540122  0.445490  1
  F  F69  1  0.179418  0.040122  0.554510  1
  F  F70  1  0.679418  0.540122  0.945490  1
  F  F71  1  0.186043  0.101330  0.808491  1
