# generated using pymatgen
data_MgSiO3
_symmetry_space_group_name_H-M   'P 1'
_cell_length_a   5.33113070
_cell_length_b   8.92093959
_cell_length_c   18.70779176
_cell_angle_alpha   90.00000000
_cell_angle_beta   90.00000000
_cell_angle_gamma   90.00000000
_symmetry_Int_Tables_number   1
_chemical_formula_structural   MgSiO3
_chemical_formula_sum   'Mg16 Si16 O48'
_cell_volume   889.71816096
_cell_formula_units_Z   16
loop_
 _symmetry_equiv_pos_site_id
 _symmetry_equiv_pos_as_xyz
  1  'x, y, z'
loop_
 _atom_site_type_symbol
 _atom_site_label
 _atom_site_symmetry_multiplicity
 _atom_site_fract_x
 _atom_site_fract_y
 _atom_site_fract_z
 _atom_site_occupancy
  Mg  Mg0  1  0.097205  0.101350  0.686572  1
  Mg  Mg1  1  0.902795  0.898650  0.186572  1
  Mg  Mg2  1  0.402795  0.101350  0.186572  1
  Mg  Mg3  1  0.597205  0.898650  0.686572  1
  Mg  Mg4  1  0.095092  0.743413  0.688697  1
  Mg  Mg5  1  0.904908  0.256587  0.188697  1
  Mg  Mg6  1  0.404908  0.743413  0.188697  1
  Mg  Mg7  1  0.595092  0.256587  0.688697  1
  Mg  Mg8  1  0.964837  0.400134  0.938145  1
  Mg  Mg9  1  0.035163  0.599866  0.438145  1
  Mg  Mg10  1  0.535163  0.400134  0.438145  1
  Mg  Mg11  1  0.464837  0.599866  0.938145  1
  Mg  Mg12  1  0.465580  0.241041  0.936764  1
  Mg  Mg13  1  0.534420  0.758959  0.436764  1
  Mg  Mg14  1  0.034420  0.241041  0.436764  1
  Mg  Mg15  1  0.965580  0.758959  0.936764  1
  Si  Si16  1  0.569533  0.911424  0.039379  1
  Si  Si17  1  0.430467  0.088576  0.539379  1
  Si  Si18  1  0.930467  0.911424  0.539379  1
  Si  Si19  1  0.069533  0.088576  0.039379  1
  Si  Si20  1  0.623539  0.411973  0.083868  1
  Si  Si21  1  0.376461  0.588027  0.583868  1
  Si  Si22  1  0.876461  0.411973  0.583868  1
  Si  Si23  1  0.123539  0.588027  0.083868  1
  Si  Si24  1  0.768394  0.089182  0.835022  1
  Si  Si25  1  0.231606  0.910818  0.335022  1
  Si  Si26  1  0.731606  0.089182  0.335022  1
  Si  Si27  1  0.268394  0.910818  0.835022  1
  Si  Si28  1  0.299762  0.410935  0.791492  1
  Si  Si29  1  0.700238  0.589065  0.291492  1
  Si  Si30  1  0.200238  0.410935  0.291492  1
  Si  Si31  1  0.799762  0.589065  0.791492  1
  O  O32  1  0.573474  0.907819  0.127117  1
  O  O33  1  0.426526  0.092181  0.627117  1
  O  O34  1  0.926526  0.907819  0.627117  1
  O  O35  1  0.073474  0.092181  0.127117  1
  O  O36  1  0.651877  0.761522  0.996989  1
  O  O37  1  0.348123  0.238478  0.496989  1
  O  O38  1  0.848123  0.761522  0.496989  1
  O  O39  1  0.151877  0.238478  0.996989  1
  O  O40  1  0.780209  0.040286  0.013114  1
  O  O41  1  0.219791  0.959714  0.513114  1
  O  O42  1  0.719791  0.040286  0.513114  1
  O  O43  1  0.280209  0.959714  0.013114  1
  O  O44  1  0.627248  0.408818  0.996568  1
  O  O45  1  0.372752  0.591182  0.496568  1
  O  O46  1  0.872752  0.408818  0.496568  1
  O  O47  1  0.127248  0.591182  0.996568  1
  O  O48  1  0.413655  0.538661  0.110501  1
  O  O49  1  0.586345  0.461339  0.610501  1
  O  O50  1  0.086345  0.538661  0.610501  1
  O  O51  1  0.913655  0.461339  0.110501  1
  O  O52  1  0.089110  0.740130  0.128457  1
  O  O53  1  0.910890  0.259870  0.628457  1
  O  O54  1  0.410890  0.740130  0.628457  1
  O  O55  1  0.589110  0.259870  0.128457  1
  O  O56  1  0.771730  0.089279  0.747781  1
  O  O57  1  0.228270  0.910721  0.247781  1
  O  O58  1  0.728270  0.089279  0.247781  1
  O  O59  1  0.271730  0.910721  0.747781  1
  O  O60  1  0.285292  0.752968  0.875923  1
  O  O61  1  0.714708  0.247032  0.375923  1
  O  O62  1  0.214708  0.752968  0.375923  1
  O  O63  1  0.785292  0.247032  0.875923  1
  O  O64  1  0.486648  0.030088  0.864887  1
  O  O65  1  0.513352  0.969912  0.364887  1
  O  O66  1  0.013352  0.030088  0.364887  1
  O  O67  1  0.986648  0.969912  0.864887  1
  O  O68  1  0.293247  0.408277  0.878602  1
  O  O69  1  0.706753  0.591723  0.378602  1
  O  O70  1  0.206753  0.408277  0.378602  1
  O  O71  1  0.793247  0.591723  0.878602  1
  O  O72  1  0.278724  0.255111  0.748810  1
  O  O73  1  0.721276  0.744889  0.248810  1
  O  O74  1  0.221276  0.255111  0.248810  1
  O  O75  1  0.778724  0.744889  0.748810  1
  O  O76  1  0.583191  0.468200  0.763312  1
  O  O77  1  0.416809  0.531800  0.263312  1
  O  O78  1  0.916809  0.468200  0.263312  1
  O  O79  1  0.083191  0.531800  0.763312  1
