# generated using pymatgen
data_Ni3TeO6
_symmetry_space_group_name_H-M   'P 1'
_cell_length_a   5.51717182
_cell_length_b   5.51717182
_cell_length_c   5.51717182
_cell_angle_alpha   55.85799043
_cell_angle_beta   55.85799043
_cell_angle_gamma   55.85799043
_symmetry_Int_Tables_number   1
_chemical_formula_structural   Ni3TeO6
_chemical_formula_sum   'Ni3 Te1 O6'
_cell_volume   107.34792707
_cell_formula_units_Z   1
loop_
 _symmetry_equiv_pos_site_id
 _symmetry_equiv_pos_as_xyz
  1  'x, y, z'
loop_
 _atom_site_type_symbol
 _atom_site_label
 _atom_site_symmetry_multiplicity
 _atom_site_fract_x
 _atom_site_fract_y
 _atom_site_fract_z
 _atom_site_occupancy
  Ni  Ni0  1  0.001457  0.001457  0.001457  1
  Ni  Ni1  1  0.205593  0.205593  0.205593  1
  Ni  Ni2  1  0.493530  0.493530  0.493530  1
  Te  Te3  1  0.694679  0.694679  0.694679  1
  O  O4  1  0.074220  0.795643  0.424399  1
  O  O5  1  0.424399  0.074220  0.795643  1
  O  O6  1  0.795643  0.424399  0.074220  1
  O  O7  1  0.898276  0.309906  0.601597  1
  O  O8  1  0.601597  0.898276  0.309906  1
  O  O9  1  0.309906  0.601597  0.898276  1
