# generated using pymatgen
data_Ca2VN3
_symmetry_space_group_name_H-M   'P 1'
_cell_length_a   5.94241112
_cell_length_b   5.94241112
_cell_length_c   11.64721764
_cell_angle_alpha   89.01747810
_cell_angle_beta   90.98252190
_cell_angle_gamma   56.64380979
_symmetry_Int_Tables_number   1
_chemical_formula_structural   Ca2VN3
_chemical_formula_sum   'Ca8 V4 N12'
_cell_volume   343.31267834
_cell_formula_units_Z   4
loop_
 _symmetry_equiv_pos_site_id
 _symmetry_equiv_pos_as_xyz
  1  'x, y, z'
loop_
 _atom_site_type_symbol
 _atom_site_label
 _atom_site_symmetry_multiplicity
 _atom_site_fract_x
 _atom_site_fract_y
 _atom_site_fract_z
 _atom_site_occupancy
  Ca  Ca0  1  0.160914  0.614041  0.077236  1
  Ca  Ca1  1  0.946075  0.459740  0.353026  1
  Ca  Ca2  1  0.540260  0.053925  0.853026  1
  Ca  Ca3  1  0.053925  0.540260  0.646974  1
  Ca  Ca4  1  0.839086  0.385959  0.922764  1
  Ca  Ca5  1  0.385959  0.839086  0.577236  1
  Ca  Ca6  1  0.614041  0.160914  0.422764  1
  Ca  Ca7  1  0.459740  0.946075  0.146974  1
  V  V8  1  0.233484  0.766684  0.837667  1
  V  V9  1  0.766684  0.233484  0.662333  1
  V  V10  1  0.766516  0.233316  0.162333  1
  V  V11  1  0.233316  0.766516  0.337667  1
  N  N12  1  0.088306  0.088306  0.750000  1
  N  N13  1  0.911694  0.911694  0.250000  1
  N  N14  1  0.505681  0.505681  0.750000  1
  N  N15  1  0.494319  0.494319  0.250000  1
  N  N16  1  0.987293  0.339307  0.128371  1
  N  N17  1  0.339307  0.987293  0.371629  1
  N  N18  1  0.012707  0.660693  0.871629  1
  N  N19  1  0.660693  0.012707  0.628371  1
  N  N20  1  0.377875  0.807582  0.962352  1
  N  N21  1  0.192418  0.622125  0.462352  1
  N  N22  1  0.622125  0.192418  0.037648  1
  N  N23  1  0.807582  0.377875  0.537648  1
