# generated using pymatgen
data_Ca5(SiN3)2
_symmetry_space_group_name_H-M   'P 1'
_cell_length_a   5.92798058
_cell_length_b   5.92798058
_cell_length_c   12.05918084
_cell_angle_alpha   85.18162956
_cell_angle_beta   94.81837044
_cell_angle_gamma   63.90739920
_symmetry_Int_Tables_number   1
_chemical_formula_structural   Ca5(SiN3)2
_chemical_formula_sum   'Ca10 Si4 N12'
_cell_volume   375.75812820
_cell_formula_units_Z   2
loop_
 _symmetry_equiv_pos_site_id
 _symmetry_equiv_pos_as_xyz
  1  'x, y, z'
loop_
 _atom_site_type_symbol
 _atom_site_label
 _atom_site_symmetry_multiplicity
 _atom_site_fract_x
 _atom_site_fract_y
 _atom_site_fract_z
 _atom_site_occupancy
  Ca  Ca0  1  0.619148  0.731574  0.738264  1
  Ca  Ca1  1  0.268426  0.380852  0.738264  1
  Ca  Ca2  1  0.380852  0.268426  0.261736  1
  Ca  Ca3  1  0.731574  0.619148  0.261736  1
  Ca  Ca4  1  0.911247  0.088753  0.793094  1
  Ca  Ca5  1  0.088753  0.911247  0.206906  1
  Ca  Ca6  1  0.813337  0.813337  0.500000  1
  Ca  Ca7  1  0.186663  0.186663  0.500000  1
  Ca  Ca8  1  0.758325  0.758325  0.000000  1
  Ca  Ca9  1  0.241675  0.241675  0.000000  1
  Si  Si10  1  0.649037  0.350963  0.575051  1
  Si  Si11  1  0.350963  0.649037  0.424949  1
  Si  Si12  1  0.324792  0.675208  0.931597  1
  Si  Si13  1  0.675208  0.324792  0.068403  1
  N  N14  1  0.611324  0.095541  0.638249  1
  N  N15  1  0.904459  0.388676  0.638249  1
  N  N16  1  0.388676  0.904459  0.361751  1
  N  N17  1  0.095541  0.611324  0.361751  1
  N  N18  1  0.342637  0.945926  0.873295  1
  N  N19  1  0.054074  0.657363  0.873295  1
  N  N20  1  0.657363  0.054074  0.126705  1
  N  N21  1  0.945926  0.342637  0.126705  1
  N  N22  1  0.609442  0.390558  0.915094  1
  N  N23  1  0.390558  0.609442  0.084906  1
  N  N24  1  0.644347  0.355653  0.425881  1
  N  N25  1  0.355653  0.644347  0.574119  1
