# generated using pymatgen
data_Ta5Si3
_symmetry_space_group_name_H-M   'P 1'
_cell_length_a   7.55802328
_cell_length_b   7.55802328
_cell_length_c   7.55802328
_cell_angle_alpha   128.54916529
_cell_angle_beta   128.54916529
_cell_angle_gamma   75.73707552
_symmetry_Int_Tables_number   1
_chemical_formula_structural   Ta5Si3
_chemical_formula_sum   'Ta10 Si6'
_cell_volume   256.85651052
_cell_formula_units_Z   2
loop_
 _symmetry_equiv_pos_site_id
 _symmetry_equiv_pos_as_xyz
  1  'x, y, z'
loop_
 _atom_site_type_symbol
 _atom_site_label
 _atom_site_symmetry_multiplicity
 _atom_site_fract_x
 _atom_site_fract_y
 _atom_site_fract_z
 _atom_site_occupancy
  Ta  Ta0  1  0.815002  0.315002  0.829807  1
  Ta  Ta1  1  0.485195  0.985195  0.170193  1
  Ta  Ta2  1  0.315002  0.485195  0.500000  1
  Ta  Ta3  1  0.985195  0.815002  0.500000  1
  Ta  Ta4  1  0.184998  0.684998  0.170193  1
  Ta  Ta5  1  0.514805  0.014805  0.829807  1
  Ta  Ta6  1  0.684998  0.514805  0.500000  1
  Ta  Ta7  1  0.014805  0.184998  0.500000  1
  Ta  Ta8  1  0.500000  0.500000  0.000000  1
  Ta  Ta9  1  0.000000  0.000000  0.000000  1
  Si  Si10  1  0.750000  0.750000  0.000000  1
  Si  Si11  1  0.250000  0.250000  0.000000  1
  Si  Si12  1  0.869955  0.369955  0.239910  1
  Si  Si13  1  0.130045  0.630045  0.760090  1
  Si  Si14  1  0.369955  0.130045  0.500000  1
  Si  Si15  1  0.630045  0.869955  0.500000  1
