# generated using pymatgen
data_NaNbGeO5
_symmetry_space_group_name_H-M   'P 1'
_cell_length_a   6.94461538
_cell_length_b   9.01559958
_cell_length_c   7.69789724
_cell_angle_alpha   90.00000000
_cell_angle_beta   115.80999014
_cell_angle_gamma   90.00000000
_symmetry_Int_Tables_number   1
_chemical_formula_structural   NaNbGeO5
_chemical_formula_sum   'Na4 Nb4 Ge4 O20'
_cell_volume   433.88497657
_cell_formula_units_Z   4
loop_
 _symmetry_equiv_pos_site_id
 _symmetry_equiv_pos_as_xyz
  1  'x, y, z'
loop_
 _atom_site_type_symbol
 _atom_site_label
 _atom_site_symmetry_multiplicity
 _atom_site_fract_x
 _atom_site_fract_y
 _atom_site_fract_z
 _atom_site_occupancy
  Na  Na0  1  0.241124  0.580721  0.204008  1
  Na  Na1  1  0.758876  0.419279  0.795992  1
  Na  Na2  1  0.758876  0.080721  0.295992  1
  Na  Na3  1  0.241124  0.919279  0.704008  1
  Nb  Nb4  1  0.740897  0.738563  0.521863  1
  Nb  Nb5  1  0.259103  0.261437  0.478137  1
  Nb  Nb6  1  0.740897  0.761437  0.021863  1
  Nb  Nb7  1  0.259103  0.238563  0.978137  1
  Ge  Ge8  1  0.754196  0.063676  0.751813  1
  Ge  Ge9  1  0.754196  0.436324  0.251813  1
  Ge  Ge10  1  0.245804  0.936324  0.248187  1
  Ge  Ge11  1  0.245804  0.563676  0.748187  1
  O  O12  1  0.845197  0.547818  0.112289  1
  O  O13  1  0.154803  0.047818  0.387711  1
  O  O14  1  0.154803  0.452182  0.887711  1
  O  O15  1  0.845197  0.952182  0.612289  1
  O  O16  1  0.642176  0.954011  0.875503  1
  O  O17  1  0.357824  0.454011  0.624497  1
  O  O18  1  0.357824  0.045989  0.124497  1
  O  O19  1  0.642176  0.545989  0.375503  1
  O  O20  1  0.046367  0.682525  0.585501  1
  O  O21  1  0.953633  0.182525  0.914499  1
  O  O22  1  0.953633  0.317475  0.414499  1
  O  O23  1  0.046367  0.817475  0.085501  1
  O  O24  1  0.746579  0.678566  0.751627  1
  O  O25  1  0.253421  0.178566  0.748373  1
  O  O26  1  0.253421  0.321434  0.248373  1
  O  O27  1  0.746579  0.821434  0.251627  1
  O  O28  1  0.437814  0.690036  0.905980  1
  O  O29  1  0.562186  0.190036  0.594020  1
  O  O30  1  0.562186  0.309964  0.094020  1
  O  O31  1  0.437814  0.809964  0.405980  1
