# generated using pymatgen
data_Mn2CdO4
_symmetry_space_group_name_H-M   'P 1'
_cell_length_a   6.52406264
_cell_length_b   6.52406264
_cell_length_c   6.52406264
_cell_angle_alpha   125.77767830
_cell_angle_beta   125.77767830
_cell_angle_gamma   80.25384870
_symmetry_Int_Tables_number   1
_chemical_formula_structural   Mn2CdO4
_chemical_formula_sum   'Mn4 Cd2 O8'
_cell_volume   176.38115517
_cell_formula_units_Z   2
loop_
 _symmetry_equiv_pos_site_id
 _symmetry_equiv_pos_as_xyz
  1  'x, y, z'
loop_
 _atom_site_type_symbol
 _atom_site_label
 _atom_site_symmetry_multiplicity
 _atom_site_fract_x
 _atom_site_fract_y
 _atom_site_fract_z
 _atom_site_occupancy
  Mn  Mn0  1  0.875000  0.125000  0.250000  1
  Mn  Mn1  1  0.875000  0.125000  0.750000  1
  Mn  Mn2  1  0.375000  0.125000  0.250000  1
  Mn  Mn3  1  0.875000  0.625000  0.750000  1
  Cd  Cd4  1  0.250000  0.750000  0.500000  1
  Cd  Cd5  1  0.500000  0.500000  0.000000  1
  O  O6  1  0.641470  0.923639  0.282169  1
  O  O7  1  0.109300  0.891470  0.217831  1
  O  O8  1  0.641470  0.359300  0.717831  1
  O  O9  1  0.108530  0.326361  0.217831  1
  O  O10  1  0.640700  0.358530  0.282169  1
  O  O11  1  0.076361  0.358530  0.717831  1
  O  O12  1  0.673639  0.891470  0.782169  1
  O  O13  1  0.108530  0.890700  0.782169  1
