# generated using pymatgen
data_SrSbF5
_symmetry_space_group_name_H-M   'P 1'
_cell_length_a   4.47101656
_cell_length_b   8.98069263
_cell_length_c   11.40553868
_cell_angle_alpha   90.00000000
_cell_angle_beta   90.00000000
_cell_angle_gamma   90.00000000
_symmetry_Int_Tables_number   1
_chemical_formula_structural   SrSbF5
_chemical_formula_sum   'Sr4 Sb4 F20'
_cell_volume   457.96460400
_cell_formula_units_Z   4
loop_
 _symmetry_equiv_pos_site_id
 _symmetry_equiv_pos_as_xyz
  1  'x, y, z'
loop_
 _atom_site_type_symbol
 _atom_site_label
 _atom_site_symmetry_multiplicity
 _atom_site_fract_x
 _atom_site_fract_y
 _atom_site_fract_z
 _atom_site_occupancy
  Sr  Sr0  1  0.999962  0.250000  0.000000  1
  Sr  Sr1  1  0.000038  0.750000  0.500000  1
  Sr  Sr2  1  0.000038  0.750000  0.000000  1
  Sr  Sr3  1  0.999962  0.250000  0.500000  1
  Sb  Sb4  1  0.380151  0.056957  0.250000  1
  Sb  Sb5  1  0.380151  0.443043  0.750000  1
  Sb  Sb6  1  0.619849  0.556957  0.250000  1
  Sb  Sb7  1  0.619849  0.943043  0.750000  1
  F  F8  1  0.083916  0.986761  0.386460  1
  F  F9  1  0.083916  0.513239  0.613540  1
  F  F10  1  0.916084  0.486761  0.113540  1
  F  F11  1  0.916084  0.013239  0.886460  1
  F  F12  1  0.916084  0.013239  0.613540  1
  F  F13  1  0.916084  0.486761  0.386460  1
  F  F14  1  0.083916  0.513239  0.886460  1
  F  F15  1  0.083916  0.986761  0.113540  1
  F  F16  1  0.064312  0.214269  0.250000  1
  F  F17  1  0.064312  0.285731  0.750000  1
  F  F18  1  0.935688  0.714269  0.250000  1
  F  F19  1  0.935688  0.785731  0.750000  1
  F  F20  1  0.485647  0.702854  0.111261  1
  F  F21  1  0.485647  0.797146  0.888739  1
  F  F22  1  0.514353  0.202854  0.388739  1
  F  F23  1  0.514353  0.297146  0.611261  1
  F  F24  1  0.514353  0.297146  0.888739  1
  F  F25  1  0.514353  0.202854  0.111261  1
  F  F26  1  0.485647  0.797146  0.611261  1
  F  F27  1  0.485647  0.702854  0.388739  1
