# generated using pymatgen
data_Rb7NbAs4
_symmetry_space_group_name_H-M   'P 1'
_cell_length_a   8.77254827
_cell_length_b   9.64884060
_cell_length_c   10.81128159
_cell_angle_alpha   90.00000000
_cell_angle_beta   90.00000000
_cell_angle_gamma   90.00000000
_symmetry_Int_Tables_number   1
_chemical_formula_structural   Rb7NbAs4
_chemical_formula_sum   'Rb14 Nb2 As8'
_cell_volume   915.12006434
_cell_formula_units_Z   2
loop_
 _symmetry_equiv_pos_site_id
 _symmetry_equiv_pos_as_xyz
  1  'x, y, z'
loop_
 _atom_site_type_symbol
 _atom_site_label
 _atom_site_symmetry_multiplicity
 _atom_site_fract_x
 _atom_site_fract_y
 _atom_site_fract_z
 _atom_site_occupancy
  Rb  Rb0  1  0.877862  0.028727  0.000000  1
  Rb  Rb1  1  0.708213  0.832969  0.714916  1
  Rb  Rb2  1  0.391094  0.887901  0.000000  1
  Rb  Rb3  1  0.377862  0.971273  0.500000  1
  Rb  Rb4  1  0.873371  0.468215  0.288333  1
  Rb  Rb5  1  0.891094  0.112099  0.500000  1
  Rb  Rb6  1  0.664557  0.339022  0.000000  1
  Rb  Rb7  1  0.164557  0.660978  0.500000  1
  Rb  Rb8  1  0.208213  0.167031  0.214916  1
  Rb  Rb9  1  0.373371  0.531785  0.211667  1
  Rb  Rb10  1  0.373371  0.531785  0.788333  1
  Rb  Rb11  1  0.873371  0.468215  0.711667  1
  Rb  Rb12  1  0.708213  0.832969  0.285084  1
  Rb  Rb13  1  0.208213  0.167031  0.785084  1
  Nb  Nb14  1  0.998418  0.672677  0.000000  1
  Nb  Nb15  1  0.498418  0.327323  0.500000  1
  As  As16  1  0.710928  0.683058  0.000000  1
  As  As17  1  0.210928  0.316942  0.500000  1
  As  As18  1  0.074815  0.419083  0.000000  1
  As  As19  1  0.574815  0.580917  0.500000  1
  As  As20  1  0.090130  0.800463  0.194934  1
  As  As21  1  0.590130  0.199537  0.305066  1
  As  As22  1  0.590130  0.199537  0.694934  1
  As  As23  1  0.090130  0.800463  0.805066  1
