# generated using pymatgen
data_NaVAsO5
_symmetry_space_group_name_H-M   'P 1'
_cell_length_a   6.80704600
_cell_length_b   8.87977608
_cell_length_c   7.21441680
_cell_angle_alpha   90.00000000
_cell_angle_beta   114.61023277
_cell_angle_gamma   90.00000000
_symmetry_Int_Tables_number   1
_chemical_formula_structural   NaVAsO5
_chemical_formula_sum   'Na4 V4 As4 O20'
_cell_volume   396.46338522
_cell_formula_units_Z   4
loop_
 _symmetry_equiv_pos_site_id
 _symmetry_equiv_pos_as_xyz
  1  'x, y, z'
loop_
 _atom_site_type_symbol
 _atom_site_label
 _atom_site_symmetry_multiplicity
 _atom_site_fract_x
 _atom_site_fract_y
 _atom_site_fract_z
 _atom_site_occupancy
  Na  Na0  1  0.242410  0.577531  0.233251  1
  Na  Na1  1  0.757590  0.077531  0.266749  1
  Na  Na2  1  0.757590  0.422469  0.766749  1
  Na  Na3  1  0.242410  0.922469  0.733251  1
  V  V4  1  0.744294  0.741650  0.517170  1
  V  V5  1  0.255706  0.241650  0.982830  1
  V  V6  1  0.255706  0.258350  0.482830  1
  V  V7  1  0.744294  0.758350  0.017170  1
  As  As8  1  0.248964  0.565857  0.747731  1
  As  As9  1  0.751036  0.065857  0.752269  1
  As  As10  1  0.751036  0.434143  0.252269  1
  As  As11  1  0.248964  0.934143  0.247731  1
  O  O12  1  0.432176  0.693123  0.906452  1
  O  O13  1  0.567824  0.193123  0.593548  1
  O  O14  1  0.567824  0.306877  0.093548  1
  O  O15  1  0.432176  0.806877  0.406452  1
  O  O16  1  0.635517  0.541245  0.380328  1
  O  O17  1  0.364483  0.041245  0.119672  1
  O  O18  1  0.364483  0.458755  0.619672  1
  O  O19  1  0.635517  0.958755  0.880328  1
  O  O20  1  0.751760  0.690837  0.750785  1
  O  O21  1  0.248240  0.190837  0.749215  1
  O  O22  1  0.248240  0.309163  0.249215  1
  O  O23  1  0.751760  0.809163  0.250785  1
  O  O24  1  0.847863  0.957184  0.609378  1
  O  O25  1  0.152137  0.457184  0.890622  1
  O  O26  1  0.152137  0.042816  0.390622  1
  O  O27  1  0.847863  0.542816  0.109378  1
  O  O28  1  0.052371  0.820310  0.077157  1
  O  O29  1  0.947629  0.320310  0.422843  1
  O  O30  1  0.947629  0.179690  0.922843  1
  O  O31  1  0.052371  0.679690  0.577157  1
