# generated using pymatgen
data_Cd4SiSe6
_symmetry_space_group_name_H-M   'P 1'
_cell_length_a   7.57601101
_cell_length_b   7.57601101
_cell_length_c   13.13906167
_cell_angle_alpha   72.52363247
_cell_angle_beta   107.47636753
_cell_angle_gamma   120.30738324
_symmetry_Int_Tables_number   1
_chemical_formula_structural   Cd4SiSe6
_chemical_formula_sum   'Cd8 Si2 Se12'
_cell_volume   610.79258850
_cell_formula_units_Z   2
loop_
 _symmetry_equiv_pos_site_id
 _symmetry_equiv_pos_as_xyz
  1  'x, y, z'
loop_
 _atom_site_type_symbol
 _atom_site_label
 _atom_site_symmetry_multiplicity
 _atom_site_fract_x
 _atom_site_fract_y
 _atom_site_fract_z
 _atom_site_occupancy
  Cd  Cd0  1  0.273826  0.323064  0.690833  1
  Cd  Cd1  1  0.676936  0.726174  0.190833  1
  Cd  Cd2  1  0.772345  0.088154  0.847221  1
  Cd  Cd3  1  0.911846  0.227655  0.347221  1
  Cd  Cd4  1  0.555257  0.231829  0.041838  1
  Cd  Cd5  1  0.768171  0.444743  0.541838  1
  Cd  Cd6  1  0.079674  0.710821  0.853924  1
  Cd  Cd7  1  0.289179  0.920326  0.353924  1
  Si  Si8  1  0.681893  0.859675  0.604235  1
  Si  Si9  1  0.140325  0.318107  0.104235  1
  Se  Se10  1  0.557549  0.975990  0.233829  1
  Se  Se11  1  0.024010  0.442451  0.733829  1
  Se  Se12  1  0.998518  0.033080  0.553273  1
  Se  Se13  1  0.966920  0.001482  0.053273  1
  Se  Se14  1  0.969886  0.516974  0.053010  1
  Se  Se15  1  0.483026  0.030114  0.553010  1
  Se  Se16  1  0.713338  0.745928  0.788222  1
  Se  Se17  1  0.254072  0.286662  0.288222  1
  Se  Se18  1  0.415673  0.084565  0.855131  1
  Se  Se19  1  0.915435  0.584327  0.355131  1
  Se  Se20  1  0.480861  0.569142  0.524284  1
  Se  Se21  1  0.430858  0.519139  0.024284  1
