# generated using pymatgen
data_CaC2
_symmetry_space_group_name_H-M   'P 1'
_cell_length_a   3.91297772
_cell_length_b   3.91297772
_cell_length_c   7.45456744
_cell_angle_alpha   75.40707642
_cell_angle_beta   104.59292358
_cell_angle_gamma   115.75688922
_symmetry_Int_Tables_number   1
_chemical_formula_structural   CaC2
_chemical_formula_sum   'Ca2 C4'
_cell_volume   98.14535431
_cell_formula_units_Z   2
loop_
 _symmetry_equiv_pos_site_id
 _symmetry_equiv_pos_as_xyz
  1  'x, y, z'
loop_
 _atom_site_type_symbol
 _atom_site_label
 _atom_site_symmetry_multiplicity
 _atom_site_fract_x
 _atom_site_fract_y
 _atom_site_fract_z
 _atom_site_occupancy
  Ca  Ca0  1  0.177249  0.177249  0.250000  1
  Ca  Ca1  1  0.822751  0.822751  0.750000  1
  C  C2  1  0.861777  0.421442  0.438811  1
  C  C3  1  0.421442  0.861777  0.061189  1
  C  C4  1  0.578558  0.138223  0.938811  1
  C  C5  1  0.138223  0.578558  0.561189  1
