# generated using pymatgen
data_CeRh
_symmetry_space_group_name_H-M   'P 1'
_cell_length_a   5.98054705
_cell_length_b   5.98054705
_cell_length_c   4.03522038
_cell_angle_alpha   90.00000000
_cell_angle_beta   90.00000000
_cell_angle_gamma   142.39915054
_symmetry_Int_Tables_number   1
_chemical_formula_structural   CeRh
_chemical_formula_sum   'Ce2 Rh2'
_cell_volume   88.06241978
_cell_formula_units_Z   2
loop_
 _symmetry_equiv_pos_site_id
 _symmetry_equiv_pos_as_xyz
  1  'x, y, z'
loop_
 _atom_site_type_symbol
 _atom_site_label
 _atom_site_symmetry_multiplicity
 _atom_site_fract_x
 _atom_site_fract_y
 _atom_site_fract_z
 _atom_site_occupancy
  Ce  Ce0  1  0.137013  0.862987  0.250000  1
  Ce  Ce1  1  0.862987  0.137013  0.750000  1
  Rh  Rh2  1  0.402844  0.597156  0.250000  1
  Rh  Rh3  1  0.597156  0.402844  0.750000  1
