# generated using pymatgen
data_Ho2Sb5
_symmetry_space_group_name_H-M   'P 1'
_cell_length_a   13.16906581
_cell_length_b   4.22632885
_cell_length_c   14.64216472
_cell_angle_alpha   90.00000000
_cell_angle_beta   102.05661305
_cell_angle_gamma   90.00000000
_symmetry_Int_Tables_number   1
_chemical_formula_structural   Ho2Sb5
_chemical_formula_sum   'Ho8 Sb20'
_cell_volume   796.95996026
_cell_formula_units_Z   4
loop_
 _symmetry_equiv_pos_site_id
 _symmetry_equiv_pos_as_xyz
  1  'x, y, z'
loop_
 _atom_site_type_symbol
 _atom_site_label
 _atom_site_symmetry_multiplicity
 _atom_site_fract_x
 _atom_site_fract_y
 _atom_site_fract_z
 _atom_site_occupancy
  Ho  Ho0  1  0.393335  0.250000  0.729770  1
  Ho  Ho1  1  0.606665  0.750000  0.270230  1
  Ho  Ho2  1  0.662163  0.250000  0.644986  1
  Ho  Ho3  1  0.337837  0.750000  0.355014  1
  Ho  Ho4  1  0.669139  0.250000  0.922339  1
  Ho  Ho5  1  0.330861  0.750000  0.077661  1
  Ho  Ho6  1  0.952931  0.250000  0.138459  1
  Ho  Ho7  1  0.047069  0.750000  0.861541  1
  Sb  Sb8  1  0.141776  0.250000  0.720754  1
  Sb  Sb9  1  0.858224  0.750000  0.279246  1
  Sb  Sb10  1  0.143340  0.250000  0.017829  1
  Sb  Sb11  1  0.856660  0.750000  0.982171  1
  Sb  Sb12  1  0.152407  0.250000  0.328317  1
  Sb  Sb13  1  0.847593  0.750000  0.671683  1
  Sb  Sb14  1  0.419816  0.250000  0.524730  1
  Sb  Sb15  1  0.580184  0.750000  0.475270  1
  Sb  Sb16  1  0.030318  0.750000  0.591709  1
  Sb  Sb17  1  0.969682  0.250000  0.408291  1
  Sb  Sb18  1  0.138401  0.750000  0.177707  1
  Sb  Sb19  1  0.861599  0.250000  0.822293  1
  Sb  Sb20  1  0.278557  0.750000  0.562341  1
  Sb  Sb21  1  0.721443  0.250000  0.437659  1
  Sb  Sb22  1  0.284423  0.750000  0.846685  1
  Sb  Sb23  1  0.715577  0.250000  0.153315  1
  Sb  Sb24  1  0.575474  0.750000  0.765549  1
  Sb  Sb25  1  0.424526  0.250000  0.234451  1
  Sb  Sb26  1  0.574407  0.750000  0.050673  1
  Sb  Sb27  1  0.425593  0.250000  0.949327  1
