# generated using pymatgen
data_LiYbF4
_symmetry_space_group_name_H-M   'P 1'
_cell_length_a   6.22243932
_cell_length_b   6.22243932
_cell_length_c   6.22243932
_cell_angle_alpha   127.89239126
_cell_angle_beta   127.89239126
_cell_angle_gamma   76.79941488
_symmetry_Int_Tables_number   1
_chemical_formula_structural   LiYbF4
_chemical_formula_sum   'Li2 Yb2 F8'
_cell_volume   145.69487124
_cell_formula_units_Z   2
loop_
 _symmetry_equiv_pos_site_id
 _symmetry_equiv_pos_as_xyz
  1  'x, y, z'
loop_
 _atom_site_type_symbol
 _atom_site_label
 _atom_site_symmetry_multiplicity
 _atom_site_fract_x
 _atom_site_fract_y
 _atom_site_fract_z
 _atom_site_occupancy
  Li  Li0  1  0.250000  0.750000  0.500000  1
  Li  Li1  1  0.500000  0.500000  0.000000  1
  Yb  Yb2  1  0.750000  0.250000  0.500000  1
  Yb  Yb3  1  0.000000  0.000000  0.000000  1
  F  F4  1  0.766439  0.316421  0.917149  1
  F  F5  1  0.350728  0.400710  0.417149  1
  F  F6  1  0.599290  0.016439  0.950018  1
  F  F7  1  0.066421  0.649272  0.049982  1
  F  F8  1  0.399272  0.849290  0.082851  1
  F  F9  1  0.683579  0.600728  0.450018  1
  F  F10  1  0.983561  0.933579  0.582851  1
  F  F11  1  0.150710  0.233561  0.549982  1
