# generated using pymatgen
data_LaGeBO5
_symmetry_space_group_name_H-M   'P 1'
_cell_length_a   7.06524491
_cell_length_b   7.06524491
_cell_length_c   6.92244449
_cell_angle_alpha   90.00000000
_cell_angle_beta   90.00000000
_cell_angle_gamma   120.00000000
_symmetry_Int_Tables_number   1
_chemical_formula_structural   LaGeBO5
_chemical_formula_sum   'La3 Ge3 B3 O15'
_cell_volume   299.25716381
_cell_formula_units_Z   3
loop_
 _symmetry_equiv_pos_site_id
 _symmetry_equiv_pos_as_xyz
  1  'x, y, z'
loop_
 _atom_site_type_symbol
 _atom_site_label
 _atom_site_symmetry_multiplicity
 _atom_site_fract_x
 _atom_site_fract_y
 _atom_site_fract_z
 _atom_site_occupancy
  La  La0  1  0.411373  0.409617  0.668261  1
  La  La1  1  0.998244  0.588627  0.334928  1
  La  La2  1  0.590383  0.001756  0.001594  1
  Ge  Ge3  1  0.416964  0.420813  0.167943  1
  Ge  Ge4  1  0.003849  0.583036  0.834610  1
  Ge  Ge5  1  0.579187  0.996151  0.501276  1
  B  B6  1  0.898754  0.885296  0.641709  1
  B  B7  1  0.986542  0.101246  0.308376  1
  B  B8  1  0.114704  0.013458  0.975042  1
  O  O9  1  0.154788  0.542865  0.656806  1
  O  O10  1  0.388077  0.845212  0.323472  1
  O  O11  1  0.457135  0.611923  0.990139  1
  O  O12  1  0.055893  0.042977  0.778883  1
  O  O13  1  0.957023  0.012916  0.112216  1
  O  O14  1  0.987084  0.944107  0.445549  1
  O  O15  1  0.348101  0.192036  0.011198  1
  O  O16  1  0.807964  0.156064  0.344531  1
  O  O17  1  0.843936  0.651899  0.677864  1
  O  O18  1  0.185594  0.327718  0.327145  1
  O  O19  1  0.672282  0.857876  0.660478  1
  O  O20  1  0.142124  0.814406  0.993812  1
  O  O21  1  0.613629  0.471566  0.342223  1
  O  O22  1  0.528434  0.142064  0.675556  1
  O  O23  1  0.857936  0.386371  0.008889  1
