# generated using pymatgen
data_SmP5O14
_symmetry_space_group_name_H-M   'P 1'
_cell_length_a   8.88740326
_cell_length_b   9.11275392
_cell_length_c   13.11321810
_cell_angle_alpha   90.00000000
_cell_angle_beta   90.29716918
_cell_angle_gamma   90.00000000
_symmetry_Int_Tables_number   1
_chemical_formula_structural   SmP5O14
_chemical_formula_sum   'Sm4 P20 O56'
_cell_volume   1062.00845030
_cell_formula_units_Z   4
loop_
 _symmetry_equiv_pos_site_id
 _symmetry_equiv_pos_as_xyz
  1  'x, y, z'
loop_
 _atom_site_type_symbol
 _atom_site_label
 _atom_site_symmetry_multiplicity
 _atom_site_fract_x
 _atom_site_fract_y
 _atom_site_fract_z
 _atom_site_occupancy
  Sm  Sm0  1  0.723718  0.311774  0.500754  1
  Sm  Sm1  1  0.276282  0.811774  0.999246  1
  Sm  Sm2  1  0.276282  0.688226  0.499246  1
  Sm  Sm3  1  0.723718  0.188226  0.000754  1
  P  P4  1  0.995937  0.001803  0.826742  1
  P  P5  1  0.004063  0.501803  0.673258  1
  P  P6  1  0.004063  0.998197  0.173258  1
  P  P7  1  0.995937  0.498197  0.326742  1
  P  P8  1  0.494943  0.003137  0.798616  1
  P  P9  1  0.505057  0.503137  0.701384  1
  P  P10  1  0.505057  0.996863  0.201384  1
  P  P11  1  0.494943  0.496863  0.298616  1
  P  P12  1  0.756968  0.953648  0.664864  1
  P  P13  1  0.243032  0.453648  0.835136  1
  P  P14  1  0.243032  0.046352  0.335136  1
  P  P15  1  0.756968  0.546352  0.164864  1
  P  P16  1  0.231819  0.049039  0.664125  1
  P  P17  1  0.768181  0.549039  0.835875  1
  P  P18  1  0.768181  0.950961  0.335875  1
  P  P19  1  0.231819  0.450961  0.164125  1
  P  P20  1  0.316147  0.254229  0.499921  1
  P  P21  1  0.683853  0.754229  0.000079  1
  P  P22  1  0.683853  0.745771  0.500079  1
  P  P23  1  0.316147  0.245771  0.999921  1
  O  O24  1  0.919811  0.121281  0.884114  1
  O  O25  1  0.080189  0.621281  0.615886  1
  O  O26  1  0.080189  0.878719  0.115886  1
  O  O27  1  0.919811  0.378719  0.384114  1
  O  O28  1  0.586100  0.115775  0.852934  1
  O  O29  1  0.413900  0.615775  0.647066  1
  O  O30  1  0.413900  0.884225  0.147066  1
  O  O31  1  0.586100  0.384225  0.352934  1
  O  O32  1  0.082357  0.883918  0.879166  1
  O  O33  1  0.917643  0.383918  0.620834  1
  O  O34  1  0.917643  0.116082  0.120834  1
  O  O35  1  0.082357  0.616082  0.379166  1
  O  O36  1  0.411670  0.884730  0.852114  1
  O  O37  1  0.588330  0.384730  0.647886  1
  O  O38  1  0.588330  0.115270  0.147886  1
  O  O39  1  0.411670  0.615270  0.352114  1
  O  O40  1  0.874168  0.919639  0.752163  1
  O  O41  1  0.125832  0.419639  0.747837  1
  O  O42  1  0.125832  0.080361  0.247837  1
  O  O43  1  0.099289  0.081598  0.740180  1
  O  O44  1  0.874168  0.580361  0.252163  1
  O  O45  1  0.401908  0.422411  0.786385  1
  O  O46  1  0.401908  0.077589  0.286385  1
  O  O47  1  0.598092  0.577589  0.213615  1
  O  O48  1  0.470560  0.190128  0.503092  1
  O  O49  1  0.529440  0.690128  0.996908  1
  O  O50  1  0.529440  0.809872  0.496908  1
  O  O51  1  0.470560  0.309872  0.003092  1
  O  O52  1  0.287180  0.085163  0.000121  1
  O  O53  1  0.712820  0.585163  0.499879  1
  O  O54  1  0.712820  0.914837  0.999879  1
  O  O55  1  0.287180  0.414837  0.500121  1
  O  O56  1  0.212164  0.315015  0.090924  1
  O  O57  1  0.787836  0.815015  0.409076  1
  O  O58  1  0.787836  0.684985  0.909076  1
  O  O59  1  0.212164  0.184985  0.590924  1
  O  O60  1  0.773847  0.404690  0.111386  1
  O  O61  1  0.226153  0.904690  0.388614  1
  O  O62  1  0.226153  0.595310  0.888614  1
  O  O63  1  0.773847  0.095310  0.611386  1
  O  O64  1  0.231954  0.596249  0.114389  1
  O  O65  1  0.768046  0.096249  0.385611  1
  O  O66  1  0.768046  0.403751  0.885611  1
  O  O67  1  0.231954  0.903751  0.614389  1
  O  O68  1  0.221113  0.312177  0.902817  1
  O  O69  1  0.778887  0.812177  0.597183  1
  O  O70  1  0.778887  0.687823  0.097183  1
  O  O71  1  0.221113  0.187823  0.402817  1
  O  O72  1  0.379645  0.407258  0.224921  1
  O  O73  1  0.620355  0.907258  0.275079  1
  O  O74  1  0.620355  0.592742  0.775079  1
  O  O75  1  0.379645  0.092742  0.724921  1
  O  O76  1  0.099289  0.418402  0.240180  1
  O  O77  1  0.900711  0.918402  0.259820  1
  O  O78  1  0.900711  0.581598  0.759820  1
  O  O79  1  0.598092  0.922411  0.713615  1
