# generated using pymatgen
data_La2B8O15
_symmetry_space_group_name_H-M   'P 1'
_cell_length_a   9.26559794
_cell_length_b   4.25583302
_cell_length_c   12.61622042
_cell_angle_alpha   90.00000000
_cell_angle_beta   116.65115592
_cell_angle_gamma   90.00000000
_symmetry_Int_Tables_number   1
_chemical_formula_structural   La2B8O15
_chemical_formula_sum   'La4 B16 O30'
_cell_volume   444.63674247
_cell_formula_units_Z   2
loop_
 _symmetry_equiv_pos_site_id
 _symmetry_equiv_pos_as_xyz
  1  'x, y, z'
loop_
 _atom_site_type_symbol
 _atom_site_label
 _atom_site_symmetry_multiplicity
 _atom_site_fract_x
 _atom_site_fract_y
 _atom_site_fract_z
 _atom_site_occupancy
  La  La0  1  0.143660  0.264828  0.948137  1
  La  La1  1  0.856340  0.264828  0.551863  1
  La  La2  1  0.856340  0.735172  0.051863  1
  La  La3  1  0.143660  0.735172  0.448137  1
  B  B4  1  0.107238  0.214334  0.204379  1
  B  B5  1  0.892762  0.214334  0.295621  1
  B  B6  1  0.892762  0.785666  0.795621  1
  B  B7  1  0.107238  0.785666  0.704379  1
  B  B8  1  0.284028  0.730907  0.234524  1
  B  B9  1  0.715972  0.730907  0.265476  1
  B  B10  1  0.715972  0.269093  0.765476  1
  B  B11  1  0.284028  0.269093  0.734524  1
  B  B12  1  0.595178  0.217794  0.126671  1
  B  B13  1  0.404822  0.217794  0.373329  1
  B  B14  1  0.404822  0.782206  0.873329  1
  B  B15  1  0.595178  0.782206  0.626671  1
  B  B16  1  0.415405  0.707755  0.086682  1
  B  B17  1  0.584595  0.707755  0.413318  1
  B  B18  1  0.584595  0.292245  0.913318  1
  B  B19  1  0.415405  0.292245  0.586682  1
  O  O20  1  0.029001  0.259137  0.078899  1
  O  O21  1  0.970999  0.259137  0.421101  1
  O  O22  1  0.970999  0.740863  0.921101  1
  O  O23  1  0.029001  0.740863  0.578899  1
  O  O24  1  0.141608  0.879026  0.235225  1
  O  O25  1  0.858392  0.879026  0.264775  1
  O  O26  1  0.858392  0.120974  0.764775  1
  O  O27  1  0.141608  0.120974  0.735225  1
  O  O28  1  0.275530  0.618359  0.764236  1
  O  O29  1  0.724470  0.618359  0.735764  1
  O  O30  1  0.724470  0.381641  0.235764  1
  O  O31  1  0.275530  0.381641  0.264236  1
  O  O32  1  0.288806  0.772862  0.122908  1
  O  O33  1  0.711194  0.772862  0.377092  1
  O  O34  1  0.711194  0.227138  0.877092  1
  O  O35  1  0.288806  0.227138  0.622908  1
  O  O36  1  0.340053  0.808313  0.960486  1
  O  O37  1  0.659947  0.808313  0.539514  1
  O  O38  1  0.659947  0.191687  0.039514  1
  O  O39  1  0.340053  0.191687  0.460486  1
  O  O40  1  0.573363  0.877945  0.161048  1
  O  O41  1  0.426637  0.877945  0.338952  1
  O  O42  1  0.426637  0.122055  0.838952  1
  O  O43  1  0.573363  0.122055  0.661048  1
  O  O44  1  0.445048  0.372125  0.091478  1
  O  O45  1  0.554952  0.372125  0.408522  1
  O  O46  1  0.554952  0.627875  0.908522  1
  O  O47  1  0.445048  0.627875  0.591478  1
  O  O48  1  0.000000  0.347267  0.250000  1
  O  O49  1  0.000000  0.652733  0.750000  1
