# generated using pymatgen
data_LiCaAl3N4
_symmetry_space_group_name_H-M   'P 1'
_cell_length_a   10.24701260
_cell_length_b   10.24701260
_cell_length_c   10.24701260
_cell_angle_alpha   113.48400488
_cell_angle_beta   113.48400488
_cell_angle_gamma   101.71326047
_symmetry_Int_Tables_number   1
_chemical_formula_structural   LiCaAl3N4
_chemical_formula_sum   'Li8 Ca8 Al24 N32'
_cell_volume   817.09552750
_cell_formula_units_Z   8
loop_
 _symmetry_equiv_pos_site_id
 _symmetry_equiv_pos_as_xyz
  1  'x, y, z'
loop_
 _atom_site_type_symbol
 _atom_site_label
 _atom_site_symmetry_multiplicity
 _atom_site_fract_x
 _atom_site_fract_y
 _atom_site_fract_z
 _atom_site_occupancy
  Li  Li0  1  0.295442  0.925844  0.339290  1
  Li  Li1  1  0.586554  0.956152  0.660710  1
  Li  Li2  1  0.675844  0.836554  0.130402  1
  Li  Li3  1  0.706152  0.545442  0.869598  1
  Li  Li4  1  0.454558  0.324156  0.160710  1
  Li  Li5  1  0.163446  0.293848  0.839290  1
  Li  Li6  1  0.074156  0.413446  0.369598  1
  Li  Li7  1  0.043848  0.704558  0.630402  1
  Ca  Ca8  1  0.328004  0.815763  0.022036  1
  Ca  Ca9  1  0.793727  0.305968  0.977964  1
  Ca  Ca10  1  0.565763  0.043727  0.987759  1
  Ca  Ca11  1  0.055968  0.578004  0.012241  1
  Ca  Ca12  1  0.421996  0.434237  0.477964  1
  Ca  Ca13  1  0.956273  0.944032  0.522036  1
  Ca  Ca14  1  0.184237  0.206273  0.512241  1
  Ca  Ca15  1  0.694032  0.671996  0.487759  1
  Al  Al16  1  0.217150  0.013473  0.863428  1
  Al  Al17  1  0.150046  0.353723  0.136572  1
  Al  Al18  1  0.763473  0.400046  0.296323  1
  Al  Al19  1  0.103723  0.467150  0.703677  1
  Al  Al20  1  0.532850  0.236527  0.636572  1
  Al  Al21  1  0.599954  0.896277  0.363428  1
  Al  Al22  1  0.986527  0.849954  0.203677  1
  Al  Al23  1  0.646277  0.782850  0.796323  1
  Al  Al24  1  0.455254  0.274279  0.861004  1
  Al  Al25  1  0.413275  0.594250  0.138996  1
  Al  Al26  1  0.024279  0.663275  0.319025  1
  Al  Al27  1  0.344250  0.705254  0.680975  1
  Al  Al28  1  0.294746  0.975721  0.638996  1
  Al  Al29  1  0.336725  0.655750  0.361004  1
  Al  Al30  1  0.725721  0.586725  0.180975  1
  Al  Al31  1  0.405750  0.544746  0.819025  1
  Al  Al32  1  0.963376  0.776950  0.857876  1
  Al  Al33  1  0.919075  0.105501  0.142124  1
  Al  Al34  1  0.526950  0.169075  0.313574  1
  Al  Al35  1  0.855501  0.213376  0.686426  1
  Al  Al36  1  0.786624  0.473050  0.642124  1
  Al  Al37  1  0.830925  0.144499  0.357876  1
  Al  Al38  1  0.223050  0.080925  0.186426  1
  Al  Al39  1  0.894499  0.036624  0.813574  1
  N  N40  1  0.383579  0.773329  0.269573  1
  N  N41  1  0.503756  0.114006  0.730427  1
  N  N42  1  0.523329  0.753756  0.889750  1
  N  N43  1  0.864006  0.633579  0.110250  1
  N  N44  1  0.366421  0.476671  0.230427  1
  N  N45  1  0.246244  0.135994  0.769573  1
  N  N46  1  0.226671  0.496244  0.610250  1
  N  N47  1  0.885994  0.616421  0.389750  1
  N  N48  1  0.090996  0.868727  0.091739  1
  N  N49  1  0.776988  0.999257  0.908261  1
  N  N50  1  0.618727  0.026988  0.277730  1
  N  N51  1  0.749257  0.340996  0.722270  1
  N  N52  1  0.659004  0.381273  0.408261  1
  N  N53  1  0.973012  0.250743  0.591739  1
  N  N54  1  0.131273  0.223012  0.222270  1
  N  N55  1  0.000743  0.909004  0.777730  1
  N  N56  1  0.349854  0.089736  0.091403  1
  N  N57  1  0.998333  0.258451  0.908597  1
  N  N58  1  0.839736  0.248333  0.239882  1
  N  N59  1  0.008451  0.599854  0.760118  1
  N  N60  1  0.400146  0.160264  0.408597  1
  N  N61  1  0.751667  0.991549  0.591403  1
  N  N62  1  0.910264  0.001667  0.260118  1
  N  N63  1  0.741549  0.650146  0.739882  1
  N  N64  1  0.610768  0.368265  0.084348  1
  N  N65  1  0.283917  0.526420  0.915652  1
  N  N66  1  0.118265  0.533917  0.257498  1
  N  N67  1  0.276420  0.860768  0.742502  1
  N  N68  1  0.139232  0.881735  0.415652  1
  N  N69  1  0.466083  0.723580  0.584348  1
  N  N70  1  0.631735  0.716083  0.242502  1
  N  N71  1  0.473580  0.389232  0.757498  1
