# generated using pymatgen
data_K2Ca4Si8O21
_symmetry_space_group_name_H-M   'P 1'
_cell_length_a   6.88323141
_cell_length_b   7.19391886
_cell_length_c   11.33271919
_cell_angle_alpha   96.69197368
_cell_angle_beta   105.31884805
_cell_angle_gamma   109.12696972
_symmetry_Int_Tables_number   1
_chemical_formula_structural   K2Ca4Si8O21
_chemical_formula_sum   'K2 Ca4 Si8 O21'
_cell_volume   498.48736974
_cell_formula_units_Z   1
loop_
 _symmetry_equiv_pos_site_id
 _symmetry_equiv_pos_as_xyz
  1  'x, y, z'
loop_
 _atom_site_type_symbol
 _atom_site_label
 _atom_site_symmetry_multiplicity
 _atom_site_fract_x
 _atom_site_fract_y
 _atom_site_fract_z
 _atom_site_occupancy
  K  K0  1  0.739538  0.707777  0.430403  1
  K  K1  1  0.260462  0.292223  0.569597  1
  Ca  Ca2  1  0.662383  0.785228  0.817009  1
  Ca  Ca3  1  0.337617  0.214772  0.182991  1
  Ca  Ca4  1  0.370989  0.733080  0.042711  1
  Ca  Ca5  1  0.629011  0.266920  0.957289  1
  Si  Si6  1  0.097613  0.238974  0.886692  1
  Si  Si7  1  0.902387  0.761026  0.113308  1
  Si  Si8  1  0.175541  0.901460  0.745090  1
  Si  Si9  1  0.824459  0.098540  0.254910  1
  Si  Si10  1  0.662907  0.199622  0.470788  1
  Si  Si11  1  0.337093  0.800378  0.529212  1
  Si  Si12  1  0.871717  0.470412  0.742722  1
  Si  Si13  1  0.128283  0.529588  0.257278  1
  O  O14  1  0.500000  0.000000  0.500000  1
  O  O15  1  0.845782  0.344107  0.604953  1
  O  O16  1  0.154218  0.655893  0.395047  1
  O  O17  1  0.389226  0.911677  0.851121  1
  O  O18  1  0.610774  0.088323  0.148879  1
  O  O19  1  0.873963  0.123947  0.912229  1
  O  O20  1  0.126037  0.876053  0.087771  1
  O  O21  1  0.674477  0.693247  0.002577  1
  O  O22  1  0.325523  0.306753  0.997423  1
  O  O23  1  0.116537  0.104828  0.762132  1
  O  O24  1  0.883463  0.895172  0.237868  1
  O  O25  1  0.086889  0.454802  0.845023  1
  O  O26  1  0.913111  0.545198  0.154977  1
  O  O27  1  0.951634  0.715054  0.740062  1
  O  O28  1  0.048366  0.284946  0.259938  1
  O  O29  1  0.467653  0.686597  0.608925  1
  O  O30  1  0.532347  0.313403  0.391075  1
  O  O31  1  0.342438  0.585120  0.217286  1
  O  O32  1  0.657562  0.414880  0.782714  1
  O  O33  1  0.187328  0.880530  0.600267  1
  O  O34  1  0.812672  0.119470  0.399733  1
