# generated using pymatgen
data_LuSi
_symmetry_space_group_name_H-M   'P 1'
_cell_length_a   5.55791593
_cell_length_b   5.55791593
_cell_length_c   3.76766126
_cell_angle_alpha   90.00000000
_cell_angle_beta   90.00000000
_cell_angle_gamma   135.97592253
_symmetry_Int_Tables_number   1
_chemical_formula_structural   LuSi
_chemical_formula_sum   'Lu2 Si2'
_cell_volume   80.88276285
_cell_formula_units_Z   2
loop_
 _symmetry_equiv_pos_site_id
 _symmetry_equiv_pos_as_xyz
  1  'x, y, z'
loop_
 _atom_site_type_symbol
 _atom_site_label
 _atom_site_symmetry_multiplicity
 _atom_site_fract_x
 _atom_site_fract_y
 _atom_site_fract_z
 _atom_site_occupancy
  Lu  Lu0  1  0.859287  0.140713  0.750000  1
  Lu  Lu1  1  0.140713  0.859287  0.250000  1
  Si  Si2  1  0.578378  0.421622  0.750000  1
  Si  Si3  1  0.421622  0.578378  0.250000  1
