# generated using pymatgen
data_BaGd2O4
_symmetry_space_group_name_H-M   'P 1'
_cell_length_a   3.53952466
_cell_length_b   10.60070075
_cell_length_c   12.35742583
_cell_angle_alpha   90.00000000
_cell_angle_beta   90.00000000
_cell_angle_gamma   90.00000000
_symmetry_Int_Tables_number   1
_chemical_formula_structural   BaGd2O4
_chemical_formula_sum   'Ba4 Gd8 O16'
_cell_volume   463.66843306
_cell_formula_units_Z   4
loop_
 _symmetry_equiv_pos_site_id
 _symmetry_equiv_pos_as_xyz
  1  'x, y, z'
loop_
 _atom_site_type_symbol
 _atom_site_label
 _atom_site_symmetry_multiplicity
 _atom_site_fract_x
 _atom_site_fract_y
 _atom_site_fract_z
 _atom_site_occupancy
  Ba  Ba0  1  0.750000  0.752972  0.648385  1
  Ba  Ba1  1  0.250000  0.247028  0.351615  1
  Ba  Ba2  1  0.750000  0.252972  0.851615  1
  Ba  Ba3  1  0.250000  0.747028  0.148385  1
  Gd  Gd4  1  0.250000  0.075010  0.111329  1
  Gd  Gd5  1  0.750000  0.924990  0.888671  1
  Gd  Gd6  1  0.250000  0.575010  0.388671  1
  Gd  Gd7  1  0.750000  0.424990  0.611329  1
  Gd  Gd8  1  0.750000  0.422499  0.110033  1
  Gd  Gd9  1  0.250000  0.577501  0.889967  1
  Gd  Gd10  1  0.750000  0.922499  0.389967  1
  Gd  Gd11  1  0.250000  0.077501  0.610033  1
  O  O12  1  0.250000  0.071075  0.925484  1
  O  O13  1  0.750000  0.928925  0.074516  1
  O  O14  1  0.250000  0.571075  0.574516  1
  O  O15  1  0.750000  0.428925  0.425484  1
  O  O16  1  0.250000  0.981697  0.282857  1
  O  O17  1  0.750000  0.018303  0.717143  1
  O  O18  1  0.250000  0.481697  0.217143  1
  O  O19  1  0.750000  0.518303  0.782857  1
  O  O20  1  0.250000  0.382876  0.981091  1
  O  O21  1  0.750000  0.617124  0.018909  1
  O  O22  1  0.250000  0.882876  0.518909  1
  O  O23  1  0.750000  0.117124  0.481091  1
  O  O24  1  0.750000  0.209749  0.162914  1
  O  O25  1  0.250000  0.790251  0.837086  1
  O  O26  1  0.750000  0.709749  0.337086  1
  O  O27  1  0.250000  0.290251  0.662914  1
