# generated using pymatgen
data_Na6Si2O7
_symmetry_space_group_name_H-M   'P 1'
_cell_length_a   5.88270449
_cell_length_b   11.72513633
_cell_length_c   23.44776181
_cell_angle_alpha   89.62195576
_cell_angle_beta   88.77224621
_cell_angle_gamma   88.79420226
_symmetry_Int_Tables_number   1
_chemical_formula_structural   Na6Si2O7
_chemical_formula_sum   'Na48 Si16 O56'
_cell_volume   1616.56144661
_cell_formula_units_Z   8
loop_
 _symmetry_equiv_pos_site_id
 _symmetry_equiv_pos_as_xyz
  1  'x, y, z'
loop_
 _atom_site_type_symbol
 _atom_site_label
 _atom_site_symmetry_multiplicity
 _atom_site_fract_x
 _atom_site_fract_y
 _atom_site_fract_z
 _atom_site_occupancy
  Na  Na0  1  0.246814  0.008072  0.762846  1
  Na  Na1  1  0.753186  0.991928  0.237154  1
  Na  Na2  1  0.379986  0.981596  0.623412  1
  Na  Na3  1  0.620014  0.018404  0.376588  1
  Na  Na4  1  0.747995  0.994314  0.727578  1
  Na  Na5  1  0.252005  0.005686  0.272422  1
  Na  Na6  1  0.637165  0.024679  0.859332  1
  Na  Na7  1  0.362835  0.975321  0.140668  1
  Na  Na8  1  0.752544  0.474611  0.992660  1
  Na  Na9  1  0.247456  0.525389  0.007340  1
  Na  Na10  1  0.251933  0.962007  0.494576  1
  Na  Na11  1  0.748067  0.037993  0.505424  1
  Na  Na12  1  0.257421  0.474317  0.749150  1
  Na  Na13  1  0.742579  0.525683  0.250850  1
  Na  Na14  1  0.388661  0.496895  0.877803  1
  Na  Na15  1  0.611339  0.503105  0.122197  1
  Na  Na16  1  0.881555  0.259429  0.746755  1
  Na  Na17  1  0.118445  0.740571  0.253245  1
  Na  Na18  1  0.755347  0.490631  0.494356  1
  Na  Na19  1  0.244653  0.509369  0.505644  1
  Na  Na20  1  0.247992  0.982814  0.999903  1
  Na  Na21  1  0.752008  0.017186  0.000097  1
  Na  Na22  1  0.878451  0.725345  0.987644  1
  Na  Na23  1  0.121549  0.274655  0.012356  1
  Na  Na24  1  0.392737  0.211001  0.686813  1
  Na  Na25  1  0.607263  0.788999  0.313187  1
  Na  Na26  1  0.108314  0.748496  0.752094  1
  Na  Na27  1  0.891686  0.251504  0.247906  1
  Na  Na28  1  0.749092  0.527712  0.764714  1
  Na  Na29  1  0.250908  0.472288  0.235286  1
  Na  Na30  1  0.859878  0.769711  0.483105  1
  Na  Na31  1  0.140122  0.230289  0.516895  1
  Na  Na32  1  0.430830  0.764119  0.923376  1
  Na  Na33  1  0.569170  0.235881  0.076624  1
  Na  Na34  1  0.105004  0.152613  0.897209  1
  Na  Na35  1  0.894996  0.847387  0.102791  1
  Na  Na36  1  0.583722  0.782477  0.804865  1
  Na  Na37  1  0.416278  0.217523  0.195135  1
  Na  Na38  1  0.618774  0.520395  0.640072  1
  Na  Na39  1  0.381226  0.479605  0.359928  1
  Na  Na40  1  0.910889  0.379483  0.869233  1
  Na  Na41  1  0.089111  0.620517  0.130767  1
  Na  Na42  1  0.896294  0.874753  0.599565  1
  Na  Na43  1  0.103706  0.125247  0.400435  1
  Na  Na44  1  0.603161  0.292699  0.578572  1
  Na  Na45  1  0.396839  0.707301  0.421428  1
  Na  Na46  1  0.077380  0.646842  0.623547  1
  Na  Na47  1  0.922620  0.353158  0.376453  1
  Si  Si48  1  0.442348  0.253931  0.815575  1
  Si  Si49  1  0.557652  0.746069  0.184425  1
  Si  Si50  1  0.560881  0.249673  0.948276  1
  Si  Si51  1  0.439119  0.750327  0.051724  1
  Si  Si52  1  0.062793  0.892166  0.867801  1
  Si  Si53  1  0.937207  0.107834  0.132199  1
  Si  Si54  1  0.937532  0.628682  0.875835  1
  Si  Si55  1  0.062468  0.371318  0.124165  1
  Si  Si56  1  0.559632  0.747832  0.684485  1
  Si  Si57  1  0.440368  0.252168  0.315515  1
  Si  Si58  1  0.433846  0.753448  0.550876  1
  Si  Si59  1  0.566154  0.246552  0.449124  1
  Si  Si60  1  0.939641  0.125219  0.625910  1
  Si  Si61  1  0.060359  0.874781  0.374090  1
  Si  Si62  1  0.065764  0.394367  0.629959  1
  Si  Si63  1  0.934236  0.605633  0.370041  1
  O  O64  1  0.543420  0.151742  0.773537  1
  O  O65  1  0.456580  0.848258  0.226463  1
  O  O66  1  0.165702  0.270971  0.812354  1
  O  O67  1  0.834298  0.729029  0.187646  1
  O  O68  1  0.576443  0.373938  0.806076  1
  O  O69  1  0.423557  0.626062  0.193924  1
  O  O70  1  0.492678  0.203536  0.882454  1
  O  O71  1  0.507322  0.796464  0.117546  1
  O  O72  1  0.452895  0.152380  0.991567  1
  O  O73  1  0.547105  0.847620  0.008433  1
  O  O74  1  0.838141  0.256442  0.950049  1
  O  O75  1  0.161859  0.743558  0.049951  1
  O  O76  1  0.439255  0.374058  0.960866  1
  O  O77  1  0.560745  0.625942  0.039134  1
  O  O78  1  0.914015  0.905255  0.809206  1
  O  O79  1  0.085985  0.094745  0.190794  1
  O  O80  1  0.334577  0.907722  0.853347  1
  O  O81  1  0.665423  0.092278  0.146653  1
  O  O82  1  0.969460  0.977353  0.918813  1
  O  O83  1  0.030540  0.022647  0.081187  1
  O  O84  1  0.041709  0.757735  0.894167  1
  O  O85  1  0.958291  0.242265  0.105833  1
  O  O86  1  0.054226  0.584919  0.815684  1
  O  O87  1  0.945774  0.415081  0.184316  1
  O  O88  1  0.017472  0.546214  0.928702  1
  O  O89  1  0.982528  0.453786  0.071298  1
  O  O90  1  0.660474  0.642204  0.872548  1
  O  O91  1  0.339526  0.357796  0.127452  1
  O  O92  1  0.837003  0.756715  0.678616  1
  O  O93  1  0.162997  0.243285  0.321384  1
  O  O94  1  0.442011  0.868540  0.706014  1
  O  O95  1  0.557989  0.131460  0.293986  1
  O  O96  1  0.474884  0.642197  0.725203  1
  O  O97  1  0.525116  0.357803  0.274797  1
  O  O98  1  0.462802  0.708662  0.619326  1
  O  O99  1  0.537198  0.291338  0.380674  1
  O  O100  1  0.159979  0.773381  0.542839  1
  O  O101  1  0.840021  0.226619  0.457161  1
  O  O102  1  0.573411  0.872514  0.542107  1
  O  O103  1  0.426589  0.127486  0.457893  1
  O  O104  1  0.535381  0.652222  0.508979  1
  O  O105  1  0.464619  0.347778  0.491021  1
  O  O106  1  0.062319  0.097120  0.686569  1
  O  O107  1  0.937681  0.902880  0.313431  1
  O  O108  1  0.662783  0.112925  0.629164  1
  O  O109  1  0.337217  0.887075  0.370836  1
  O  O110  1  0.054215  0.051188  0.572894  1
  O  O111  1  0.945785  0.948812  0.427106  1
  O  O112  1  0.985107  0.263550  0.608225  1
  O  O113  1  0.014893  0.736450  0.391775  1
  O  O114  1  0.342168  0.387707  0.637524  1
  O  O115  1  0.657832  0.612293  0.362476  1
  O  O116  1  0.935579  0.428070  0.690153  1
  O  O117  1  0.064421  0.571930  0.309847  1
  O  O118  1  0.973549  0.478839  0.578560  1
  O  O119  1  0.026451  0.521161  0.421440  1
