# generated using pymatgen
data_Ho3CuSiS7
_symmetry_space_group_name_H-M   'P 1'
_cell_length_a   9.84938867
_cell_length_b   9.84938867
_cell_length_c   5.70385266
_cell_angle_alpha   90.00000000
_cell_angle_beta   90.00000000
_cell_angle_gamma   120.00000000
_symmetry_Int_Tables_number   1
_chemical_formula_structural   Ho3CuSiS7
_chemical_formula_sum   'Ho6 Cu2 Si2 S14'
_cell_volume   479.20074173
_cell_formula_units_Z   2
loop_
 _symmetry_equiv_pos_site_id
 _symmetry_equiv_pos_as_xyz
  1  'x, y, z'
loop_
 _atom_site_type_symbol
 _atom_site_label
 _atom_site_symmetry_multiplicity
 _atom_site_fract_x
 _atom_site_fract_y
 _atom_site_fract_z
 _atom_site_occupancy
  Ho  Ho0  1  0.869637  0.642662  0.242423  1
  Ho  Ho1  1  0.226976  0.869637  0.742423  1
  Ho  Ho2  1  0.642662  0.773024  0.742423  1
  Ho  Ho3  1  0.357338  0.226976  0.242423  1
  Ho  Ho4  1  0.773024  0.130363  0.242423  1
  Ho  Ho5  1  0.130363  0.357338  0.742423  1
  Cu  Cu6  1  0.000000  0.000000  0.192277  1
  Cu  Cu7  1  0.000000  0.000000  0.692277  1
  Si  Si8  1  0.333333  0.666667  0.331137  1
  Si  Si9  1  0.666667  0.333333  0.831137  1
  S  S10  1  0.105445  0.582516  0.481751  1
  S  S11  1  0.894555  0.417484  0.981751  1
  S  S12  1  0.582516  0.477071  0.981751  1
  S  S13  1  0.477071  0.894555  0.481751  1
  S  S14  1  0.162781  0.903623  0.211451  1
  S  S15  1  0.259158  0.162781  0.711451  1
  S  S16  1  0.522929  0.105445  0.981751  1
  S  S17  1  0.417484  0.522929  0.481751  1
  S  S18  1  0.333333  0.666667  0.960413  1
  S  S19  1  0.666667  0.333333  0.460413  1
  S  S20  1  0.837219  0.096377  0.711451  1
  S  S21  1  0.740842  0.837219  0.211451  1
  S  S22  1  0.096377  0.259158  0.211451  1
  S  S23  1  0.903623  0.740842  0.711451  1
