# generated using pymatgen
data_CrHgO4
_symmetry_space_group_name_H-M   'P 1'
_cell_length_a   5.60455376
_cell_length_b   8.85626567
_cell_length_c   9.10218871
_cell_angle_alpha   90.00000000
_cell_angle_beta   122.51576962
_cell_angle_gamma   90.00000000
_symmetry_Int_Tables_number   1
_chemical_formula_structural   CrHgO4
_chemical_formula_sum   'Cr4 Hg4 O16'
_cell_volume   380.96978196
_cell_formula_units_Z   4
loop_
 _symmetry_equiv_pos_site_id
 _symmetry_equiv_pos_as_xyz
  1  'x, y, z'
loop_
 _atom_site_type_symbol
 _atom_site_label
 _atom_site_symmetry_multiplicity
 _atom_site_fract_x
 _atom_site_fract_y
 _atom_site_fract_z
 _atom_site_occupancy
  Cr  Cr0  1  0.628526  0.309477  0.841992  1
  Cr  Cr1  1  0.628526  0.190523  0.341992  1
  Cr  Cr2  1  0.371474  0.809477  0.658008  1
  Cr  Cr3  1  0.371474  0.690523  0.158008  1
  Hg  Hg4  1  0.089015  0.461690  0.334095  1
  Hg  Hg5  1  0.910985  0.961690  0.165905  1
  Hg  Hg6  1  0.910985  0.538310  0.665905  1
  Hg  Hg7  1  0.089015  0.038310  0.834095  1
  O  O8  1  0.302266  0.275910  0.786541  1
  O  O9  1  0.697734  0.775910  0.713459  1
  O  O10  1  0.697734  0.724090  0.213459  1
  O  O11  1  0.302266  0.224090  0.286541  1
  O  O12  1  0.779762  0.420268  0.010433  1
  O  O13  1  0.220238  0.920268  0.489567  1
  O  O14  1  0.220238  0.579732  0.989567  1
  O  O15  1  0.779762  0.079732  0.510433  1
  O  O16  1  0.812008  0.357741  0.392502  1
  O  O17  1  0.187992  0.857741  0.107498  1
  O  O18  1  0.187992  0.642259  0.607498  1
  O  O19  1  0.812008  0.142259  0.892502  1
  O  O20  1  0.614440  0.106765  0.168054  1
  O  O21  1  0.385560  0.606765  0.331946  1
  O  O22  1  0.385560  0.893235  0.831946  1
  O  O23  1  0.614440  0.393235  0.668054  1
