# generated using pymatgen
data_ScGa2
_symmetry_space_group_name_H-M   'P 1'
_cell_length_a   5.58155689
_cell_length_b   5.58155689
_cell_length_c   5.58155689
_cell_angle_alpha   136.65379860
_cell_angle_beta   107.17227205
_cell_angle_gamma   88.71272974
_symmetry_Int_Tables_number   1
_chemical_formula_structural   ScGa2
_chemical_formula_sum   'Sc2 Ga4'
_cell_volume   109.02619604
_cell_formula_units_Z   2
loop_
 _symmetry_equiv_pos_site_id
 _symmetry_equiv_pos_as_xyz
  1  'x, y, z'
loop_
 _atom_site_type_symbol
 _atom_site_label
 _atom_site_symmetry_multiplicity
 _atom_site_fract_x
 _atom_site_fract_y
 _atom_site_fract_z
 _atom_site_occupancy
  Sc  Sc0  1  0.310702  0.560702  0.250000  1
  Sc  Sc1  1  0.689298  0.439298  0.750000  1
  Ga  Ga2  1  0.704057  0.158041  0.046016  1
  Ga  Ga3  1  0.295943  0.841959  0.953984  1
  Ga  Ga4  1  0.112026  0.158041  0.453984  1
  Ga  Ga5  1  0.887974  0.841959  0.546016  1
