# generated using pymatgen
data_K3VO4
_symmetry_space_group_name_H-M   'P 1'
_cell_length_a   6.58916903
_cell_length_b   6.58916903
_cell_length_c   6.58916903
_cell_angle_alpha   128.96302753
_cell_angle_beta   128.96302753
_cell_angle_gamma   75.07007130
_symmetry_Int_Tables_number   1
_chemical_formula_structural   K3VO4
_chemical_formula_sum   'K3 V1 O4'
_cell_volume   168.41109249
_cell_formula_units_Z   1
loop_
 _symmetry_equiv_pos_site_id
 _symmetry_equiv_pos_as_xyz
  1  'x, y, z'
loop_
 _atom_site_type_symbol
 _atom_site_label
 _atom_site_symmetry_multiplicity
 _atom_site_fract_x
 _atom_site_fract_y
 _atom_site_fract_z
 _atom_site_occupancy
  K  K0  1  0.250000  0.750000  0.500000  1
  K  K1  1  0.750000  0.250000  0.500000  1
  K  K2  1  0.500000  0.500000  0.000000  1
  V  V3  1  0.000000  0.000000  0.000000  1
  O  O4  1  0.083457  0.724592  0.000000  1
  O  O5  1  0.916543  0.916543  0.641135  1
  O  O6  1  0.275408  0.275408  0.358865  1
  O  O7  1  0.724592  0.083457  0.000000  1
