# generated using pymatgen
data_BaLa2FeS5
_symmetry_space_group_name_H-M   'P 1'
_cell_length_a   8.81711971
_cell_length_b   8.81711971
_cell_length_c   8.81711971
_cell_angle_alpha   125.95357224
_cell_angle_beta   125.95357224
_cell_angle_gamma   79.96446075
_symmetry_Int_Tables_number   1
_chemical_formula_structural   BaLa2FeS5
_chemical_formula_sum   'Ba2 La4 Fe2 S10'
_cell_volume   433.70158868
_cell_formula_units_Z   2
loop_
 _symmetry_equiv_pos_site_id
 _symmetry_equiv_pos_as_xyz
  1  'x, y, z'
loop_
 _atom_site_type_symbol
 _atom_site_label
 _atom_site_symmetry_multiplicity
 _atom_site_fract_x
 _atom_site_fract_y
 _atom_site_fract_z
 _atom_site_occupancy
  Ba  Ba0  1  0.750000  0.750000  0.000000  1
  Ba  Ba1  1  0.250000  0.250000  0.000000  1
  La  La2  1  0.837148  0.662852  0.500000  1
  La  La3  1  0.662852  0.162852  0.825704  1
  La  La4  1  0.337148  0.837148  0.174296  1
  La  La5  1  0.162852  0.337148  0.500000  1
  Fe  Fe6  1  0.250000  0.750000  0.500000  1
  Fe  Fe7  1  0.750000  0.250000  0.500000  1
  S  S8  1  0.989171  0.489171  0.203935  1
  S  S9  1  0.714763  0.214763  0.203935  1
  S  S10  1  0.010829  0.510829  0.796065  1
  S  S11  1  0.510829  0.714763  0.500000  1
  S  S12  1  0.214763  0.010829  0.500000  1
  S  S13  1  0.489171  0.285237  0.500000  1
  S  S14  1  0.785237  0.989171  0.500000  1
  S  S15  1  0.285237  0.785237  0.796065  1
  S  S16  1  1.000000  0.000000  0.000000  1
  S  S17  1  0.500000  0.500000  0.000000  1
