# generated using pymatgen
data_DyAl7Au3
_symmetry_space_group_name_H-M   'P 1'
_cell_length_a   8.45827940
_cell_length_b   8.45827940
_cell_length_c   8.45827940
_cell_angle_alpha   57.22023311
_cell_angle_beta   57.22023311
_cell_angle_gamma   57.22023311
_symmetry_Int_Tables_number   1
_chemical_formula_structural   DyAl7Au3
_chemical_formula_sum   'Dy2 Al14 Au6'
_cell_volume   400.49356148
_cell_formula_units_Z   2
loop_
 _symmetry_equiv_pos_site_id
 _symmetry_equiv_pos_as_xyz
  1  'x, y, z'
loop_
 _atom_site_type_symbol
 _atom_site_label
 _atom_site_symmetry_multiplicity
 _atom_site_fract_x
 _atom_site_fract_y
 _atom_site_fract_z
 _atom_site_occupancy
  Dy  Dy0  1  0.500000  0.500000  0.500000  1
  Dy  Dy1  1  0.000000  0.000000  0.000000  1
  Al  Al2  1  0.569752  0.167240  0.352751  1
  Al  Al3  1  0.167240  0.352751  0.569752  1
  Al  Al4  1  0.352751  0.569752  0.167240  1
  Al  Al5  1  0.930248  0.147249  0.332760  1
  Al  Al6  1  0.147249  0.332760  0.930248  1
  Al  Al7  1  0.332760  0.930248  0.147249  1
  Al  Al8  1  0.430248  0.832760  0.647249  1
  Al  Al9  1  0.832760  0.647249  0.430248  1
  Al  Al10  1  0.750000  0.750000  0.750000  1
  Al  Al11  1  0.250000  0.250000  0.250000  1
  Al  Al12  1  0.667240  0.069752  0.852751  1
  Al  Al13  1  0.852751  0.667240  0.069752  1
  Al  Al14  1  0.069752  0.852751  0.667240  1
  Al  Al15  1  0.647249  0.430248  0.832760  1
  Au  Au16  1  0.250000  0.573803  0.926197  1
  Au  Au17  1  0.573803  0.926197  0.250000  1
  Au  Au18  1  0.926197  0.250000  0.573803  1
  Au  Au19  1  0.750000  0.426197  0.073803  1
  Au  Au20  1  0.426197  0.073803  0.750000  1
  Au  Au21  1  0.073803  0.750000  0.426197  1
