# generated using pymatgen
data_LuGeIr
_symmetry_space_group_name_H-M   'P 1'
_cell_length_a   4.25625882
_cell_length_b   6.71772788
_cell_length_c   7.62331218
_cell_angle_alpha   90.00000000
_cell_angle_beta   90.00000000
_cell_angle_gamma   90.00000000
_symmetry_Int_Tables_number   1
_chemical_formula_structural   LuGeIr
_chemical_formula_sum   'Lu4 Ge4 Ir4'
_cell_volume   217.96870381
_cell_formula_units_Z   4
loop_
 _symmetry_equiv_pos_site_id
 _symmetry_equiv_pos_as_xyz
  1  'x, y, z'
loop_
 _atom_site_type_symbol
 _atom_site_label
 _atom_site_symmetry_multiplicity
 _atom_site_fract_x
 _atom_site_fract_y
 _atom_site_fract_z
 _atom_site_occupancy
  Lu  Lu0  1  0.750000  0.510146  0.808804  1
  Lu  Lu1  1  0.250000  0.989854  0.308804  1
  Lu  Lu2  1  0.750000  0.010146  0.691196  1
  Lu  Lu3  1  0.250000  0.489854  0.191196  1
  Ge  Ge4  1  0.250000  0.712095  0.616008  1
  Ge  Ge5  1  0.250000  0.212095  0.883992  1
  Ge  Ge6  1  0.750000  0.287905  0.383992  1
  Ge  Ge7  1  0.750000  0.787905  0.116008  1
  Ir  Ir8  1  0.250000  0.837146  0.938921  1
  Ir  Ir9  1  0.250000  0.337146  0.561079  1
  Ir  Ir10  1  0.750000  0.662854  0.438921  1
  Ir  Ir11  1  0.750000  0.162854  0.061079  1
