# generated using pymatgen
data_Tc3P
_symmetry_space_group_name_H-M   'P 1'
_cell_length_a   7.18585599
_cell_length_b   7.18585599
_cell_length_c   7.18585599
_cell_angle_alpha   96.56429342
_cell_angle_beta   96.56429342
_cell_angle_gamma   140.47652238
_symmetry_Int_Tables_number   1
_chemical_formula_structural   Tc3P
_chemical_formula_sum   'Tc12 P4'
_cell_volume   222.22900286
_cell_formula_units_Z   4
loop_
 _symmetry_equiv_pos_site_id
 _symmetry_equiv_pos_as_xyz
  1  'x, y, z'
loop_
 _atom_site_type_symbol
 _atom_site_label
 _atom_site_symmetry_multiplicity
 _atom_site_fract_x
 _atom_site_fract_y
 _atom_site_fract_z
 _atom_site_occupancy
  Tc  Tc0  1  0.493038  0.844190  0.346146  1
  Tc  Tc1  1  0.853109  0.506962  0.351153  1
  Tc  Tc2  1  0.155810  0.501956  0.648847  1
  Tc  Tc3  1  0.498044  0.146891  0.653853  1
  Tc  Tc4  1  0.998642  0.407064  0.994650  1
  Tc  Tc5  1  0.996008  0.001358  0.408422  1
  Tc  Tc6  1  0.592936  0.587586  0.591578  1
  Tc  Tc7  1  0.412414  0.003992  0.005350  1
  Tc  Tc8  1  0.791848  0.594729  0.999351  1
  Tc  Tc9  1  0.207503  0.208152  0.802881  1
  Tc  Tc10  1  0.405271  0.404622  0.197119  1
  Tc  Tc11  1  0.595378  0.792497  0.000649  1
  P  P12  1  0.003045  0.709008  0.711912  1
  P  P13  1  0.708867  0.996955  0.705962  1
  P  P14  1  0.290992  0.002905  0.294038  1
  P  P15  1  0.997095  0.291133  0.288088  1
