# generated using pymatgen
data_Na2ZnB6O11
_symmetry_space_group_name_H-M   'P 1'
_cell_length_a   6.60915391
_cell_length_b   6.60915391
_cell_length_c   11.62636617
_cell_angle_alpha   71.89816806
_cell_angle_beta   108.10183194
_cell_angle_gamma   111.03694752
_symmetry_Int_Tables_number   1
_chemical_formula_structural   Na2ZnB6O11
_chemical_formula_sum   'Na4 Zn2 B12 O22'
_cell_volume   439.04009475
_cell_formula_units_Z   2
loop_
 _symmetry_equiv_pos_site_id
 _symmetry_equiv_pos_as_xyz
  1  'x, y, z'
loop_
 _atom_site_type_symbol
 _atom_site_label
 _atom_site_symmetry_multiplicity
 _atom_site_fract_x
 _atom_site_fract_y
 _atom_site_fract_z
 _atom_site_occupancy
  Na  Na0  1  0.557312  0.265286  0.034422  1
  Na  Na1  1  0.734714  0.442688  0.534422  1
  Na  Na2  1  0.442688  0.734714  0.965578  1
  Na  Na3  1  0.265286  0.557312  0.465578  1
  Zn  Zn4  1  0.131819  0.131819  0.250000  1
  Zn  Zn5  1  0.868181  0.868181  0.750000  1
  B  B6  1  0.259841  0.787536  0.154113  1
  B  B7  1  0.212464  0.740159  0.654113  1
  B  B8  1  0.705976  0.892831  0.487845  1
  B  B9  1  0.107169  0.294024  0.987845  1
  B  B10  1  0.675295  0.907989  0.265734  1
  B  B11  1  0.092011  0.324705  0.765734  1
  B  B12  1  0.907989  0.675295  0.234266  1
  B  B13  1  0.324705  0.092011  0.734266  1
  B  B14  1  0.294024  0.107169  0.512155  1
  B  B15  1  0.892831  0.705976  0.012155  1
  B  B16  1  0.787536  0.259841  0.345887  1
  B  B17  1  0.740159  0.212464  0.845887  1
  O  O18  1  0.161687  0.746073  0.250211  1
  O  O19  1  0.253927  0.838313  0.750211  1
  O  O20  1  0.627175  0.790475  0.388672  1
  O  O21  1  0.209525  0.372825  0.888672  1
  O  O22  1  0.483810  0.852120  0.162489  1
  O  O23  1  0.147880  0.516190  0.662489  1
  O  O24  1  0.770053  0.126523  0.465620  1
  O  O25  1  0.873477  0.229947  0.965620  1
  O  O26  1  0.126523  0.770053  0.034380  1
  O  O27  1  0.229947  0.873477  0.534380  1
  O  O28  1  0.868641  0.868641  0.250000  1
  O  O29  1  0.131359  0.131359  0.750000  1
  O  O30  1  0.238490  0.286163  0.103224  1
  O  O31  1  0.713837  0.761510  0.603224  1
  O  O32  1  0.746073  0.161687  0.249789  1
  O  O33  1  0.838313  0.253927  0.749789  1
  O  O34  1  0.852120  0.483810  0.337511  1
  O  O35  1  0.516190  0.147880  0.837511  1
  O  O36  1  0.286163  0.238490  0.396776  1
  O  O37  1  0.761510  0.713837  0.896776  1
  O  O38  1  0.790475  0.627175  0.111328  1
  O  O39  1  0.372825  0.209525  0.611328  1
