# generated using pymatgen
data_Sr2CoO4
_symmetry_space_group_name_H-M   'P 1'
_cell_length_a   6.89276173
_cell_length_b   6.89276173
_cell_length_c   6.89276173
_cell_angle_alpha   147.89840362
_cell_angle_beta   147.89840362
_cell_angle_gamma   46.03536545
_symmetry_Int_Tables_number   1
_chemical_formula_structural   Sr2CoO4
_chemical_formula_sum   'Sr2 Co1 O4'
_cell_volume   92.16504392
_cell_formula_units_Z   1
loop_
 _symmetry_equiv_pos_site_id
 _symmetry_equiv_pos_as_xyz
  1  'x, y, z'
loop_
 _atom_site_type_symbol
 _atom_site_label
 _atom_site_symmetry_multiplicity
 _atom_site_fract_x
 _atom_site_fract_y
 _atom_site_fract_z
 _atom_site_occupancy
  Sr  Sr0  1  0.644262  0.644262  0.000000  1
  Sr  Sr1  1  0.355738  0.355738  0.000000  1
  Co  Co2  1  0.000000  0.000000  0.000000  1
  O  O3  1  0.842154  0.842154  0.000000  1
  O  O4  1  0.157846  0.157846  0.000000  1
  O  O5  1  0.500000  0.000000  0.500000  1
  O  O6  1  0.000000  0.500000  0.500000  1
