# generated using pymatgen
data_K7Nb(SO4)6
_symmetry_space_group_name_H-M   'P 1'
_cell_length_a   9.46463478
_cell_length_b   9.46463478
_cell_length_c   9.46463478
_cell_angle_alpha   109.44687070
_cell_angle_beta   109.44687070
_cell_angle_gamma   109.44687070
_symmetry_Int_Tables_number   1
_chemical_formula_structural   K7Nb(SO4)6
_chemical_formula_sum   'K7 Nb1 S6 O24'
_cell_volume   653.25178363
_cell_formula_units_Z   1
loop_
 _symmetry_equiv_pos_site_id
 _symmetry_equiv_pos_as_xyz
  1  'x, y, z'
loop_
 _atom_site_type_symbol
 _atom_site_label
 _atom_site_symmetry_multiplicity
 _atom_site_fract_x
 _atom_site_fract_y
 _atom_site_fract_z
 _atom_site_occupancy
  K  K0  1  0.500000  0.500000  0.500000  1
  K  K1  1  0.322285  0.664814  0.162511  1
  K  K2  1  0.162511  0.322285  0.664814  1
  K  K3  1  0.664814  0.162511  0.322285  1
  K  K4  1  0.677715  0.335186  0.837489  1
  K  K5  1  0.837489  0.677715  0.335186  1
  K  K6  1  0.335186  0.837489  0.677715  1
  Nb  Nb7  1  0.000000  0.000000  0.000000  1
  S  S8  1  0.382475  0.255254  0.031847  1
  S  S9  1  0.031847  0.382475  0.255254  1
  S  S10  1  0.255254  0.031847  0.382475  1
  S  S11  1  0.617525  0.744746  0.968153  1
  S  S12  1  0.968153  0.617525  0.744746  1
  S  S13  1  0.744746  0.968153  0.617525  1
  O  O14  1  0.833649  0.090230  0.572207  1
  O  O15  1  0.572207  0.833649  0.090230  1
  O  O16  1  0.090230  0.572207  0.833649  1
  O  O17  1  0.166351  0.909770  0.427793  1
  O  O18  1  0.427793  0.166351  0.909770  1
  O  O19  1  0.909770  0.427793  0.166351  1
  O  O20  1  0.639083  0.015038  0.685802  1
  O  O21  1  0.685802  0.639083  0.015038  1
  O  O22  1  0.015038  0.685802  0.639083  1
  O  O23  1  0.360917  0.984962  0.314198  1
  O  O24  1  0.314198  0.360917  0.984962  1
  O  O25  1  0.984962  0.314198  0.360917  1
  O  O26  1  0.107689  0.022280  0.233100  1
  O  O27  1  0.233100  0.107689  0.022280  1
  O  O28  1  0.212657  0.524626  0.352549  1
  O  O29  1  0.524626  0.352549  0.212657  1
  O  O30  1  0.352549  0.212657  0.524626  1
  O  O31  1  0.787343  0.475374  0.647451  1
  O  O32  1  0.475374  0.647451  0.787343  1
  O  O33  1  0.647451  0.787343  0.475374  1
  O  O34  1  0.977720  0.766900  0.892311  1
  O  O35  1  0.766900  0.892311  0.977720  1
  O  O36  1  0.892311  0.977720  0.766900  1
  O  O37  1  0.022280  0.233100  0.107689  1
