# generated using pymatgen
data_Ba3CaIr2O9
_symmetry_space_group_name_H-M   'P 1'
_cell_length_a   5.96790756
_cell_length_b   5.96790756
_cell_length_c   14.75669669
_cell_angle_alpha   89.35390480
_cell_angle_beta   90.64609520
_cell_angle_gamma   60.09016131
_symmetry_Int_Tables_number   1
_chemical_formula_structural   Ba3CaIr2O9
_chemical_formula_sum   'Ba6 Ca2 Ir4 O18'
_cell_volume   455.45726749
_cell_formula_units_Z   2
loop_
 _symmetry_equiv_pos_site_id
 _symmetry_equiv_pos_as_xyz
  1  'x, y, z'
loop_
 _atom_site_type_symbol
 _atom_site_label
 _atom_site_symmetry_multiplicity
 _atom_site_fract_x
 _atom_site_fract_y
 _atom_site_fract_z
 _atom_site_occupancy
  Ba  Ba0  1  0.670919  0.662777  0.086400  1
  Ba  Ba1  1  0.662777  0.670919  0.413600  1
  Ba  Ba2  1  0.001471  0.001471  0.250000  1
  Ba  Ba3  1  0.998529  0.998529  0.750000  1
  Ba  Ba4  1  0.337223  0.329081  0.586400  1
  Ba  Ba5  1  0.329081  0.337223  0.913600  1
  Ca  Ca6  1  0.000000  0.000000  0.500000  1
  Ca  Ca7  1  0.000000  0.000000  0.000000  1
  Ir  Ir8  1  0.657231  0.675547  0.836592  1
  Ir  Ir9  1  0.675547  0.657231  0.663408  1
  Ir  Ir10  1  0.342769  0.324453  0.163408  1
  Ir  Ir11  1  0.324453  0.342769  0.336592  1
  O  O12  1  0.838917  0.339952  0.594378  1
  O  O13  1  0.339952  0.838917  0.905622  1
  O  O14  1  0.161083  0.660048  0.405622  1
  O  O15  1  0.660048  0.161083  0.094378  1
  O  O16  1  0.376454  0.803670  0.581529  1
  O  O17  1  0.803670  0.376454  0.918471  1
  O  O18  1  0.623546  0.196330  0.418471  1
  O  O19  1  0.196330  0.623546  0.081529  1
  O  O20  1  0.838752  0.804357  0.588754  1
  O  O21  1  0.804357  0.838752  0.911246  1
  O  O22  1  0.161248  0.195643  0.411246  1
  O  O23  1  0.195643  0.161248  0.088754  1
  O  O24  1  0.488814  0.488814  0.250000  1
  O  O25  1  0.511186  0.511186  0.750000  1
  O  O26  1  0.024111  0.489458  0.243572  1
  O  O27  1  0.489458  0.024111  0.256428  1
  O  O28  1  0.975889  0.510542  0.756428  1
  O  O29  1  0.510542  0.975889  0.743572  1
