# generated using pymatgen
data_RuO2
_symmetry_space_group_name_H-M   'P 1'
_cell_length_a   3.43453891
_cell_length_b   3.43453891
_cell_length_c   3.43453891
_cell_angle_alpha   60.00000000
_cell_angle_beta   60.00000000
_cell_angle_gamma   60.00000000
_symmetry_Int_Tables_number   1
_chemical_formula_structural   RuO2
_chemical_formula_sum   'Ru1 O2'
_cell_volume   28.64773713
_cell_formula_units_Z   1
loop_
 _symmetry_equiv_pos_site_id
 _symmetry_equiv_pos_as_xyz
  1  'x, y, z'
loop_
 _atom_site_type_symbol
 _atom_site_label
 _atom_site_symmetry_multiplicity
 _atom_site_fract_x
 _atom_site_fract_y
 _atom_site_fract_z
 _atom_site_occupancy
  Ru  Ru0  1  0.000000  0.000000  0.000000  1
  O  O1  1  0.750000  0.750000  0.750000  1
  O  O2  1  0.250000  0.250000  0.250000  1
