# generated using pymatgen
data_CuSiO3
_symmetry_space_group_name_H-M   'P 1'
_cell_length_a   2.86025333
_cell_length_b   4.91823628
_cell_length_c   8.95813949
_cell_angle_alpha   90.00000000
_cell_angle_beta   90.00000000
_cell_angle_gamma   90.00000000
_symmetry_Int_Tables_number   1
_chemical_formula_structural   CuSiO3
_chemical_formula_sum   'Cu2 Si2 O6'
_cell_volume   126.01774667
_cell_formula_units_Z   2
loop_
 _symmetry_equiv_pos_site_id
 _symmetry_equiv_pos_as_xyz
  1  'x, y, z'
loop_
 _atom_site_type_symbol
 _atom_site_label
 _atom_site_symmetry_multiplicity
 _atom_site_fract_x
 _atom_site_fract_y
 _atom_site_fract_z
 _atom_site_occupancy
  Cu  Cu0  1  0.000000  0.500000  0.500000  1
  Cu  Cu1  1  0.000000  0.500000  0.000000  1
  Si  Si2  1  0.500000  0.877859  0.750000  1
  Si  Si3  1  0.500000  0.122141  0.250000  1
  O  O4  1  0.500000  0.695657  0.597254  1
  O  O5  1  0.500000  0.304343  0.402746  1
  O  O6  1  0.500000  0.695657  0.902746  1
  O  O7  1  0.500000  0.304343  0.097254  1
  O  O8  1  0.000000  0.945232  0.250000  1
  O  O9  1  0.000000  0.054768  0.750000  1
