# generated using pymatgen
data_BaV6O11
_symmetry_space_group_name_H-M   'P 1'
_cell_length_a   5.94724362
_cell_length_b   5.94724362
_cell_length_c   13.52576635
_cell_angle_alpha   90.00000000
_cell_angle_beta   90.00000000
_cell_angle_gamma   120.00000000
_symmetry_Int_Tables_number   1
_chemical_formula_structural   BaV6O11
_chemical_formula_sum   'Ba2 V12 O22'
_cell_volume   414.30862171
_cell_formula_units_Z   2
loop_
 _symmetry_equiv_pos_site_id
 _symmetry_equiv_pos_as_xyz
  1  'x, y, z'
loop_
 _atom_site_type_symbol
 _atom_site_label
 _atom_site_symmetry_multiplicity
 _atom_site_fract_x
 _atom_site_fract_y
 _atom_site_fract_z
 _atom_site_occupancy
  Ba  Ba0  1  0.666667  0.333333  0.750000  1
  Ba  Ba1  1  0.333333  0.666667  0.250000  1
  V  V2  1  0.666667  0.333333  0.250000  1
  V  V3  1  0.333333  0.666667  0.750000  1
  V  V4  1  0.000000  0.000000  0.145655  1
  V  V5  1  0.000000  0.000000  0.645655  1
  V  V6  1  0.000000  0.000000  0.854345  1
  V  V7  1  0.000000  0.000000  0.354345  1
  V  V8  1  0.500000  0.000000  0.500000  1
  V  V9  1  0.500000  0.500000  0.000000  1
  V  V10  1  0.000000  0.500000  0.000000  1
  V  V11  1  0.000000  0.500000  0.500000  1
  V  V12  1  0.500000  0.500000  0.500000  1
  V  V13  1  0.500000  0.000000  0.000000  1
  O  O14  1  0.333333  0.666667  0.582833  1
  O  O15  1  0.666667  0.333333  0.082833  1
  O  O16  1  0.666667  0.333333  0.417167  1
  O  O17  1  0.333333  0.666667  0.917167  1
  O  O18  1  0.851465  0.702931  0.250000  1
  O  O19  1  0.148535  0.851465  0.750000  1
  O  O20  1  0.702931  0.851465  0.750000  1
  O  O21  1  0.297069  0.148535  0.250000  1
  O  O22  1  0.851465  0.148535  0.250000  1
  O  O23  1  0.148535  0.297069  0.750000  1
  O  O24  1  0.173620  0.826380  0.076520  1
  O  O25  1  0.173620  0.347241  0.076520  1
  O  O26  1  0.652759  0.826380  0.076520  1
  O  O27  1  0.347241  0.173620  0.576520  1
  O  O28  1  0.173620  0.347241  0.423480  1
  O  O29  1  0.826380  0.173620  0.923480  1
  O  O30  1  0.347241  0.173620  0.923480  1
  O  O31  1  0.652759  0.826380  0.423480  1
  O  O32  1  0.173620  0.826380  0.423480  1
  O  O33  1  0.826380  0.652759  0.576520  1
  O  O34  1  0.826380  0.173620  0.576520  1
  O  O35  1  0.826380  0.652759  0.923480  1
