# generated using pymatgen
data_Tb2ZnNi2
_symmetry_space_group_name_H-M   'P 1'
_cell_length_a   5.32208289
_cell_length_b   5.32208289
_cell_length_c   5.32208289
_cell_angle_alpha   132.98094807
_cell_angle_beta   119.33522953
_cell_angle_gamma   80.11485404
_symmetry_Int_Tables_number   1
_chemical_formula_structural   Tb2ZnNi2
_chemical_formula_sum   'Tb2 Zn1 Ni2'
_cell_volume   92.97446799
_cell_formula_units_Z   1
loop_
 _symmetry_equiv_pos_site_id
 _symmetry_equiv_pos_as_xyz
  1  'x, y, z'
loop_
 _atom_site_type_symbol
 _atom_site_label
 _atom_site_symmetry_multiplicity
 _atom_site_fract_x
 _atom_site_fract_y
 _atom_site_fract_z
 _atom_site_occupancy
  Tb  Tb0  1  0.297788  0.797788  0.500000  1
  Tb  Tb1  1  0.702212  0.202212  0.500000  1
  Zn  Zn2  1  0.000000  0.000000  0.000000  1
  Ni  Ni3  1  0.269254  0.500000  0.769254  1
  Ni  Ni4  1  0.730746  0.500000  0.230746  1
