# generated using pymatgen
data_Li5B(SO4)4
_symmetry_space_group_name_H-M   'P 1'
_cell_length_a   8.14016335
_cell_length_b   10.29776307
_cell_length_c   15.44908967
_cell_angle_alpha   90.00000000
_cell_angle_beta   106.36805003
_cell_angle_gamma   90.00000000
_symmetry_Int_Tables_number   1
_chemical_formula_structural   Li5B(SO4)4
_chemical_formula_sum   'Li20 B4 S16 O64'
_cell_volume   1242.54144397
_cell_formula_units_Z   4
loop_
 _symmetry_equiv_pos_site_id
 _symmetry_equiv_pos_as_xyz
  1  'x, y, z'
loop_
 _atom_site_type_symbol
 _atom_site_label
 _atom_site_symmetry_multiplicity
 _atom_site_fract_x
 _atom_site_fract_y
 _atom_site_fract_z
 _atom_site_occupancy
  Li  Li0  1  0.000175  0.666763  0.906304  1
  Li  Li1  1  0.999825  0.166763  0.593696  1
  Li  Li2  1  0.999825  0.333237  0.093696  1
  Li  Li3  1  0.000175  0.833237  0.406304  1
  Li  Li4  1  0.103200  0.316030  0.796637  1
  Li  Li5  1  0.896800  0.816030  0.703363  1
  Li  Li6  1  0.896800  0.683970  0.203363  1
  Li  Li7  1  0.103200  0.183970  0.296637  1
  Li  Li8  1  0.104780  0.619589  0.684333  1
  Li  Li9  1  0.895220  0.119589  0.815667  1
  Li  Li10  1  0.895220  0.380411  0.315667  1
  Li  Li11  1  0.104780  0.880411  0.184333  1
  Li  Li12  1  0.306152  0.633427  0.519843  1
  Li  Li13  1  0.693848  0.133427  0.980157  1
  Li  Li14  1  0.693848  0.366573  0.480157  1
  Li  Li15  1  0.306152  0.866573  0.019843  1
  Li  Li16  1  0.625021  0.795055  0.515114  1
  Li  Li17  1  0.374979  0.295055  0.984886  1
  Li  Li18  1  0.374979  0.204945  0.484886  1
  Li  Li19  1  0.625021  0.704945  0.015114  1
  B  B20  1  0.483498  0.959778  0.743531  1
  B  B21  1  0.516502  0.459778  0.756469  1
  B  B22  1  0.516502  0.040222  0.256469  1
  B  B23  1  0.483498  0.540222  0.243531  1
  S  S24  1  0.198257  0.880648  0.612569  1
  S  S25  1  0.801743  0.380648  0.887431  1
  S  S26  1  0.801743  0.119352  0.387431  1
  S  S27  1  0.198257  0.619352  0.112569  1
  S  S28  1  0.237225  0.121168  0.122895  1
  S  S29  1  0.762775  0.621168  0.377105  1
  S  S30  1  0.762775  0.878832  0.877105  1
  S  S31  1  0.237225  0.378832  0.622895  1
  S  S32  1  0.316658  0.551361  0.862214  1
  S  S33  1  0.683342  0.051361  0.637786  1
  S  S34  1  0.683342  0.448639  0.137786  1
  S  S35  1  0.316658  0.948639  0.362214  1
  S  S36  1  0.689284  0.558129  0.637706  1
  S  S37  1  0.310716  0.058129  0.862294  1
  S  S38  1  0.310716  0.441871  0.362294  1
  S  S39  1  0.689284  0.941871  0.137706  1
  O  O40  1  0.114230  0.814010  0.673375  1
  O  O41  1  0.885770  0.314010  0.826625  1
  O  O42  1  0.885770  0.185990  0.326625  1
  O  O43  1  0.114230  0.685990  0.173375  1
  O  O44  1  0.186518  0.800832  0.531509  1
  O  O45  1  0.813482  0.300832  0.968491  1
  O  O46  1  0.813482  0.199168  0.468491  1
  O  O47  1  0.186518  0.699168  0.031509  1
  O  O48  1  0.138571  0.012385  0.590353  1
  O  O49  1  0.861429  0.512385  0.909647  1
  O  O50  1  0.861429  0.987615  0.409647  1
  O  O51  1  0.138571  0.487615  0.090353  1
  O  O52  1  0.118176  0.335600  0.673887  1
  O  O53  1  0.881824  0.835600  0.826113  1
  O  O54  1  0.881824  0.664400  0.326113  1
  O  O55  1  0.118176  0.164400  0.173887  1
  O  O56  1  0.203772  0.516282  0.595673  1
  O  O57  1  0.796228  0.016282  0.904327  1
  O  O58  1  0.796228  0.483718  0.404327  1
  O  O59  1  0.203772  0.983718  0.095673  1
  O  O60  1  0.226070  0.291199  0.547519  1
  O  O61  1  0.773930  0.791199  0.952481  1
  O  O62  1  0.773930  0.708801  0.452481  1
  O  O63  1  0.226070  0.208801  0.047519  1
  O  O64  1  0.438501  0.616032  0.935527  1
  O  O65  1  0.561499  0.116032  0.564473  1
  O  O66  1  0.561499  0.383968  0.064473  1
  O  O67  1  0.438501  0.883968  0.435527  1
  O  O68  1  0.154191  0.622268  0.825966  1
  O  O69  1  0.845809  0.122268  0.674034  1
  O  O70  1  0.845809  0.377732  0.174034  1
  O  O71  1  0.154191  0.877732  0.325966  1
  O  O72  1  0.718147  0.915754  0.616656  1
  O  O73  1  0.281853  0.415754  0.883344  1
  O  O74  1  0.281853  0.084246  0.383344  1
  O  O75  1  0.718147  0.584246  0.116656  1
  O  O76  1  0.149545  0.132404  0.834150  1
  O  O77  1  0.850455  0.632404  0.665850  1
  O  O78  1  0.850455  0.867596  0.165850  1
  O  O79  1  0.149545  0.367596  0.334150  1
  O  O80  1  0.288803  0.931215  0.898712  1
  O  O81  1  0.711197  0.431215  0.601288  1
  O  O82  1  0.711197  0.068785  0.101288  1
  O  O83  1  0.288803  0.568785  0.398712  1
  O  O84  1  0.554221  0.637362  0.576592  1
  O  O85  1  0.445779  0.137362  0.923408  1
  O  O86  1  0.445779  0.362638  0.423408  1
  O  O87  1  0.554221  0.862638  0.076592  1
  O  O88  1  0.394701  0.882752  0.662984  1
  O  O89  1  0.605299  0.382752  0.837016  1
  O  O90  1  0.605299  0.117248  0.337016  1
  O  O91  1  0.394701  0.617248  0.162984  1
  O  O92  1  0.575322  0.867084  0.814980  1
  O  O93  1  0.424678  0.367084  0.685020  1
  O  O94  1  0.424678  0.132916  0.185020  1
  O  O95  1  0.575322  0.632916  0.314980  1
  O  O96  1  0.388834  0.549291  0.777808  1
  O  O97  1  0.611166  0.049291  0.722192  1
  O  O98  1  0.611166  0.450709  0.222192  1
  O  O99  1  0.388834  0.950709  0.277808  1
  O  O100  1  0.639266  0.541501  0.727317  1
  O  O101  1  0.360734  0.041501  0.772683  1
  O  O102  1  0.360734  0.458499  0.272683  1
  O  O103  1  0.639266  0.958499  0.227317  1
