# generated using pymatgen
data_KTiP2O7
_symmetry_space_group_name_H-M   'P 1'
_cell_length_a   7.52028902
_cell_length_b   10.44252813
_cell_length_c   8.29585100
_cell_angle_alpha   90.00000000
_cell_angle_beta   106.60063910
_cell_angle_gamma   90.00000000
_symmetry_Int_Tables_number   1
_chemical_formula_structural   KTiP2O7
_chemical_formula_sum   'K4 Ti4 P8 O28'
_cell_volume   624.32597367
_cell_formula_units_Z   4
loop_
 _symmetry_equiv_pos_site_id
 _symmetry_equiv_pos_as_xyz
  1  'x, y, z'
loop_
 _atom_site_type_symbol
 _atom_site_label
 _atom_site_symmetry_multiplicity
 _atom_site_fract_x
 _atom_site_fract_y
 _atom_site_fract_z
 _atom_site_occupancy
  K  K0  1  0.180635  0.175565  0.559147  1
  K  K1  1  0.819365  0.675565  0.940853  1
  K  K2  1  0.819365  0.824435  0.440853  1
  K  K3  1  0.180635  0.324435  0.059147  1
  Ti  Ti4  1  0.764082  0.101629  0.740439  1
  Ti  Ti5  1  0.235918  0.601629  0.759561  1
  Ti  Ti6  1  0.235918  0.898371  0.259561  1
  Ti  Ti7  1  0.764082  0.398371  0.240439  1
  P  P8  1  0.866643  0.402220  0.673550  1
  P  P9  1  0.133357  0.902220  0.826450  1
  P  P10  1  0.133357  0.597780  0.326450  1
  P  P11  1  0.866643  0.097780  0.173550  1
  P  P12  1  0.556274  0.361240  0.810144  1
  P  P13  1  0.443726  0.861240  0.689856  1
  P  P14  1  0.443726  0.638760  0.189856  1
  P  P15  1  0.556274  0.138760  0.310144  1
  O  O16  1  0.849742  0.408537  0.486452  1
  O  O17  1  0.150258  0.908537  0.013548  1
  O  O18  1  0.150258  0.591463  0.513548  1
  O  O19  1  0.849742  0.091463  0.986452  1
  O  O20  1  0.921753  0.267956  0.746136  1
  O  O21  1  0.078247  0.767956  0.753864  1
  O  O22  1  0.078247  0.732044  0.253864  1
  O  O23  1  0.921753  0.232044  0.246136  1
  O  O24  1  0.004254  0.004410  0.724114  1
  O  O25  1  0.995746  0.504410  0.775886  1
  O  O26  1  0.995746  0.995590  0.275886  1
  O  O27  1  0.004254  0.495590  0.224114  1
  O  O28  1  0.661377  0.435842  0.690158  1
  O  O29  1  0.338623  0.935842  0.809842  1
  O  O30  1  0.338623  0.564158  0.309842  1
  O  O31  1  0.661377  0.064158  0.190158  1
  O  O32  1  0.544278  0.280873  0.261949  1
  O  O33  1  0.455722  0.780873  0.238051  1
  O  O34  1  0.455722  0.719127  0.738051  1
  O  O35  1  0.544278  0.219127  0.761948  1
  O  O36  1  0.636609  0.579748  0.228736  1
  O  O37  1  0.363391  0.079748  0.271264  1
  O  O38  1  0.363391  0.420252  0.771264  1
  O  O39  1  0.636609  0.920252  0.728736  1
  O  O40  1  0.676376  0.388411  0.990502  1
  O  O41  1  0.323624  0.888411  0.509498  1
  O  O42  1  0.323624  0.611589  0.009498  1
  O  O43  1  0.676376  0.111589  0.490502  1
