# generated using pymatgen
data_Ca3GeO
_symmetry_space_group_name_H-M   'P 1'
_cell_length_a   6.70931062
_cell_length_b   6.70931062
_cell_length_c   6.70931062
_cell_angle_alpha   120.08130570
_cell_angle_beta   119.80215928
_cell_angle_gamma   90.10112165
_symmetry_Int_Tables_number   1
_chemical_formula_structural   Ca3GeO
_chemical_formula_sum   'Ca6 Ge2 O2'
_cell_volume   213.74554474
_cell_formula_units_Z   2
loop_
 _symmetry_equiv_pos_site_id
 _symmetry_equiv_pos_as_xyz
  1  'x, y, z'
loop_
 _atom_site_type_symbol
 _atom_site_label
 _atom_site_symmetry_multiplicity
 _atom_site_fract_x
 _atom_site_fract_y
 _atom_site_fract_z
 _atom_site_occupancy
  Ca  Ca0  1  0.772138  0.772138  0.500000  1
  Ca  Ca1  1  0.227862  0.727862  1.000000  1
  Ca  Ca2  1  0.772138  0.272138  0.000000  1
  Ca  Ca3  1  0.227862  0.227862  0.500000  1
  Ca  Ca4  1  0.706812  0.250000  0.456812  1
  Ca  Ca5  1  0.293188  0.750000  0.543188  1
  Ge  Ge6  1  0.248421  0.250000  0.998421  1
  Ge  Ge7  1  0.751579  0.750000  0.001579  1
  O  O8  1  0.000000  0.500000  0.500000  1
  O  O9  1  0.500000  1.000000  0.500000  1
