# generated using pymatgen
data_BaV10O15
_symmetry_space_group_name_H-M   'P 1'
_cell_length_a   7.85939532
_cell_length_b   7.85939532
_cell_length_c   9.72532800
_cell_angle_alpha   90.00000000
_cell_angle_beta   90.00000000
_cell_angle_gamma   97.50330067
_symmetry_Int_Tables_number   1
_chemical_formula_structural   BaV10O15
_chemical_formula_sum   'Ba2 V20 O30'
_cell_volume   595.59054762
_cell_formula_units_Z   2
loop_
 _symmetry_equiv_pos_site_id
 _symmetry_equiv_pos_as_xyz
  1  'x, y, z'
loop_
 _atom_site_type_symbol
 _atom_site_label
 _atom_site_symmetry_multiplicity
 _atom_site_fract_x
 _atom_site_fract_y
 _atom_site_fract_z
 _atom_site_occupancy
  Ba  Ba0  1  0.000000  0.000000  0.500000  1
  Ba  Ba1  1  0.500000  0.500000  0.000000  1
  V  V2  1  0.420091  0.908269  0.119868  1
  V  V3  1  0.079909  0.591731  0.619868  1
  V  V4  1  0.408269  0.920091  0.380132  1
  V  V5  1  0.091731  0.579909  0.880132  1
  V  V6  1  0.579909  0.091731  0.880132  1
  V  V7  1  0.920091  0.408269  0.380132  1
  V  V8  1  0.591731  0.079909  0.619868  1
  V  V9  1  0.908269  0.420091  0.119868  1
  V  V10  1  0.785289  0.039927  0.141060  1
  V  V11  1  0.714711  0.460073  0.641060  1
  V  V12  1  0.539927  0.285289  0.358940  1
  V  V13  1  0.960073  0.214711  0.858940  1
  V  V14  1  0.214711  0.960073  0.858940  1
  V  V15  1  0.285289  0.539927  0.358940  1
  V  V16  1  0.460073  0.714711  0.641060  1
  V  V17  1  0.039927  0.785289  0.141060  1
  V  V18  1  0.819847  0.819847  0.865047  1
  V  V19  1  0.680153  0.680153  0.365047  1
  V  V20  1  0.319847  0.319847  0.634953  1
  V  V21  1  0.180153  0.180153  0.134953  1
  O  O22  1  0.500000  0.500000  0.500000  1
  O  O23  1  0.000000  0.000000  0.000000  1
  O  O24  1  0.158257  0.158257  0.746225  1
  O  O25  1  0.341743  0.341743  0.246225  1
  O  O26  1  0.658257  0.658257  0.753775  1
  O  O27  1  0.841743  0.841743  0.253775  1
  O  O28  1  0.210620  0.960538  0.240905  1
  O  O29  1  0.289380  0.539462  0.740905  1
  O  O30  1  0.460538  0.710620  0.259095  1
  O  O31  1  0.039462  0.789380  0.759095  1
  O  O32  1  0.789380  0.039462  0.759095  1
  O  O33  1  0.710620  0.460538  0.259095  1
  O  O34  1  0.539462  0.289380  0.740905  1
  O  O35  1  0.960538  0.210620  0.240905  1
  O  O36  1  0.574190  0.074190  0.250000  1
  O  O37  1  0.925810  0.425810  0.750000  1
  O  O38  1  0.425810  0.925810  0.750000  1
  O  O39  1  0.074190  0.574190  0.250000  1
  O  O40  1  0.362828  0.113744  0.997707  1
  O  O41  1  0.137172  0.386256  0.497707  1
  O  O42  1  0.613744  0.862828  0.502293  1
  O  O43  1  0.886256  0.637172  0.002293  1
  O  O44  1  0.761051  0.238949  0.000000  1
  O  O45  1  0.738949  0.261051  0.500000  1
  O  O46  1  0.238949  0.761051  0.000000  1
  O  O47  1  0.261051  0.738949  0.500000  1
  O  O48  1  0.113744  0.362828  0.997707  1
  O  O49  1  0.386256  0.137172  0.497707  1
  O  O50  1  0.862828  0.613744  0.502293  1
  O  O51  1  0.637172  0.886256  0.002293  1
