# generated using pymatgen
data_Ho4In(NiGe2)2
_symmetry_space_group_name_H-M   'P 1'
_cell_length_a   8.01786779
_cell_length_b   8.01786779
_cell_length_c   7.03451501
_cell_angle_alpha   71.99754297
_cell_angle_beta   108.00245703
_cell_angle_gamma   149.44634642
_symmetry_Int_Tables_number   1
_chemical_formula_structural   Ho4In(NiGe2)2
_chemical_formula_sum   'Ho4 In1 Ni2 Ge4'
_cell_volume   217.76759139
_cell_formula_units_Z   1
loop_
 _symmetry_equiv_pos_site_id
 _symmetry_equiv_pos_as_xyz
  1  'x, y, z'
loop_
 _atom_site_type_symbol
 _atom_site_label
 _atom_site_symmetry_multiplicity
 _atom_site_fract_x
 _atom_site_fract_y
 _atom_site_fract_z
 _atom_site_occupancy
  Ho  Ho0  1  0.344244  0.655756  0.062073  1
  Ho  Ho1  1  0.655756  0.344244  0.937927  1
  Ho  Ho2  1  0.408230  0.591770  0.608616  1
  Ho  Ho3  1  0.591770  0.408230  0.391384  1
  In  In4  1  0.000000  0.000000  0.000000  1
  Ni  Ni5  1  0.216894  0.783106  0.643228  1
  Ni  Ni6  1  0.783106  0.216894  0.356772  1
  Ge  Ge7  1  0.065473  0.934527  0.662683  1
  Ge  Ge8  1  0.934527  0.065473  0.337317  1
  Ge  Ge9  1  0.203490  0.796510  0.271048  1
  Ge  Ge10  1  0.796510  0.203490  0.728952  1
