# generated using pymatgen
data_CsTe7Mo6
_symmetry_space_group_name_H-M   'P 1'
_cell_length_a   10.47838722
_cell_length_b   10.47838722
_cell_length_c   10.47838722
_cell_angle_alpha   60.23290449
_cell_angle_beta   60.23290449
_cell_angle_gamma   60.23290449
_symmetry_Int_Tables_number   1
_chemical_formula_structural   CsTe7Mo6
_chemical_formula_sum   'Cs2 Te14 Mo12'
_cell_volume   817.80964774
_cell_formula_units_Z   2
loop_
 _symmetry_equiv_pos_site_id
 _symmetry_equiv_pos_as_xyz
  1  'x, y, z'
loop_
 _atom_site_type_symbol
 _atom_site_label
 _atom_site_symmetry_multiplicity
 _atom_site_fract_x
 _atom_site_fract_y
 _atom_site_fract_z
 _atom_site_occupancy
  Cs  Cs0  1  0.620008  0.620008  0.620008  1
  Cs  Cs1  1  0.379993  0.379993  0.379993  1
  Te  Te2  1  0.163639  0.424552  0.804070  1
  Te  Te3  1  0.804070  0.163639  0.424552  1
  Te  Te4  1  0.424552  0.804070  0.163639  1
  Te  Te5  1  0.836361  0.575448  0.195930  1
  Te  Te6  1  0.195930  0.836361  0.575448  1
  Te  Te7  1  0.575448  0.195930  0.836361  1
  Te  Te8  1  0.245257  0.632120  0.980928  1
  Te  Te9  1  0.980928  0.245257  0.632120  1
  Te  Te10  1  0.632120  0.980928  0.245257  1
  Te  Te11  1  0.754743  0.367880  0.019072  1
  Te  Te12  1  0.019072  0.754743  0.367880  1
  Te  Te13  1  0.367880  0.019072  0.754743  1
  Te  Te14  1  0.775511  0.775511  0.775511  1
  Te  Te15  1  0.224489  0.224489  0.224489  1
  Mo  Mo16  1  0.000501  0.710874  0.881232  1
  Mo  Mo17  1  0.881232  0.000501  0.710874  1
  Mo  Mo18  1  0.710874  0.881232  0.000501  1
  Mo  Mo19  1  0.999499  0.289126  0.118768  1
  Mo  Mo20  1  0.118768  0.999499  0.289126  1
  Mo  Mo21  1  0.289126  0.118768  0.999499  1
  Mo  Mo22  1  0.109269  0.943865  0.813767  1
  Mo  Mo23  1  0.813767  0.109269  0.943865  1
  Mo  Mo24  1  0.943865  0.813767  0.109269  1
  Mo  Mo25  1  0.890731  0.056135  0.186233  1
  Mo  Mo26  1  0.186233  0.890731  0.056135  1
  Mo  Mo27  1  0.056135  0.186233  0.890731  1
