# generated using pymatgen
data_YZnPO
_symmetry_space_group_name_H-M   'P 1'
_cell_length_a   10.41113895
_cell_length_b   10.41113895
_cell_length_c   10.41113895
_cell_angle_alpha   21.63297959
_cell_angle_beta   21.63297959
_cell_angle_gamma   21.63297959
_symmetry_Int_Tables_number   1
_chemical_formula_structural   YZnPO
_chemical_formula_sum   'Y2 Zn2 P2 O2'
_cell_volume   134.40133270
_cell_formula_units_Z   2
loop_
 _symmetry_equiv_pos_site_id
 _symmetry_equiv_pos_as_xyz
  1  'x, y, z'
loop_
 _atom_site_type_symbol
 _atom_site_label
 _atom_site_symmetry_multiplicity
 _atom_site_fract_x
 _atom_site_fract_y
 _atom_site_fract_z
 _atom_site_occupancy
  Y  Y0  1  0.379817  0.379817  0.379817  1
  Y  Y1  1  0.620183  0.620183  0.620183  1
  Zn  Zn2  1  0.196223  0.196223  0.196223  1
  Zn  Zn3  1  0.803777  0.803777  0.803777  1
  P  P4  1  0.888093  0.888093  0.888093  1
  P  P5  1  0.111907  0.111907  0.111907  1
  O  O6  1  0.305282  0.305282  0.305282  1
  O  O7  1  0.694718  0.694718  0.694718  1
