# generated using pymatgen
data_CsAg3Se2
_symmetry_space_group_name_H-M   'P 1'
_cell_length_a   8.75468474
_cell_length_b   8.75468474
_cell_length_c   9.36033757
_cell_angle_alpha   68.17420603
_cell_angle_beta   111.82579397
_cell_angle_gamma   150.26821745
_symmetry_Int_Tables_number   1
_chemical_formula_structural   CsAg3Se2
_chemical_formula_sum   'Cs2 Ag6 Se4'
_cell_volume   328.42109439
_cell_formula_units_Z   2
loop_
 _symmetry_equiv_pos_site_id
 _symmetry_equiv_pos_as_xyz
  1  'x, y, z'
loop_
 _atom_site_type_symbol
 _atom_site_label
 _atom_site_symmetry_multiplicity
 _atom_site_fract_x
 _atom_site_fract_y
 _atom_site_fract_z
 _atom_site_occupancy
  Cs  Cs0  1  0.863080  0.136920  0.952019  1
  Cs  Cs1  1  0.136920  0.863080  0.047981  1
  Ag  Ag2  1  0.311602  0.688398  0.563015  1
  Ag  Ag3  1  0.942154  0.057846  0.596541  1
  Ag  Ag4  1  0.589852  0.410148  0.636315  1
  Ag  Ag5  1  0.410148  0.589852  0.363685  1
  Ag  Ag6  1  0.057846  0.942154  0.403459  1
  Ag  Ag7  1  0.688398  0.311602  0.436985  1
  Se  Se8  1  0.478409  0.521591  0.770533  1
  Se  Se9  1  0.521591  0.478409  0.229467  1
  Se  Se10  1  0.806067  0.193933  0.315707  1
  Se  Se11  1  0.193933  0.806067  0.684293  1
