# generated using pymatgen
data_Na2LiB5(PO7)2
_symmetry_space_group_name_H-M   'P 1'
_cell_length_a   8.31972721
_cell_length_b   9.31674213
_cell_length_c   8.45069536
_cell_angle_alpha   90.00000000
_cell_angle_beta   115.79702049
_cell_angle_gamma   90.00000000
_symmetry_Int_Tables_number   1
_chemical_formula_structural   Na2LiB5(PO7)2
_chemical_formula_sum   'Na4 Li2 B10 P4 O28'
_cell_volume   589.75662700
_cell_formula_units_Z   2
loop_
 _symmetry_equiv_pos_site_id
 _symmetry_equiv_pos_as_xyz
  1  'x, y, z'
loop_
 _atom_site_type_symbol
 _atom_site_label
 _atom_site_symmetry_multiplicity
 _atom_site_fract_x
 _atom_site_fract_y
 _atom_site_fract_z
 _atom_site_occupancy
  Na  Na0  1  0.603473  0.750000  0.035033  1
  Na  Na1  1  0.396527  0.250000  0.964967  1
  Na  Na2  1  0.834519  0.750000  0.458915  1
  Na  Na3  1  0.165481  0.250000  0.541085  1
  Li  Li4  1  0.014945  0.750000  0.215875  1
  Li  Li5  1  0.985055  0.250000  0.784125  1
  B  B6  1  0.264698  0.750000  0.045021  1
  B  B7  1  0.735302  0.250000  0.954979  1
  B  B8  1  0.281241  0.750000  0.598654  1
  B  B9  1  0.718759  0.250000  0.401346  1
  B  B10  1  0.948619  0.750000  0.848574  1
  B  B11  1  0.051381  0.250000  0.151426  1
  B  B12  1  0.414064  0.750000  0.384134  1
  B  B13  1  0.585936  0.250000  0.615866  1
  B  B14  1  0.610110  0.750000  0.697798  1
  B  B15  1  0.389890  0.250000  0.302202  1
  P  P16  1  0.153808  0.558834  0.773712  1
  P  P17  1  0.846192  0.058834  0.226288  1
  P  P18  1  0.846192  0.441166  0.226288  1
  P  P19  1  0.153808  0.941166  0.773712  1
  O  O20  1  0.298131  0.618916  0.952603  1
  O  O21  1  0.701869  0.118916  0.047397  1
  O  O22  1  0.701869  0.381084  0.047397  1
  O  O23  1  0.298131  0.881084  0.952603  1
  O  O24  1  0.032150  0.118742  0.250858  1
  O  O25  1  0.967850  0.618742  0.749142  1
  O  O26  1  0.967850  0.881258  0.749142  1
  O  O27  1  0.032150  0.381258  0.250858  1
  O  O28  1  0.186676  0.618805  0.616668  1
  O  O29  1  0.813324  0.118805  0.383332  1
  O  O30  1  0.813324  0.381195  0.383332  1
  O  O31  1  0.186676  0.881195  0.616668  1
  O  O32  1  0.155670  0.102877  0.767590  1
  O  O33  1  0.844330  0.602877  0.232410  1
  O  O34  1  0.844330  0.897123  0.232410  1
  O  O35  1  0.155670  0.397123  0.767590  1
  O  O36  1  0.407755  0.750000  0.220438  1
  O  O37  1  0.592245  0.250000  0.779562  1
  O  O38  1  0.085527  0.750000  0.026824  1
  O  O39  1  0.914473  0.250000  0.973176  1
  O  O40  1  0.266742  0.750000  0.418273  1
  O  O41  1  0.733258  0.250000  0.581727  1
  O  O42  1  0.464187  0.750000  0.731948  1
  O  O43  1  0.535813  0.250000  0.268052  1
  O  O44  1  0.772568  0.750000  0.839729  1
  O  O45  1  0.227432  0.250000  0.160271  1
  O  O46  1  0.587156  0.750000  0.523732  1
  O  O47  1  0.412844  0.250000  0.476268  1
