# generated using pymatgen
data_TiZnN2
_symmetry_space_group_name_H-M   'P 1'
_cell_length_a   5.24809800
_cell_length_b   5.70014000
_cell_length_c   6.58189800
_cell_angle_alpha   90.00000000
_cell_angle_beta   90.00000000
_cell_angle_gamma   90.00000000
_symmetry_Int_Tables_number   1
_chemical_formula_structural   TiZnN2
_chemical_formula_sum   'Ti4 Zn4 N8'
_cell_volume   196.89677660
_cell_formula_units_Z   4
loop_
 _symmetry_equiv_pos_site_id
 _symmetry_equiv_pos_as_xyz
  1  'x, y, z'
loop_
 _atom_site_type_symbol
 _atom_site_label
 _atom_site_symmetry_multiplicity
 _atom_site_fract_x
 _atom_site_fract_y
 _atom_site_fract_z
 _atom_site_occupancy
  Ti  Ti0  1  0.996200  0.083025  0.374264  1
  Ti  Ti1  1  0.496200  0.916975  0.625736  1
  Ti  Ti2  1  0.496200  0.416975  0.874264  1
  Ti  Ti3  1  0.996200  0.583025  0.125736  1
  Zn  Zn4  1  0.997094  0.087260  0.876121  1
  Zn  Zn5  1  0.497094  0.912740  0.123879  1
  Zn  Zn6  1  0.497094  0.412740  0.376121  1
  Zn  Zn7  1  0.997094  0.587260  0.623879  1
  N  N8  1  0.365157  0.069881  0.385988  1
  N  N9  1  0.865157  0.930119  0.614012  1
  N  N10  1  0.865157  0.430119  0.885988  1
  N  N11  1  0.365157  0.569881  0.114012  1
  N  N12  1  0.391550  0.090338  0.864318  1
  N  N13  1  0.891550  0.909662  0.135682  1
  N  N14  1  0.891550  0.409662  0.364318  1
  N  N15  1  0.391550  0.590338  0.635682  1
