# generated using pymatgen
data_CsErCdTe3
_symmetry_space_group_name_H-M   'P 1'
_cell_length_a   8.97781310
_cell_length_b   8.97781310
_cell_length_c   11.84082741
_cell_angle_alpha   90.00000000
_cell_angle_beta   90.00000000
_cell_angle_gamma   150.79104704
_symmetry_Int_Tables_number   1
_chemical_formula_structural   CsErCdTe3
_chemical_formula_sum   'Cs2 Er2 Cd2 Te6'
_cell_volume   465.73564923
_cell_formula_units_Z   2
loop_
 _symmetry_equiv_pos_site_id
 _symmetry_equiv_pos_as_xyz
  1  'x, y, z'
loop_
 _atom_site_type_symbol
 _atom_site_label
 _atom_site_symmetry_multiplicity
 _atom_site_fract_x
 _atom_site_fract_y
 _atom_site_fract_z
 _atom_site_occupancy
  Cs  Cs0  1  0.251094  0.748906  0.750000  1
  Cs  Cs1  1  0.748906  0.251094  0.250000  1
  Er  Er2  1  0.500000  0.500000  0.500000  1
  Er  Er3  1  0.500000  0.500000  1.000000  1
  Cd  Cd4  1  0.037608  0.962392  0.250000  1
  Cd  Cd5  1  0.962392  0.037608  0.750000  1
  Te  Te6  1  0.880769  0.119231  0.544688  1
  Te  Te7  1  0.119231  0.880769  0.455312  1
  Te  Te8  1  0.119231  0.880769  0.044688  1
  Te  Te9  1  0.880769  0.119231  0.955312  1
  Te  Te10  1  0.435193  0.564807  0.250000  1
  Te  Te11  1  0.564807  0.435193  0.750000  1
