# generated using pymatgen
data_RbSn
_symmetry_space_group_name_H-M   'P 1'
_cell_length_a   12.91045807
_cell_length_b   12.91045807
_cell_length_c   12.91045807
_cell_angle_alpha   124.91762783
_cell_angle_beta   124.91762783
_cell_angle_gamma   81.67451329
_symmetry_Int_Tables_number   1
_chemical_formula_structural   RbSn
_chemical_formula_sum   'Rb16 Sn16'
_cell_volume   1392.33461156
_cell_formula_units_Z   16
loop_
 _symmetry_equiv_pos_site_id
 _symmetry_equiv_pos_as_xyz
  1  'x, y, z'
loop_
 _atom_site_type_symbol
 _atom_site_label
 _atom_site_symmetry_multiplicity
 _atom_site_fract_x
 _atom_site_fract_y
 _atom_site_fract_z
 _atom_site_occupancy
  Rb  Rb0  1  0.125000  0.237167  0.612167  1
  Rb  Rb1  1  0.987167  0.875000  0.612167  1
  Rb  Rb2  1  0.262833  0.375000  0.387833  1
  Rb  Rb3  1  0.625000  0.512833  0.387833  1
  Rb  Rb4  1  0.625000  0.012833  0.887833  1
  Rb  Rb5  1  0.762833  0.375000  0.887833  1
  Rb  Rb6  1  0.487167  0.875000  0.112167  1
  Rb  Rb7  1  0.125000  0.737167  0.112167  1
  Rb  Rb8  1  0.627719  0.627719  0.755438  1
  Rb  Rb9  1  0.377719  0.122281  0.500000  1
  Rb  Rb10  1  0.622281  0.877719  0.500000  1
  Rb  Rb11  1  0.872281  0.872281  0.244562  1
  Rb  Rb12  1  0.122281  0.622281  0.744562  1
  Rb  Rb13  1  0.372281  0.127719  1.000000  1
  Rb  Rb14  1  0.127719  0.372281  0.000000  1
  Rb  Rb15  1  0.877719  0.377719  0.255438  1
  Sn  Sn16  1  0.945886  0.117485  0.954174  1
  Sn  Sn17  1  0.867485  0.413311  0.671600  1
  Sn  Sn18  1  0.741711  0.195886  0.328400  1
  Sn  Sn19  1  0.304114  0.758289  0.671600  1
  Sn  Sn20  1  0.086689  0.632515  0.328400  1
  Sn  Sn21  1  0.508289  0.336689  0.954174  1
  Sn  Sn22  1  0.382515  0.554114  0.045826  1
  Sn  Sn23  1  0.163311  0.991711  0.045826  1
  Sn  Sn24  1  0.804114  0.132515  0.545826  1
  Sn  Sn25  1  0.882515  0.836689  0.828400  1
  Sn  Sn26  1  0.008289  0.054114  0.171600  1
  Sn  Sn27  1  0.445886  0.491711  0.828400  1
  Sn  Sn28  1  0.663311  0.617485  0.171600  1
  Sn  Sn29  1  0.241711  0.913311  0.545826  1
  Sn  Sn30  1  0.367485  0.695886  0.454174  1
  Sn  Sn31  1  0.586689  0.258289  0.454174  1
