# generated using pymatgen
data_Ca(PIr)2
_symmetry_space_group_name_H-M   'P 1'
_cell_length_a   6.66995423
_cell_length_b   6.66995423
_cell_length_c   7.10429223
_cell_angle_alpha   90.00000000
_cell_angle_beta   90.00000000
_cell_angle_gamma   120.00000000
_symmetry_Int_Tables_number   1
_chemical_formula_structural   Ca(PIr)2
_chemical_formula_sum   'Ca3 P6 Ir6'
_cell_volume   273.71409187
_cell_formula_units_Z   3
loop_
 _symmetry_equiv_pos_site_id
 _symmetry_equiv_pos_as_xyz
  1  'x, y, z'
loop_
 _atom_site_type_symbol
 _atom_site_label
 _atom_site_symmetry_multiplicity
 _atom_site_fract_x
 _atom_site_fract_y
 _atom_site_fract_z
 _atom_site_occupancy
  Ca  Ca0  1  0.394133  0.394133  0.500000  1
  Ca  Ca1  1  0.605867  0.000000  0.166667  1
  Ca  Ca2  1  0.000000  0.605867  0.833333  1
  P  P3  1  0.883715  0.223255  0.543227  1
  P  P4  1  0.223255  0.883715  0.456773  1
  P  P5  1  0.116285  0.339540  0.123440  1
  P  P6  1  0.776745  0.660460  0.209893  1
  P  P7  1  0.339540  0.116285  0.876560  1
  P  P8  1  0.660460  0.776745  0.790107  1
  Ir  Ir9  1  0.863686  0.863686  0.500000  1
  Ir  Ir10  1  0.136314  0.000000  0.166667  1
  Ir  Ir11  1  0.485963  0.485963  0.000000  1
  Ir  Ir12  1  0.000000  0.514037  0.333333  1
  Ir  Ir13  1  0.514037  0.000000  0.666667  1
  Ir  Ir14  1  0.000000  0.136314  0.833333  1
