# generated using pymatgen
data_ErSi3Ni
_symmetry_space_group_name_H-M   'P 1'
_cell_length_a   10.67156309
_cell_length_b   10.67156309
_cell_length_c   3.92452632
_cell_angle_alpha   90.00000000
_cell_angle_beta   90.00000000
_cell_angle_gamma   158.82224713
_symmetry_Int_Tables_number   1
_chemical_formula_structural   ErSi3Ni
_chemical_formula_sum   'Er2 Si6 Ni2'
_cell_volume   161.46048155
_cell_formula_units_Z   2
loop_
 _symmetry_equiv_pos_site_id
 _symmetry_equiv_pos_as_xyz
  1  'x, y, z'
loop_
 _atom_site_type_symbol
 _atom_site_label
 _atom_site_symmetry_multiplicity
 _atom_site_fract_x
 _atom_site_fract_y
 _atom_site_fract_z
 _atom_site_occupancy
  Er  Er0  1  0.668846  0.331154  0.500000  1
  Er  Er1  1  0.331154  0.668846  0.500000  1
  Si  Si2  1  0.556198  0.443802  1.000000  1
  Si  Si3  1  0.443802  0.556198  1.000000  1
  Si  Si4  1  0.781934  0.218066  0.000000  1
  Si  Si5  1  0.218066  0.781934  0.000000  1
  Si  Si6  1  0.056133  0.943867  0.500000  1
  Si  Si7  1  0.943867  0.056133  0.500000  1
  Ni  Ni8  1  0.889183  0.110817  1.000000  1
  Ni  Ni9  1  0.110817  0.889183  0.000000  1
