# generated using pymatgen
data_Ca5(GaSb3)2
_symmetry_space_group_name_H-M   'P 1'
_cell_length_a   4.49567372
_cell_length_b   12.16568715
_cell_length_c   14.10627636
_cell_angle_alpha   90.00000000
_cell_angle_beta   90.00000000
_cell_angle_gamma   90.00000000
_symmetry_Int_Tables_number   1
_chemical_formula_structural   Ca5(GaSb3)2
_chemical_formula_sum   'Ca10 Ga4 Sb12'
_cell_volume   771.51400879
_cell_formula_units_Z   2
loop_
 _symmetry_equiv_pos_site_id
 _symmetry_equiv_pos_as_xyz
  1  'x, y, z'
loop_
 _atom_site_type_symbol
 _atom_site_label
 _atom_site_symmetry_multiplicity
 _atom_site_fract_x
 _atom_site_fract_y
 _atom_site_fract_z
 _atom_site_occupancy
  Ca  Ca0  1  0.500000  0.671841  0.483263  1
  Ca  Ca1  1  0.500000  0.328159  0.516737  1
  Ca  Ca2  1  0.500000  0.828159  0.983263  1
  Ca  Ca3  1  0.500000  0.171841  0.016737  1
  Ca  Ca4  1  0.500000  0.000000  0.500000  1
  Ca  Ca5  1  0.500000  0.500000  0.000000  1
  Ca  Ca6  1  0.500000  0.908448  0.252800  1
  Ca  Ca7  1  0.500000  0.091552  0.747200  1
  Ca  Ca8  1  0.500000  0.408448  0.247200  1
  Ca  Ca9  1  0.500000  0.591552  0.752800  1
  Ga  Ga10  1  0.000000  0.330219  0.711578  1
  Ga  Ga11  1  0.000000  0.669781  0.288422  1
  Ga  Ga12  1  0.000000  0.830219  0.788422  1
  Ga  Ga13  1  0.000000  0.169781  0.211578  1
  Sb  Sb14  1  0.000000  0.974044  0.099976  1
  Sb  Sb15  1  0.000000  0.025956  0.900024  1
  Sb  Sb16  1  0.000000  0.474044  0.400024  1
  Sb  Sb17  1  0.000000  0.525956  0.599976  1
  Sb  Sb18  1  0.500000  0.162644  0.322979  1
  Sb  Sb19  1  0.500000  0.837356  0.677021  1
  Sb  Sb20  1  0.500000  0.662644  0.177021  1
  Sb  Sb21  1  0.500000  0.337356  0.822979  1
  Sb  Sb22  1  0.000000  0.345116  0.091511  1
  Sb  Sb23  1  0.000000  0.654884  0.908489  1
  Sb  Sb24  1  0.000000  0.845116  0.408489  1
  Sb  Sb25  1  0.000000  0.154884  0.591511  1
