# generated using pymatgen
data_Sm(ErSe2)3
_symmetry_space_group_name_H-M   'P 1'
_cell_length_a   11.54202986
_cell_length_b   4.10051188
_cell_length_c   11.82455872
_cell_angle_alpha   90.00000000
_cell_angle_beta   109.16687832
_cell_angle_gamma   90.00000000
_symmetry_Int_Tables_number   1
_chemical_formula_structural   Sm(ErSe2)3
_chemical_formula_sum   'Sm2 Er6 Se12'
_cell_volume   528.61279161
_cell_formula_units_Z   2
loop_
 _symmetry_equiv_pos_site_id
 _symmetry_equiv_pos_as_xyz
  1  'x, y, z'
loop_
 _atom_site_type_symbol
 _atom_site_label
 _atom_site_symmetry_multiplicity
 _atom_site_fract_x
 _atom_site_fract_y
 _atom_site_fract_z
 _atom_site_occupancy
  Sm  Sm0  1  0.453822  0.250000  0.805261  1
  Sm  Sm1  1  0.546178  0.750000  0.194739  1
  Er  Er2  1  0.340946  0.250000  0.415176  1
  Er  Er3  1  0.659054  0.750000  0.584824  1
  Er  Er4  1  0.818216  0.250000  0.999260  1
  Er  Er5  1  0.181784  0.750000  0.000740  1
  Er  Er6  1  0.063487  0.250000  0.666841  1
  Er  Er7  1  0.936513  0.750000  0.333159  1
  Se  Se8  1  0.695453  0.250000  0.750162  1
  Se  Se9  1  0.304547  0.750000  0.249838  1
  Se  Se10  1  0.583125  0.250000  0.404233  1
  Se  Se11  1  0.416875  0.750000  0.595767  1
  Se  Se12  1  0.384713  0.250000  0.034424  1
  Se  Se13  1  0.615287  0.750000  0.965576  1
  Se  Se14  1  0.020149  0.250000  0.885660  1
  Se  Se15  1  0.979851  0.750000  0.114340  1
  Se  Se16  1  0.894155  0.750000  0.560258  1
  Se  Se17  1  0.105845  0.250000  0.439742  1
  Se  Se18  1  0.241000  0.750000  0.774679  1
  Se  Se19  1  0.759000  0.250000  0.225321  1
