# generated using pymatgen
data_CaAl2SiO6
_symmetry_space_group_name_H-M   'P 1'
_cell_length_a   7.53335806
_cell_length_b   7.53335806
_cell_length_c   5.33711908
_cell_angle_alpha   58.01419439
_cell_angle_beta   121.98580561
_cell_angle_gamma   109.25967228
_symmetry_Int_Tables_number   1
_chemical_formula_structural   CaAl2SiO6
_chemical_formula_sum   'Ca2 Al4 Si2 O12'
_cell_volume   217.38975778
_cell_formula_units_Z   2
loop_
 _symmetry_equiv_pos_site_id
 _symmetry_equiv_pos_as_xyz
  1  'x, y, z'
loop_
 _atom_site_type_symbol
 _atom_site_label
 _atom_site_symmetry_multiplicity
 _atom_site_fract_x
 _atom_site_fract_y
 _atom_site_fract_z
 _atom_site_occupancy
  Ca  Ca0  1  0.311277  0.311277  0.000000  1
  Ca  Ca1  1  0.689120  0.689120  0.500000  1
  Al  Al2  1  0.383893  0.813944  0.608520  1
  Al  Al3  1  0.813944  0.383893  0.391480  1
  Al  Al4  1  0.909280  0.909280  0.000000  1
  Al  Al5  1  0.091094  0.091094  0.500000  1
  Si  Si6  1  0.613856  0.194884  0.885078  1
  Si  Si7  1  0.194884  0.613856  0.114922  1
  O  O8  1  0.177997  0.986874  0.328679  1
  O  O9  1  0.642140  0.898353  0.672424  1
  O  O10  1  0.370451  0.657560  0.989321  1
  O  O11  1  0.986874  0.177997  0.671321  1
  O  O12  1  0.898353  0.642140  0.327576  1
  O  O13  1  0.657560  0.370451  0.010679  1
  O  O14  1  0.804632  0.030929  0.155246  1
  O  O15  1  0.374644  0.097948  0.830502  1
  O  O16  1  0.622180  0.328943  0.529608  1
  O  O17  1  0.030929  0.804632  0.844754  1
  O  O18  1  0.097948  0.374644  0.169498  1
  O  O19  1  0.328943  0.622180  0.470392  1
