# generated using pymatgen
data_TaAs
_symmetry_space_group_name_H-M   'P 1'
_cell_length_a   6.35971848
_cell_length_b   6.35971848
_cell_length_c   6.35971848
_cell_angle_alpha   148.34043075
_cell_angle_beta   148.34043075
_cell_angle_gamma   45.38307176
_symmetry_Int_Tables_number   1
_chemical_formula_structural   TaAs
_chemical_formula_sum   'Ta2 As2'
_cell_volume   70.63357021
_cell_formula_units_Z   2
loop_
 _symmetry_equiv_pos_site_id
 _symmetry_equiv_pos_as_xyz
  1  'x, y, z'
loop_
 _atom_site_type_symbol
 _atom_site_label
 _atom_site_symmetry_multiplicity
 _atom_site_fract_x
 _atom_site_fract_y
 _atom_site_fract_z
 _atom_site_occupancy
  Ta  Ta0  1  0.499936  0.999936  0.500000  1
  Ta  Ta1  1  0.749936  0.749936  0.000000  1
  As  As2  1  0.917764  0.417764  0.500000  1
  As  As3  1  0.167764  0.167764  0.000000  1
