# generated using pymatgen
data_Na3Y(Si2O5)3
_symmetry_space_group_name_H-M   'P 1'
_cell_length_a   11.66639218
_cell_length_b   11.66639218
_cell_length_c   10.62574300
_cell_angle_alpha   90.00000000
_cell_angle_beta   90.00000000
_cell_angle_gamma   100.63066869
_symmetry_Int_Tables_number   1
_chemical_formula_structural   Na3Y(Si2O5)3
_chemical_formula_sum   'Na12 Y4 Si24 O60'
_cell_volume   1421.39189829
_cell_formula_units_Z   4
loop_
 _symmetry_equiv_pos_site_id
 _symmetry_equiv_pos_as_xyz
  1  'x, y, z'
loop_
 _atom_site_type_symbol
 _atom_site_label
 _atom_site_symmetry_multiplicity
 _atom_site_fract_x
 _atom_site_fract_y
 _atom_site_fract_z
 _atom_site_occupancy
  Na  Na0  1  0.528667  0.971333  0.250000  1
  Na  Na1  1  0.971333  0.528667  0.750000  1
  Na  Na2  1  0.471333  0.028667  0.750000  1
  Na  Na3  1  0.028667  0.471333  0.250000  1
  Na  Na4  1  0.238895  0.238895  0.000000  1
  Na  Na5  1  0.261105  0.261105  0.500000  1
  Na  Na6  1  0.761105  0.761105  0.000000  1
  Na  Na7  1  0.738895  0.738895  0.500000  1
  Na  Na8  1  0.072023  0.927977  0.249760  1
  Na  Na9  1  0.427977  0.572023  0.749760  1
  Na  Na10  1  0.927977  0.072023  0.750240  1
  Na  Na11  1  0.572023  0.427977  0.250240  1
  Y  Y12  1  0.659089  0.840911  0.750000  1
  Y  Y13  1  0.840911  0.659089  0.250000  1
  Y  Y14  1  0.340911  0.159089  0.250000  1
  Y  Y15  1  0.159089  0.340911  0.750000  1
  Si  Si16  1  0.739672  0.470664  0.980151  1
  Si  Si17  1  0.760328  0.029336  0.480151  1
  Si  Si18  1  0.470664  0.739672  0.019849  1
  Si  Si19  1  0.029336  0.760328  0.519849  1
  Si  Si20  1  0.260328  0.529336  0.019849  1
  Si  Si21  1  0.239672  0.970664  0.519849  1
  Si  Si22  1  0.529336  0.260328  0.980151  1
  Si  Si23  1  0.970664  0.239672  0.480151  1
  Si  Si24  1  0.794997  0.415022  0.464801  1
  Si  Si25  1  0.705003  0.084978  0.964801  1
  Si  Si26  1  0.415022  0.794997  0.535199  1
  Si  Si27  1  0.084978  0.705003  0.035199  1
  Si  Si28  1  0.205003  0.584978  0.535199  1
  Si  Si29  1  0.294997  0.915022  0.035199  1
  Si  Si30  1  0.584978  0.205003  0.464801  1
  Si  Si31  1  0.915022  0.294997  0.964801  1
  Si  Si32  1  0.690085  0.527711  0.699714  1
  Si  Si33  1  0.809915  0.972289  0.199714  1
  Si  Si34  1  0.527711  0.690085  0.300286  1
  Si  Si35  1  0.972289  0.809915  0.800286  1
  Si  Si36  1  0.309915  0.472289  0.300286  1
  Si  Si37  1  0.190085  0.027711  0.800286  1
  Si  Si38  1  0.472289  0.309915  0.699714  1
  Si  Si39  1  0.027711  0.190085  0.199714  1
  O  O40  1  0.988276  0.343366  0.842725  1
  O  O41  1  0.511724  0.156634  0.342725  1
  O  O42  1  0.343366  0.988276  0.157275  1
  O  O43  1  0.156634  0.511724  0.657275  1
  O  O44  1  0.011724  0.656634  0.157275  1
  O  O45  1  0.488276  0.843366  0.657275  1
  O  O46  1  0.656634  0.011724  0.842725  1
  O  O47  1  0.843366  0.488276  0.342725  1
  O  O48  1  0.762760  0.512774  0.831058  1
  O  O49  1  0.737240  0.987226  0.331058  1
  O  O50  1  0.512774  0.762760  0.168942  1
  O  O51  1  0.987226  0.737240  0.668942  1
  O  O52  1  0.237240  0.487226  0.168942  1
  O  O53  1  0.262760  0.012774  0.668942  1
  O  O54  1  0.487226  0.237240  0.831058  1
  O  O55  1  0.012774  0.262760  0.331058  1
  O  O56  1  0.885489  0.332832  0.513566  1
  O  O57  1  0.614511  0.167168  0.013566  1
  O  O58  1  0.332832  0.885489  0.486434  1
  O  O59  1  0.167168  0.614511  0.986434  1
  O  O60  1  0.114511  0.667168  0.486434  1
  O  O61  1  0.385489  0.832832  0.986434  1
  O  O62  1  0.667168  0.114511  0.513566  1
  O  O63  1  0.832832  0.385489  0.013566  1
  O  O64  1  0.334494  0.665506  0.567781  1
  O  O65  1  0.077932  0.252386  0.575122  1
  O  O66  1  0.252386  0.077932  0.424878  1
  O  O67  1  0.247614  0.422068  0.924878  1
  O  O68  1  0.922068  0.747614  0.424878  1
  O  O69  1  0.577932  0.752386  0.924878  1
  O  O70  1  0.747614  0.922068  0.575122  1
  O  O71  1  0.752386  0.577932  0.075122  1
  O  O72  1  0.346255  0.343336  0.681272  1
  O  O73  1  0.153745  0.156664  0.181272  1
  O  O74  1  0.343336  0.346255  0.318728  1
  O  O75  1  0.156664  0.153745  0.818728  1
  O  O76  1  0.653745  0.656664  0.318728  1
  O  O77  1  0.846255  0.843336  0.818728  1
  O  O78  1  0.656664  0.653745  0.681272  1
  O  O79  1  0.843336  0.846255  0.181272  1
  O  O80  1  0.931707  0.068293  0.201346  1
  O  O81  1  0.568293  0.431707  0.701346  1
  O  O82  1  0.068293  0.931707  0.798654  1
  O  O83  1  0.431707  0.568293  0.298654  1
  O  O84  1  0.892881  0.107119  0.494314  1
  O  O85  1  0.607119  0.392881  0.994314  1
  O  O86  1  0.107119  0.892881  0.505686  1
  O  O87  1  0.392881  0.607119  0.005686  1
  O  O88  1  0.221979  0.501780  0.412544  1
  O  O89  1  0.278021  0.998220  0.912544  1
  O  O90  1  0.501780  0.221979  0.587456  1
  O  O91  1  0.998220  0.278021  0.087456  1
  O  O92  1  0.778021  0.498220  0.587456  1
  O  O93  1  0.721979  0.001780  0.087456  1
  O  O94  1  0.498220  0.778021  0.412544  1
  O  O95  1  0.001780  0.721979  0.912544  1
  O  O96  1  0.834494  0.165506  0.932219  1
  O  O97  1  0.665506  0.334494  0.432219  1
  O  O98  1  0.165506  0.834494  0.067781  1
  O  O99  1  0.422068  0.247614  0.075122  1
