# generated using pymatgen
data_Pr2Ti2O7
_symmetry_space_group_name_H-M   'P 1'
_cell_length_a   7.74419624
_cell_length_b   5.56015034
_cell_length_c   13.29877165
_cell_angle_alpha   90.00000000
_cell_angle_beta   98.46897418
_cell_angle_gamma   90.00000000
_symmetry_Int_Tables_number   1
_chemical_formula_structural   Pr2Ti2O7
_chemical_formula_sum   'Pr8 Ti8 O28'
_cell_volume   566.38631628
_cell_formula_units_Z   4
loop_
 _symmetry_equiv_pos_site_id
 _symmetry_equiv_pos_as_xyz
  1  'x, y, z'
loop_
 _atom_site_type_symbol
 _atom_site_label
 _atom_site_symmetry_multiplicity
 _atom_site_fract_x
 _atom_site_fract_y
 _atom_site_fract_z
 _atom_site_occupancy
  Pr  Pr0  1  0.145922  0.635940  0.571205  1
  Pr  Pr1  1  0.854078  0.135940  0.428795  1
  Pr  Pr2  1  0.649753  0.705668  0.618380  1
  Pr  Pr3  1  0.350247  0.205668  0.381620  1
  Pr  Pr4  1  0.229851  0.238136  0.911820  1
  Pr  Pr5  1  0.770149  0.738136  0.088180  1
  Pr  Pr6  1  0.718610  0.249529  0.878547  1
  Pr  Pr7  1  0.281390  0.749529  0.121453  1
  Ti  Ti8  1  0.415936  0.196112  0.674137  1
  Ti  Ti9  1  0.584064  0.696112  0.325863  1
  Ti  Ti10  1  0.929756  0.204890  0.679719  1
  Ti  Ti11  1  0.070244  0.704890  0.320281  1
  Ti  Ti12  1  0.471872  0.735155  0.876789  1
  Ti  Ti13  1  0.528128  0.235155  0.123211  1
  Ti  Ti14  1  0.968308  0.733113  0.879439  1
  Ti  Ti15  1  0.031692  0.233113  0.120561  1
  O  O16  1  0.173759  0.297730  0.693742  1
  O  O17  1  0.826241  0.797730  0.306258  1
  O  O18  1  0.672192  0.143504  0.693649  1
  O  O19  1  0.327808  0.643504  0.306351  1
  O  O20  1  0.409651  0.405296  0.559391  1
  O  O21  1  0.590349  0.905296  0.440609  1
  O  O22  1  0.870199  0.421900  0.572160  1
  O  O23  1  0.129801  0.921900  0.427840  1
  O  O24  1  0.373659  0.915066  0.611860  1
  O  O25  1  0.626341  0.415066  0.388140  1
  O  O26  1  0.922545  0.938948  0.594713  1
  O  O27  1  0.077455  0.438948  0.405287  1
  O  O28  1  0.432190  0.055528  0.818554  1
  O  O29  1  0.567810  0.555528  0.181446  1
  O  O30  1  0.977677  0.052018  0.816852  1
  O  O31  1  0.022323  0.552018  0.183148  1
  O  O32  1  0.777502  0.183635  0.110115  1
  O  O33  1  0.222498  0.683635  0.889885  1
  O  O34  1  0.272997  0.326686  0.092570  1
  O  O35  1  0.727003  0.826686  0.907430  1
  O  O36  1  0.043839  0.980324  0.020312  1
  O  O37  1  0.956161  0.480324  0.979688  1
  O  O38  1  0.467051  0.980891  0.022381  1
  O  O39  1  0.532949  0.480891  0.977619  1
  O  O40  1  0.116131  0.040016  0.227693  1
  O  O41  1  0.883869  0.540016  0.772307  1
  O  O42  1  0.497067  0.044513  0.230676  1
  O  O43  1  0.502933  0.544513  0.769324  1
