# generated using pymatgen
data_Cu2SnSe3
_symmetry_space_group_name_H-M   'P 1'
_cell_length_a   7.05473202
_cell_length_b   7.05473202
_cell_length_c   7.09560384
_cell_angle_alpha   80.31015132
_cell_angle_beta   99.68984868
_cell_angle_gamma   60.01946073
_symmetry_Int_Tables_number   1
_chemical_formula_structural   Cu2SnSe3
_chemical_formula_sum   'Cu4 Sn2 Se6'
_cell_volume   288.04881078
_cell_formula_units_Z   2
loop_
 _symmetry_equiv_pos_site_id
 _symmetry_equiv_pos_as_xyz
  1  'x, y, z'
loop_
 _atom_site_type_symbol
 _atom_site_label
 _atom_site_symmetry_multiplicity
 _atom_site_fract_x
 _atom_site_fract_y
 _atom_site_fract_z
 _atom_site_occupancy
  Cu  Cu0  1  0.112492  0.381485  0.619647  1
  Cu  Cu1  1  0.618515  0.887508  0.119647  1
  Cu  Cu2  1  0.962233  0.202223  0.119596  1
  Cu  Cu3  1  0.797777  0.037767  0.619596  1
  Sn  Sn4  1  0.266320  0.551624  0.102733  1
  Sn  Sn5  1  0.448376  0.733680  0.602733  1
  Se  Se6  1  0.603312  0.584304  0.004819  1
  Se  Se7  1  0.763685  0.759751  0.481462  1
  Se  Se8  1  0.882536  0.949190  0.981743  1
  Se  Se9  1  0.415696  0.396688  0.504819  1
  Se  Se10  1  0.050810  0.117464  0.481743  1
  Se  Se11  1  0.240249  0.236315  0.981462  1
