# generated using pymatgen
data_SmCo9Si2
_symmetry_space_group_name_H-M   'P 1'
_cell_length_a   7.54603329
_cell_length_b   7.54603329
_cell_length_c   7.54603329
_cell_angle_alpha   100.03419276
_cell_angle_beta   100.03419276
_cell_angle_gamma   130.65692749
_symmetry_Int_Tables_number   1
_chemical_formula_structural   SmCo9Si2
_chemical_formula_sum   'Sm2 Co18 Si4'
_cell_volume   296.21765112
_cell_formula_units_Z   2
loop_
 _symmetry_equiv_pos_site_id
 _symmetry_equiv_pos_as_xyz
  1  'x, y, z'
loop_
 _atom_site_type_symbol
 _atom_site_label
 _atom_site_symmetry_multiplicity
 _atom_site_fract_x
 _atom_site_fract_y
 _atom_site_fract_z
 _atom_site_occupancy
  Sm  Sm0  1  0.000000  0.000000  0.000000  1
  Sm  Sm1  1  0.250000  0.750000  0.500000  1
  Co  Co2  1  0.500000  0.500000  0.000000  1
  Co  Co3  1  0.186073  0.104054  0.670119  1
  Co  Co4  1  0.433935  0.515954  0.329881  1
  Co  Co5  1  0.765954  0.936073  0.582019  1
  Co  Co6  1  0.063927  0.234046  0.417981  1
  Co  Co7  1  0.816065  0.645946  0.582019  1
  Co  Co8  1  0.354054  0.183935  0.417981  1
  Co  Co9  1  0.895946  0.813927  0.329881  1
  Co  Co10  1  0.895946  0.566065  0.082019  1
  Co  Co11  1  0.063927  0.645946  0.829881  1
  Co  Co12  1  0.816065  0.234046  0.170119  1
  Co  Co13  1  0.484046  0.813927  0.917981  1
  Co  Co14  1  0.186073  0.515954  0.082019  1
  Co  Co15  1  0.433935  0.104054  0.917981  1
  Co  Co16  1  0.765954  0.183935  0.829881  1
  Co  Co17  1  0.354054  0.936073  0.170119  1
  Co  Co18  1  0.484046  0.566065  0.670119  1
  Co  Co19  1  0.750000  0.250000  0.500000  1
  Si  Si20  1  0.625000  0.375000  0.250000  1
  Si  Si21  1  0.625000  0.375000  0.750000  1
  Si  Si22  1  0.625000  0.875000  0.250000  1
  Si  Si23  1  0.125000  0.375000  0.750000  1
