# generated using pymatgen
data_CeZnAu
_symmetry_space_group_name_H-M   'P 1'
_cell_length_a   4.65287632
_cell_length_b   6.98813703
_cell_length_c   8.04036510
_cell_angle_alpha   90.00000000
_cell_angle_beta   90.00000000
_cell_angle_gamma   90.00000000
_symmetry_Int_Tables_number   1
_chemical_formula_structural   CeZnAu
_chemical_formula_sum   'Ce4 Zn4 Au4'
_cell_volume   261.43196716
_cell_formula_units_Z   4
loop_
 _symmetry_equiv_pos_site_id
 _symmetry_equiv_pos_as_xyz
  1  'x, y, z'
loop_
 _atom_site_type_symbol
 _atom_site_label
 _atom_site_symmetry_multiplicity
 _atom_site_fract_x
 _atom_site_fract_y
 _atom_site_fract_z
 _atom_site_occupancy
  Ce  Ce0  1  0.750000  0.494709  0.774821  1
  Ce  Ce1  1  0.250000  0.005291  0.274821  1
  Ce  Ce2  1  0.750000  0.994709  0.725179  1
  Ce  Ce3  1  0.250000  0.505291  0.225179  1
  Zn  Zn4  1  0.250000  0.205794  0.917596  1
  Zn  Zn5  1  0.250000  0.705794  0.582404  1
  Zn  Zn6  1  0.750000  0.794206  0.082404  1
  Zn  Zn7  1  0.750000  0.294206  0.417596  1
  Au  Au8  1  0.250000  0.772875  0.914013  1
  Au  Au9  1  0.250000  0.272875  0.585987  1
  Au  Au10  1  0.750000  0.727125  0.414013  1
  Au  Au11  1  0.750000  0.227125  0.085987  1
