# generated using pymatgen
data_Dy2Al6Si4Au
_symmetry_space_group_name_H-M   'P 1'
_cell_length_a   16.95644301
_cell_length_b   16.95644301
_cell_length_c   16.95644301
_cell_angle_alpha   14.25651079
_cell_angle_beta   14.25651079
_cell_angle_gamma   14.25651079
_symmetry_Int_Tables_number   1
_chemical_formula_structural   Dy2Al6Si4Au
_chemical_formula_sum   'Dy2 Al6 Si4 Au1'
_cell_volume   257.37687779
_cell_formula_units_Z   1
loop_
 _symmetry_equiv_pos_site_id
 _symmetry_equiv_pos_as_xyz
  1  'x, y, z'
loop_
 _atom_site_type_symbol
 _atom_site_label
 _atom_site_symmetry_multiplicity
 _atom_site_fract_x
 _atom_site_fract_y
 _atom_site_fract_z
 _atom_site_occupancy
  Dy  Dy0  1  0.434534  0.434534  0.434534  1
  Dy  Dy1  1  0.565466  0.565466  0.565466  1
  Al  Al2  1  0.814520  0.814520  0.814520  1
  Al  Al3  1  0.185480  0.185480  0.185480  1
  Al  Al4  1  0.052279  0.052279  0.052279  1
  Al  Al5  1  0.316849  0.316849  0.316849  1
  Al  Al6  1  0.683151  0.683151  0.683151  1
  Al  Al7  1  0.947721  0.947721  0.947721  1
  Si  Si8  1  0.734329  0.734329  0.734329  1
  Si  Si9  1  0.864875  0.864875  0.864875  1
  Si  Si10  1  0.135125  0.135125  0.135125  1
  Si  Si11  1  0.265671  0.265671  0.265671  1
  Au  Au12  1  0.000000  0.000000  0.000000  1
