# generated using pymatgen
data_Sr(GaAu)2
_symmetry_space_group_name_H-M   'P 1'
_cell_length_a   4.55354766
_cell_length_b   4.55354766
_cell_length_c   10.71801553
_cell_angle_alpha   90.00000000
_cell_angle_beta   90.00000000
_cell_angle_gamma   90.00000000
_symmetry_Int_Tables_number   1
_chemical_formula_structural   Sr(GaAu)2
_chemical_formula_sum   'Sr2 Ga4 Au4'
_cell_volume   222.23586867
_cell_formula_units_Z   2
loop_
 _symmetry_equiv_pos_site_id
 _symmetry_equiv_pos_as_xyz
  1  'x, y, z'
loop_
 _atom_site_type_symbol
 _atom_site_label
 _atom_site_symmetry_multiplicity
 _atom_site_fract_x
 _atom_site_fract_y
 _atom_site_fract_z
 _atom_site_occupancy
  Sr  Sr0  1  0.000000  0.500000  0.750671  1
  Sr  Sr1  1  0.500000  0.000000  0.249329  1
  Ga  Ga2  1  0.000000  0.500000  0.125970  1
  Ga  Ga3  1  0.000000  0.000000  0.500000  1
  Ga  Ga4  1  0.500000  0.000000  0.874030  1
  Ga  Ga5  1  0.500000  0.500000  0.500000  1
  Au  Au6  1  0.500000  0.000000  0.630896  1
  Au  Au7  1  0.500000  0.500000  0.000000  1
  Au  Au8  1  0.000000  0.000000  0.000000  1
  Au  Au9  1  0.000000  0.500000  0.369104  1
