# generated using pymatgen
data_CsLi(B3O5)2
_symmetry_space_group_name_H-M   'P 1'
_cell_length_a   8.75648167
_cell_length_b   8.75648167
_cell_length_c   8.75648167
_cell_angle_alpha   117.33704957
_cell_angle_beta   105.78206638
_cell_angle_gamma   105.59268614
_symmetry_Int_Tables_number   1
_chemical_formula_structural   CsLi(B3O5)2
_chemical_formula_sum   'Cs2 Li2 B12 O20'
_cell_volume   509.45233724
_cell_formula_units_Z   2
loop_
 _symmetry_equiv_pos_site_id
 _symmetry_equiv_pos_as_xyz
  1  'x, y, z'
loop_
 _atom_site_type_symbol
 _atom_site_label
 _atom_site_symmetry_multiplicity
 _atom_site_fract_x
 _atom_site_fract_y
 _atom_site_fract_z
 _atom_site_occupancy
  Cs  Cs0  1  0.750000  0.623146  0.873146  1
  Cs  Cs1  1  0.250000  0.876854  0.626854  1
  Li  Li2  1  0.750000  0.121355  0.371355  1
  Li  Li3  1  0.250000  0.378645  0.128645  1
  B  B4  1  0.833441  0.914930  0.547472  1
  B  B5  1  0.632542  0.585070  0.418511  1
  B  B6  1  0.666559  0.214031  0.081489  1
  B  B7  1  0.867458  0.285969  0.952528  1
  B  B8  1  0.476483  0.226483  0.250000  1
  B  B9  1  0.023517  0.273517  0.750000  1
  B  B10  1  0.975852  0.250000  0.225852  1
  B  B11  1  0.524148  0.750000  0.274148  1
  B  B12  1  0.167403  0.082663  0.213933  1
  B  B13  1  0.131270  0.417337  0.584739  1
  B  B14  1  0.332597  0.546530  0.915261  1
  B  B15  1  0.368730  0.953470  0.286067  1
  O  O16  1  0.005817  0.080071  0.188279  1
  O  O17  1  0.108208  0.419929  0.425746  1
  O  O18  1  0.494183  0.682462  0.074254  1
  O  O19  1  0.391792  0.817538  0.311721  1
  O  O20  1  0.791099  0.198503  0.200356  1
  O  O21  1  0.001854  0.301497  0.092597  1
  O  O22  1  0.708901  0.909257  0.407403  1
  O  O23  1  0.498146  0.590743  0.299644  1
  O  O24  1  0.609814  0.425857  0.420328  1
  O  O25  1  0.994471  0.074143  0.683957  1
  O  O26  1  0.890186  0.310514  0.816043  1
  O  O27  1  0.505529  0.189486  0.079672  1
  O  O28  1  0.997465  0.297440  0.589601  1
  O  O29  1  0.292160  0.202560  0.200025  1
  O  O30  1  0.502535  0.092135  0.299975  1
  O  O31  1  0.207840  0.407865  0.910399  1
  O  O32  1  0.201553  0.951553  0.250000  1
  O  O33  1  0.298447  0.548447  0.750000  1
  O  O34  1  0.799827  0.750000  0.549827  1
  O  O35  1  0.700173  0.250000  0.950173  1
