# generated using pymatgen
data_Hf3Sb
_symmetry_space_group_name_H-M   'P 1'
_cell_length_a   8.44360674
_cell_length_b   8.44360674
_cell_length_c   8.44360674
_cell_angle_alpha   96.53058816
_cell_angle_beta   96.53058816
_cell_angle_gamma   140.58187467
_symmetry_Int_Tables_number   1
_chemical_formula_structural   Hf3Sb
_chemical_formula_sum   'Hf12 Sb4'
_cell_volume   359.85099664
_cell_formula_units_Z   4
loop_
 _symmetry_equiv_pos_site_id
 _symmetry_equiv_pos_as_xyz
  1  'x, y, z'
loop_
 _atom_site_type_symbol
 _atom_site_label
 _atom_site_symmetry_multiplicity
 _atom_site_fract_x
 _atom_site_fract_y
 _atom_site_fract_z
 _atom_site_occupancy
  Hf  Hf0  1  0.713572  0.691303  0.812191  1
  Hf  Hf1  1  0.879112  0.901381  0.187809  1
  Hf  Hf2  1  0.308697  0.120888  0.022268  1
  Hf  Hf3  1  0.098619  0.286428  0.977732  1
  Hf  Hf4  1  0.668004  0.998155  0.623160  1
  Hf  Hf5  1  0.374995  0.044844  0.376840  1
  Hf  Hf6  1  0.001845  0.625005  0.669849  1
  Hf  Hf7  1  0.955156  0.331996  0.330151  1
  Hf  Hf8  1  0.049493  0.020718  0.598058  1
  Hf  Hf9  1  0.422661  0.451436  0.401942  1
  Hf  Hf10  1  0.979282  0.577339  0.028775  1
  Hf  Hf11  1  0.548564  0.950507  0.971225  1
  Sb  Sb12  1  0.232897  0.490922  0.677432  1
  Sb  Sb13  1  0.813490  0.555465  0.322568  1
  Sb  Sb14  1  0.509078  0.186510  0.741976  1
  Sb  Sb15  1  0.444535  0.767103  0.258024  1
