# generated using pymatgen
data_TlCuSe2
_symmetry_space_group_name_H-M   'P 1'
_cell_length_a   7.33261236
_cell_length_b   7.33261236
_cell_length_c   7.33261236
_cell_angle_alpha   132.08760718
_cell_angle_beta   132.08760718
_cell_angle_gamma   70.09069602
_symmetry_Int_Tables_number   1
_chemical_formula_structural   TlCuSe2
_chemical_formula_sum   'Tl2 Cu2 Se4'
_cell_volume   212.85967045
_cell_formula_units_Z   2
loop_
 _symmetry_equiv_pos_site_id
 _symmetry_equiv_pos_as_xyz
  1  'x, y, z'
loop_
 _atom_site_type_symbol
 _atom_site_label
 _atom_site_symmetry_multiplicity
 _atom_site_fract_x
 _atom_site_fract_y
 _atom_site_fract_z
 _atom_site_occupancy
  Tl  Tl0  1  0.250000  0.750000  0.500000  1
  Tl  Tl1  1  0.500000  0.500000  0.000000  1
  Cu  Cu2  1  0.750000  0.250000  0.500000  1
  Cu  Cu3  1  0.000000  0.000000  0.000000  1
  Se  Se4  1  0.077155  0.125000  0.452155  1
  Se  Se5  1  0.672845  0.625000  0.547845  1
  Se  Se6  1  0.875000  0.327155  0.952155  1
  Se  Se7  1  0.375000  0.922845  0.047845  1
