# generated using pymatgen
data_Ba3Ta5O15
_symmetry_space_group_name_H-M   'P 1'
_cell_length_a   12.76609361
_cell_length_b   12.76609361
_cell_length_c   4.01748713
_cell_angle_alpha   90.00000000
_cell_angle_beta   90.00000000
_cell_angle_gamma   90.00000000
_symmetry_Int_Tables_number   1
_chemical_formula_structural   Ba3Ta5O15
_chemical_formula_sum   'Ba6 Ta10 O30'
_cell_volume   654.74251683
_cell_formula_units_Z   2
loop_
 _symmetry_equiv_pos_site_id
 _symmetry_equiv_pos_as_xyz
  1  'x, y, z'
loop_
 _atom_site_type_symbol
 _atom_site_label
 _atom_site_symmetry_multiplicity
 _atom_site_fract_x
 _atom_site_fract_y
 _atom_site_fract_z
 _atom_site_occupancy
  Ba  Ba0  1  0.000000  0.000000  0.000000  1
  Ba  Ba1  1  0.500000  0.500000  0.000000  1
  Ba  Ba2  1  0.668767  0.168767  0.000000  1
  Ba  Ba3  1  0.168767  0.331233  0.000000  1
  Ba  Ba4  1  0.831233  0.668767  0.000000  1
  Ba  Ba5  1  0.331233  0.831233  0.000000  1
  Ta  Ta6  1  0.076656  0.787175  0.500000  1
  Ta  Ta7  1  0.212825  0.076656  0.500000  1
  Ta  Ta8  1  0.000000  0.500000  0.500000  1
  Ta  Ta9  1  0.500000  0.000000  0.500000  1
  Ta  Ta10  1  0.923344  0.212825  0.500000  1
  Ta  Ta11  1  0.787175  0.923344  0.500000  1
  Ta  Ta12  1  0.287175  0.576656  0.500000  1
  Ta  Ta13  1  0.712825  0.423344  0.500000  1
  Ta  Ta14  1  0.576656  0.712825  0.500000  1
  Ta  Ta15  1  0.423344  0.287175  0.500000  1
  O  O16  1  0.359292  0.431529  0.500000  1
  O  O17  1  0.640708  0.568471  0.500000  1
  O  O18  1  0.568471  0.359292  0.500000  1
  O  O19  1  0.431529  0.640708  0.500000  1
  O  O20  1  0.931529  0.859292  0.500000  1
  O  O21  1  0.859292  0.068471  0.500000  1
  O  O22  1  0.140708  0.931529  0.500000  1
  O  O23  1  0.068471  0.140708  0.500000  1
  O  O24  1  0.156242  0.493707  0.500000  1
  O  O25  1  0.843758  0.506293  0.500000  1
  O  O26  1  0.506293  0.156242  0.500000  1
  O  O27  1  0.493707  0.843758  0.500000  1
  O  O28  1  0.993707  0.656242  0.500000  1
  O  O29  1  0.656242  0.006293  0.500000  1
  O  O30  1  0.343758  0.993707  0.500000  1
  O  O31  1  0.006293  0.343758  0.500000  1
  O  O32  1  0.500000  0.000000  0.000000  1
  O  O33  1  0.000000  0.500000  0.000000  1
  O  O34  1  0.781928  0.281928  0.500000  1
  O  O35  1  0.281928  0.218072  0.500000  1
  O  O36  1  0.718072  0.781928  0.500000  1
  O  O37  1  0.218072  0.718072  0.500000  1
  O  O38  1  0.208245  0.077681  0.000000  1
  O  O39  1  0.077681  0.791755  0.000000  1
  O  O40  1  0.922319  0.208245  0.000000  1
  O  O41  1  0.791755  0.922319  0.000000  1
  O  O42  1  0.291755  0.577681  0.000000  1
  O  O43  1  0.708245  0.422319  0.000000  1
  O  O44  1  0.577681  0.708245  0.000000  1
  O  O45  1  0.422319  0.291755  0.000000  1
