# generated using pymatgen
data_Hf9BMo4
_symmetry_space_group_name_H-M   'P 1'
_cell_length_a   8.55942120
_cell_length_b   8.55942120
_cell_length_c   8.51252288
_cell_angle_alpha   90.00000000
_cell_angle_beta   90.00000000
_cell_angle_gamma   120.00000000
_symmetry_Int_Tables_number   1
_chemical_formula_structural   Hf9BMo4
_chemical_formula_sum   'Hf18 B2 Mo8'
_cell_volume   540.10440586
_cell_formula_units_Z   2
loop_
 _symmetry_equiv_pos_site_id
 _symmetry_equiv_pos_as_xyz
  1  'x, y, z'
loop_
 _atom_site_type_symbol
 _atom_site_label
 _atom_site_symmetry_multiplicity
 _atom_site_fract_x
 _atom_site_fract_y
 _atom_site_fract_z
 _atom_site_occupancy
  Hf  Hf0  1  0.203697  0.407395  0.444600  1
  Hf  Hf1  1  0.203697  0.796303  0.444600  1
  Hf  Hf2  1  0.540454  0.080909  0.250000  1
  Hf  Hf3  1  0.459546  0.540454  0.750000  1
  Hf  Hf4  1  0.080909  0.540454  0.750000  1
  Hf  Hf5  1  0.919091  0.459546  0.250000  1
  Hf  Hf6  1  0.540454  0.459546  0.250000  1
  Hf  Hf7  1  0.459546  0.919091  0.750000  1
  Hf  Hf8  1  0.592605  0.796303  0.444600  1
  Hf  Hf9  1  0.407395  0.203697  0.944600  1
  Hf  Hf10  1  0.796303  0.592605  0.555400  1
  Hf  Hf11  1  0.796303  0.203697  0.944600  1
  Hf  Hf12  1  0.796303  0.592605  0.944600  1
  Hf  Hf13  1  0.203697  0.796303  0.055400  1
  Hf  Hf14  1  0.592605  0.796303  0.055400  1
  Hf  Hf15  1  0.407395  0.203697  0.555400  1
  Hf  Hf16  1  0.796303  0.203697  0.555400  1
  Hf  Hf17  1  0.203697  0.407395  0.055400  1
  B  B18  1  0.666667  0.333333  0.750000  1
  B  B19  1  0.333333  0.666667  0.250000  1
  Mo  Mo20  1  0.000000  0.000000  0.500000  1
  Mo  Mo21  1  0.000000  0.000000  0.000000  1
  Mo  Mo22  1  0.111199  0.222398  0.750000  1
  Mo  Mo23  1  0.888801  0.111199  0.250000  1
  Mo  Mo24  1  0.222398  0.111199  0.250000  1
  Mo  Mo25  1  0.777602  0.888801  0.750000  1
  Mo  Mo26  1  0.111199  0.888801  0.750000  1
  Mo  Mo27  1  0.888801  0.777602  0.250000  1
