# generated using pymatgen
data_AlPO4
_symmetry_space_group_name_H-M   'P 1'
_cell_length_a   8.88913121
_cell_length_b   4.94716295
_cell_length_c   11.02123885
_cell_angle_alpha   90.00000000
_cell_angle_beta   90.16727363
_cell_angle_gamma   90.00000000
_symmetry_Int_Tables_number   1
_chemical_formula_structural   AlPO4
_chemical_formula_sum   'Al6 P6 O24'
_cell_volume   484.66772034
_cell_formula_units_Z   6
loop_
 _symmetry_equiv_pos_site_id
 _symmetry_equiv_pos_as_xyz
  1  'x, y, z'
loop_
 _atom_site_type_symbol
 _atom_site_label
 _atom_site_symmetry_multiplicity
 _atom_site_fract_x
 _atom_site_fract_y
 _atom_site_fract_z
 _atom_site_occupancy
  Al  Al0  1  0.750000  0.465104  0.000000  1
  Al  Al1  1  0.250000  0.534896  0.000000  1
  Al  Al2  1  0.513116  0.750136  0.665953  1
  Al  Al3  1  0.986884  0.750136  0.334047  1
  Al  Al4  1  0.486884  0.249864  0.334047  1
  Al  Al5  1  0.013116  0.249864  0.665953  1
  P  P6  1  0.750000  0.032822  0.500000  1
  P  P7  1  0.250000  0.967178  0.500000  1
  P  P8  1  0.513166  0.755000  0.166801  1
  P  P9  1  0.986834  0.755000  0.833199  1
  P  P10  1  0.486834  0.245000  0.833199  1
  P  P11  1  0.013166  0.245000  0.166801  1
  O  O12  1  0.527831  0.052088  0.205812  1
  O  O13  1  0.972169  0.052088  0.794188  1
  O  O14  1  0.472169  0.947912  0.794188  1
  O  O15  1  0.027831  0.947912  0.205812  1
  O  O16  1  0.476249  0.583373  0.280261  1
  O  O17  1  0.023751  0.583373  0.719739  1
  O  O18  1  0.523751  0.416627  0.719739  1
  O  O19  1  0.976249  0.416627  0.280261  1
  O  O20  1  0.683093  0.850715  0.599697  1
  O  O21  1  0.816907  0.850715  0.400303  1
  O  O22  1  0.316907  0.149285  0.400303  1
  O  O23  1  0.183093  0.149285  0.599697  1
  O  O24  1  0.663643  0.665738  0.111158  1
  O  O25  1  0.836357  0.665738  0.888842  1
  O  O26  1  0.336357  0.334262  0.888842  1
  O  O27  1  0.163643  0.334262  0.111158  1
  O  O28  1  0.371592  0.783649  0.555796  1
  O  O29  1  0.128408  0.783649  0.444204  1
  O  O30  1  0.628408  0.216351  0.444204  1
  O  O31  1  0.871592  0.216351  0.555796  1
  O  O32  1  0.386177  0.733433  0.072300  1
  O  O33  1  0.113823  0.733433  0.927700  1
  O  O34  1  0.613823  0.266567  0.927700  1
  O  O35  1  0.886177  0.266567  0.072300  1
