# generated using pymatgen
data_LuInRh
_symmetry_space_group_name_H-M   'P 1'
_cell_length_a   4.21464805
_cell_length_b   6.92495433
_cell_length_c   8.53950421
_cell_angle_alpha   90.00000000
_cell_angle_beta   90.00000000
_cell_angle_gamma   90.00000000
_symmetry_Int_Tables_number   1
_chemical_formula_structural   LuInRh
_chemical_formula_sum   'Lu4 In4 Rh4'
_cell_volume   249.23606430
_cell_formula_units_Z   4
loop_
 _symmetry_equiv_pos_site_id
 _symmetry_equiv_pos_as_xyz
  1  'x, y, z'
loop_
 _atom_site_type_symbol
 _atom_site_label
 _atom_site_symmetry_multiplicity
 _atom_site_fract_x
 _atom_site_fract_y
 _atom_site_fract_z
 _atom_site_occupancy
  Lu  Lu0  1  0.250000  0.537790  0.324416  1
  Lu  Lu1  1  0.750000  0.462210  0.675584  1
  Lu  Lu2  1  0.250000  0.037790  0.175584  1
  Lu  Lu3  1  0.750000  0.962210  0.824416  1
  In  In4  1  0.750000  0.856083  0.440779  1
  In  In5  1  0.250000  0.143917  0.559221  1
  In  In6  1  0.750000  0.356083  0.059221  1
  In  In7  1  0.250000  0.643917  0.940779  1
  Rh  Rh8  1  0.250000  0.241853  0.868059  1
  Rh  Rh9  1  0.750000  0.758147  0.131941  1
  Rh  Rh10  1  0.250000  0.741853  0.631941  1
  Rh  Rh11  1  0.750000  0.258147  0.368059  1
