# generated using pymatgen
data_Th7Rh3
_symmetry_space_group_name_H-M   'P 1'
_cell_length_a   10.03369276
_cell_length_b   10.03369276
_cell_length_c   6.27620504
_cell_angle_alpha   90.00000000
_cell_angle_beta   90.00000000
_cell_angle_gamma   120.00000000
_symmetry_Int_Tables_number   1
_chemical_formula_structural   Th7Rh3
_chemical_formula_sum   'Th14 Rh6'
_cell_volume   547.20411171
_cell_formula_units_Z   2
loop_
 _symmetry_equiv_pos_site_id
 _symmetry_equiv_pos_as_xyz
  1  'x, y, z'
loop_
 _atom_site_type_symbol
 _atom_site_label
 _atom_site_symmetry_multiplicity
 _atom_site_fract_x
 _atom_site_fract_y
 _atom_site_fract_z
 _atom_site_occupancy
  Th  Th0  1  0.333333  0.666667  0.418749  1
  Th  Th1  1  0.666667  0.333333  0.918749  1
  Th  Th2  1  0.128272  0.871728  0.253907  1
  Th  Th3  1  0.743457  0.871728  0.253907  1
  Th  Th4  1  0.128272  0.256543  0.253907  1
  Th  Th5  1  0.871728  0.128272  0.753907  1
  Th  Th6  1  0.256543  0.128272  0.753907  1
  Th  Th7  1  0.871728  0.743457  0.753907  1
  Th  Th8  1  0.541299  0.458701  0.461176  1
  Th  Th9  1  0.917403  0.458701  0.461176  1
  Th  Th10  1  0.541299  0.082597  0.461176  1
  Th  Th11  1  0.458701  0.541299  0.961175  1
  Th  Th12  1  0.082597  0.541299  0.961175  1
  Th  Th13  1  0.458701  0.917403  0.961175  1
  Rh  Rh14  1  0.815240  0.184760  0.198251  1
  Rh  Rh15  1  0.369520  0.184760  0.198251  1
  Rh  Rh16  1  0.815240  0.630480  0.198251  1
  Rh  Rh17  1  0.184760  0.815240  0.698251  1
  Rh  Rh18  1  0.630480  0.815240  0.698251  1
  Rh  Rh19  1  0.184760  0.369520  0.698251  1
