# generated using pymatgen
data_Lu5(Co2Si7)2
_symmetry_space_group_name_H-M   'P 1'
_cell_length_a   7.68161875
_cell_length_b   7.75771025
_cell_length_c   12.24377528
_cell_angle_alpha   90.00000000
_cell_angle_beta   98.82475189
_cell_angle_gamma   90.00000000
_symmetry_Int_Tables_number   1
_chemical_formula_structural   Lu5(Co2Si7)2
_chemical_formula_sum   'Lu10 Co8 Si28'
_cell_volume   720.99107692
_cell_formula_units_Z   2
loop_
 _symmetry_equiv_pos_site_id
 _symmetry_equiv_pos_as_xyz
  1  'x, y, z'
loop_
 _atom_site_type_symbol
 _atom_site_label
 _atom_site_symmetry_multiplicity
 _atom_site_fract_x
 _atom_site_fract_y
 _atom_site_fract_z
 _atom_site_occupancy
  Lu  Lu0  1  0.342383  0.748498  0.365111  1
  Lu  Lu1  1  0.157617  0.248498  0.634889  1
  Lu  Lu2  1  0.842383  0.751502  0.365111  1
  Lu  Lu3  1  0.657617  0.251502  0.634889  1
  Lu  Lu4  1  0.159978  0.749067  0.634547  1
  Lu  Lu5  1  0.340022  0.249067  0.365453  1
  Lu  Lu6  1  0.840022  0.250933  0.365453  1
  Lu  Lu7  1  0.659978  0.750933  0.634547  1
  Lu  Lu8  1  0.500000  0.000000  0.000000  1
  Lu  Lu9  1  0.000000  0.500000  0.000000  1
  Co  Co10  1  0.128081  0.873028  0.999589  1
  Co  Co11  1  0.628081  0.626972  0.999589  1
  Co  Co12  1  0.371919  0.373028  0.000411  1
  Co  Co13  1  0.871919  0.126972  0.000411  1
  Co  Co14  1  0.561006  0.000187  0.250233  1
  Co  Co15  1  0.938994  0.500187  0.749767  1
  Co  Co16  1  0.438994  0.999813  0.749767  1
  Co  Co17  1  0.061006  0.499813  0.250233  1
  Si  Si18  1  0.818460  0.005723  0.178636  1
  Si  Si19  1  0.609848  0.999551  0.440105  1
  Si  Si20  1  0.890152  0.499551  0.559895  1
  Si  Si21  1  0.390152  0.000449  0.559895  1
  Si  Si22  1  0.333904  0.666317  0.000106  1
  Si  Si23  1  0.166096  0.166317  0.999894  1
  Si  Si24  1  0.666096  0.333683  0.999894  1
  Si  Si25  1  0.833904  0.833683  0.000106  1
  Si  Si26  1  0.049939  0.773638  0.177889  1
  Si  Si27  1  0.450061  0.273638  0.822111  1
  Si  Si28  1  0.950061  0.226362  0.822111  1
  Si  Si29  1  0.549939  0.726362  0.177889  1
  Si  Si30  1  0.038311  0.226396  0.177910  1
  Si  Si31  1  0.461689  0.726396  0.822090  1
  Si  Si32  1  0.961689  0.773604  0.822090  1
  Si  Si33  1  0.538311  0.273604  0.177910  1
  Si  Si34  1  0.268776  0.994671  0.178271  1
  Si  Si35  1  0.231224  0.494671  0.821729  1
  Si  Si36  1  0.731224  0.005329  0.821729  1
  Si  Si37  1  0.768776  0.505329  0.178271  1
  Si  Si38  1  0.318460  0.494277  0.178636  1
  Si  Si39  1  0.181540  0.994277  0.821364  1
  Si  Si40  1  0.681540  0.505723  0.821364  1
  Si  Si41  1  0.111014  0.999728  0.439262  1
  Si  Si42  1  0.611014  0.500272  0.439262  1
  Si  Si43  1  0.888986  0.000272  0.560738  1
  Si  Si44  1  0.388986  0.499728  0.560738  1
  Si  Si45  1  0.109848  0.500449  0.440105  1
