# generated using pymatgen
data_Ca5P12Rh19
_symmetry_space_group_name_H-M   'P 1'
_cell_length_a   12.71013206
_cell_length_b   12.71013206
_cell_length_c   3.93527777
_cell_angle_alpha   90.00000000
_cell_angle_beta   90.00000000
_cell_angle_gamma   120.00000000
_symmetry_Int_Tables_number   1
_chemical_formula_structural   Ca5P12Rh19
_chemical_formula_sum   'Ca5 P12 Rh19'
_cell_volume   550.56189476
_cell_formula_units_Z   1
loop_
 _symmetry_equiv_pos_site_id
 _symmetry_equiv_pos_as_xyz
  1  'x, y, z'
loop_
 _atom_site_type_symbol
 _atom_site_label
 _atom_site_symmetry_multiplicity
 _atom_site_fract_x
 _atom_site_fract_y
 _atom_site_fract_z
 _atom_site_occupancy
  Ca  Ca0  1  0.000000  0.184018  0.500000  1
  Ca  Ca1  1  0.815982  0.815982  0.500000  1
  Ca  Ca2  1  0.184018  0.000000  0.500000  1
  Ca  Ca3  1  0.666667  0.333333  0.000000  1
  Ca  Ca4  1  0.333333  0.666667  0.000000  1
  P  P5  1  0.481870  0.313925  0.500000  1
  P  P6  1  0.818966  0.000000  0.000000  1
  P  P7  1  0.181034  0.181034  0.000000  1
  P  P8  1  0.000000  0.818966  0.000000  1
  P  P9  1  0.365994  0.000000  0.000000  1
  P  P10  1  0.686075  0.167945  0.500000  1
  P  P11  1  0.832055  0.518130  0.500000  1
  P  P12  1  0.518130  0.832055  0.500000  1
  P  P13  1  0.167945  0.686075  0.500000  1
  P  P14  1  0.313925  0.481870  0.500000  1
  P  P15  1  0.000000  0.365994  0.000000  1
  P  P16  1  0.634006  0.634006  0.000000  1
  Rh  Rh17  1  0.804164  0.180663  0.000000  1
  Rh  Rh18  1  0.376499  0.195836  0.000000  1
  Rh  Rh19  1  0.640968  0.511471  0.500000  1
  Rh  Rh20  1  0.870503  0.359032  0.500000  1
  Rh  Rh21  1  0.359032  0.870503  0.500000  1
  Rh  Rh22  1  0.511471  0.640968  0.500000  1
  Rh  Rh23  1  0.129497  0.488529  0.500000  1
  Rh  Rh24  1  0.819337  0.623501  0.000000  1
  Rh  Rh25  1  0.623501  0.819337  0.000000  1
  Rh  Rh26  1  0.180663  0.804164  0.000000  1
  Rh  Rh27  1  0.195836  0.376499  0.000000  1
  Rh  Rh28  1  0.000000  0.716276  0.500000  1
  Rh  Rh29  1  0.283724  0.283724  0.500000  1
  Rh  Rh30  1  0.716276  0.000000  0.500000  1
  Rh  Rh31  1  0.000000  0.546302  0.000000  1
  Rh  Rh32  1  0.453698  0.453698  0.000000  1
  Rh  Rh33  1  0.546302  0.000000  0.000000  1
  Rh  Rh34  1  0.000000  0.000000  0.000000  1
  Rh  Rh35  1  0.488529  0.129497  0.500000  1
