# generated using pymatgen
data_Sr2UO5
_symmetry_space_group_name_H-M   'P 1'
_cell_length_a   8.16564434
_cell_length_b   5.72560058
_cell_length_c   12.02594333
_cell_angle_alpha   90.00000000
_cell_angle_beta   108.49826356
_cell_angle_gamma   90.00000000
_symmetry_Int_Tables_number   1
_chemical_formula_structural   Sr2UO5
_chemical_formula_sum   'Sr8 U4 O20'
_cell_volume   533.20185162
_cell_formula_units_Z   4
loop_
 _symmetry_equiv_pos_site_id
 _symmetry_equiv_pos_as_xyz
  1  'x, y, z'
loop_
 _atom_site_type_symbol
 _atom_site_label
 _atom_site_symmetry_multiplicity
 _atom_site_fract_x
 _atom_site_fract_y
 _atom_site_fract_z
 _atom_site_occupancy
  Sr  Sr0  1  0.155905  0.933939  0.318953  1
  Sr  Sr1  1  0.844095  0.433939  0.181047  1
  Sr  Sr2  1  0.844095  0.066061  0.681047  1
  Sr  Sr3  1  0.155905  0.566061  0.818953  1
  Sr  Sr4  1  0.340554  0.500246  0.138787  1
  Sr  Sr5  1  0.659446  0.000246  0.361213  1
  Sr  Sr6  1  0.659446  0.499754  0.861213  1
  Sr  Sr7  1  0.340554  0.999754  0.638787  1
  U  U8  1  0.000000  0.000000  0.000000  1
  U  U9  1  0.000000  0.500000  0.500000  1
  U  U10  1  0.500000  0.000000  0.000000  1
  U  U11  1  0.500000  0.500000  0.500000  1
  O  O12  1  0.250819  0.652265  0.498836  1
  O  O13  1  0.749181  0.152265  0.001164  1
  O  O14  1  0.749181  0.347735  0.501164  1
  O  O15  1  0.250819  0.847735  0.998836  1
  O  O16  1  0.018781  0.756470  0.622045  1
  O  O17  1  0.981219  0.256470  0.877955  1
  O  O18  1  0.981219  0.243530  0.377955  1
  O  O19  1  0.018781  0.743530  0.122045  1
  O  O20  1  0.604873  0.797780  0.575048  1
  O  O21  1  0.395127  0.297780  0.924952  1
  O  O22  1  0.395127  0.202220  0.424952  1
  O  O23  1  0.604873  0.702220  0.075048  1
  O  O24  1  0.446110  0.669719  0.335761  1
  O  O25  1  0.553890  0.169719  0.164239  1
  O  O26  1  0.553890  0.330281  0.664239  1
  O  O27  1  0.446110  0.830281  0.835761  1
  O  O28  1  0.891693  0.711176  0.359416  1
  O  O29  1  0.108307  0.211176  0.140584  1
  O  O30  1  0.108307  0.288824  0.640584  1
  O  O31  1  0.891693  0.788824  0.859416  1
