# generated using pymatgen
data_Tb2Ge2O7
_symmetry_space_group_name_H-M   'P 1'
_cell_length_a   6.89934500
_cell_length_b   6.89934500
_cell_length_c   12.57230109
_cell_angle_alpha   90.00000000
_cell_angle_beta   90.00000000
_cell_angle_gamma   90.00000000
_symmetry_Int_Tables_number   1
_chemical_formula_structural   Tb2Ge2O7
_chemical_formula_sum   'Tb8 Ge8 O28'
_cell_volume   598.45361926
_cell_formula_units_Z   4
loop_
 _symmetry_equiv_pos_site_id
 _symmetry_equiv_pos_as_xyz
  1  'x, y, z'
loop_
 _atom_site_type_symbol
 _atom_site_label
 _atom_site_symmetry_multiplicity
 _atom_site_fract_x
 _atom_site_fract_y
 _atom_site_fract_z
 _atom_site_occupancy
  Tb  Tb0  1  0.648402  0.123988  0.865406  1
  Tb  Tb1  1  0.351598  0.876012  0.365406  1
  Tb  Tb2  1  0.123988  0.648402  0.134594  1
  Tb  Tb3  1  0.623988  0.851598  0.615406  1
  Tb  Tb4  1  0.376012  0.148402  0.115406  1
  Tb  Tb5  1  0.851598  0.623988  0.384594  1
  Tb  Tb6  1  0.148402  0.376012  0.884594  1
  Tb  Tb7  1  0.876012  0.351598  0.634594  1
  Ge  Ge8  1  0.653088  0.598497  0.869870  1
  Ge  Ge9  1  0.346912  0.401503  0.369870  1
  Ge  Ge10  1  0.598497  0.653088  0.130130  1
  Ge  Ge11  1  0.098497  0.846912  0.619870  1
  Ge  Ge12  1  0.901503  0.153088  0.119870  1
  Ge  Ge13  1  0.846912  0.098497  0.380130  1
  Ge  Ge14  1  0.153088  0.901503  0.880130  1
  Ge  Ge15  1  0.401503  0.346912  0.630130  1
  O  O16  1  0.303518  0.303518  0.500000  1
  O  O17  1  0.196482  0.803518  0.750000  1
  O  O18  1  0.803518  0.196482  0.250000  1
  O  O19  1  0.696482  0.696482  0.000000  1
  O  O20  1  0.529924  0.578201  0.373975  1
  O  O21  1  0.470076  0.421799  0.873975  1
  O  O22  1  0.578201  0.529924  0.626025  1
  O  O23  1  0.078201  0.970076  0.123975  1
  O  O24  1  0.921799  0.029924  0.623975  1
  O  O25  1  0.970076  0.078201  0.876025  1
  O  O26  1  0.029924  0.921799  0.376025  1
  O  O27  1  0.421799  0.470076  0.126025  1
  O  O28  1  0.814238  0.642954  0.204580  1
  O  O29  1  0.185762  0.357046  0.704580  1
  O  O30  1  0.642954  0.814238  0.795420  1
  O  O31  1  0.142954  0.685762  0.954580  1
  O  O32  1  0.063897  0.338399  0.071387  1
  O  O33  1  0.161601  0.563897  0.321387  1
  O  O34  1  0.838399  0.436103  0.821387  1
  O  O35  1  0.563897  0.161601  0.678613  1
  O  O36  1  0.436103  0.838399  0.178613  1
  O  O37  1  0.936103  0.661601  0.571387  1
  O  O38  1  0.338399  0.063897  0.928613  1
  O  O39  1  0.661601  0.936103  0.428613  1
  O  O40  1  0.357046  0.185762  0.295420  1
  O  O41  1  0.314238  0.857046  0.545420  1
  O  O42  1  0.685762  0.142954  0.045420  1
  O  O43  1  0.857046  0.314238  0.454580  1
