# generated using pymatgen
data_Ho2Ni(B2O5)2
_symmetry_space_group_name_H-M   'P 1'
_cell_length_a   4.54005610
_cell_length_b   7.27133138
_cell_length_c   9.41735220
_cell_angle_alpha   90.00000000
_cell_angle_beta   91.25912046
_cell_angle_gamma   90.00000000
_symmetry_Int_Tables_number   1
_chemical_formula_structural   Ho2Ni(B2O5)2
_chemical_formula_sum   'Ho4 Ni2 B8 O20'
_cell_volume   310.81294128
_cell_formula_units_Z   2
loop_
 _symmetry_equiv_pos_site_id
 _symmetry_equiv_pos_as_xyz
  1  'x, y, z'
loop_
 _atom_site_type_symbol
 _atom_site_label
 _atom_site_symmetry_multiplicity
 _atom_site_fract_x
 _atom_site_fract_y
 _atom_site_fract_z
 _atom_site_occupancy
  Ho  Ho0  1  0.004256  0.398798  0.664806  1
  Ho  Ho1  1  0.995744  0.898798  0.835194  1
  Ho  Ho2  1  0.004256  0.101202  0.164806  1
  Ho  Ho3  1  0.995744  0.601202  0.335194  1
  Ni  Ni4  1  0.000000  0.000000  0.500000  1
  Ni  Ni5  1  0.000000  0.500000  0.000000  1
  B  B6  1  0.529461  0.264602  0.415022  1
  B  B7  1  0.470539  0.764602  0.084978  1
  B  B8  1  0.470539  0.735398  0.584978  1
  B  B9  1  0.529461  0.235398  0.915022  1
  B  B10  1  0.535285  0.596030  0.838887  1
  B  B11  1  0.464715  0.096030  0.661113  1
  B  B12  1  0.464715  0.403970  0.161113  1
  B  B13  1  0.535285  0.903970  0.338887  1
  O  O14  1  0.777809  0.404334  0.166688  1
  O  O15  1  0.222191  0.595666  0.833312  1
  O  O16  1  0.678641  0.092018  0.357142  1
  O  O17  1  0.321359  0.592018  0.142858  1
  O  O18  1  0.321359  0.907982  0.642858  1
  O  O19  1  0.777809  0.095666  0.666688  1
  O  O20  1  0.666271  0.792916  0.462455  1
  O  O21  1  0.333729  0.292916  0.037545  1
  O  O22  1  0.333729  0.207084  0.537545  1
  O  O23  1  0.666271  0.707084  0.962455  1
  O  O24  1  0.671924  0.829917  0.204879  1
  O  O25  1  0.328076  0.329917  0.295121  1
  O  O26  1  0.328076  0.170083  0.795121  1
  O  O27  1  0.671924  0.670083  0.704879  1
  O  O28  1  0.751446  0.108779  0.960647  1
  O  O29  1  0.248554  0.608779  0.539353  1
  O  O30  1  0.248554  0.891221  0.039353  1
  O  O31  1  0.751446  0.391221  0.460647  1
  O  O32  1  0.678641  0.407982  0.857142  1
  O  O33  1  0.222191  0.904334  0.333312  1
