# generated using pymatgen
data_Cu6Sn5
_symmetry_space_group_name_H-M   'P 1'
_cell_length_a   6.67643880
_cell_length_b   6.67643880
_cell_length_c   9.85955746
_cell_angle_alpha   82.66643570
_cell_angle_beta   97.33356430
_cell_angle_gamma   112.35879269
_symmetry_Int_Tables_number   1
_chemical_formula_structural   Cu6Sn5
_chemical_formula_sum   'Cu12 Sn10'
_cell_volume   401.62127449
_cell_formula_units_Z   2
loop_
 _symmetry_equiv_pos_site_id
 _symmetry_equiv_pos_as_xyz
  1  'x, y, z'
loop_
 _atom_site_type_symbol
 _atom_site_label
 _atom_site_symmetry_multiplicity
 _atom_site_fract_x
 _atom_site_fract_y
 _atom_site_fract_z
 _atom_site_occupancy
  Cu  Cu0  1  0.371479  0.573600  0.297606  1
  Cu  Cu1  1  0.573600  0.371479  0.202394  1
  Cu  Cu2  1  0.628521  0.426400  0.702394  1
  Cu  Cu3  1  0.426400  0.628521  0.797606  1
  Cu  Cu4  1  0.198004  0.810918  0.889928  1
  Cu  Cu5  1  0.810918  0.198004  0.610072  1
  Cu  Cu6  1  0.801996  0.189082  0.110072  1
  Cu  Cu7  1  0.189082  0.801996  0.389928  1
  Cu  Cu8  1  0.000000  0.000000  0.500000  1
  Cu  Cu9  1  0.000000  0.000000  0.000000  1
  Cu  Cu10  1  0.159656  0.159656  0.250000  1
  Cu  Cu11  1  0.840344  0.840344  0.750000  1
  Sn  Sn12  1  0.771703  0.553610  0.970441  1
  Sn  Sn13  1  0.553610  0.771703  0.529559  1
  Sn  Sn14  1  0.228297  0.446390  0.029559  1
  Sn  Sn15  1  0.446390  0.228297  0.470441  1
  Sn  Sn16  1  0.368800  0.941184  0.142192  1
  Sn  Sn17  1  0.941184  0.368800  0.357808  1
  Sn  Sn18  1  0.631200  0.058816  0.857808  1
  Sn  Sn19  1  0.058816  0.631200  0.642192  1
  Sn  Sn20  1  0.799676  0.799676  0.250000  1
  Sn  Sn21  1  0.200324  0.200324  0.750000  1
