# generated using pymatgen
data_Sc15C19
_symmetry_space_group_name_H-M   'P 1'
_cell_length_a   7.54016977
_cell_length_b   7.54016977
_cell_length_c   14.66641715
_cell_angle_alpha   90.00000000
_cell_angle_beta   90.00000000
_cell_angle_gamma   90.00000000
_symmetry_Int_Tables_number   1
_chemical_formula_structural   Sc15C19
_chemical_formula_sum   'Sc30 C38'
_cell_volume   833.84682963
_cell_formula_units_Z   2
loop_
 _symmetry_equiv_pos_site_id
 _symmetry_equiv_pos_as_xyz
  1  'x, y, z'
loop_
 _atom_site_type_symbol
 _atom_site_label
 _atom_site_symmetry_multiplicity
 _atom_site_fract_x
 _atom_site_fract_y
 _atom_site_fract_z
 _atom_site_occupancy
  Sc  Sc0  1  0.500000  0.500000  0.500000  1
  Sc  Sc1  1  0.000000  0.000000  0.000000  1
  Sc  Sc2  1  0.000000  0.000000  0.333232  1
  Sc  Sc3  1  0.000000  0.000000  0.666768  1
  Sc  Sc4  1  0.500000  0.500000  0.166768  1
  Sc  Sc5  1  0.500000  0.500000  0.833232  1
  Sc  Sc6  1  0.598641  0.215949  0.646571  1
  Sc  Sc7  1  0.401359  0.784051  0.646571  1
  Sc  Sc8  1  0.284051  0.901359  0.146571  1
  Sc  Sc9  1  0.784051  0.598641  0.353429  1
  Sc  Sc10  1  0.215949  0.401359  0.353429  1
  Sc  Sc11  1  0.901359  0.715949  0.853429  1
  Sc  Sc12  1  0.098641  0.284051  0.853429  1
  Sc  Sc13  1  0.715949  0.098641  0.146571  1
  Sc  Sc14  1  0.784051  0.598641  0.646571  1
  Sc  Sc15  1  0.215949  0.401359  0.646571  1
  Sc  Sc16  1  0.901359  0.715949  0.146571  1
  Sc  Sc17  1  0.401359  0.784051  0.353429  1
  Sc  Sc18  1  0.598641  0.215949  0.353429  1
  Sc  Sc19  1  0.715949  0.098641  0.853429  1
  Sc  Sc20  1  0.284051  0.901359  0.853429  1
  Sc  Sc21  1  0.098641  0.284051  0.146571  1
  Sc  Sc22  1  0.703632  0.906519  0.500000  1
  Sc  Sc23  1  0.296368  0.093481  0.500000  1
  Sc  Sc24  1  0.593481  0.796368  0.000000  1
  Sc  Sc25  1  0.093481  0.703632  0.500000  1
  Sc  Sc26  1  0.906519  0.296368  0.500000  1
  Sc  Sc27  1  0.796368  0.406519  0.000000  1
  Sc  Sc28  1  0.203632  0.593481  0.000000  1
  Sc  Sc29  1  0.406519  0.203632  0.000000  1
  C  C30  1  0.500000  0.500000  0.000000  1
  C  C31  1  0.000000  0.000000  0.500000  1
  C  C32  1  0.500000  0.500000  0.660965  1
  C  C33  1  0.500000  0.500000  0.339035  1
  C  C34  1  0.000000  0.000000  0.839035  1
  C  C35  1  0.000000  0.000000  0.160965  1
  C  C36  1  0.905152  0.303403  0.666626  1
  C  C37  1  0.094848  0.696597  0.666626  1
  C  C38  1  0.196597  0.594848  0.166626  1
  C  C39  1  0.696597  0.905152  0.333374  1
  C  C40  1  0.303403  0.094848  0.333374  1
  C  C41  1  0.594848  0.803403  0.833374  1
  C  C42  1  0.405152  0.196597  0.833374  1
  C  C43  1  0.803403  0.405152  0.166626  1
  C  C44  1  0.651175  0.848825  0.750000  1
  C  C45  1  0.348825  0.151175  0.750000  1
  C  C46  1  0.603647  0.197956  0.500000  1
  C  C47  1  0.651175  0.848825  0.250000  1
  C  C48  1  0.848825  0.348825  0.250000  1
  C  C49  1  0.848825  0.348825  0.750000  1
  C  C50  1  0.151175  0.651175  0.750000  1
  C  C51  1  0.348825  0.151175  0.250000  1
  C  C52  1  0.696597  0.905152  0.666626  1
  C  C53  1  0.303403  0.094848  0.666626  1
  C  C54  1  0.594848  0.803403  0.166626  1
  C  C55  1  0.094848  0.696597  0.333374  1
  C  C56  1  0.905152  0.303403  0.333374  1
  C  C57  1  0.803403  0.405152  0.833374  1
  C  C58  1  0.196597  0.594848  0.833374  1
  C  C59  1  0.405152  0.196597  0.166626  1
  C  C60  1  0.697956  0.103647  0.000000  1
  C  C61  1  0.103647  0.302044  0.000000  1
  C  C62  1  0.896353  0.697956  0.000000  1
  C  C63  1  0.197956  0.396353  0.500000  1
  C  C64  1  0.802044  0.603647  0.500000  1
  C  C65  1  0.302044  0.896353  0.000000  1
  C  C66  1  0.396353  0.802044  0.500000  1
  C  C67  1  0.151175  0.651175  0.250000  1
