# generated using pymatgen
data_TbAlPd
_symmetry_space_group_name_H-M   'P 1'
_cell_length_a   4.46456040
_cell_length_b   6.95426957
_cell_length_c   7.80350085
_cell_angle_alpha   90.00000000
_cell_angle_beta   90.00000000
_cell_angle_gamma   90.00000000
_symmetry_Int_Tables_number   1
_chemical_formula_structural   TbAlPd
_chemical_formula_sum   'Tb4 Al4 Pd4'
_cell_volume   242.28119450
_cell_formula_units_Z   4
loop_
 _symmetry_equiv_pos_site_id
 _symmetry_equiv_pos_as_xyz
  1  'x, y, z'
loop_
 _atom_site_type_symbol
 _atom_site_label
 _atom_site_symmetry_multiplicity
 _atom_site_fract_x
 _atom_site_fract_y
 _atom_site_fract_z
 _atom_site_occupancy
  Tb  Tb0  1  0.250000  0.532568  0.819399  1
  Tb  Tb1  1  0.750000  0.467432  0.180601  1
  Tb  Tb2  1  0.250000  0.032568  0.680601  1
  Tb  Tb3  1  0.750000  0.967432  0.319399  1
  Al  Al4  1  0.250000  0.645014  0.436687  1
  Al  Al5  1  0.750000  0.354986  0.563313  1
  Al  Al6  1  0.250000  0.145014  0.063313  1
  Al  Al7  1  0.750000  0.854986  0.936687  1
  Pd  Pd8  1  0.750000  0.726346  0.616656  1
  Pd  Pd9  1  0.250000  0.273654  0.383344  1
  Pd  Pd10  1  0.750000  0.226346  0.883344  1
  Pd  Pd11  1  0.250000  0.773654  0.116656  1
