# generated using pymatgen
data_CrPO4
_symmetry_space_group_name_H-M   'P 1'
_cell_length_a   4.74057262
_cell_length_b   4.74057262
_cell_length_c   6.31542447
_cell_angle_alpha   90.00000000
_cell_angle_beta   90.00000000
_cell_angle_gamma   113.14432248
_symmetry_Int_Tables_number   1
_chemical_formula_structural   CrPO4
_chemical_formula_sum   'Cr2 P2 O8'
_cell_volume   130.50413036
_cell_formula_units_Z   2
loop_
 _symmetry_equiv_pos_site_id
 _symmetry_equiv_pos_as_xyz
  1  'x, y, z'
loop_
 _atom_site_type_symbol
 _atom_site_label
 _atom_site_symmetry_multiplicity
 _atom_site_fract_x
 _atom_site_fract_y
 _atom_site_fract_z
 _atom_site_occupancy
  Cr  Cr0  1  0.000000  0.000000  0.500000  1
  Cr  Cr1  1  0.000000  0.000000  0.000000  1
  P  P2  1  0.347794  0.652206  0.750000  1
  P  P3  1  0.652206  0.347794  0.250000  1
  O  O4  1  0.287015  0.221734  0.250000  1
  O  O5  1  0.712985  0.778266  0.750000  1
  O  O6  1  0.221734  0.287015  0.750000  1
  O  O7  1  0.778266  0.712985  0.250000  1
  O  O8  1  0.754438  0.245562  0.046798  1
  O  O9  1  0.245562  0.754438  0.546798  1
  O  O10  1  0.245562  0.754438  0.953202  1
  O  O11  1  0.754438  0.245562  0.453202  1
