# generated using pymatgen
data_CaAl2O4
_symmetry_space_group_name_H-M   'P 1'
_cell_length_a   2.89957647
_cell_length_b   9.00017894
_cell_length_c   10.41070175
_cell_angle_alpha   90.00000000
_cell_angle_beta   90.00000000
_cell_angle_gamma   90.00000000
_symmetry_Int_Tables_number   1
_chemical_formula_structural   CaAl2O4
_chemical_formula_sum   'Ca4 Al8 O16'
_cell_volume   271.68503407
_cell_formula_units_Z   4
loop_
 _symmetry_equiv_pos_site_id
 _symmetry_equiv_pos_as_xyz
  1  'x, y, z'
loop_
 _atom_site_type_symbol
 _atom_site_label
 _atom_site_symmetry_multiplicity
 _atom_site_fract_x
 _atom_site_fract_y
 _atom_site_fract_z
 _atom_site_occupancy
  Ca  Ca0  1  0.250000  0.742244  0.155414  1
  Ca  Ca1  1  0.750000  0.257756  0.844586  1
  Ca  Ca2  1  0.250000  0.242244  0.344586  1
  Ca  Ca3  1  0.750000  0.757756  0.655414  1
  Al  Al4  1  0.250000  0.081278  0.602933  1
  Al  Al5  1  0.750000  0.918722  0.397067  1
  Al  Al6  1  0.250000  0.581278  0.897067  1
  Al  Al7  1  0.750000  0.418722  0.102933  1
  Al  Al8  1  0.250000  0.061812  0.110993  1
  Al  Al9  1  0.750000  0.938188  0.889007  1
  Al  Al10  1  0.250000  0.561812  0.389007  1
  Al  Al11  1  0.750000  0.438188  0.610993  1
  O  O12  1  0.250000  0.077345  0.928134  1
  O  O13  1  0.750000  0.922655  0.071866  1
  O  O14  1  0.250000  0.577345  0.571866  1
  O  O15  1  0.750000  0.422655  0.428134  1
  O  O16  1  0.250000  0.973601  0.284532  1
  O  O17  1  0.750000  0.026399  0.715468  1
  O  O18  1  0.250000  0.473601  0.215468  1
  O  O19  1  0.750000  0.526399  0.784532  1
  O  O20  1  0.250000  0.385730  0.980367  1
  O  O21  1  0.750000  0.614270  0.019633  1
  O  O22  1  0.250000  0.885730  0.519633  1
  O  O23  1  0.750000  0.114270  0.480367  1
  O  O24  1  0.750000  0.203191  0.153790  1
  O  O25  1  0.250000  0.796809  0.846210  1
  O  O26  1  0.750000  0.703191  0.346210  1
  O  O27  1  0.250000  0.296809  0.653790  1
