# generated using pymatgen
data_Pr2AlCo2
_symmetry_space_group_name_H-M   'P 1'
_cell_length_a   5.59069687
_cell_length_b   5.59069687
_cell_length_c   7.65230245
_cell_angle_alpha   78.33470765
_cell_angle_beta   101.66529235
_cell_angle_gamma   119.03440720
_symmetry_Int_Tables_number   1
_chemical_formula_structural   Pr2AlCo2
_chemical_formula_sum   'Pr4 Al2 Co4'
_cell_volume   203.28411982
_cell_formula_units_Z   2
loop_
 _symmetry_equiv_pos_site_id
 _symmetry_equiv_pos_as_xyz
  1  'x, y, z'
loop_
 _atom_site_type_symbol
 _atom_site_label
 _atom_site_symmetry_multiplicity
 _atom_site_fract_x
 _atom_site_fract_y
 _atom_site_fract_z
 _atom_site_occupancy
  Pr  Pr0  1  0.789910  0.498067  0.146587  1
  Pr  Pr1  1  0.498067  0.789910  0.353413  1
  Pr  Pr2  1  0.210090  0.501933  0.853413  1
  Pr  Pr3  1  0.501933  0.210090  0.646587  1
  Al  Al4  1  0.117198  0.117198  0.250000  1
  Al  Al5  1  0.882802  0.882802  0.750000  1
  Co  Co6  1  0.998662  0.284547  0.495002  1
  Co  Co7  1  0.284547  0.998662  0.004998  1
  Co  Co8  1  0.715453  0.001338  0.995002  1
  Co  Co9  1  0.001338  0.715453  0.504998  1
