# generated using pymatgen
data_Nd3Au4
_symmetry_space_group_name_H-M   'P 1'
_cell_length_a   8.31825011
_cell_length_b   8.31825011
_cell_length_c   8.31825011
_cell_angle_alpha   114.03180653
_cell_angle_beta   114.03180653
_cell_angle_gamma   114.03180653
_symmetry_Int_Tables_number   1
_chemical_formula_structural   Nd3Au4
_chemical_formula_sum   'Nd6 Au8'
_cell_volume   348.86058925
_cell_formula_units_Z   2
loop_
 _symmetry_equiv_pos_site_id
 _symmetry_equiv_pos_as_xyz
  1  'x, y, z'
loop_
 _atom_site_type_symbol
 _atom_site_label
 _atom_site_symmetry_multiplicity
 _atom_site_fract_x
 _atom_site_fract_y
 _atom_site_fract_z
 _atom_site_occupancy
  Nd  Nd0  1  0.271324  0.015171  0.399055  1
  Nd  Nd1  1  0.015171  0.399055  0.271324  1
  Nd  Nd2  1  0.399055  0.271324  0.015171  1
  Nd  Nd3  1  0.728676  0.984829  0.600945  1
  Nd  Nd4  1  0.984829  0.600945  0.728676  1
  Nd  Nd5  1  0.600945  0.728676  0.984829  1
  Au  Au6  1  0.437789  0.928580  0.767271  1
  Au  Au7  1  0.928580  0.767271  0.437789  1
  Au  Au8  1  0.767271  0.437789  0.928580  1
  Au  Au9  1  0.562211  0.071420  0.232729  1
  Au  Au10  1  0.071420  0.232729  0.562211  1
  Au  Au11  1  0.232729  0.562211  0.071420  1
  Au  Au12  1  0.500000  0.500000  0.500000  1
  Au  Au13  1  0.000000  0.000000  0.000000  1
