# generated using pymatgen
data_Na2B4O7
_symmetry_space_group_name_H-M   'P 1'
_cell_length_a   7.72900329
_cell_length_b   7.72900329
_cell_length_c   21.69243800
_cell_angle_alpha   90.00000000
_cell_angle_beta   90.00000000
_cell_angle_gamma   120.00000000
_symmetry_Int_Tables_number   1
_chemical_formula_structural   Na2B4O7
_chemical_formula_sum   'Na18 B36 O63'
_cell_volume   1122.24061258
_cell_formula_units_Z   9
loop_
 _symmetry_equiv_pos_site_id
 _symmetry_equiv_pos_as_xyz
  1  'x, y, z'
loop_
 _atom_site_type_symbol
 _atom_site_label
 _atom_site_symmetry_multiplicity
 _atom_site_fract_x
 _atom_site_fract_y
 _atom_site_fract_z
 _atom_site_occupancy
  Na  Na0  1  0.994741  0.350093  0.505834  1
  Na  Na1  1  0.649907  0.644648  0.172501  1
  Na  Na2  1  0.355352  0.005259  0.839167  1
  Na  Na3  1  0.350093  0.994741  0.494166  1
  Na  Na4  1  0.644648  0.649907  0.827499  1
  Na  Na5  1  0.005259  0.355352  0.160833  1
  Na  Na6  1  0.293976  0.981462  0.332423  1
  Na  Na7  1  0.018538  0.312514  0.999090  1
  Na  Na8  1  0.687486  0.706024  0.665756  1
  Na  Na9  1  0.981462  0.293976  0.667577  1
  Na  Na10  1  0.312514  0.018538  0.000910  1
  Na  Na11  1  0.706024  0.687486  0.334244  1
  Na  Na12  1  0.000000  0.323554  0.333333  1
  Na  Na13  1  0.676446  0.676446  0.000000  1
  Na  Na14  1  0.323554  0.000000  0.666667  1
  Na  Na15  1  0.630739  0.630739  0.500000  1
  Na  Na16  1  0.369261  0.000000  0.166667  1
  Na  Na17  1  0.000000  0.369261  0.833333  1
  B  B18  1  0.015383  0.005112  0.436574  1
  B  B19  1  0.994888  0.010270  0.103240  1
  B  B20  1  0.989730  0.984617  0.769907  1
  B  B21  1  0.005112  0.015383  0.563426  1
  B  B22  1  0.010270  0.994888  0.896760  1
  B  B23  1  0.984617  0.989730  0.230093  1
  B  B24  1  0.685951  0.337719  0.407188  1
  B  B25  1  0.662281  0.348232  0.073854  1
  B  B26  1  0.651768  0.314049  0.740521  1
  B  B27  1  0.337719  0.685951  0.592812  1
  B  B28  1  0.348232  0.662281  0.926146  1
  B  B29  1  0.314049  0.651768  0.259479  1
  B  B30  1  0.325324  0.658205  0.387131  1
  B  B31  1  0.341795  0.667119  0.053798  1
  B  B32  1  0.332881  0.674676  0.720464  1
  B  B33  1  0.658205  0.325324  0.612869  1
  B  B34  1  0.667119  0.341795  0.946202  1
  B  B35  1  0.674676  0.332881  0.279536  1
  B  B36  1  0.671646  0.989454  0.417445  1
  B  B37  1  0.010546  0.682191  0.084111  1
  B  B38  1  0.317809  0.328354  0.750778  1
  B  B39  1  0.989454  0.671646  0.582555  1
  B  B40  1  0.682191  0.010546  0.915889  1
  B  B41  1  0.328354  0.317809  0.249222  1
  B  B42  1  0.339466  0.326299  0.406308  1
  B  B43  1  0.673701  0.013167  0.072975  1
  B  B44  1  0.986833  0.660534  0.739642  1
  B  B45  1  0.326299  0.339466  0.593692  1
  B  B46  1  0.013167  0.673701  0.927025  1
  B  B47  1  0.660534  0.986833  0.260358  1
  B  B48  1  0.008918  0.656248  0.428254  1
  B  B49  1  0.343752  0.352670  0.094920  1
  B  B50  1  0.647330  0.991082  0.761587  1
  B  B51  1  0.656248  0.008918  0.571746  1
  B  B52  1  0.352670  0.343752  0.905080  1
  B  B53  1  0.991082  0.647330  0.238413  1
  O  O54  1  0.798802  0.912136  0.421528  1
  O  O55  1  0.087864  0.886667  0.088194  1
  O  O56  1  0.113333  0.201198  0.754861  1
  O  O57  1  0.912136  0.798802  0.578472  1
  O  O58  1  0.886667  0.087864  0.911806  1
  O  O59  1  0.201198  0.113333  0.245139  1
  O  O60  1  0.138512  0.189472  0.398108  1
  O  O61  1  0.810528  0.949040  0.064774  1
  O  O62  1  0.050960  0.861488  0.731441  1
  O  O63  1  0.189472  0.138512  0.601892  1
  O  O64  1  0.949040  0.810528  0.935226  1
  O  O65  1  0.861488  0.050960  0.268559  1
  O  O66  1  0.078529  0.856402  0.418710  1
  O  O67  1  0.143598  0.222128  0.085377  1
  O  O68  1  0.777872  0.921471  0.752044  1
  O  O69  1  0.856402  0.078529  0.581290  1
  O  O70  1  0.222128  0.143598  0.914623  1
  O  O71  1  0.921471  0.777872  0.247956  1
  O  O72  1  0.066819  0.066819  0.500000  1
  O  O73  1  0.933181  0.000000  0.166667  1
  O  O74  1  0.000000  0.933181  0.833333  1
  O  O75  1  0.745045  0.189728  0.428097  1
  O  O76  1  0.810272  0.555318  0.094763  1
  O  O77  1  0.444682  0.254955  0.761430  1
  O  O78  1  0.189728  0.745045  0.571903  1
  O  O79  1  0.555318  0.810272  0.905237  1
  O  O80  1  0.254955  0.444682  0.238570  1
  O  O81  1  0.738648  0.391596  0.343017  1
  O  O82  1  0.608404  0.347052  0.009683  1
  O  O83  1  0.652948  0.261352  0.676350  1
  O  O84  1  0.391596  0.738648  0.656983  1
  O  O85  1  0.347052  0.608404  0.990317  1
  O  O86  1  0.261352  0.652948  0.323650  1
  O  O87  1  0.469700  0.257487  0.420296  1
  O  O88  1  0.742513  0.212213  0.086962  1
  O  O89  1  0.787787  0.530300  0.753629  1
  O  O90  1  0.257487  0.469700  0.579704  1
  O  O91  1  0.212213  0.742513  0.913038  1
  O  O92  1  0.530300  0.787787  0.246371  1
  O  O93  1  0.811079  0.524948  0.444156  1
  O  O94  1  0.475052  0.286131  0.110822  1
  O  O95  1  0.713869  0.188921  0.777489  1
  O  O96  1  0.524948  0.811079  0.555844  1
  O  O97  1  0.286131  0.475052  0.889178  1
  O  O98  1  0.188921  0.713869  0.222511  1
  O  O99  1  0.472786  0.868716  0.403986  1
  O  O100  1  0.131284  0.604069  0.070653  1
  O  O101  1  0.395931  0.527214  0.737319  1
  O  O102  1  0.868716  0.472786  0.596014  1
  O  O103  1  0.604069  0.131284  0.929347  1
  O  O104  1  0.527214  0.395931  0.262681  1
  O  O105  1  0.415486  0.529450  0.399358  1
  O  O106  1  0.470550  0.886036  0.066025  1
  O  O107  1  0.113964  0.584514  0.732691  1
  O  O108  1  0.529450  0.415486  0.600642  1
  O  O109  1  0.886036  0.470550  0.933975  1
  O  O110  1  0.584514  0.113964  0.267309  1
  O  O111  1  0.141266  0.584946  0.425490  1
  O  O112  1  0.415054  0.556320  0.092156  1
  O  O113  1  0.443680  0.858734  0.758823  1
  O  O114  1  0.584946  0.141266  0.574510  1
  O  O115  1  0.556320  0.415054  0.907844  1
  O  O116  1  0.858734  0.443680  0.241177  1
