# generated using pymatgen
data_SrY2Si3O10
_symmetry_space_group_name_H-M   'P 1'
_cell_length_a   6.83913369
_cell_length_b   6.98058298
_cell_length_c   9.39278870
_cell_angle_alpha   72.49251341
_cell_angle_beta   86.20443097
_cell_angle_gamma   87.80064415
_symmetry_Int_Tables_number   1
_chemical_formula_structural   SrY2Si3O10
_chemical_formula_sum   'Sr2 Y4 Si6 O20'
_cell_volume   426.63212683
_cell_formula_units_Z   2
loop_
 _symmetry_equiv_pos_site_id
 _symmetry_equiv_pos_as_xyz
  1  'x, y, z'
loop_
 _atom_site_type_symbol
 _atom_site_label
 _atom_site_symmetry_multiplicity
 _atom_site_fract_x
 _atom_site_fract_y
 _atom_site_fract_z
 _atom_site_occupancy
  Sr  Sr0  1  0.599243  0.906751  0.818095  1
  Sr  Sr1  1  0.400757  0.093249  0.181905  1
  Y  Y2  1  0.858919  0.246533  0.491173  1
  Y  Y3  1  0.141081  0.753467  0.508827  1
  Y  Y4  1  0.840722  0.736541  0.190376  1
  Y  Y5  1  0.159278  0.263459  0.809624  1
  Si  Si6  1  0.326652  0.273161  0.458114  1
  Si  Si7  1  0.673348  0.726839  0.541886  1
  Si  Si8  1  0.334250  0.641455  0.169216  1
  Si  Si9  1  0.665750  0.358545  0.830784  1
  Si  Si10  1  0.877416  0.254782  0.125577  1
  Si  Si11  1  0.122584  0.745218  0.874423  1
  O  O12  1  0.533623  0.210551  0.533075  1
  O  O13  1  0.466377  0.789449  0.466925  1
  O  O14  1  0.822373  0.603082  0.453598  1
  O  O15  1  0.177627  0.396918  0.546402  1
  O  O16  1  0.818351  0.900108  0.564330  1
  O  O17  1  0.181649  0.099892  0.435670  1
  O  O18  1  0.619189  0.586385  0.720121  1
  O  O19  1  0.380811  0.413615  0.279879  1
  O  O20  1  0.529943  0.776365  0.120473  1
  O  O21  1  0.470057  0.223635  0.879527  1
  O  O22  1  0.831129  0.242112  0.749234  1
  O  O23  1  0.168871  0.757888  0.250766  1
  O  O24  1  0.260661  0.614717  0.013086  1
  O  O25  1  0.739339  0.385283  0.986914  1
  O  O26  1  0.911680  0.791448  0.949167  1
  O  O27  1  0.088320  0.208552  0.050833  1
  O  O28  1  0.768207  0.044635  0.212759  1
  O  O29  1  0.231793  0.955365  0.787241  1
  O  O30  1  0.881630  0.392901  0.239986  1
  O  O31  1  0.118370  0.607099  0.760014  1
