# generated using pymatgen
data_FeSO4
_symmetry_space_group_name_H-M   'P 1'
_cell_length_a   4.85784627
_cell_length_b   4.85784627
_cell_length_c   6.73328420
_cell_angle_alpha   90.00000000
_cell_angle_beta   90.00000000
_cell_angle_gamma   113.86325270
_symmetry_Int_Tables_number   1
_chemical_formula_structural   FeSO4
_chemical_formula_sum   'Fe2 S2 O8'
_cell_volume   145.31306134
_cell_formula_units_Z   2
loop_
 _symmetry_equiv_pos_site_id
 _symmetry_equiv_pos_as_xyz
  1  'x, y, z'
loop_
 _atom_site_type_symbol
 _atom_site_label
 _atom_site_symmetry_multiplicity
 _atom_site_fract_x
 _atom_site_fract_y
 _atom_site_fract_z
 _atom_site_occupancy
  Fe  Fe0  1  0.000000  0.000000  0.500000  1
  Fe  Fe1  1  0.000000  0.000000  0.000000  1
  S  S2  1  0.346565  0.653435  0.750000  1
  S  S3  1  0.653435  0.346565  0.250000  1
  O  O4  1  0.314140  0.222510  0.250000  1
  O  O5  1  0.685860  0.777490  0.750000  1
  O  O6  1  0.222510  0.314140  0.750000  1
  O  O7  1  0.777490  0.685860  0.250000  1
  O  O8  1  0.752984  0.247016  0.067529  1
  O  O9  1  0.247016  0.752984  0.567529  1
  O  O10  1  0.247016  0.752984  0.932471  1
  O  O11  1  0.752984  0.247016  0.432471  1
