# generated using pymatgen
data_La2Ge5Rh3
_symmetry_space_group_name_H-M   'P 1'
_cell_length_a   8.56296892
_cell_length_b   8.56296892
_cell_length_c   8.56296892
_cell_angle_alpha   138.18793906
_cell_angle_beta   106.33866509
_cell_angle_gamma   88.47288499
_symmetry_Int_Tables_number   1
_chemical_formula_structural   La2Ge5Rh3
_chemical_formula_sum   'La4 Ge10 Rh6'
_cell_volume   384.90438023
_cell_formula_units_Z   2
loop_
 _symmetry_equiv_pos_site_id
 _symmetry_equiv_pos_as_xyz
  1  'x, y, z'
loop_
 _atom_site_type_symbol
 _atom_site_label
 _atom_site_symmetry_multiplicity
 _atom_site_fract_x
 _atom_site_fract_y
 _atom_site_fract_z
 _atom_site_occupancy
  La  La0  1  0.364631  0.132614  0.232017  1
  La  La1  1  0.635369  0.867386  0.767983  1
  La  La2  1  0.099403  0.367386  0.732017  1
  La  La3  1  0.900597  0.632614  0.267983  1
  Ge  Ge4  1  1.000000  0.250000  0.250000  1
  Ge  Ge5  1  0.000000  0.750000  0.750000  1
  Ge  Ge6  1  0.724911  0.974911  0.250000  1
  Ge  Ge7  1  0.275089  0.525089  0.250000  1
  Ge  Ge8  1  0.275089  0.025089  0.750000  1
  Ge  Ge9  1  0.724911  0.474911  0.750000  1
  Ge  Ge10  1  0.556880  0.399600  0.157280  1
  Ge  Ge11  1  0.242320  0.899600  0.342720  1
  Ge  Ge12  1  0.757680  0.100400  0.657280  1
  Ge  Ge13  1  0.443120  0.600400  0.842720  1
  Rh  Rh14  1  0.968332  0.860127  0.108205  1
  Rh  Rh15  1  0.500000  0.750000  0.250000  1
  Rh  Rh16  1  0.751921  0.360127  0.391795  1
  Rh  Rh17  1  0.248079  0.639873  0.608205  1
  Rh  Rh18  1  0.031668  0.139873  0.891795  1
  Rh  Rh19  1  0.500000  0.250000  0.750000  1
