# generated using pymatgen
data_ThRh
_symmetry_space_group_name_H-M   'P 1'
_cell_length_a   6.07142137
_cell_length_b   6.07142137
_cell_length_c   4.18803167
_cell_angle_alpha   90.00000000
_cell_angle_beta   90.00000000
_cell_angle_gamma   142.49682278
_symmetry_Int_Tables_number   1
_chemical_formula_structural   ThRh
_chemical_formula_sum   'Th2 Rh2'
_cell_volume   93.98730960
_cell_formula_units_Z   2
loop_
 _symmetry_equiv_pos_site_id
 _symmetry_equiv_pos_as_xyz
  1  'x, y, z'
loop_
 _atom_site_type_symbol
 _atom_site_label
 _atom_site_symmetry_multiplicity
 _atom_site_fract_x
 _atom_site_fract_y
 _atom_site_fract_z
 _atom_site_occupancy
  Th  Th0  1  0.864046  0.135954  0.250000  1
  Th  Th1  1  0.135954  0.864046  0.750000  1
  Rh  Rh2  1  0.598925  0.401075  0.250000  1
  Rh  Rh3  1  0.401075  0.598925  0.750000  1
