# generated using pymatgen
data_BaAl4O7
_symmetry_space_group_name_H-M   'P 1'
_cell_length_a   4.98027546
_cell_length_b   10.41318672
_cell_length_c   13.14671463
_cell_angle_alpha   90.00000000
_cell_angle_beta   90.00000000
_cell_angle_gamma   90.00000000
_symmetry_Int_Tables_number   1
_chemical_formula_structural   BaAl4O7
_chemical_formula_sum   'Ba4 Al16 O28'
_cell_volume   681.79569735
_cell_formula_units_Z   4
loop_
 _symmetry_equiv_pos_site_id
 _symmetry_equiv_pos_as_xyz
  1  'x, y, z'
loop_
 _atom_site_type_symbol
 _atom_site_label
 _atom_site_symmetry_multiplicity
 _atom_site_fract_x
 _atom_site_fract_y
 _atom_site_fract_z
 _atom_site_occupancy
  Ba  Ba0  1  0.792546  0.823454  0.750000  1
  Ba  Ba1  1  0.707454  0.323454  0.750000  1
  Ba  Ba2  1  0.207454  0.176546  0.250000  1
  Ba  Ba3  1  0.292546  0.676546  0.250000  1
  Al  Al4  1  0.705364  0.658766  0.498248  1
  Al  Al5  1  0.705364  0.658766  0.001752  1
  Al  Al6  1  0.794636  0.158766  0.001752  1
  Al  Al7  1  0.794636  0.158766  0.498248  1
  Al  Al8  1  0.205364  0.841234  0.501752  1
  Al  Al9  1  0.205364  0.841234  0.998248  1
  Al  Al10  1  0.294636  0.341234  0.998248  1
  Al  Al11  1  0.294636  0.341234  0.501752  1
  Al  Al12  1  0.713751  0.909123  0.368619  1
  Al  Al13  1  0.713751  0.909123  0.131381  1
  Al  Al14  1  0.786249  0.409123  0.131381  1
  Al  Al15  1  0.786249  0.409123  0.368619  1
  Al  Al16  1  0.213751  0.590877  0.631381  1
  Al  Al17  1  0.213751  0.590877  0.868619  1
  Al  Al18  1  0.286249  0.090877  0.868619  1
  Al  Al19  1  0.286249  0.090877  0.631381  1
  O  O20  1  0.289576  0.659221  0.750000  1
  O  O21  1  0.210424  0.159221  0.750000  1
  O  O22  1  0.789576  0.840779  0.250000  1
  O  O23  1  0.710424  0.340779  0.250000  1
  O  O24  1  0.864849  0.613786  0.611237  1
  O  O25  1  0.864849  0.613786  0.888763  1
  O  O26  1  0.635151  0.113786  0.888763  1
  O  O27  1  0.635151  0.113786  0.611237  1
  O  O28  1  0.366764  0.694225  0.535613  1
  O  O29  1  0.366764  0.694225  0.964387  1
  O  O30  1  0.133236  0.194225  0.964387  1
  O  O31  1  0.133236  0.194225  0.535613  1
  O  O32  1  0.364849  0.886214  0.388763  1
  O  O33  1  0.364849  0.886214  0.111237  1
  O  O34  1  0.135151  0.386214  0.111237  1
  O  O35  1  0.135151  0.386214  0.388763  1
  O  O36  1  0.688568  0.569252  0.386081  1
  O  O37  1  0.688568  0.569252  0.113919  1
  O  O38  1  0.811432  0.069252  0.113919  1
  O  O39  1  0.811432  0.069252  0.386081  1
  O  O40  1  0.188568  0.930748  0.613919  1
  O  O41  1  0.188568  0.930748  0.886081  1
  O  O42  1  0.311432  0.430748  0.886081  1
  O  O43  1  0.311432  0.430748  0.613919  1
  O  O44  1  0.866764  0.805775  0.464387  1
  O  O45  1  0.866764  0.805775  0.035613  1
  O  O46  1  0.633236  0.305775  0.035613  1
  O  O47  1  0.633236  0.305775  0.464387  1
