# generated using pymatgen
data_Sc2Cu2Ge4O13
_symmetry_space_group_name_H-M   'P 1'
_cell_length_a   4.98141913
_cell_length_b   8.87220479
_cell_length_c   12.43956725
_cell_angle_alpha   90.00000000
_cell_angle_beta   96.06367821
_cell_angle_gamma   90.00000000
_symmetry_Int_Tables_number   1
_chemical_formula_structural   Sc2Cu2Ge4O13
_chemical_formula_sum   'Sc4 Cu4 Ge8 O26'
_cell_volume   546.70527092
_cell_formula_units_Z   2
loop_
 _symmetry_equiv_pos_site_id
 _symmetry_equiv_pos_as_xyz
  1  'x, y, z'
loop_
 _atom_site_type_symbol
 _atom_site_label
 _atom_site_symmetry_multiplicity
 _atom_site_fract_x
 _atom_site_fract_y
 _atom_site_fract_z
 _atom_site_occupancy
  Sc  Sc0  1  0.046129  0.061782  0.372809  1
  Sc  Sc1  1  0.953871  0.561782  0.627191  1
  Sc  Sc2  1  0.953871  0.938218  0.627191  1
  Sc  Sc3  1  0.046129  0.438218  0.372809  1
  Cu  Cu4  1  0.047200  0.997709  0.122884  1
  Cu  Cu5  1  0.952800  0.497709  0.877116  1
  Cu  Cu6  1  0.952800  0.002291  0.877116  1
  Cu  Cu7  1  0.047200  0.502291  0.122884  1
  Ge  Ge8  1  0.397998  0.750000  0.485162  1
  Ge  Ge9  1  0.602002  0.250000  0.514838  1
  Ge  Ge10  1  0.609743  0.750000  0.007265  1
  Ge  Ge11  1  0.390257  0.250000  0.992735  1
  Ge  Ge12  1  0.675194  0.750000  0.248877  1
  Ge  Ge13  1  0.324806  0.250000  0.751123  1
  Ge  Ge14  1  0.509159  0.750000  0.767019  1
  Ge  Ge15  1  0.490841  0.250000  0.232981  1
  O  O16  1  0.197397  0.416997  0.995601  1
  O  O17  1  0.802603  0.916997  0.004399  1
  O  O18  1  0.802603  0.583003  0.004399  1
  O  O19  1  0.197397  0.083003  0.995601  1
  O  O20  1  0.709889  0.750000  0.567194  1
  O  O21  1  0.290111  0.250000  0.432806  1
  O  O22  1  0.124377  0.415353  0.747567  1
  O  O23  1  0.875623  0.915353  0.252433  1
  O  O24  1  0.875623  0.584647  0.252433  1
  O  O25  1  0.124377  0.084647  0.747567  1
  O  O26  1  0.792768  0.417048  0.505198  1
  O  O27  1  0.207232  0.917048  0.494802  1
  O  O28  1  0.207232  0.582952  0.494802  1
  O  O29  1  0.792768  0.082952  0.505198  1
  O  O30  1  0.446612  0.750000  0.127270  1
  O  O31  1  0.553388  0.250000  0.872730  1
  O  O32  1  0.788757  0.250000  0.323535  1
  O  O33  1  0.211243  0.750000  0.676465  1
  O  O34  1  0.547662  0.250000  0.653001  1
  O  O35  1  0.452338  0.750000  0.346999  1
  O  O36  1  0.634723  0.250000  0.106559  1
  O  O37  1  0.365277  0.750000  0.893441  1
  O  O38  1  0.286185  0.087344  0.241594  1
  O  O39  1  0.713815  0.587344  0.758406  1
  O  O40  1  0.713815  0.912656  0.758406  1
  O  O41  1  0.286185  0.412656  0.241594  1
