# generated using pymatgen
data_Mn2NbP12
_symmetry_space_group_name_H-M   'P 1'
_cell_length_a   8.56120708
_cell_length_b   8.56120708
_cell_length_c   10.68651143
_cell_angle_alpha   65.97038002
_cell_angle_beta   114.02961998
_cell_angle_gamma   140.46002207
_symmetry_Int_Tables_number   1
_chemical_formula_structural   Mn2NbP12
_chemical_formula_sum   'Mn4 Nb2 P24'
_cell_volume   449.53617239
_cell_formula_units_Z   2
loop_
 _symmetry_equiv_pos_site_id
 _symmetry_equiv_pos_as_xyz
  1  'x, y, z'
loop_
 _atom_site_type_symbol
 _atom_site_label
 _atom_site_symmetry_multiplicity
 _atom_site_fract_x
 _atom_site_fract_y
 _atom_site_fract_z
 _atom_site_occupancy
  Mn  Mn0  1  0.372028  0.007587  0.545664  1
  Mn  Mn1  1  0.007587  0.372028  0.954336  1
  Mn  Mn2  1  0.627972  0.992413  0.454336  1
  Mn  Mn3  1  0.992413  0.627972  0.045664  1
  Nb  Nb4  1  0.304134  0.304134  0.750000  1
  Nb  Nb5  1  0.695866  0.695866  0.250000  1
  P  P6  1  0.595975  0.048458  0.925820  1
  P  P7  1  0.048458  0.595975  0.574180  1
  P  P8  1  0.404025  0.951542  0.074180  1
  P  P9  1  0.951542  0.404025  0.425820  1
  P  P10  1  0.583118  0.708103  0.834698  1
  P  P11  1  0.708103  0.583118  0.665302  1
  P  P12  1  0.980170  0.667806  0.241872  1
  P  P13  1  0.667806  0.980170  0.258128  1
  P  P14  1  0.019830  0.332194  0.758128  1
  P  P15  1  0.332194  0.019830  0.741872  1
  P  P16  1  0.015902  0.082154  0.072265  1
  P  P17  1  0.082154  0.015902  0.427735  1
  P  P18  1  0.984098  0.917846  0.927735  1
  P  P19  1  0.917846  0.984098  0.572265  1
  P  P20  1  0.333161  0.567224  0.495843  1
  P  P21  1  0.567224  0.333161  0.004157  1
  P  P22  1  0.666839  0.432776  0.504157  1
  P  P23  1  0.432776  0.666839  0.995843  1
  P  P24  1  0.994773  0.350885  0.164414  1
  P  P25  1  0.350885  0.994773  0.335586  1
  P  P26  1  0.005227  0.649115  0.835586  1
  P  P27  1  0.649115  0.005227  0.664414  1
  P  P28  1  0.291897  0.416882  0.334698  1
  P  P29  1  0.416882  0.291897  0.165302  1
