# generated using pymatgen
data_RbVO3
_symmetry_space_group_name_H-M   'P 1'
_cell_length_a   5.49852840
_cell_length_b   5.82546751
_cell_length_c   11.62561857
_cell_angle_alpha   90.00000000
_cell_angle_beta   90.00000000
_cell_angle_gamma   90.00000000
_symmetry_Int_Tables_number   1
_chemical_formula_structural   RbVO3
_chemical_formula_sum   'Rb4 V4 O12'
_cell_volume   372.38598433
_cell_formula_units_Z   4
loop_
 _symmetry_equiv_pos_site_id
 _symmetry_equiv_pos_as_xyz
  1  'x, y, z'
loop_
 _atom_site_type_symbol
 _atom_site_label
 _atom_site_symmetry_multiplicity
 _atom_site_fract_x
 _atom_site_fract_y
 _atom_site_fract_z
 _atom_site_occupancy
  Rb  Rb0  1  0.935409  0.750000  0.897570  1
  Rb  Rb1  1  0.935409  0.250000  0.602430  1
  Rb  Rb2  1  0.064591  0.250000  0.102430  1
  Rb  Rb3  1  0.064591  0.750000  0.397570  1
  V  V4  1  0.473633  0.750000  0.665880  1
  V  V5  1  0.473633  0.250000  0.834120  1
  V  V6  1  0.526367  0.250000  0.334120  1
  V  V7  1  0.526367  0.750000  0.165880  1
  O  O8  1  0.428084  0.500000  0.250000  1
  O  O9  1  0.571916  0.000000  0.750000  1
  O  O10  1  0.571916  0.500000  0.750000  1
  O  O11  1  0.428084  0.000000  0.250000  1
  O  O12  1  0.614759  0.750000  0.538862  1
  O  O13  1  0.614759  0.250000  0.961138  1
  O  O14  1  0.385241  0.250000  0.461138  1
  O  O15  1  0.385241  0.750000  0.038862  1
  O  O16  1  0.829952  0.750000  0.148114  1
  O  O17  1  0.829952  0.250000  0.351886  1
  O  O18  1  0.170048  0.250000  0.851886  1
  O  O19  1  0.170048  0.750000  0.648114  1
