# generated using pymatgen
data_ThCo9Si2
_symmetry_space_group_name_H-M   'P 1'
_cell_length_a   7.56448267
_cell_length_b   7.56448267
_cell_length_c   7.56448267
_cell_angle_alpha   99.95121602
_cell_angle_beta   99.95121602
_cell_angle_gamma   130.87271421
_symmetry_Int_Tables_number   1
_chemical_formula_structural   ThCo9Si2
_chemical_formula_sum   'Th2 Co18 Si4'
_cell_volume   297.68511309
_cell_formula_units_Z   2
loop_
 _symmetry_equiv_pos_site_id
 _symmetry_equiv_pos_as_xyz
  1  'x, y, z'
loop_
 _atom_site_type_symbol
 _atom_site_label
 _atom_site_symmetry_multiplicity
 _atom_site_fract_x
 _atom_site_fract_y
 _atom_site_fract_z
 _atom_site_occupancy
  Th  Th0  1  0.250000  0.750000  0.500000  1
  Th  Th1  1  0.000000  0.000000  0.000000  1
  Co  Co2  1  0.500000  0.500000  0.000000  1
  Co  Co3  1  0.186674  0.517361  0.081653  1
  Co  Co4  1  0.435708  0.105021  0.918347  1
  Co  Co5  1  0.355021  0.936674  0.169313  1
  Co  Co6  1  0.063326  0.644979  0.830687  1
  Co  Co7  1  0.814292  0.232639  0.169313  1
  Co  Co8  1  0.767361  0.185708  0.830687  1
  Co  Co9  1  0.482639  0.813326  0.918347  1
  Co  Co10  1  0.482639  0.564292  0.669313  1
  Co  Co11  1  0.063326  0.232639  0.418347  1
  Co  Co12  1  0.814292  0.644979  0.581653  1
  Co  Co13  1  0.894979  0.813326  0.330687  1
  Co  Co14  1  0.186674  0.105021  0.669313  1
  Co  Co15  1  0.435708  0.517361  0.330687  1
  Co  Co16  1  0.355021  0.185708  0.418347  1
  Co  Co17  1  0.767361  0.936674  0.581653  1
  Co  Co18  1  0.894979  0.564292  0.081653  1
  Co  Co19  1  0.750000  0.250000  0.500000  1
  Si  Si20  1  0.625000  0.375000  0.250000  1
  Si  Si21  1  0.625000  0.375000  0.750000  1
  Si  Si22  1  0.625000  0.875000  0.250000  1
  Si  Si23  1  0.125000  0.375000  0.750000  1
