# generated using pymatgen
data_SmTaO4
_symmetry_space_group_name_H-M   'P 1'
_cell_length_a   5.23516297
_cell_length_b   5.60712311
_cell_length_c   5.42793825
_cell_angle_alpha   90.00000000
_cell_angle_beta   96.80373283
_cell_angle_gamma   90.00000000
_symmetry_Int_Tables_number   1
_chemical_formula_structural   SmTaO4
_chemical_formula_sum   'Sm2 Ta2 O8'
_cell_volume   158.21074795
_cell_formula_units_Z   2
loop_
 _symmetry_equiv_pos_site_id
 _symmetry_equiv_pos_as_xyz
  1  'x, y, z'
loop_
 _atom_site_type_symbol
 _atom_site_label
 _atom_site_symmetry_multiplicity
 _atom_site_fract_x
 _atom_site_fract_y
 _atom_site_fract_z
 _atom_site_occupancy
  Sm  Sm0  1  0.000000  0.765484  0.250000  1
  Sm  Sm1  1  0.000000  0.234516  0.750000  1
  Ta  Ta2  1  0.500000  0.688714  0.750000  1
  Ta  Ta3  1  0.500000  0.311286  0.250000  1
  O  O4  1  0.272687  0.563195  0.993121  1
  O  O5  1  0.727313  0.563195  0.506879  1
  O  O6  1  0.727313  0.436805  0.006879  1
  O  O7  1  0.272687  0.436805  0.493121  1
  O  O8  1  0.746523  0.091114  0.392793  1
  O  O9  1  0.253477  0.091114  0.107207  1
  O  O10  1  0.253477  0.908886  0.607207  1
  O  O11  1  0.746523  0.908886  0.892793  1
