# generated using pymatgen
data_TmSi3Rh5
_symmetry_space_group_name_H-M   'P 1'
_cell_length_a   15.61521273
_cell_length_b   15.61521273
_cell_length_c   3.86985958
_cell_angle_alpha   90.00000000
_cell_angle_beta   90.00000000
_cell_angle_gamma   120.00000000
_symmetry_Int_Tables_number   1
_chemical_formula_structural   TmSi3Rh5
_chemical_formula_sum   'Tm6 Si18 Rh30'
_cell_volume   817.18737548
_cell_formula_units_Z   6
loop_
 _symmetry_equiv_pos_site_id
 _symmetry_equiv_pos_as_xyz
  1  'x, y, z'
loop_
 _atom_site_type_symbol
 _atom_site_label
 _atom_site_symmetry_multiplicity
 _atom_site_fract_x
 _atom_site_fract_y
 _atom_site_fract_z
 _atom_site_occupancy
  Tm  Tm0  1  0.605723  0.899912  0.250000  1
  Tm  Tm1  1  0.705811  0.605723  0.750000  1
  Tm  Tm2  1  0.899912  0.294189  0.750000  1
  Tm  Tm3  1  0.100088  0.705811  0.250000  1
  Tm  Tm4  1  0.294189  0.394277  0.250000  1
  Tm  Tm5  1  0.394277  0.100088  0.750000  1
  Si  Si6  1  0.442065  0.760773  0.750000  1
  Si  Si7  1  0.681292  0.442065  0.250000  1
  Si  Si8  1  0.760773  0.318708  0.250000  1
  Si  Si9  1  0.239227  0.681292  0.750000  1
  Si  Si10  1  0.318708  0.557935  0.750000  1
  Si  Si11  1  0.557935  0.239227  0.250000  1
  Si  Si12  1  0.880957  0.131481  0.250000  1
  Si  Si13  1  0.119043  0.868519  0.750000  1
  Si  Si14  1  0.131481  0.250524  0.750000  1
  Si  Si15  1  0.250524  0.119043  0.250000  1
  Si  Si16  1  0.370603  0.938680  0.250000  1
  Si  Si17  1  0.431923  0.370603  0.750000  1
  Si  Si18  1  0.938680  0.568077  0.750000  1
  Si  Si19  1  0.061320  0.431923  0.250000  1
  Si  Si20  1  0.568077  0.629397  0.250000  1
  Si  Si21  1  0.629397  0.061320  0.750000  1
  Si  Si22  1  0.749476  0.880957  0.750000  1
  Si  Si23  1  0.868519  0.749476  0.250000  1
  Rh  Rh24  1  0.463817  0.924858  0.750000  1
  Rh  Rh25  1  0.154085  0.414104  0.750000  1
  Rh  Rh26  1  0.260018  0.845915  0.750000  1
  Rh  Rh27  1  0.739982  0.154085  0.250000  1
  Rh  Rh28  1  0.845915  0.585896  0.250000  1
  Rh  Rh29  1  0.414104  0.260018  0.250000  1
  Rh  Rh30  1  0.652473  0.223388  0.750000  1
  Rh  Rh31  1  0.429085  0.652473  0.250000  1
  Rh  Rh32  1  0.223388  0.570915  0.250000  1
  Rh  Rh33  1  0.776612  0.429085  0.750000  1
  Rh  Rh34  1  0.570915  0.347527  0.750000  1
  Rh  Rh35  1  0.347527  0.776612  0.250000  1
  Rh  Rh36  1  0.140710  0.028289  0.750000  1
  Rh  Rh37  1  0.112421  0.140710  0.250000  1
  Rh  Rh38  1  0.028289  0.887579  0.250000  1
  Rh  Rh39  1  0.971711  0.112421  0.750000  1
  Rh  Rh40  1  0.887579  0.859290  0.750000  1
  Rh  Rh41  1  0.859290  0.971711  0.250000  1
  Rh  Rh42  1  0.924858  0.461041  0.250000  1
  Rh  Rh43  1  0.075142  0.538959  0.750000  1
  Rh  Rh44  1  0.461041  0.536183  0.750000  1
  Rh  Rh45  1  0.536183  0.075142  0.250000  1
  Rh  Rh46  1  0.728960  0.772852  0.250000  1
  Rh  Rh47  1  0.956107  0.728960  0.750000  1
  Rh  Rh48  1  0.772852  0.043893  0.750000  1
  Rh  Rh49  1  0.227148  0.956107  0.250000  1
  Rh  Rh50  1  0.043893  0.271040  0.250000  1
  Rh  Rh51  1  0.271040  0.227148  0.750000  1
  Rh  Rh52  1  0.585896  0.739982  0.750000  1
  Rh  Rh53  1  0.538959  0.463817  0.250000  1
