# generated using pymatgen
data_BaIrF6
_symmetry_space_group_name_H-M   'P 1'
_cell_length_a   5.03696068
_cell_length_b   5.03696068
_cell_length_c   5.03696068
_cell_angle_alpha   98.18718407
_cell_angle_beta   98.18718407
_cell_angle_gamma   98.18718407
_symmetry_Int_Tables_number   1
_chemical_formula_structural   BaIrF6
_chemical_formula_sum   'Ba1 Ir1 F6'
_cell_volume   123.46274209
_cell_formula_units_Z   1
loop_
 _symmetry_equiv_pos_site_id
 _symmetry_equiv_pos_as_xyz
  1  'x, y, z'
loop_
 _atom_site_type_symbol
 _atom_site_label
 _atom_site_symmetry_multiplicity
 _atom_site_fract_x
 _atom_site_fract_y
 _atom_site_fract_z
 _atom_site_occupancy
  Ba  Ba0  1  0.500000  0.500000  0.500000  1
  Ir  Ir1  1  1.000000  0.000000  0.000000  1
  F  F2  1  0.070341  0.697900  0.739626  1
  F  F3  1  0.929659  0.302100  0.260374  1
  F  F4  1  0.302100  0.260374  0.929659  1
  F  F5  1  0.260374  0.929659  0.302100  1
  F  F6  1  0.697900  0.739626  0.070341  1
  F  F7  1  0.739626  0.070341  0.697900  1
