# generated using pymatgen
data_Cs3GeF7
_symmetry_space_group_name_H-M   'P 1'
_cell_length_a   8.58169747
_cell_length_b   8.58169747
_cell_length_c   6.33167825
_cell_angle_alpha   90.00000000
_cell_angle_beta   90.00000000
_cell_angle_gamma   90.00000000
_symmetry_Int_Tables_number   1
_chemical_formula_structural   Cs3GeF7
_chemical_formula_sum   'Cs6 Ge2 F14'
_cell_volume   466.29980980
_cell_formula_units_Z   2
loop_
 _symmetry_equiv_pos_site_id
 _symmetry_equiv_pos_as_xyz
  1  'x, y, z'
loop_
 _atom_site_type_symbol
 _atom_site_label
 _atom_site_symmetry_multiplicity
 _atom_site_fract_x
 _atom_site_fract_y
 _atom_site_fract_z
 _atom_site_occupancy
  Cs  Cs0  1  0.194959  0.694959  0.500000  1
  Cs  Cs1  1  0.694959  0.805041  0.500000  1
  Cs  Cs2  1  0.305041  0.194959  0.500000  1
  Cs  Cs3  1  0.805041  0.305041  0.500000  1
  Cs  Cs4  1  0.500000  0.500000  0.000000  1
  Cs  Cs5  1  0.000000  0.000000  0.000000  1
  Ge  Ge6  1  0.000000  0.500000  0.000000  1
  Ge  Ge7  1  0.500000  0.000000  0.000000  1
  F  F8  1  0.500000  0.500000  0.500000  1
  F  F9  1  0.000000  0.000000  0.500000  1
  F  F10  1  0.393678  0.893678  0.792925  1
  F  F11  1  0.606322  0.106322  0.792925  1
  F  F12  1  0.106322  0.393678  0.792925  1
  F  F13  1  0.893678  0.606322  0.792925  1
  F  F14  1  0.393678  0.893678  0.207075  1
  F  F15  1  0.893678  0.606322  0.207075  1
  F  F16  1  0.848739  0.348739  0.000000  1
  F  F17  1  0.348739  0.151261  0.000000  1
  F  F18  1  0.651261  0.848739  0.000000  1
  F  F19  1  0.151261  0.651261  0.000000  1
  F  F20  1  0.606322  0.106322  0.207075  1
  F  F21  1  0.106322  0.393678  0.207075  1
