# generated using pymatgen
data_Na4Fe2O5
_symmetry_space_group_name_H-M   'P 1'
_cell_length_a   9.25428264
_cell_length_b   5.77272612
_cell_length_c   13.12653559
_cell_angle_alpha   90.00000000
_cell_angle_beta   117.93359941
_cell_angle_gamma   90.00000000
_symmetry_Int_Tables_number   1
_chemical_formula_structural   Na4Fe2O5
_chemical_formula_sum   'Na16 Fe8 O20'
_cell_volume   619.54948438
_cell_formula_units_Z   4
loop_
 _symmetry_equiv_pos_site_id
 _symmetry_equiv_pos_as_xyz
  1  'x, y, z'
loop_
 _atom_site_type_symbol
 _atom_site_label
 _atom_site_symmetry_multiplicity
 _atom_site_fract_x
 _atom_site_fract_y
 _atom_site_fract_z
 _atom_site_occupancy
  Na  Na0  1  0.194470  0.926746  0.032901  1
  Na  Na1  1  0.805530  0.426746  0.467099  1
  Na  Na2  1  0.606292  0.114216  0.121999  1
  Na  Na3  1  0.194470  0.573254  0.532901  1
  Na  Na4  1  0.297623  0.410682  0.962183  1
  Na  Na5  1  0.702377  0.910682  0.537817  1
  Na  Na6  1  0.702377  0.589318  0.037817  1
  Na  Na7  1  0.297623  0.089318  0.462183  1
  Na  Na8  1  0.870324  0.619439  0.866834  1
  Na  Na9  1  0.129676  0.119439  0.633166  1
  Na  Na10  1  0.129676  0.380561  0.133166  1
  Na  Na11  1  0.870324  0.880561  0.366834  1
  Na  Na12  1  0.606292  0.385784  0.621999  1
  Na  Na13  1  0.393708  0.885784  0.878001  1
  Na  Na14  1  0.393708  0.614216  0.378001  1
  Na  Na15  1  0.805530  0.073254  0.967099  1
  Fe  Fe16  1  0.044109  0.658053  0.703352  1
  Fe  Fe17  1  0.955891  0.341947  0.296648  1
  Fe  Fe18  1  0.044109  0.841947  0.203352  1
  Fe  Fe19  1  0.542598  0.614592  0.199482  1
  Fe  Fe20  1  0.457402  0.114592  0.300518  1
  Fe  Fe21  1  0.457402  0.385408  0.800518  1
  Fe  Fe22  1  0.542598  0.885408  0.699482  1
  Fe  Fe23  1  0.955891  0.158053  0.796648  1
  O  O24  1  0.112092  0.933336  0.799673  1
  O  O25  1  0.419494  0.329463  0.176723  1
  O  O26  1  0.419494  0.170537  0.676723  1
  O  O27  1  0.580506  0.670537  0.823277  1
  O  O28  1  0.031376  0.259728  0.946960  1
  O  O29  1  0.968624  0.759728  0.553040  1
  O  O30  1  0.968624  0.740272  0.053040  1
  O  O31  1  0.031376  0.240272  0.446960  1
  O  O32  1  0.446619  0.761368  0.057349  1
  O  O33  1  0.553381  0.261368  0.442651  1
  O  O34  1  0.553381  0.238632  0.942651  1
  O  O35  1  0.446619  0.738632  0.557349  1
  O  O36  1  0.758979  0.981278  0.738799  1
  O  O37  1  0.580506  0.829463  0.323277  1
  O  O38  1  0.241021  0.481278  0.761201  1
  O  O39  1  0.241021  0.018722  0.261201  1
  O  O40  1  0.887908  0.433336  0.700327  1
  O  O41  1  0.887908  0.066664  0.200327  1
  O  O42  1  0.112092  0.566664  0.299673  1
  O  O43  1  0.758979  0.518722  0.238799  1
