# generated using pymatgen
data_MnCu2SiS4
_symmetry_space_group_name_H-M   'P 1'
_cell_length_a   6.18421745
_cell_length_b   6.41333229
_cell_length_c   7.50745631
_cell_angle_alpha   90.00000000
_cell_angle_beta   90.00000000
_cell_angle_gamma   90.00000000
_symmetry_Int_Tables_number   1
_chemical_formula_structural   MnCu2SiS4
_chemical_formula_sum   'Mn2 Cu4 Si2 S8'
_cell_volume   297.75653896
_cell_formula_units_Z   2
loop_
 _symmetry_equiv_pos_site_id
 _symmetry_equiv_pos_as_xyz
  1  'x, y, z'
loop_
 _atom_site_type_symbol
 _atom_site_label
 _atom_site_symmetry_multiplicity
 _atom_site_fract_x
 _atom_site_fract_y
 _atom_site_fract_z
 _atom_site_occupancy
  Mn  Mn0  1  0.330326  0.154826  0.500000  1
  Mn  Mn1  1  0.830326  0.845174  0.000000  1
  Cu  Cu2  1  0.320565  0.677513  0.248293  1
  Cu  Cu3  1  0.820565  0.322487  0.251707  1
  Cu  Cu4  1  0.320565  0.677513  0.751707  1
  Cu  Cu5  1  0.820565  0.322487  0.748293  1
  Si  Si6  1  0.330838  0.175576  0.000000  1
  Si  Si7  1  0.830838  0.824424  0.500000  1
  S  S8  1  0.981642  0.187655  0.000000  1
  S  S9  1  0.481642  0.812345  0.500000  1
  S  S10  1  0.449991  0.336086  0.766896  1
  S  S11  1  0.949991  0.663914  0.733104  1
  S  S12  1  0.941182  0.143082  0.500000  1
  S  S13  1  0.441182  0.856918  0.000000  1
  S  S14  1  0.449991  0.336086  0.233104  1
  S  S15  1  0.949991  0.663914  0.266896  1
