# generated using pymatgen
data_CsB3PbF12
_symmetry_space_group_name_H-M   'P 1'
_cell_length_a   6.89184781
_cell_length_b   6.89184781
_cell_length_c   6.86533571
_cell_angle_alpha   89.17141027
_cell_angle_beta   90.82858973
_cell_angle_gamma   85.43725129
_symmetry_Int_Tables_number   1
_chemical_formula_structural   CsB3PbF12
_chemical_formula_sum   'Cs1 B3 Pb1 F12'
_cell_volume   324.97944707
_cell_formula_units_Z   1
loop_
 _symmetry_equiv_pos_site_id
 _symmetry_equiv_pos_as_xyz
  1  'x, y, z'
loop_
 _atom_site_type_symbol
 _atom_site_label
 _atom_site_symmetry_multiplicity
 _atom_site_fract_x
 _atom_site_fract_y
 _atom_site_fract_z
 _atom_site_occupancy
  Cs  Cs0  1  0.521502  0.478498  0.590726  1
  B  B1  1  0.991782  0.008218  0.512165  1
  B  B2  1  0.493545  0.977242  0.979682  1
  B  B3  1  0.022758  0.506455  0.979682  1
  Pb  Pb4  1  0.951525  0.048475  0.065110  1
  F  F5  1  0.162783  0.063564  0.421200  1
  F  F6  1  0.936436  0.837217  0.421200  1
  F  F7  1  0.841234  0.158766  0.480994  1
  F  F8  1  0.027617  0.972383  0.714084  1
  F  F9  1  0.617617  0.101698  0.875844  1
  F  F10  1  0.476822  0.806848  0.877746  1
  F  F11  1  0.307631  0.081965  0.998186  1
  F  F12  1  0.580528  0.941269  0.165819  1
  F  F13  1  0.193152  0.523178  0.877746  1
  F  F14  1  0.898302  0.382383  0.875844  1
  F  F15  1  0.918035  0.692369  0.998186  1
  F  F16  1  0.058731  0.419472  0.165819  1
