# generated using pymatgen
data_Ag(AuF4)2
_symmetry_space_group_name_H-M   'P 1'
_cell_length_a   5.54118685
_cell_length_b   11.38463810
_cell_length_c   7.65634201
_cell_angle_alpha   90.00000000
_cell_angle_beta   132.34224617
_cell_angle_gamma   90.00000000
_symmetry_Int_Tables_number   1
_chemical_formula_structural   Ag(AuF4)2
_chemical_formula_sum   'Ag2 Au4 F16'
_cell_volume   356.99893187
_cell_formula_units_Z   2
loop_
 _symmetry_equiv_pos_site_id
 _symmetry_equiv_pos_as_xyz
  1  'x, y, z'
loop_
 _atom_site_type_symbol
 _atom_site_label
 _atom_site_symmetry_multiplicity
 _atom_site_fract_x
 _atom_site_fract_y
 _atom_site_fract_z
 _atom_site_occupancy
  Ag  Ag0  1  0.500000  0.500000  0.500000  1
  Ag  Ag1  1  0.500000  0.000000  0.000000  1
  Au  Au2  1  0.255681  0.680218  0.986779  1
  Au  Au3  1  0.744319  0.180218  0.513221  1
  Au  Au4  1  0.255681  0.819782  0.486779  1
  Au  Au5  1  0.744319  0.319782  0.013221  1
  F  F6  1  0.442015  0.225225  0.729813  1
  F  F7  1  0.557985  0.725225  0.770187  1
  F  F8  1  0.557985  0.774775  0.270187  1
  F  F9  1  0.442015  0.274775  0.229813  1
  F  F10  1  0.890640  0.173918  0.194666  1
  F  F11  1  0.109360  0.673918  0.305334  1
  F  F12  1  0.035035  0.086802  0.810485  1
  F  F13  1  0.964965  0.586802  0.689515  1
  F  F14  1  0.964965  0.913198  0.189515  1
  F  F15  1  0.035035  0.413198  0.310485  1
  F  F16  1  0.595442  0.031744  0.329951  1
  F  F17  1  0.404558  0.531744  0.170049  1
  F  F18  1  0.404558  0.968256  0.670049  1
  F  F19  1  0.595442  0.468256  0.829951  1
  F  F20  1  0.890640  0.326082  0.694666  1
  F  F21  1  0.109360  0.826082  0.805334  1
