# generated using pymatgen
data_Nb3VS6
_symmetry_space_group_name_H-M   'P 1'
_cell_length_a   5.81327248
_cell_length_b   5.81327248
_cell_length_c   12.23019504
_cell_angle_alpha   90.00000000
_cell_angle_beta   90.00000000
_cell_angle_gamma   120.00000000
_symmetry_Int_Tables_number   1
_chemical_formula_structural   Nb3VS6
_chemical_formula_sum   'Nb6 V2 S12'
_cell_volume   357.93599490
_cell_formula_units_Z   2
loop_
 _symmetry_equiv_pos_site_id
 _symmetry_equiv_pos_as_xyz
  1  'x, y, z'
loop_
 _atom_site_type_symbol
 _atom_site_label
 _atom_site_symmetry_multiplicity
 _atom_site_fract_x
 _atom_site_fract_y
 _atom_site_fract_z
 _atom_site_occupancy
  Nb  Nb0  1  0.333333  0.666667  0.502358  1
  Nb  Nb1  1  0.666667  0.333333  0.002358  1
  Nb  Nb2  1  0.666667  0.333333  0.497642  1
  Nb  Nb3  1  0.333333  0.666667  0.997642  1
  Nb  Nb4  1  0.000000  0.000000  0.500000  1
  Nb  Nb5  1  0.000000  0.000000  0.000000  1
  V  V6  1  0.666667  0.333333  0.750000  1
  V  V7  1  0.333333  0.666667  0.250000  1
  S  S8  1  0.665182  0.668614  0.371033  1
  S  S9  1  0.331386  0.996569  0.371033  1
  S  S10  1  0.003431  0.334818  0.371033  1
  S  S11  1  0.996569  0.665182  0.871033  1
  S  S12  1  0.334818  0.003431  0.628967  1
  S  S13  1  0.334818  0.331386  0.871033  1
  S  S14  1  0.668614  0.003431  0.871033  1
  S  S15  1  0.331386  0.334818  0.128967  1
  S  S16  1  0.665182  0.996569  0.128967  1
  S  S17  1  0.668614  0.665182  0.628967  1
  S  S18  1  0.996569  0.331386  0.628967  1
  S  S19  1  0.003431  0.668614  0.128967  1
