# generated using pymatgen
data_LaSi
_symmetry_space_group_name_H-M   'P 1'
_cell_length_a   4.00704315
_cell_length_b   6.05213530
_cell_length_c   8.45546334
_cell_angle_alpha   90.00000000
_cell_angle_beta   90.00000000
_cell_angle_gamma   90.00000000
_symmetry_Int_Tables_number   1
_chemical_formula_structural   LaSi
_chemical_formula_sum   'La4 Si4'
_cell_volume   205.05485603
_cell_formula_units_Z   4
loop_
 _symmetry_equiv_pos_site_id
 _symmetry_equiv_pos_as_xyz
  1  'x, y, z'
loop_
 _atom_site_type_symbol
 _atom_site_label
 _atom_site_symmetry_multiplicity
 _atom_site_fract_x
 _atom_site_fract_y
 _atom_site_fract_z
 _atom_site_occupancy
  La  La0  1  0.250000  0.386800  0.679726  1
  La  La1  1  0.750000  0.613200  0.320274  1
  La  La2  1  0.750000  0.886800  0.820274  1
  La  La3  1  0.250000  0.113200  0.179726  1
  Si  Si4  1  0.250000  0.883249  0.533326  1
  Si  Si5  1  0.750000  0.116751  0.466674  1
  Si  Si6  1  0.750000  0.383249  0.966674  1
  Si  Si7  1  0.250000  0.616751  0.033326  1
