# generated using pymatgen
data_SrSnO3
_symmetry_space_group_name_H-M   'P 1'
_cell_length_a   5.82294058
_cell_length_b   5.82294058
_cell_length_c   5.82294058
_cell_angle_alpha   120.91080724
_cell_angle_beta   120.91080724
_cell_angle_gamma   88.42954460
_symmetry_Int_Tables_number   1
_chemical_formula_structural   SrSnO3
_chemical_formula_sum   'Sr2 Sn2 O6'
_cell_volume   137.63049362
_cell_formula_units_Z   2
loop_
 _symmetry_equiv_pos_site_id
 _symmetry_equiv_pos_as_xyz
  1  'x, y, z'
loop_
 _atom_site_type_symbol
 _atom_site_label
 _atom_site_symmetry_multiplicity
 _atom_site_fract_x
 _atom_site_fract_y
 _atom_site_fract_z
 _atom_site_occupancy
  Sr  Sr0  1  0.750000  0.250000  0.500000  1
  Sr  Sr1  1  0.250000  0.750000  0.500000  1
  Sn  Sn2  1  0.000000  0.000000  0.000000  1
  Sn  Sn3  1  0.500000  0.500000  0.000000  1
  O  O4  1  0.306467  0.806467  0.112934  1
  O  O5  1  0.806467  0.693533  0.500000  1
  O  O6  1  0.193533  0.306467  0.500000  1
  O  O7  1  0.693533  0.193533  0.887066  1
  O  O8  1  0.250000  0.250000  0.000000  1
  O  O9  1  0.750000  0.750000  0.000000  1
