# generated using pymatgen
data_CeAlO3
_symmetry_space_group_name_H-M   'P 1'
_cell_length_a   5.36448043
_cell_length_b   5.36448043
_cell_length_c   5.36448043
_cell_angle_alpha   119.92756593
_cell_angle_beta   119.55302236
_cell_angle_gamma   90.45071907
_symmetry_Int_Tables_number   1
_chemical_formula_structural   CeAlO3
_chemical_formula_sum   'Ce2 Al2 O6'
_cell_volume   109.58450947
_cell_formula_units_Z   2
loop_
 _symmetry_equiv_pos_site_id
 _symmetry_equiv_pos_as_xyz
  1  'x, y, z'
loop_
 _atom_site_type_symbol
 _atom_site_label
 _atom_site_symmetry_multiplicity
 _atom_site_fract_x
 _atom_site_fract_y
 _atom_site_fract_z
 _atom_site_occupancy
  Ce  Ce0  1  0.748160  0.750000  0.498160  1
  Ce  Ce1  1  0.251840  0.250000  0.501840  1
  Al  Al2  1  0.500000  0.000000  1.000000  1
  Al  Al3  1  0.000000  0.500000  1.000000  1
  O  O4  1  0.721383  0.721383  0.000000  1
  O  O5  1  0.278617  0.778617  0.500000  1
  O  O6  1  0.278617  0.278617  0.000000  1
  O  O7  1  0.721383  0.221383  0.500000  1
  O  O8  1  0.804818  0.250000  0.054818  1
  O  O9  1  0.195182  0.750000  0.945182  1
