# generated using pymatgen
data_Tl3PS4
_symmetry_space_group_name_H-M   'P 1'
_cell_length_a   9.11052482
_cell_length_b   9.23742085
_cell_length_c   11.14442909
_cell_angle_alpha   90.00000000
_cell_angle_beta   90.00000000
_cell_angle_gamma   90.00000000
_symmetry_Int_Tables_number   1
_chemical_formula_structural   Tl3PS4
_chemical_formula_sum   'Tl12 P4 S16'
_cell_volume   937.89009872
_cell_formula_units_Z   4
loop_
 _symmetry_equiv_pos_site_id
 _symmetry_equiv_pos_as_xyz
  1  'x, y, z'
loop_
 _atom_site_type_symbol
 _atom_site_label
 _atom_site_symmetry_multiplicity
 _atom_site_fract_x
 _atom_site_fract_y
 _atom_site_fract_z
 _atom_site_occupancy
  Tl  Tl0  1  0.899731  0.609843  0.750000  1
  Tl  Tl1  1  0.399731  0.890157  0.750000  1
  Tl  Tl2  1  0.600269  0.109843  0.250000  1
  Tl  Tl3  1  0.100269  0.390157  0.250000  1
  Tl  Tl4  1  0.933514  0.802573  0.444518  1
  Tl  Tl5  1  0.433514  0.697427  0.055482  1
  Tl  Tl6  1  0.566486  0.302573  0.555482  1
  Tl  Tl7  1  0.066486  0.197427  0.944518  1
  Tl  Tl8  1  0.066486  0.197427  0.555482  1
  Tl  Tl9  1  0.566486  0.302573  0.944518  1
  Tl  Tl10  1  0.433514  0.697427  0.444518  1
  Tl  Tl11  1  0.933514  0.802573  0.055482  1
  P  P12  1  0.778681  0.027459  0.750000  1
  P  P13  1  0.278681  0.472541  0.750000  1
  P  P14  1  0.721319  0.527459  0.250000  1
  P  P15  1  0.221319  0.972541  0.250000  1
  S  S16  1  0.803575  0.251678  0.750000  1
  S  S17  1  0.303575  0.248322  0.750000  1
  S  S18  1  0.696425  0.751678  0.250000  1
  S  S19  1  0.196425  0.748322  0.250000  1
  S  S20  1  0.985692  0.939476  0.750000  1
  S  S21  1  0.485692  0.560524  0.750000  1
  S  S22  1  0.514308  0.439476  0.250000  1
  S  S23  1  0.014308  0.060524  0.250000  1
  S  S24  1  0.335300  0.032151  0.098542  1
  S  S25  1  0.835300  0.467849  0.401458  1
  S  S26  1  0.164700  0.532151  0.901458  1
  S  S27  1  0.664700  0.967849  0.598542  1
  S  S28  1  0.664700  0.967849  0.901458  1
  S  S29  1  0.164700  0.532151  0.598542  1
  S  S30  1  0.835300  0.467849  0.098542  1
  S  S31  1  0.335300  0.032151  0.401458  1
