# generated using pymatgen
data_Na2SrMg(PO4)2
_symmetry_space_group_name_H-M   'P 1'
_cell_length_a   9.24176074
_cell_length_b   5.33531437
_cell_length_c   13.69312205
_cell_angle_alpha   90.00000000
_cell_angle_beta   90.28098359
_cell_angle_gamma   90.00000000
_symmetry_Int_Tables_number   1
_chemical_formula_structural   Na2SrMg(PO4)2
_chemical_formula_sum   'Na8 Sr4 Mg4 P8 O32'
_cell_volume   675.16822005
_cell_formula_units_Z   4
loop_
 _symmetry_equiv_pos_site_id
 _symmetry_equiv_pos_as_xyz
  1  'x, y, z'
loop_
 _atom_site_type_symbol
 _atom_site_label
 _atom_site_symmetry_multiplicity
 _atom_site_fract_x
 _atom_site_fract_y
 _atom_site_fract_z
 _atom_site_occupancy
  Na  Na0  1  0.083557  0.772375  0.407326  1
  Na  Na1  1  0.916443  0.272375  0.092674  1
  Na  Na2  1  0.916443  0.227625  0.592674  1
  Na  Na3  1  0.083557  0.727625  0.907326  1
  Na  Na4  1  0.415574  0.769831  0.089686  1
  Na  Na5  1  0.584426  0.269831  0.410314  1
  Na  Na6  1  0.584426  0.230169  0.910314  1
  Na  Na7  1  0.415574  0.730169  0.589686  1
  Sr  Sr8  1  0.746450  0.806057  0.249975  1
  Sr  Sr9  1  0.253550  0.306057  0.250025  1
  Sr  Sr10  1  0.253550  0.193943  0.750025  1
  Sr  Sr11  1  0.746450  0.693943  0.749975  1
  Mg  Mg12  1  0.750624  0.746845  0.000847  1
  Mg  Mg13  1  0.249376  0.246845  0.499153  1
  Mg  Mg14  1  0.249376  0.253155  0.999153  1
  Mg  Mg15  1  0.750624  0.753155  0.500847  1
  P  P16  1  0.082851  0.771131  0.131738  1
  P  P17  1  0.917149  0.271131  0.368262  1
  P  P18  1  0.917149  0.228869  0.868262  1
  P  P19  1  0.082851  0.728869  0.631738  1
  P  P20  1  0.418947  0.765755  0.367333  1
  P  P21  1  0.581053  0.265755  0.132667  1
  P  P22  1  0.581053  0.234245  0.632667  1
  P  P23  1  0.418947  0.734245  0.867333  1
  O  O24  1  0.076717  0.298194  0.404291  1
  O  O25  1  0.923283  0.798194  0.095709  1
  O  O26  1  0.923283  0.701806  0.595709  1
  O  O27  1  0.076717  0.201806  0.904291  1
  O  O28  1  0.087388  0.711725  0.241242  1
  O  O29  1  0.912612  0.211725  0.258758  1
  O  O30  1  0.912612  0.288275  0.758758  1
  O  O31  1  0.087388  0.788275  0.741242  1
  O  O32  1  0.165569  0.019093  0.108311  1
  O  O33  1  0.834431  0.519093  0.391689  1
  O  O34  1  0.834431  0.980907  0.891689  1
  O  O35  1  0.165569  0.480907  0.608311  1
  O  O36  1  0.154916  0.552510  0.073771  1
  O  O37  1  0.845084  0.052510  0.426229  1
  O  O38  1  0.845084  0.447490  0.926229  1
  O  O39  1  0.154916  0.947490  0.573771  1
  O  O40  1  0.349362  0.538746  0.421953  1
  O  O41  1  0.650638  0.038746  0.078047  1
  O  O42  1  0.650638  0.461254  0.578047  1
  O  O43  1  0.349362  0.961254  0.921953  1
  O  O44  1  0.421387  0.711841  0.257298  1
  O  O45  1  0.578613  0.211841  0.242702  1
  O  O46  1  0.578613  0.288159  0.742702  1
  O  O47  1  0.421387  0.788159  0.757298  1
  O  O48  1  0.576162  0.800362  0.406988  1
  O  O49  1  0.423838  0.300362  0.093012  1
  O  O50  1  0.423838  0.199638  0.593012  1
  O  O51  1  0.576162  0.699638  0.906988  1
  O  O52  1  0.669739  0.506560  0.109108  1
  O  O53  1  0.330261  0.006560  0.390892  1
  O  O54  1  0.330261  0.493440  0.890892  1
  O  O55  1  0.669739  0.993440  0.609108  1
