# generated using pymatgen
data_Er2Te3
_symmetry_space_group_name_H-M   'P 1'
_cell_length_a   14.35472508
_cell_length_b   13.68955508
_cell_length_c   7.51274555
_cell_angle_alpha   79.41423767
_cell_angle_beta   69.62460669
_cell_angle_gamma   30.96115564
_symmetry_Int_Tables_number   1
_chemical_formula_structural   Er2Te3
_chemical_formula_sum   'Er8 Te12'
_cell_volume   691.50032175
_cell_formula_units_Z   4
loop_
 _symmetry_equiv_pos_site_id
 _symmetry_equiv_pos_as_xyz
  1  'x, y, z'
loop_
 _atom_site_type_symbol
 _atom_site_label
 _atom_site_symmetry_multiplicity
 _atom_site_fract_x
 _atom_site_fract_y
 _atom_site_fract_z
 _atom_site_occupancy
  Er  Er0  1  0.000469  0.000469  0.499531  1
  Er  Er1  1  0.499531  0.499531  0.000469  1
  Er  Er2  1  0.249531  0.249531  0.750469  1
  Er  Er3  1  0.750469  0.750469  0.249531  1
  Er  Er4  1  0.667319  0.667319  0.832681  1
  Er  Er5  1  0.832681  0.832681  0.667319  1
  Er  Er6  1  0.582681  0.582681  0.417319  1
  Er  Er7  1  0.417319  0.417319  0.582681  1
  Te  Te8  1  0.668723  0.165731  0.830546  1
  Te  Te9  1  0.335000  0.830546  0.165731  1
  Te  Te10  1  0.830546  0.335000  0.668723  1
  Te  Te11  1  0.165731  0.668723  0.335000  1
  Te  Te12  1  0.581277  0.084269  0.419454  1
  Te  Te13  1  0.915000  0.419454  0.084269  1
  Te  Te14  1  0.419454  0.915000  0.581277  1
  Te  Te15  1  0.084269  0.581277  0.915000  1
  Te  Te16  1  0.751404  0.248596  0.248596  1
  Te  Te17  1  0.248596  0.751404  0.751404  1
  Te  Te18  1  0.498596  0.001404  0.001404  1
  Te  Te19  1  0.001404  0.498596  0.498596  1
