# generated using pymatgen
data_Ho6GaCo2
_symmetry_space_group_name_H-M   'P 1'
_cell_length_a   8.22937862
_cell_length_b   8.22937862
_cell_length_c   8.22937862
_cell_angle_alpha   111.93678751
_cell_angle_beta   109.61446311
_cell_angle_gamma   106.90149763
_symmetry_Int_Tables_number   1
_chemical_formula_structural   Ho6GaCo2
_chemical_formula_sum   'Ho12 Ga2 Co4'
_cell_volume   428.19343198
_cell_formula_units_Z   2
loop_
 _symmetry_equiv_pos_site_id
 _symmetry_equiv_pos_as_xyz
  1  'x, y, z'
loop_
 _atom_site_type_symbol
 _atom_site_label
 _atom_site_symmetry_multiplicity
 _atom_site_fract_x
 _atom_site_fract_y
 _atom_site_fract_z
 _atom_site_occupancy
  Ho  Ho0  1  0.958393  0.261282  0.697111  1
  Ho  Ho1  1  0.041607  0.738718  0.302889  1
  Ho  Ho2  1  0.673553  0.861586  0.188033  1
  Ho  Ho3  1  0.326447  0.514481  0.188033  1
  Ho  Ho4  1  0.326447  0.138414  0.811967  1
  Ho  Ho5  1  0.673553  0.485519  0.811967  1
  Ho  Ho6  1  0.564171  0.261282  0.302889  1
  Ho  Ho7  1  0.435829  0.738718  0.697111  1
  Ho  Ho8  1  0.180740  0.780585  0.961325  1
  Ho  Ho9  1  0.819260  0.780585  0.599846  1
  Ho  Ho10  1  0.180740  0.219415  0.400154  1
  Ho  Ho11  1  0.819260  0.219415  0.038675  1
  Ga  Ga12  1  1.000000  0.500000  0.500000  1
  Ga  Ga13  1  0.500000  1.000000  0.500000  1
  Co  Co14  1  0.115174  0.115174  0.000000  1
  Co  Co15  1  0.884826  0.884826  0.000000  1
  Co  Co16  1  0.663676  0.500000  0.163676  1
  Co  Co17  1  0.336324  0.500000  0.836324  1
