# generated using pymatgen
data_CsCu2F6
_symmetry_space_group_name_H-M   'P 1'
_cell_length_a   7.30593764
_cell_length_b   7.30593764
_cell_length_c   7.30593764
_cell_angle_alpha   60.00000000
_cell_angle_beta   60.00000000
_cell_angle_gamma   60.00000000
_symmetry_Int_Tables_number   1
_chemical_formula_structural   CsCu2F6
_chemical_formula_sum   'Cs2 Cu4 F12'
_cell_volume   275.74832632
_cell_formula_units_Z   2
loop_
 _symmetry_equiv_pos_site_id
 _symmetry_equiv_pos_as_xyz
  1  'x, y, z'
loop_
 _atom_site_type_symbol
 _atom_site_label
 _atom_site_symmetry_multiplicity
 _atom_site_fract_x
 _atom_site_fract_y
 _atom_site_fract_z
 _atom_site_occupancy
  Cs  Cs0  1  0.500000  0.500000  0.500000  1
  Cs  Cs1  1  0.750000  0.750000  0.750000  1
  Cu  Cu2  1  0.125000  0.125000  0.125000  1
  Cu  Cu3  1  0.625000  0.125000  0.125000  1
  Cu  Cu4  1  0.125000  0.125000  0.625000  1
  Cu  Cu5  1  0.125000  0.625000  0.125000  1
  F  F6  1  0.190147  0.809853  0.190147  1
  F  F7  1  0.059853  0.059853  0.440147  1
  F  F8  1  0.440147  0.440147  0.059853  1
  F  F9  1  0.809853  0.190147  0.809853  1
  F  F10  1  0.059853  0.440147  0.059853  1
  F  F11  1  0.190147  0.190147  0.809853  1
  F  F12  1  0.190147  0.809853  0.809853  1
  F  F13  1  0.059853  0.440147  0.440147  1
  F  F14  1  0.440147  0.059853  0.059853  1
  F  F15  1  0.809853  0.190147  0.190147  1
  F  F16  1  0.440147  0.059853  0.440147  1
  F  F17  1  0.809853  0.809853  0.190147  1
