# generated using pymatgen
data_Na2Si2S5
_symmetry_space_group_name_H-M   'P 1'
_cell_length_a   9.10645688
_cell_length_b   9.10645688
_cell_length_c   10.53948500
_cell_angle_alpha   90.00000000
_cell_angle_beta   90.00000000
_cell_angle_gamma   90.33600055
_symmetry_Int_Tables_number   1
_chemical_formula_structural   Na2Si2S5
_chemical_formula_sum   'Na8 Si8 S20'
_cell_volume   873.99871336
_cell_formula_units_Z   4
loop_
 _symmetry_equiv_pos_site_id
 _symmetry_equiv_pos_as_xyz
  1  'x, y, z'
loop_
 _atom_site_type_symbol
 _atom_site_label
 _atom_site_symmetry_multiplicity
 _atom_site_fract_x
 _atom_site_fract_y
 _atom_site_fract_z
 _atom_site_occupancy
  Na  Na0  1  0.420287  0.902822  0.250000  1
  Na  Na1  1  0.849378  0.849378  0.500000  1
  Na  Na2  1  0.849378  0.849378  1.000000  1
  Na  Na3  1  0.150622  0.150622  0.500000  1
  Na  Na4  1  0.097178  0.579713  0.250000  1
  Na  Na5  1  0.902822  0.420287  0.750000  1
  Na  Na6  1  0.579713  0.097178  0.750000  1
  Na  Na7  1  0.150622  0.150622  1.000000  1
  Si  Si8  1  0.580518  0.689459  0.750000  1
  Si  Si9  1  0.310541  0.419482  0.750000  1
  Si  Si10  1  0.689459  0.580518  0.250000  1
  Si  Si11  1  0.746810  0.253190  0.414534  1
  Si  Si12  1  0.253190  0.746810  0.914534  1
  Si  Si13  1  0.253190  0.746810  0.585466  1
  Si  Si14  1  0.419482  0.310541  0.250000  1
  Si  Si15  1  0.746810  0.253190  0.085466  1
  S  S16  1  0.791941  0.487310  0.417043  1
  S  S17  1  0.487310  0.791941  0.582957  1
  S  S18  1  0.512690  0.208059  0.082957  1
  S  S19  1  0.154725  0.845275  0.750000  1
  S  S20  1  0.839176  0.160824  0.924378  1
  S  S21  1  0.160824  0.839176  0.424378  1
  S  S22  1  0.160824  0.839176  0.075622  1
  S  S23  1  0.839176  0.160824  0.575622  1
  S  S24  1  0.728757  0.803629  0.250000  1
  S  S25  1  0.271243  0.196371  0.750000  1
  S  S26  1  0.803629  0.728757  0.750000  1
  S  S27  1  0.196371  0.271243  0.250000  1
  S  S28  1  0.208059  0.512690  0.917043  1
  S  S29  1  0.512690  0.208059  0.417043  1
  S  S30  1  0.487310  0.791941  0.917043  1
  S  S31  1  0.208059  0.512690  0.582957  1
  S  S32  1  0.791941  0.487310  0.082957  1
  S  S33  1  0.543581  0.456419  0.750000  1
  S  S34  1  0.456419  0.543581  0.250000  1
  S  S35  1  0.845275  0.154725  0.250000  1
