# generated using pymatgen
data_LaTa7O19
_symmetry_space_group_name_H-M   'P 1'
_cell_length_a   6.30073775
_cell_length_b   6.30073775
_cell_length_c   20.19604851
_cell_angle_alpha   90.00000000
_cell_angle_beta   90.00000000
_cell_angle_gamma   120.00000000
_symmetry_Int_Tables_number   1
_chemical_formula_structural   LaTa7O19
_chemical_formula_sum   'La2 Ta14 O38'
_cell_volume   694.35224638
_cell_formula_units_Z   2
loop_
 _symmetry_equiv_pos_site_id
 _symmetry_equiv_pos_as_xyz
  1  'x, y, z'
loop_
 _atom_site_type_symbol
 _atom_site_label
 _atom_site_symmetry_multiplicity
 _atom_site_fract_x
 _atom_site_fract_y
 _atom_site_fract_z
 _atom_site_occupancy
  La  La0  1  0.000000  0.000000  0.000000  1
  La  La1  1  0.000000  0.000000  0.500000  1
  Ta  Ta2  1  0.025724  0.690583  0.656069  1
  Ta  Ta3  1  0.309417  0.335142  0.656069  1
  Ta  Ta4  1  0.025724  0.690583  0.843931  1
  Ta  Ta5  1  0.309417  0.335142  0.843931  1
  Ta  Ta6  1  0.664858  0.974276  0.843931  1
  Ta  Ta7  1  0.309417  0.974276  0.156069  1
  Ta  Ta8  1  0.664858  0.690583  0.156069  1
  Ta  Ta9  1  0.664858  0.690583  0.343931  1
  Ta  Ta10  1  0.309417  0.974276  0.343931  1
  Ta  Ta11  1  0.025724  0.335142  0.156069  1
  Ta  Ta12  1  0.333333  0.666667  0.500000  1
  Ta  Ta13  1  0.333333  0.666667  0.000000  1
  Ta  Ta14  1  0.025724  0.335142  0.343931  1
  Ta  Ta15  1  0.664858  0.974276  0.656069  1
  O  O16  1  0.612438  0.902314  0.557195  1
  O  O17  1  0.097686  0.387562  0.442805  1
  O  O18  1  0.097686  0.710124  0.557195  1
  O  O19  1  0.289876  0.387562  0.557195  1
  O  O20  1  0.097686  0.710124  0.942805  1
  O  O21  1  0.289876  0.387562  0.942805  1
  O  O22  1  0.612438  0.902314  0.942805  1
  O  O23  1  0.289876  0.902314  0.057195  1
  O  O24  1  0.612438  0.710124  0.057195  1
  O  O25  1  0.612438  0.710124  0.442805  1
  O  O26  1  0.289876  0.902314  0.442805  1
  O  O27  1  0.097686  0.387562  0.057195  1
  O  O28  1  0.041126  0.748290  0.750000  1
  O  O29  1  0.251710  0.292837  0.750000  1
  O  O30  1  0.707163  0.958874  0.750000  1
  O  O31  1  0.707163  0.748290  0.250000  1
  O  O32  1  0.421699  0.332959  0.153407  1
  O  O33  1  0.911260  0.578301  0.346593  1
  O  O34  1  0.667041  0.088740  0.346593  1
  O  O35  1  0.667041  0.088740  0.153407  1
  O  O36  1  0.911260  0.578301  0.153407  1
  O  O37  1  0.667041  0.578301  0.846593  1
  O  O38  1  0.911260  0.332959  0.846593  1
  O  O39  1  0.421699  0.088740  0.846593  1
  O  O40  1  0.911260  0.332959  0.653407  1
  O  O41  1  0.421699  0.088740  0.653407  1
  O  O42  1  0.421699  0.332959  0.346593  1
  O  O43  1  0.667041  0.578301  0.653407  1
  O  O44  1  0.333333  0.666667  0.167442  1
  O  O45  1  0.333333  0.666667  0.332558  1
  O  O46  1  0.333333  0.666667  0.832558  1
  O  O47  1  0.333333  0.666667  0.667442  1
  O  O48  1  0.000000  0.000000  0.132831  1
  O  O49  1  0.000000  0.000000  0.367169  1
  O  O50  1  0.000000  0.000000  0.867169  1
  O  O51  1  0.000000  0.000000  0.632831  1
  O  O52  1  0.041126  0.292837  0.250000  1
  O  O53  1  0.251710  0.958874  0.250000  1
