# generated using pymatgen
data_KPrGeSe4
_symmetry_space_group_name_H-M   'P 1'
_cell_length_a   6.97772526
_cell_length_b   7.15458742
_cell_length_c   9.19580228
_cell_angle_alpha   90.00000000
_cell_angle_beta   107.60573349
_cell_angle_gamma   90.00000000
_symmetry_Int_Tables_number   1
_chemical_formula_structural   KPrGeSe4
_chemical_formula_sum   'K2 Pr2 Ge2 Se8'
_cell_volume   437.57658890
_cell_formula_units_Z   2
loop_
 _symmetry_equiv_pos_site_id
 _symmetry_equiv_pos_as_xyz
  1  'x, y, z'
loop_
 _atom_site_type_symbol
 _atom_site_label
 _atom_site_symmetry_multiplicity
 _atom_site_fract_x
 _atom_site_fract_y
 _atom_site_fract_z
 _atom_site_occupancy
  K  K0  1  0.255856  0.495670  0.563022  1
  K  K1  1  0.744144  0.995670  0.436978  1
  Pr  Pr2  1  0.228861  0.501105  0.052289  1
  Pr  Pr3  1  0.771139  0.001105  0.947711  1
  Ge  Ge4  1  0.222107  0.968197  0.822893  1
  Ge  Ge5  1  0.777893  0.468197  0.177107  1
  Se  Se6  1  0.016954  0.242291  0.788718  1
  Se  Se7  1  0.970115  0.729481  0.771721  1
  Se  Se8  1  0.577516  0.463864  0.342043  1
  Se  Se9  1  0.422484  0.963864  0.657957  1
  Se  Se10  1  0.426898  0.902693  0.076521  1
  Se  Se11  1  0.573102  0.402693  0.923479  1
  Se  Se12  1  0.029885  0.229481  0.228279  1
  Se  Se13  1  0.983046  0.742291  0.211282  1
