# generated using pymatgen
data_U(BRu)4
_symmetry_space_group_name_H-M   'P 1'
_cell_length_a   9.19614520
_cell_length_b   9.19614520
_cell_length_c   9.19614520
_cell_angle_alpha   132.03126737
_cell_angle_beta   132.03126737
_cell_angle_gamma   70.17964796
_symmetry_Int_Tables_number   1
_chemical_formula_structural   U(BRu)4
_chemical_formula_sum   'U4 B16 Ru16'
_cell_volume   420.58959315
_cell_formula_units_Z   4
loop_
 _symmetry_equiv_pos_site_id
 _symmetry_equiv_pos_as_xyz
  1  'x, y, z'
loop_
 _atom_site_type_symbol
 _atom_site_label
 _atom_site_symmetry_multiplicity
 _atom_site_fract_x
 _atom_site_fract_y
 _atom_site_fract_z
 _atom_site_occupancy
  U  U0  1  0.250000  0.250000  0.000000  1
  U  U1  1  0.750000  0.750000  0.000000  1
  U  U2  1  0.500000  1.000000  0.500000  1
  U  U3  1  1.000000  0.500000  0.500000  1
  B  B4  1  0.223381  0.913113  0.971199  1
  B  B5  1  0.723381  0.752183  0.310269  1
  B  B6  1  0.163113  0.973381  0.471199  1
  B  B7  1  0.663113  0.191914  0.189731  1
  B  B8  1  0.526619  0.336887  0.528801  1
  B  B9  1  0.026619  0.497817  0.189731  1
  B  B10  1  0.586887  0.276619  0.028801  1
  B  B11  1  0.086887  0.058086  0.310269  1
  B  B12  1  0.441914  0.413113  0.689731  1
  B  B13  1  0.941914  0.252183  0.028801  1
  B  B14  1  0.002183  0.473381  0.810269  1
  B  B15  1  0.502183  0.691914  0.528801  1
  B  B16  1  0.308086  0.836887  0.810269  1
  B  B17  1  0.808086  0.997817  0.471199  1
  B  B18  1  0.747817  0.776619  0.689731  1
  B  B19  1  0.247817  0.558086  0.971199  1
  Ru  Ru20  1  0.535011  0.074164  0.233343  1
  Ru  Ru21  1  0.035011  0.801667  0.460846  1
  Ru  Ru22  1  0.324164  0.285011  0.733343  1
  Ru  Ru23  1  0.824164  0.090821  0.039154  1
  Ru  Ru24  1  0.214989  0.175836  0.266657  1
  Ru  Ru25  1  0.714989  0.448333  0.039154  1
  Ru  Ru26  1  0.425836  0.964989  0.766657  1
  Ru  Ru27  1  0.925836  0.159179  0.460846  1
  Ru  Ru28  1  0.340821  0.574164  0.539154  1
  Ru  Ru29  1  0.840821  0.301667  0.766657  1
  Ru  Ru30  1  0.051667  0.785011  0.960846  1
  Ru  Ru31  1  0.551667  0.590821  0.266657  1
  Ru  Ru32  1  0.409179  0.675836  0.960846  1
  Ru  Ru33  1  0.909179  0.948333  0.733343  1
  Ru  Ru34  1  0.698333  0.464989  0.539154  1
  Ru  Ru35  1  0.198333  0.659179  0.233343  1
