# generated using pymatgen
data_RbNpN3O11
_symmetry_space_group_name_H-M   'P 1'
_cell_length_a   8.55610579
_cell_length_b   8.55610579
_cell_length_c   8.55610579
_cell_angle_alpha   68.82321575
_cell_angle_beta   68.82321575
_cell_angle_gamma   68.82321575
_symmetry_Int_Tables_number   1
_chemical_formula_structural   RbNpN3O11
_chemical_formula_sum   'Rb2 Np2 N6 O22'
_cell_volume   525.09797959
_cell_formula_units_Z   2
loop_
 _symmetry_equiv_pos_site_id
 _symmetry_equiv_pos_as_xyz
  1  'x, y, z'
loop_
 _atom_site_type_symbol
 _atom_site_label
 _atom_site_symmetry_multiplicity
 _atom_site_fract_x
 _atom_site_fract_y
 _atom_site_fract_z
 _atom_site_occupancy
  Rb  Rb0  1  0.000000  0.000000  0.000000  1
  Rb  Rb1  1  0.500000  0.500000  0.500000  1
  Np  Np2  1  0.250000  0.250000  0.250000  1
  Np  Np3  1  0.750000  0.750000  0.750000  1
  N  N4  1  0.552329  0.250000  0.947671  1
  N  N5  1  0.250000  0.947671  0.552329  1
  N  N6  1  0.052329  0.447671  0.750000  1
  N  N7  1  0.447671  0.750000  0.052329  1
  N  N8  1  0.750000  0.052329  0.447671  1
  N  N9  1  0.947671  0.552329  0.250000  1
  O  O10  1  0.448347  0.873253  0.909988  1
  O  O11  1  0.320624  0.750000  0.179376  1
  O  O12  1  0.179376  0.320624  0.750000  1
  O  O13  1  0.250000  0.820624  0.679376  1
  O  O14  1  0.679376  0.250000  0.820624  1
  O  O15  1  0.820624  0.679376  0.250000  1
  O  O16  1  0.873253  0.909988  0.448347  1
  O  O17  1  0.909988  0.448347  0.873253  1
  O  O18  1  0.750000  0.179376  0.320624  1
  O  O19  1  0.626747  0.051653  0.590012  1
  O  O20  1  0.126747  0.090012  0.551653  1
  O  O21  1  0.051653  0.590012  0.626747  1
  O  O22  1  0.590012  0.626747  0.051653  1
  O  O23  1  0.551653  0.126747  0.090012  1
  O  O24  1  0.090012  0.551653  0.126747  1
  O  O25  1  0.373253  0.948347  0.409988  1
  O  O26  1  0.409988  0.373253  0.948347  1
  O  O27  1  0.948347  0.409988  0.373253  1
  O  O28  1  0.342060  0.342060  0.342060  1
  O  O29  1  0.842060  0.842060  0.842060  1
  O  O30  1  0.657940  0.657940  0.657940  1
  O  O31  1  0.157940  0.157940  0.157940  1
