# generated using pymatgen
data_W
_symmetry_space_group_name_H-M   'P 1'
_cell_length_a   5.08885190
_cell_length_b   5.08885190
_cell_length_c   5.08885190
_cell_angle_alpha   90.00000000
_cell_angle_beta   90.00000000
_cell_angle_gamma   90.00000000
_symmetry_Int_Tables_number   1
_chemical_formula_structural   W
_chemical_formula_sum   W8
_cell_volume   131.78301386
_cell_formula_units_Z   8
loop_
 _symmetry_equiv_pos_site_id
 _symmetry_equiv_pos_as_xyz
  1  'x, y, z'
loop_
 _atom_site_type_symbol
 _atom_site_label
 _atom_site_symmetry_multiplicity
 _atom_site_fract_x
 _atom_site_fract_y
 _atom_site_fract_z
 _atom_site_occupancy
  W  W0  1  0.250000  0.000000  0.500000  1
  W  W1  1  0.750000  0.000000  0.500000  1
  W  W2  1  0.000000  0.500000  0.250000  1
  W  W3  1  0.000000  0.500000  0.750000  1
  W  W4  1  0.500000  0.750000  0.000000  1
  W  W5  1  0.500000  0.250000  0.000000  1
  W  W6  1  0.000000  0.000000  0.000000  1
  W  W7  1  0.500000  0.500000  0.500000  1
