# generated using pymatgen
data_Rb2Au3
_symmetry_space_group_name_H-M   'P 1'
_cell_length_a   6.58707167
_cell_length_b   6.58707167
_cell_length_c   6.58707167
_cell_angle_alpha   134.96009085
_cell_angle_beta   129.74941417
_cell_angle_gamma   69.75438719
_symmetry_Int_Tables_number   1
_chemical_formula_structural   Rb2Au3
_chemical_formula_sum   'Rb2 Au3'
_cell_volume   152.52313837
_cell_formula_units_Z   1
loop_
 _symmetry_equiv_pos_site_id
 _symmetry_equiv_pos_as_xyz
  1  'x, y, z'
loop_
 _atom_site_type_symbol
 _atom_site_label
 _atom_site_symmetry_multiplicity
 _atom_site_fract_x
 _atom_site_fract_y
 _atom_site_fract_z
 _atom_site_occupancy
  Rb  Rb0  1  0.696167  0.196167  0.500000  1
  Rb  Rb1  1  0.303833  0.803833  0.500000  1
  Au  Au2  1  0.253632  0.500000  0.753632  1
  Au  Au3  1  0.000000  0.000000  0.000000  1
  Au  Au4  1  0.746368  0.500000  0.246368  1
