# generated using pymatgen
data_LiMnVO4
_symmetry_space_group_name_H-M   'P 1'
_cell_length_a   5.30230067
_cell_length_b   5.30230067
_cell_length_c   6.42921097
_cell_angle_alpha   90.00000000
_cell_angle_beta   90.00000000
_cell_angle_gamma   112.92650628
_symmetry_Int_Tables_number   1
_chemical_formula_structural   LiMnVO4
_chemical_formula_sum   'Li2 Mn2 V2 O8'
_cell_volume   166.47480098
_cell_formula_units_Z   2
loop_
 _symmetry_equiv_pos_site_id
 _symmetry_equiv_pos_as_xyz
  1  'x, y, z'
loop_
 _atom_site_type_symbol
 _atom_site_label
 _atom_site_symmetry_multiplicity
 _atom_site_fract_x
 _atom_site_fract_y
 _atom_site_fract_z
 _atom_site_occupancy
  Li  Li0  1  0.837942  0.162058  0.750000  1
  Li  Li1  1  0.162058  0.837942  0.250000  1
  Mn  Mn2  1  0.500000  0.500000  0.500000  1
  Mn  Mn3  1  0.500000  0.500000  0.000000  1
  V  V4  1  0.144720  0.855280  0.750000  1
  V  V5  1  0.855280  0.144720  0.250000  1
  O  O6  1  0.740945  0.781355  0.250000  1
  O  O7  1  0.256226  0.743774  0.969949  1
  O  O8  1  0.743774  0.256226  0.469949  1
  O  O9  1  0.743774  0.256226  0.030051  1
  O  O10  1  0.259055  0.218645  0.750000  1
  O  O11  1  0.256226  0.743774  0.530051  1
  O  O12  1  0.781355  0.740945  0.750000  1
  O  O13  1  0.218645  0.259055  0.250000  1
