# generated using pymatgen
data_KBe2B3O7
_symmetry_space_group_name_H-M   'P 1'
_cell_length_a   4.41721991
_cell_length_b   7.72051843
_cell_length_c   17.69876504
_cell_angle_alpha   90.00000000
_cell_angle_beta   90.00000000
_cell_angle_gamma   90.00000000
_symmetry_Int_Tables_number   1
_chemical_formula_structural   KBe2B3O7
_chemical_formula_sum   'K4 Be8 B12 O28'
_cell_volume   603.58501460
_cell_formula_units_Z   4
loop_
 _symmetry_equiv_pos_site_id
 _symmetry_equiv_pos_as_xyz
  1  'x, y, z'
loop_
 _atom_site_type_symbol
 _atom_site_label
 _atom_site_symmetry_multiplicity
 _atom_site_fract_x
 _atom_site_fract_y
 _atom_site_fract_z
 _atom_site_occupancy
  K  K0  1  0.105821  0.000000  0.362711  1
  K  K1  1  0.605821  0.500000  0.637289  1
  K  K2  1  0.177244  0.500000  0.147106  1
  K  K3  1  0.677244  0.000000  0.852894  1
  Be  Be4  1  0.626059  0.311896  0.458487  1
  Be  Be5  1  0.626059  0.688104  0.458487  1
  Be  Be6  1  0.126059  0.188104  0.541513  1
  Be  Be7  1  0.126059  0.811896  0.541513  1
  Be  Be8  1  0.770943  0.175934  0.037359  1
  Be  Be9  1  0.770943  0.824066  0.037359  1
  Be  Be10  1  0.270943  0.324066  0.962641  1
  Be  Be11  1  0.270943  0.675934  0.962641  1
  B  B12  1  0.124288  0.500000  0.480238  1
  B  B13  1  0.624288  0.000000  0.519762  1
  B  B14  1  0.265599  0.000000  0.009034  1
  B  B15  1  0.765599  0.500000  0.990966  1
  B  B16  1  0.545384  0.339991  0.315433  1
  B  B17  1  0.545384  0.660009  0.315433  1
  B  B18  1  0.045384  0.160009  0.684567  1
  B  B19  1  0.045384  0.839991  0.684567  1
  B  B20  1  0.671267  0.164918  0.192704  1
  B  B21  1  0.671267  0.835082  0.192704  1
  B  B22  1  0.171267  0.335082  0.807296  1
  B  B23  1  0.171267  0.664918  0.807296  1
  O  O24  1  0.811914  0.500000  0.472750  1
  O  O25  1  0.311914  0.000000  0.527250  1
  O  O26  1  0.275277  0.343066  0.487137  1
  O  O27  1  0.275277  0.656934  0.487137  1
  O  O28  1  0.775277  0.156934  0.512863  1
  O  O29  1  0.775277  0.843066  0.512863  1
  O  O30  1  0.953872  0.000000  0.009726  1
  O  O31  1  0.453872  0.500000  0.990274  1
  O  O32  1  0.420090  0.155271  0.007061  1
  O  O33  1  0.420090  0.844729  0.007061  1
  O  O34  1  0.920090  0.344729  0.992939  1
  O  O35  1  0.920090  0.655271  0.992939  1
  O  O36  1  0.637385  0.238722  0.372739  1
  O  O37  1  0.637385  0.761278  0.372739  1
  O  O38  1  0.137385  0.261278  0.627261  1
  O  O39  1  0.137385  0.738722  0.627261  1
  O  O40  1  0.407965  0.500000  0.330729  1
  O  O41  1  0.907965  0.000000  0.669271  1
  O  O42  1  0.573265  0.302027  0.238869  1
  O  O43  1  0.573265  0.697973  0.238869  1
  O  O44  1  0.073265  0.197973  0.761131  1
  O  O45  1  0.073265  0.802027  0.761131  1
  O  O46  1  0.631687  0.000000  0.224115  1
  O  O47  1  0.131687  0.500000  0.775885  1
  O  O48  1  0.783881  0.206416  0.125466  1
  O  O49  1  0.783881  0.793584  0.125466  1
  O  O50  1  0.283881  0.293584  0.874534  1
  O  O51  1  0.283881  0.706416  0.874534  1
