# generated using pymatgen
data_NaNb3O8
_symmetry_space_group_name_H-M   'P 1'
_cell_length_a   7.35116854
_cell_length_b   7.35116854
_cell_length_c   7.35116854
_cell_angle_alpha   121.52247553
_cell_angle_beta   118.81551708
_cell_angle_gamma   89.72360564
_symmetry_Int_Tables_number   1
_chemical_formula_structural   NaNb3O8
_chemical_formula_sum   'Na2 Nb6 O16'
_cell_volume   279.98385999
_cell_formula_units_Z   2
loop_
 _symmetry_equiv_pos_site_id
 _symmetry_equiv_pos_as_xyz
  1  'x, y, z'
loop_
 _atom_site_type_symbol
 _atom_site_label
 _atom_site_symmetry_multiplicity
 _atom_site_fract_x
 _atom_site_fract_y
 _atom_site_fract_z
 _atom_site_occupancy
  Na  Na0  1  1.000000  0.750000  0.750000  1
  Na  Na1  1  1.000000  0.250000  0.250000  1
  Nb  Nb2  1  0.481658  0.736525  0.745133  1
  Nb  Nb3  1  0.518342  0.263475  0.254867  1
  Nb  Nb4  1  0.008607  0.763475  0.245133  1
  Nb  Nb5  1  0.991393  0.236525  0.754867  1
  Nb  Nb6  1  0.500000  0.750000  0.250000  1
  Nb  Nb7  1  0.500000  0.250000  0.750000  1
  O  O8  1  0.559592  0.061424  0.898368  1
  O  O9  1  0.440408  0.338776  0.501831  1
  O  O10  1  0.836945  0.438576  0.998169  1
  O  O11  1  0.163055  0.161224  0.601632  1
  O  O12  1  0.440408  0.938576  0.101632  1
  O  O13  1  0.559592  0.661224  0.498169  1
  O  O14  1  0.163055  0.561424  0.001831  1
  O  O15  1  0.836945  0.838776  0.398368  1
  O  O16  1  0.817326  0.335373  0.481953  1
  O  O17  1  0.182674  0.664627  0.518047  1
  O  O18  1  0.146579  0.164627  0.981953  1
  O  O19  1  0.853421  0.835373  0.018047  1
  O  O20  1  0.682578  0.078221  0.604358  1
  O  O21  1  0.317422  0.921779  0.395642  1
  O  O22  1  0.526137  0.421779  0.104358  1
  O  O23  1  0.473863  0.578221  0.895642  1
