# generated using pymatgen
data_Tm6FeSb2
_symmetry_space_group_name_H-M   'P 1'
_cell_length_a   8.09725949
_cell_length_b   8.09725949
_cell_length_c   4.09767274
_cell_angle_alpha   90.00000000
_cell_angle_beta   90.00000000
_cell_angle_gamma   120.00000000
_symmetry_Int_Tables_number   1
_chemical_formula_structural   Tm6FeSb2
_chemical_formula_sum   'Tm6 Fe1 Sb2'
_cell_volume   232.67194298
_cell_formula_units_Z   1
loop_
 _symmetry_equiv_pos_site_id
 _symmetry_equiv_pos_as_xyz
  1  'x, y, z'
loop_
 _atom_site_type_symbol
 _atom_site_label
 _atom_site_symmetry_multiplicity
 _atom_site_fract_x
 _atom_site_fract_y
 _atom_site_fract_z
 _atom_site_occupancy
  Tm  Tm0  1  0.233898  0.000000  0.000000  1
  Tm  Tm1  1  0.766102  0.766102  0.000000  1
  Tm  Tm2  1  0.000000  0.233898  0.000000  1
  Tm  Tm3  1  0.000000  0.606131  0.500000  1
  Tm  Tm4  1  0.393869  0.393869  0.500000  1
  Tm  Tm5  1  0.606131  0.000000  0.500000  1
  Fe  Fe6  1  0.000000  0.000000  0.500000  1
  Sb  Sb7  1  0.333333  0.666667  0.000000  1
  Sb  Sb8  1  0.666667  0.333333  0.000000  1
