# generated using pymatgen
data_Al6Ru
_symmetry_space_group_name_H-M   'P 1'
_cell_length_a   4.98271966
_cell_length_b   4.98271966
_cell_length_c   9.03906173
_cell_angle_alpha   90.00000000
_cell_angle_beta   90.00000000
_cell_angle_gamma   97.66529375
_symmetry_Int_Tables_number   1
_chemical_formula_structural   Al6Ru
_chemical_formula_sum   'Al12 Ru2'
_cell_volume   222.41190939
_cell_formula_units_Z   2
loop_
 _symmetry_equiv_pos_site_id
 _symmetry_equiv_pos_as_xyz
  1  'x, y, z'
loop_
 _atom_site_type_symbol
 _atom_site_label
 _atom_site_symmetry_multiplicity
 _atom_site_fract_x
 _atom_site_fract_y
 _atom_site_fract_z
 _atom_site_occupancy
  Al  Al0  1  0.680820  0.319180  0.000000  1
  Al  Al1  1  0.319180  0.680820  0.500000  1
  Al  Al2  1  0.319180  0.680820  0.000000  1
  Al  Al3  1  0.680820  0.319180  0.500000  1
  Al  Al4  1  0.140545  0.140545  0.099563  1
  Al  Al5  1  0.859455  0.859455  0.599563  1
  Al  Al6  1  0.140545  0.140545  0.400437  1
  Al  Al7  1  0.859455  0.859455  0.900437  1
  Al  Al8  1  0.978127  0.618150  0.250000  1
  Al  Al9  1  0.021873  0.381850  0.750000  1
  Al  Al10  1  0.618150  0.978127  0.250000  1
  Al  Al11  1  0.381850  0.021873  0.750000  1
  Ru  Ru12  1  0.463568  0.463568  0.250000  1
  Ru  Ru13  1  0.536432  0.536432  0.750000  1
