# generated using pymatgen
data_ErCrO4
_symmetry_space_group_name_H-M   'P 1'
_cell_length_a   5.95011529
_cell_length_b   5.95011529
_cell_length_c   5.95011529
_cell_angle_alpha   106.04170571
_cell_angle_beta   106.04170571
_cell_angle_gamma   116.57225356
_symmetry_Int_Tables_number   1
_chemical_formula_structural   ErCrO4
_chemical_formula_sum   'Er2 Cr2 O8'
_cell_volume   160.27361178
_cell_formula_units_Z   2
loop_
 _symmetry_equiv_pos_site_id
 _symmetry_equiv_pos_as_xyz
  1  'x, y, z'
loop_
 _atom_site_type_symbol
 _atom_site_label
 _atom_site_symmetry_multiplicity
 _atom_site_fract_x
 _atom_site_fract_y
 _atom_site_fract_z
 _atom_site_occupancy
  Er  Er0  1  0.000000  0.000000  0.000000  1
  Er  Er1  1  0.250000  0.750000  0.500000  1
  Cr  Cr2  1  0.750000  0.250000  0.500000  1
  Cr  Cr3  1  0.500000  0.500000  0.000000  1
  O  O4  1  0.861206  0.676148  0.185058  1
  O  O5  1  0.926148  0.241090  0.314942  1
  O  O6  1  0.926148  0.611206  0.685058  1
  O  O7  1  0.491090  0.676148  0.814942  1
  O  O8  1  0.323852  0.508910  0.185058  1
  O  O9  1  0.388794  0.073852  0.314942  1
  O  O10  1  0.758910  0.073852  0.685058  1
  O  O11  1  0.323852  0.138794  0.814942  1
