# generated using pymatgen
data_Tl2O3
_symmetry_space_group_name_H-M   'P 1'
_cell_length_a   9.33077694
_cell_length_b   9.33077694
_cell_length_c   9.33077694
_cell_angle_alpha   109.47122063
_cell_angle_beta   109.47122063
_cell_angle_gamma   109.47122063
_symmetry_Int_Tables_number   1
_chemical_formula_structural   Tl2O3
_chemical_formula_sum   'Tl16 O24'
_cell_volume   625.36206332
_cell_formula_units_Z   8
loop_
 _symmetry_equiv_pos_site_id
 _symmetry_equiv_pos_as_xyz
  1  'x, y, z'
loop_
 _atom_site_type_symbol
 _atom_site_label
 _atom_site_symmetry_multiplicity
 _atom_site_fract_x
 _atom_site_fract_y
 _atom_site_fract_z
 _atom_site_occupancy
  Tl  Tl0  1  0.784075  0.250000  0.034075  1
  Tl  Tl1  1  0.715925  0.750000  0.465925  1
  Tl  Tl2  1  0.250000  0.034075  0.784075  1
  Tl  Tl3  1  0.750000  0.465925  0.715925  1
  Tl  Tl4  1  0.034075  0.784075  0.250000  1
  Tl  Tl5  1  0.465925  0.715925  0.750000  1
  Tl  Tl6  1  0.215925  0.750000  0.965925  1
  Tl  Tl7  1  0.284075  0.250000  0.534075  1
  Tl  Tl8  1  0.750000  0.965925  0.215925  1
  Tl  Tl9  1  0.250000  0.534075  0.284075  1
  Tl  Tl10  1  0.965925  0.215925  0.750000  1
  Tl  Tl11  1  0.534075  0.284075  0.250000  1
  Tl  Tl12  1  0.500000  0.000000  0.500000  1
  Tl  Tl13  1  0.500000  0.500000  0.000000  1
  Tl  Tl14  1  1.000000  0.500000  0.500000  1
  Tl  Tl15  1  0.000000  0.000000  0.000000  1
  O  O16  1  0.267045  0.996684  0.538865  1
  O  O17  1  0.542181  0.503316  0.770362  1
  O  O18  1  0.232955  0.771819  0.729638  1
  O  O19  1  0.957819  0.728181  0.961135  1
  O  O20  1  0.996684  0.538865  0.267045  1
  O  O21  1  0.503316  0.770362  0.542181  1
  O  O22  1  0.771819  0.729638  0.232955  1
  O  O23  1  0.728181  0.961135  0.957819  1
  O  O24  1  0.538865  0.267045  0.996684  1
  O  O25  1  0.770362  0.542181  0.503316  1
  O  O26  1  0.729638  0.232955  0.771819  1
  O  O27  1  0.961135  0.957819  0.728181  1
  O  O28  1  0.732955  0.003316  0.461135  1
  O  O29  1  0.457819  0.496684  0.229638  1
  O  O30  1  0.767045  0.228181  0.270362  1
  O  O31  1  0.042181  0.271819  0.038865  1
  O  O32  1  0.003316  0.461135  0.732955  1
  O  O33  1  0.496684  0.229638  0.457819  1
  O  O34  1  0.228181  0.270362  0.767045  1
  O  O35  1  0.271819  0.038865  0.042181  1
  O  O36  1  0.461135  0.732955  0.003316  1
  O  O37  1  0.229638  0.457819  0.496684  1
  O  O38  1  0.270362  0.767045  0.228181  1
  O  O39  1  0.038865  0.042181  0.271819  1
