# generated using pymatgen
data_ZnB4O7
_symmetry_space_group_name_H-M   'P 1'
_cell_length_a   8.29707993
_cell_length_b   8.81794915
_cell_length_c   13.89058480
_cell_angle_alpha   90.00000000
_cell_angle_beta   90.00000000
_cell_angle_gamma   90.00000000
_symmetry_Int_Tables_number   1
_chemical_formula_structural   ZnB4O7
_chemical_formula_sum   'Zn8 B32 O56'
_cell_volume   1016.28003550
_cell_formula_units_Z   8
loop_
 _symmetry_equiv_pos_site_id
 _symmetry_equiv_pos_as_xyz
  1  'x, y, z'
loop_
 _atom_site_type_symbol
 _atom_site_label
 _atom_site_symmetry_multiplicity
 _atom_site_fract_x
 _atom_site_fract_y
 _atom_site_fract_z
 _atom_site_occupancy
  Zn  Zn0  1  0.609137  0.126435  0.380213  1
  Zn  Zn1  1  0.109137  0.373565  0.619787  1
  Zn  Zn2  1  0.390863  0.626435  0.119787  1
  Zn  Zn3  1  0.890863  0.873565  0.880213  1
  Zn  Zn4  1  0.390863  0.873565  0.619787  1
  Zn  Zn5  1  0.890863  0.626435  0.380213  1
  Zn  Zn6  1  0.609137  0.373565  0.880213  1
  Zn  Zn7  1  0.109137  0.126435  0.119787  1
  B  B8  1  0.159649  0.144612  0.462222  1
  B  B9  1  0.659649  0.355388  0.537778  1
  B  B10  1  0.840351  0.644612  0.037778  1
  B  B11  1  0.340351  0.855388  0.962222  1
  B  B12  1  0.840351  0.855388  0.537778  1
  B  B13  1  0.340351  0.644612  0.462222  1
  B  B14  1  0.159649  0.355388  0.962222  1
  B  B15  1  0.659649  0.144612  0.037778  1
  B  B16  1  0.968919  0.090258  0.330496  1
  B  B17  1  0.468919  0.409742  0.669504  1
  B  B18  1  0.031081  0.590258  0.169504  1
  B  B19  1  0.531081  0.909742  0.830496  1
  B  B20  1  0.031081  0.909742  0.669504  1
  B  B21  1  0.531081  0.590258  0.330496  1
  B  B22  1  0.968919  0.409742  0.830496  1
  B  B23  1  0.468919  0.090258  0.169504  1
  B  B24  1  0.026572  0.356768  0.270113  1
  B  B25  1  0.526572  0.143232  0.729887  1
  B  B26  1  0.973428  0.856768  0.229887  1
  B  B27  1  0.473428  0.643232  0.770113  1
  B  B28  1  0.973428  0.643232  0.729887  1
  B  B29  1  0.473428  0.856768  0.270113  1
  B  B30  1  0.026572  0.143232  0.770113  1
  B  B31  1  0.526572  0.356768  0.229887  1
  B  B32  1  0.910427  0.302777  0.436268  1
  B  B33  1  0.410427  0.197223  0.563732  1
  B  B34  1  0.089573  0.802777  0.063732  1
  B  B35  1  0.589573  0.697223  0.936268  1
  B  B36  1  0.089573  0.697223  0.563732  1
  B  B37  1  0.589573  0.802777  0.436268  1
  B  B38  1  0.910427  0.197223  0.936268  1
  B  B39  1  0.410427  0.302777  0.063732  1
  O  O40  1  0.115307  0.062157  0.384643  1
  O  O41  1  0.615307  0.437843  0.615357  1
  O  O42  1  0.884693  0.562157  0.115357  1
  O  O43  1  0.384693  0.937843  0.884643  1
  O  O44  1  0.884693  0.937843  0.615357  1
  O  O45  1  0.384693  0.562157  0.384643  1
  O  O46  1  0.115307  0.437843  0.884643  1
  O  O47  1  0.615307  0.062157  0.115357  1
  O  O48  1  0.845876  0.167653  0.389555  1
  O  O49  1  0.345876  0.332347  0.610445  1
  O  O50  1  0.154124  0.667653  0.110445  1
  O  O51  1  0.654124  0.832347  0.889555  1
  O  O52  1  0.154124  0.832347  0.610445  1
  O  O53  1  0.654124  0.667653  0.389555  1
  O  O54  1  0.845876  0.332347  0.889555  1
  O  O55  1  0.345876  0.167653  0.110445  1
  O  O56  1  0.017266  0.202879  0.248333  1
  O  O57  1  0.517266  0.297121  0.751667  1
  O  O58  1  0.982734  0.702879  0.251667  1
  O  O59  1  0.482734  0.797121  0.748333  1
  O  O60  1  0.982734  0.797121  0.751667  1
  O  O61  1  0.482734  0.702879  0.248333  1
  O  O62  1  0.017266  0.297121  0.748333  1
  O  O63  1  0.517266  0.202879  0.251667  1
  O  O64  1  0.595977  0.451804  0.293854  1
  O  O65  1  0.095977  0.048196  0.706146  1
  O  O66  1  0.404023  0.951804  0.206146  1
  O  O67  1  0.904023  0.548196  0.793854  1
  O  O68  1  0.404023  0.548196  0.706146  1
  O  O69  1  0.904023  0.951804  0.293854  1
  O  O70  1  0.595977  0.048196  0.793854  1
  O  O71  1  0.095977  0.451804  0.206146  1
  O  O72  1  0.967864  0.410634  0.357906  1
  O  O73  1  0.467864  0.089366  0.642094  1
  O  O74  1  0.032136  0.910634  0.142094  1
  O  O75  1  0.532136  0.589366  0.857906  1
  O  O76  1  0.032136  0.589366  0.642094  1
  O  O77  1  0.532136  0.910634  0.357906  1
  O  O78  1  0.967864  0.089366  0.857906  1
  O  O79  1  0.467864  0.410634  0.142094  1
  O  O80  1  0.804113  0.386563  0.495454  1
  O  O81  1  0.304113  0.113437  0.504546  1
  O  O82  1  0.195887  0.886563  0.004546  1
  O  O83  1  0.695887  0.613437  0.995454  1
  O  O84  1  0.195887  0.613437  0.504546  1
  O  O85  1  0.695887  0.886563  0.495454  1
  O  O86  1  0.804113  0.113437  0.995454  1
  O  O87  1  0.304113  0.386563  0.004546  1
  O  O88  1  0.057537  0.260518  0.496809  1
  O  O89  1  0.557537  0.239482  0.503191  1
  O  O90  1  0.942463  0.760518  0.003191  1
  O  O91  1  0.442463  0.739482  0.996809  1
  O  O92  1  0.942463  0.739482  0.503191  1
  O  O93  1  0.442463  0.760518  0.496809  1
  O  O94  1  0.057537  0.239482  0.996809  1
  O  O95  1  0.557537  0.260518  0.003191  1
