# generated using pymatgen
data_Mg5Hg3
_symmetry_space_group_name_H-M   'P 1'
_cell_length_a   8.37847600
_cell_length_b   8.37847600
_cell_length_c   5.85551136
_cell_angle_alpha   90.00000000
_cell_angle_beta   90.00000000
_cell_angle_gamma   120.00000000
_symmetry_Int_Tables_number   1
_chemical_formula_structural   Mg5Hg3
_chemical_formula_sum   'Mg10 Hg6'
_cell_volume   355.97993503
_cell_formula_units_Z   2
loop_
 _symmetry_equiv_pos_site_id
 _symmetry_equiv_pos_as_xyz
  1  'x, y, z'
loop_
 _atom_site_type_symbol
 _atom_site_label
 _atom_site_symmetry_multiplicity
 _atom_site_fract_x
 _atom_site_fract_y
 _atom_site_fract_z
 _atom_site_occupancy
  Mg  Mg0  1  0.748986  0.000000  0.750000  1
  Mg  Mg1  1  0.748986  0.748986  0.250000  1
  Mg  Mg2  1  0.000000  0.251014  0.250000  1
  Mg  Mg3  1  0.000000  0.748986  0.750000  1
  Mg  Mg4  1  0.251014  0.251014  0.750000  1
  Mg  Mg5  1  0.251014  0.000000  0.250000  1
  Mg  Mg6  1  0.333333  0.666667  0.000000  1
  Mg  Mg7  1  0.666667  0.333333  0.500000  1
  Mg  Mg8  1  0.666667  0.333333  0.000000  1
  Mg  Mg9  1  0.333333  0.666667  0.500000  1
  Hg  Hg10  1  0.387187  0.000000  0.750000  1
  Hg  Hg11  1  0.387187  0.387187  0.250000  1
  Hg  Hg12  1  0.000000  0.612813  0.250000  1
  Hg  Hg13  1  0.000000  0.387187  0.750000  1
  Hg  Hg14  1  0.612813  0.612813  0.750000  1
  Hg  Hg15  1  0.612813  0.000000  0.250000  1
