# generated using pymatgen
data_CsYCdSe3
_symmetry_space_group_name_H-M   'P 1'
_cell_length_a   8.46932586
_cell_length_b   8.46932586
_cell_length_c   11.22843501
_cell_angle_alpha   90.00000000
_cell_angle_beta   90.00000000
_cell_angle_gamma   150.52977657
_symmetry_Int_Tables_number   1
_chemical_formula_structural   CsYCdSe3
_chemical_formula_sum   'Cs2 Y2 Cd2 Se6'
_cell_volume   396.23840744
_cell_formula_units_Z   2
loop_
 _symmetry_equiv_pos_site_id
 _symmetry_equiv_pos_as_xyz
  1  'x, y, z'
loop_
 _atom_site_type_symbol
 _atom_site_label
 _atom_site_symmetry_multiplicity
 _atom_site_fract_x
 _atom_site_fract_y
 _atom_site_fract_z
 _atom_site_occupancy
  Cs  Cs0  1  0.744184  0.255816  0.250000  1
  Cs  Cs1  1  0.255816  0.744184  0.750000  1
  Y  Y2  1  0.000000  0.000000  0.500000  1
  Y  Y3  1  0.000000  0.000000  0.000000  1
  Cd  Cd4  1  0.460575  0.539425  0.250000  1
  Cd  Cd5  1  0.539425  0.460575  0.750000  1
  Se  Se6  1  0.060426  0.939574  0.250000  1
  Se  Se7  1  0.939574  0.060426  0.750000  1
  Se  Se8  1  0.616841  0.383159  0.545332  1
  Se  Se9  1  0.616841  0.383159  0.954668  1
  Se  Se10  1  0.383159  0.616841  0.045332  1
  Se  Se11  1  0.383159  0.616841  0.454668  1
