# generated using pymatgen
data_Rb2NbCuS4
_symmetry_space_group_name_H-M   'P 1'
_cell_length_a   13.98986565
_cell_length_b   12.47726357
_cell_length_c   7.46683391
_cell_angle_alpha   85.16063317
_cell_angle_beta   62.71025340
_cell_angle_gamma   32.12911343
_symmetry_Int_Tables_number   1
_chemical_formula_structural   Rb2NbCuS4
_chemical_formula_sum   'Rb4 Nb2 Cu2 S8'
_cell_volume   471.78374684
_cell_formula_units_Z   2
loop_
 _symmetry_equiv_pos_site_id
 _symmetry_equiv_pos_as_xyz
  1  'x, y, z'
loop_
 _atom_site_type_symbol
 _atom_site_label
 _atom_site_symmetry_multiplicity
 _atom_site_fract_x
 _atom_site_fract_y
 _atom_site_fract_z
 _atom_site_occupancy
  Rb  Rb0  1  0.177489  0.177489  0.822511  1
  Rb  Rb1  1  0.822511  0.822511  0.177489  1
  Rb  Rb2  1  0.072511  0.072511  0.427489  1
  Rb  Rb3  1  0.427489  0.427489  0.072511  1
  Nb  Nb4  1  0.250000  0.250000  0.250000  1
  Nb  Nb5  1  1.000000  0.000000  0.000000  1
  Cu  Cu6  1  0.750000  0.750000  0.750000  1
  Cu  Cu7  1  0.500000  0.500000  0.500000  1
  S  S8  1  0.094918  0.798089  0.713743  1
  S  S9  1  0.393251  0.713743  0.798089  1
  S  S10  1  0.713743  0.393251  0.094918  1
  S  S11  1  0.798089  0.094918  0.393251  1
  S  S12  1  0.451911  0.155082  0.856749  1
  S  S13  1  0.856749  0.536257  0.451911  1
  S  S14  1  0.536257  0.856749  0.155082  1
  S  S15  1  0.155082  0.451911  0.536257  1
