# generated using pymatgen
data_SrSnO3
_symmetry_space_group_name_H-M   'P 1'
_cell_length_a   5.79168589
_cell_length_b   5.79168589
_cell_length_c   5.79168589
_cell_angle_alpha   120.00020004
_cell_angle_beta   119.47603834
_cell_angle_gamma   90.45478720
_symmetry_Int_Tables_number   1
_chemical_formula_structural   SrSnO3
_chemical_formula_sum   'Sr2 Sn2 O6'
_cell_volume   137.90805229
_cell_formula_units_Z   2
loop_
 _symmetry_equiv_pos_site_id
 _symmetry_equiv_pos_as_xyz
  1  'x, y, z'
loop_
 _atom_site_type_symbol
 _atom_site_label
 _atom_site_symmetry_multiplicity
 _atom_site_fract_x
 _atom_site_fract_y
 _atom_site_fract_z
 _atom_site_occupancy
  Sr  Sr0  1  0.240384  0.250000  0.990384  1
  Sr  Sr1  1  0.759616  0.750000  0.009616  1
  Sn  Sn2  1  0.500000  0.000000  0.500000  1
  Sn  Sn3  1  0.000000  0.500000  0.500000  1
  O  O4  1  0.794709  0.794709  0.500000  1
  O  O5  1  0.205291  0.705291  0.000000  1
  O  O6  1  0.205291  0.205291  0.500000  1
  O  O7  1  0.794709  0.294709  0.000000  1
  O  O8  1  0.329938  0.750000  0.579938  1
  O  O9  1  0.670062  0.250000  0.420062  1
