# generated using pymatgen
data_Li2US3
_symmetry_space_group_name_H-M   'P 1'
_cell_length_a   6.66056242
_cell_length_b   6.66056242
_cell_length_c   6.53474668
_cell_angle_alpha   80.18779104
_cell_angle_beta   99.81220896
_cell_angle_gamma   60.07556067
_symmetry_Int_Tables_number   1
_chemical_formula_structural   Li2US3
_chemical_formula_sum   'Li4 U2 S6'
_cell_volume   236.24384523
_cell_formula_units_Z   2
loop_
 _symmetry_equiv_pos_site_id
 _symmetry_equiv_pos_as_xyz
  1  'x, y, z'
loop_
 _atom_site_type_symbol
 _atom_site_label
 _atom_site_symmetry_multiplicity
 _atom_site_fract_x
 _atom_site_fract_y
 _atom_site_fract_z
 _atom_site_occupancy
  Li  Li0  1  0.000000  0.000000  0.000000  1
  Li  Li1  1  0.500000  0.500000  0.500000  1
  Li  Li2  1  0.835102  0.835102  0.500000  1
  Li  Li3  1  0.164898  0.164898  0.500000  1
  U  U4  1  0.666639  0.666639  0.000000  1
  U  U5  1  0.333361  0.333361  0.000000  1
  S  S6  1  0.255975  0.744025  0.748716  1
  S  S7  1  0.421485  0.917222  0.248169  1
  S  S8  1  0.082778  0.578515  0.248169  1
  S  S9  1  0.744025  0.255975  0.251284  1
  S  S10  1  0.578515  0.082778  0.751831  1
  S  S11  1  0.917222  0.421485  0.751831  1
