# generated using pymatgen
data_Sc3Si3Ni2
_symmetry_space_group_name_H-M   'P 1'
_cell_length_a   5.22935605
_cell_length_b   5.22935605
_cell_length_c   13.07610244
_cell_angle_alpha   90.00000000
_cell_angle_beta   90.00000000
_cell_angle_gamma   135.25560747
_symmetry_Int_Tables_number   1
_chemical_formula_structural   Sc3Si3Ni2
_chemical_formula_sum   'Sc6 Si6 Ni4'
_cell_volume   251.71761081
_cell_formula_units_Z   2
loop_
 _symmetry_equiv_pos_site_id
 _symmetry_equiv_pos_as_xyz
  1  'x, y, z'
loop_
 _atom_site_type_symbol
 _atom_site_label
 _atom_site_symmetry_multiplicity
 _atom_site_fract_x
 _atom_site_fract_y
 _atom_site_fract_z
 _atom_site_occupancy
  Sc  Sc0  1  0.917265  0.082735  0.888387  1
  Sc  Sc1  1  0.082735  0.917265  0.111613  1
  Sc  Sc2  1  0.082735  0.917265  0.388387  1
  Sc  Sc3  1  0.638467  0.361533  0.750000  1
  Sc  Sc4  1  0.917265  0.082735  0.611613  1
  Sc  Sc5  1  0.361533  0.638467  0.250000  1
  Si  Si6  1  0.659624  0.340376  0.250000  1
  Si  Si7  1  0.340376  0.659624  0.750000  1
  Si  Si8  1  0.616480  0.383520  0.539024  1
  Si  Si9  1  0.383520  0.616480  0.460976  1
  Si  Si10  1  0.383520  0.616480  0.039024  1
  Si  Si11  1  0.616480  0.383520  0.960976  1
  Ni  Ni12  1  0.791966  0.208034  0.403957  1
  Ni  Ni13  1  0.208034  0.791966  0.596043  1
  Ni  Ni14  1  0.791966  0.208034  0.096043  1
  Ni  Ni15  1  0.208034  0.791966  0.903957  1
