# generated using pymatgen
data_Y2(Al3Co)3
_symmetry_space_group_name_H-M   'P 1'
_cell_length_a   7.38082791
_cell_length_b   7.38082791
_cell_length_c   9.33271352
_cell_angle_alpha   90.00000000
_cell_angle_beta   90.00000000
_cell_angle_gamma   119.27758978
_symmetry_Int_Tables_number   1
_chemical_formula_structural   Y2(Al3Co)3
_chemical_formula_sum   'Y4 Al18 Co6'
_cell_volume   443.47011596
_cell_formula_units_Z   2
loop_
 _symmetry_equiv_pos_site_id
 _symmetry_equiv_pos_as_xyz
  1  'x, y, z'
loop_
 _atom_site_type_symbol
 _atom_site_label
 _atom_site_symmetry_multiplicity
 _atom_site_fract_x
 _atom_site_fract_y
 _atom_site_fract_z
 _atom_site_occupancy
  Y  Y0  1  0.993207  0.671884  0.250000  1
  Y  Y1  1  0.006793  0.328116  0.750000  1
  Y  Y2  1  0.671884  0.993207  0.250000  1
  Y  Y3  1  0.328116  0.006793  0.750000  1
  Al  Al4  1  0.125005  0.125005  0.250000  1
  Al  Al5  1  0.874995  0.874995  0.750000  1
  Al  Al6  1  0.332223  0.332223  0.541994  1
  Al  Al7  1  0.667777  0.667777  0.041994  1
  Al  Al8  1  0.332223  0.332223  0.958006  1
  Al  Al9  1  0.667777  0.667777  0.458006  1
  Al  Al10  1  0.338626  0.553308  0.250000  1
  Al  Al11  1  0.661374  0.446692  0.750000  1
  Al  Al12  1  0.553308  0.338626  0.250000  1
  Al  Al13  1  0.446692  0.661374  0.750000  1
  Al  Al14  1  0.998272  0.335162  0.070797  1
  Al  Al15  1  0.001728  0.664838  0.570797  1
  Al  Al16  1  0.335162  0.998272  0.429203  1
  Al  Al17  1  0.664838  0.001728  0.929203  1
  Al  Al18  1  0.001728  0.664838  0.929203  1
  Al  Al19  1  0.998272  0.335162  0.429203  1
  Al  Al20  1  0.664838  0.001728  0.570797  1
  Al  Al21  1  0.335162  0.998272  0.070797  1
  Co  Co22  1  0.000000  0.000000  0.000000  1
  Co  Co23  1  0.000000  0.000000  0.500000  1
  Co  Co24  1  0.670848  0.329152  0.000000  1
  Co  Co25  1  0.329152  0.670848  0.500000  1
  Co  Co26  1  0.329152  0.670848  0.000000  1
  Co  Co27  1  0.670848  0.329152  0.500000  1
