# generated using pymatgen
data_Sr4Mn3O10
_symmetry_space_group_name_H-M   'P 1'
_cell_length_a   6.86346542
_cell_length_b   6.86346542
_cell_length_c   12.89237353
_cell_angle_alpha   90.00000000
_cell_angle_beta   90.00000000
_cell_angle_gamma   132.30850189
_symmetry_Int_Tables_number   1
_chemical_formula_structural   Sr4Mn3O10
_chemical_formula_sum   'Sr8 Mn6 O20'
_cell_volume   449.13437233
_cell_formula_units_Z   2
loop_
 _symmetry_equiv_pos_site_id
 _symmetry_equiv_pos_as_xyz
  1  'x, y, z'
loop_
 _atom_site_type_symbol
 _atom_site_label
 _atom_site_symmetry_multiplicity
 _atom_site_fract_x
 _atom_site_fract_y
 _atom_site_fract_z
 _atom_site_occupancy
  Sr  Sr0  1  0.262824  0.737176  0.111544  1
  Sr  Sr1  1  0.762824  0.237176  0.388456  1
  Sr  Sr2  1  0.237176  0.762824  0.611544  1
  Sr  Sr3  1  0.529234  0.470766  0.644201  1
  Sr  Sr4  1  0.737176  0.262824  0.888456  1
  Sr  Sr5  1  0.970766  0.029234  0.144201  1
  Sr  Sr6  1  0.470766  0.529234  0.355799  1
  Sr  Sr7  1  0.029234  0.970766  0.855799  1
  Mn  Mn8  1  0.500000  0.500000  0.000000  1
  Mn  Mn9  1  0.632536  0.367464  0.152357  1
  Mn  Mn10  1  0.367464  0.632536  0.847643  1
  Mn  Mn11  1  0.867464  0.132536  0.652357  1
  Mn  Mn12  1  0.000000  0.000000  0.500000  1
  Mn  Mn13  1  0.132536  0.867464  0.347643  1
  O  O14  1  0.277341  0.722659  0.346945  1
  O  O15  1  0.722659  0.277341  0.653055  1
  O  O16  1  0.338679  0.119749  0.462337  1
  O  O17  1  0.380251  0.161321  0.037663  1
  O  O18  1  0.777341  0.222659  0.153055  1
  O  O19  1  0.119749  0.338679  0.537663  1
  O  O20  1  0.619749  0.838679  0.962337  1
  O  O21  1  0.880251  0.661321  0.462337  1
  O  O22  1  0.633798  0.866202  0.750000  1
  O  O23  1  0.536908  0.463092  0.854989  1
  O  O24  1  0.838679  0.619749  0.037663  1
  O  O25  1  0.161321  0.380251  0.962337  1
  O  O26  1  0.222659  0.777341  0.846945  1
  O  O27  1  0.366202  0.133798  0.250000  1
  O  O28  1  0.963092  0.036908  0.354989  1
  O  O29  1  0.463092  0.536908  0.145011  1
  O  O30  1  0.133798  0.366202  0.750000  1
  O  O31  1  0.036908  0.963092  0.645011  1
  O  O32  1  0.661321  0.880251  0.537663  1
  O  O33  1  0.866202  0.633798  0.250000  1
