# generated using pymatgen
data_MgSiO3
_symmetry_space_group_name_H-M   'P 1'
_cell_length_a   5.27939653
_cell_length_b   8.96474753
_cell_length_c   18.68860862
_cell_angle_alpha   90.00000000
_cell_angle_beta   95.23159046
_cell_angle_gamma   90.00000000
_symmetry_Int_Tables_number   1
_chemical_formula_structural   MgSiO3
_chemical_formula_sum   'Mg16 Si16 O48'
_cell_volume   880.81841470
_cell_formula_units_Z   16
loop_
 _symmetry_equiv_pos_site_id
 _symmetry_equiv_pos_as_xyz
  1  'x, y, z'
loop_
 _atom_site_type_symbol
 _atom_site_label
 _atom_site_symmetry_multiplicity
 _atom_site_fract_x
 _atom_site_fract_y
 _atom_site_fract_z
 _atom_site_occupancy
  Mg  Mg0  1  0.433104  0.098154  0.812888  1
  Mg  Mg1  1  0.933104  0.901846  0.812888  1
  Mg  Mg2  1  0.438041  0.740253  0.816218  1
  Mg  Mg3  1  0.938041  0.259747  0.816218  1
  Mg  Mg4  1  0.813154  0.400371  0.563584  1
  Mg  Mg5  1  0.313154  0.599629  0.563584  1
  Mg  Mg6  1  0.814620  0.755447  0.564088  1
  Mg  Mg7  1  0.314620  0.244553  0.564088  1
  Mg  Mg8  1  0.180538  0.099612  0.312380  1
  Mg  Mg9  1  0.680538  0.900388  0.312380  1
  Mg  Mg10  1  0.182237  0.741057  0.310845  1
  Mg  Mg11  1  0.682237  0.258943  0.310845  1
  Mg  Mg12  1  0.241346  0.401581  0.060575  1
  Mg  Mg13  1  0.741346  0.598419  0.060575  1
  Mg  Mg14  1  0.734990  0.238281  0.058439  1
  Mg  Mg15  1  0.234990  0.761719  0.058439  1
  Si  Si16  1  0.645158  0.913682  0.963165  1
  Si  Si17  1  0.145158  0.086318  0.963165  1
  Si  Si18  1  0.530184  0.413410  0.911073  1
  Si  Si19  1  0.030184  0.586590  0.911073  1
  Si  Si20  1  0.195337  0.410710  0.711204  1
  Si  Si21  1  0.695337  0.589290  0.711204  1
  Si  Si22  1  0.721230  0.090823  0.666865  1
  Si  Si23  1  0.221230  0.909177  0.666865  1
  Si  Si24  1  0.926904  0.588810  0.416088  1
  Si  Si25  1  0.426904  0.411190  0.416088  1
  Si  Si26  1  0.893142  0.089698  0.460778  1
  Si  Si27  1  0.393142  0.910302  0.460778  1
  Si  Si28  1  0.471733  0.089961  0.163858  1
  Si  Si29  1  0.971733  0.910039  0.163858  1
  Si  Si30  1  0.947610  0.409924  0.206474  1
  Si  Si31  1  0.447610  0.590076  0.206474  1
  O  O32  1  0.620000  0.910553  0.875101  1
  O  O33  1  0.120000  0.089447  0.875101  1
  O  O34  1  0.548686  0.768952  0.003785  1
  O  O35  1  0.048686  0.231048  0.003785  1
  O  O36  1  0.456979  0.054007  0.988554  1
  O  O37  1  0.956979  0.945993  0.988554  1
  O  O38  1  0.555521  0.409915  0.999118  1
  O  O39  1  0.055521  0.590085  0.999118  1
  O  O40  1  0.718612  0.553566  0.885763  1
  O  O41  1  0.218612  0.446434  0.885763  1
  O  O42  1  0.125016  0.731453  0.870257  1
  O  O43  1  0.625016  0.268547  0.870257  1
  O  O44  1  0.165749  0.411390  0.623404  1
  O  O45  1  0.665749  0.588610  0.623404  1
  O  O46  1  0.229649  0.252612  0.750996  1
  O  O47  1  0.729649  0.747388  0.750996  1
  O  O48  1  0.919541  0.467578  0.740918  1
  O  O49  1  0.419541  0.532422  0.740918  1
  O  O50  1  0.748073  0.092096  0.754881  1
  O  O51  1  0.248073  0.907904  0.754881  1
  O  O52  1  0.645649  0.245874  0.626130  1
  O  O53  1  0.145649  0.754126  0.626130  1
  O  O54  1  0.487370  0.974263  0.638042  1
  O  O55  1  0.987370  0.025737  0.638042  1
  O  O56  1  0.458402  0.409126  0.503914  1
  O  O57  1  0.958402  0.590874  0.503914  1
  O  O58  1  0.881928  0.741422  0.371985  1
  O  O59  1  0.381928  0.258578  0.371985  1
  O  O60  1  0.708193  0.462775  0.388812  1
  O  O61  1  0.208193  0.537225  0.388812  1
  O  O62  1  0.868872  0.092957  0.372666  1
  O  O63  1  0.368872  0.907043  0.372666  1
  O  O64  1  0.482402  0.758632  0.502806  1
  O  O65  1  0.982402  0.241368  0.502806  1
  O  O66  1  0.615565  0.036260  0.488061  1
  O  O67  1  0.115565  0.963740  0.488061  1
  O  O68  1  0.491765  0.089697  0.251575  1
  O  O69  1  0.991765  0.910303  0.251575  1
  O  O70  1  0.941747  0.752064  0.123396  1
  O  O71  1  0.441747  0.247936  0.123396  1
  O  O72  1  0.744962  0.030114  0.133698  1
  O  O73  1  0.244962  0.969886  0.133698  1
  O  O74  1  0.927195  0.407727  0.118800  1
  O  O75  1  0.427195  0.592273  0.118800  1
  O  O76  1  0.981433  0.254926  0.249665  1
  O  O77  1  0.481433  0.745074  0.249665  1
  O  O78  1  0.673358  0.469132  0.235152  1
  O  O79  1  0.173358  0.530868  0.235152  1
