# generated using pymatgen
data_Y(PO3)3
_symmetry_space_group_name_H-M   'P 1'
_cell_length_a   8.04316635
_cell_length_b   8.04316635
_cell_length_c   10.24883963
_cell_angle_alpha   57.03130906
_cell_angle_beta   122.96869094
_cell_angle_gamma   128.89755586
_symmetry_Int_Tables_number   1
_chemical_formula_structural   Y(PO3)3
_chemical_formula_sum   'Y2 P6 O18'
_cell_volume   411.57670804
_cell_formula_units_Z   2
loop_
 _symmetry_equiv_pos_site_id
 _symmetry_equiv_pos_as_xyz
  1  'x, y, z'
loop_
 _atom_site_type_symbol
 _atom_site_label
 _atom_site_symmetry_multiplicity
 _atom_site_fract_x
 _atom_site_fract_y
 _atom_site_fract_z
 _atom_site_occupancy
  Y  Y0  1  0.694559  0.794818  0.749904  1
  Y  Y1  1  0.205182  0.305441  0.249904  1
  P  P2  1  0.398493  0.809199  0.912656  1
  P  P3  1  0.190801  0.601507  0.412656  1
  P  P4  1  0.624387  0.220056  0.008506  1
  P  P5  1  0.779944  0.375613  0.508506  1
  P  P6  1  0.203525  0.003154  0.085085  1
  P  P7  1  0.996846  0.796475  0.585085  1
  O  O8  1  0.530439  0.064963  0.908382  1
  O  O9  1  0.935037  0.469561  0.408382  1
  O  O10  1  0.457885  0.082512  0.112544  1
  O  O11  1  0.917488  0.542115  0.612544  1
  O  O12  1  0.171561  0.800447  0.248468  1
  O  O13  1  0.199553  0.828439  0.748468  1
  O  O14  1  0.541933  0.771043  0.892429  1
  O  O15  1  0.228957  0.458067  0.392429  1
  O  O16  1  0.310315  0.649338  0.055971  1
  O  O17  1  0.350662  0.689685  0.555971  1
  O  O18  1  0.611270  0.431902  0.886169  1
  O  O19  1  0.568098  0.388730  0.386169  1
  O  O20  1  0.848275  0.238340  0.129131  1
  O  O21  1  0.761660  0.151725  0.629131  1
  O  O22  1  0.043555  0.920115  0.939128  1
  O  O23  1  0.079885  0.956445  0.439128  1
  O  O24  1  0.196055  0.178566  0.094127  1
  O  O25  1  0.821434  0.803945  0.594127  1
