# generated using pymatgen
data_Nb5GaSn2
_symmetry_space_group_name_H-M   'P 1'
_cell_length_a   8.01614139
_cell_length_b   8.01614139
_cell_length_c   8.01614139
_cell_angle_alpha   96.04617301
_cell_angle_beta   96.04617301
_cell_angle_gamma   142.12389753
_symmetry_Int_Tables_number   1
_chemical_formula_structural   Nb5GaSn2
_chemical_formula_sum   'Nb10 Ga2 Sn4'
_cell_volume   299.13335247
_cell_formula_units_Z   2
loop_
 _symmetry_equiv_pos_site_id
 _symmetry_equiv_pos_as_xyz
  1  'x, y, z'
loop_
 _atom_site_type_symbol
 _atom_site_label
 _atom_site_symmetry_multiplicity
 _atom_site_fract_x
 _atom_site_fract_y
 _atom_site_fract_z
 _atom_site_occupancy
  Nb  Nb0  1  0.750000  0.250000  0.500000  1
  Nb  Nb1  1  0.250000  0.750000  0.500000  1
  Nb  Nb2  1  0.782423  0.070821  0.853244  1
  Nb  Nb3  1  0.929179  0.782423  0.711603  1
  Nb  Nb4  1  0.070821  0.217577  0.288397  1
  Nb  Nb5  1  0.217577  0.929179  0.146756  1
  Nb  Nb6  1  0.570821  0.282423  0.853244  1
  Nb  Nb7  1  0.429179  0.717577  0.146756  1
  Nb  Nb8  1  0.282423  0.429179  0.711603  1
  Nb  Nb9  1  0.717577  0.570821  0.288397  1
  Ga  Ga10  1  0.250000  0.250000  0.000000  1
  Ga  Ga11  1  0.750000  0.750000  0.000000  1
  Sn  Sn12  1  0.331250  0.168750  0.500000  1
  Sn  Sn13  1  0.831250  0.331250  0.162501  1
  Sn  Sn14  1  0.168750  0.668750  0.837499  1
  Sn  Sn15  1  0.668750  0.831250  0.500000  1
