# generated using pymatgen
data_B2Ru
_symmetry_space_group_name_H-M   'P 1'
_cell_length_a   2.88311000
_cell_length_b   4.05521386
_cell_length_c   4.66680041
_cell_angle_alpha   90.00000000
_cell_angle_beta   90.00000000
_cell_angle_gamma   90.00000000
_symmetry_Int_Tables_number   1
_chemical_formula_structural   B2Ru
_chemical_formula_sum   'B4 Ru2'
_cell_volume   54.56249263
_cell_formula_units_Z   2
loop_
 _symmetry_equiv_pos_site_id
 _symmetry_equiv_pos_as_xyz
  1  'x, y, z'
loop_
 _atom_site_type_symbol
 _atom_site_label
 _atom_site_symmetry_multiplicity
 _atom_site_fract_x
 _atom_site_fract_y
 _atom_site_fract_z
 _atom_site_occupancy
  B  B0  1  0.000000  0.363571  0.803892  1
  B  B1  1  0.500000  0.636429  0.696108  1
  B  B2  1  0.000000  0.363571  0.196108  1
  B  B3  1  0.500000  0.636429  0.303892  1
  Ru  Ru4  1  0.000000  0.848313  0.000000  1
  Ru  Ru5  1  0.500000  0.151687  0.500000  1
