# generated using pymatgen
data_HfZn16
_symmetry_space_group_name_H-M   'P 1'
_cell_length_a   6.96157646
_cell_length_b   6.96157646
_cell_length_c   11.84369409
_cell_angle_alpha   90.00000000
_cell_angle_beta   90.00000000
_cell_angle_gamma   112.34343593
_symmetry_Int_Tables_number   1
_chemical_formula_structural   HfZn16
_chemical_formula_sum   'Hf2 Zn32'
_cell_volume   530.89347252
_cell_formula_units_Z   2
loop_
 _symmetry_equiv_pos_site_id
 _symmetry_equiv_pos_as_xyz
  1  'x, y, z'
loop_
 _atom_site_type_symbol
 _atom_site_label
 _atom_site_symmetry_multiplicity
 _atom_site_fract_x
 _atom_site_fract_y
 _atom_site_fract_z
 _atom_site_occupancy
  Hf  Hf0  1  0.952735  0.047265  0.250000  1
  Hf  Hf1  1  0.047265  0.952735  0.750000  1
  Zn  Zn2  1  0.982877  0.354952  0.069248  1
  Zn  Zn3  1  0.017123  0.645048  0.569248  1
  Zn  Zn4  1  0.354952  0.982877  0.930752  1
  Zn  Zn5  1  0.645048  0.017123  0.430752  1
  Zn  Zn6  1  0.017123  0.645048  0.930752  1
  Zn  Zn7  1  0.982877  0.354952  0.430752  1
  Zn  Zn8  1  0.645048  0.017123  0.069248  1
  Zn  Zn9  1  0.354952  0.982877  0.569248  1
  Zn  Zn10  1  0.756018  0.648660  0.134099  1
  Zn  Zn11  1  0.243982  0.351340  0.634099  1
  Zn  Zn12  1  0.648660  0.756018  0.865901  1
  Zn  Zn13  1  0.351340  0.243982  0.365901  1
  Zn  Zn14  1  0.243982  0.351340  0.865901  1
  Zn  Zn15  1  0.756018  0.648660  0.365901  1
  Zn  Zn16  1  0.351340  0.243982  0.134099  1
  Zn  Zn17  1  0.648660  0.756018  0.634099  1
  Zn  Zn18  1  0.193962  0.479847  0.250000  1
  Zn  Zn19  1  0.806038  0.520153  0.750000  1
  Zn  Zn20  1  0.479847  0.193962  0.750000  1
  Zn  Zn21  1  0.520153  0.806038  0.250000  1
  Zn  Zn22  1  0.822183  0.177817  0.639570  1
  Zn  Zn23  1  0.177817  0.822183  0.139570  1
  Zn  Zn24  1  0.177817  0.822183  0.360430  1
  Zn  Zn25  1  0.822183  0.177817  0.860430  1
  Zn  Zn26  1  0.378921  0.621079  0.030889  1
  Zn  Zn27  1  0.621079  0.378921  0.530889  1
  Zn  Zn28  1  0.621079  0.378921  0.969111  1
  Zn  Zn29  1  0.378921  0.621079  0.469111  1
  Zn  Zn30  1  0.708018  0.291982  0.250000  1
  Zn  Zn31  1  0.291982  0.708018  0.750000  1
  Zn  Zn32  1  0.000000  0.000000  0.000000  1
  Zn  Zn33  1  0.000000  0.000000  0.500000  1
