# generated using pymatgen
data_ErBO3
_symmetry_space_group_name_H-M   'P 1'
_cell_length_a   7.18248736
_cell_length_b   8.98394032
_cell_length_c   9.83816768
_cell_angle_alpha   81.33542210
_cell_angle_beta   85.65878113
_cell_angle_gamma   77.35866460
_symmetry_Int_Tables_number   1
_chemical_formula_structural   ErBO3
_chemical_formula_sum   'Er12 B12 O36'
_cell_volume   611.76850193
_cell_formula_units_Z   12
loop_
 _symmetry_equiv_pos_site_id
 _symmetry_equiv_pos_as_xyz
  1  'x, y, z'
loop_
 _atom_site_type_symbol
 _atom_site_label
 _atom_site_symmetry_multiplicity
 _atom_site_fract_x
 _atom_site_fract_y
 _atom_site_fract_z
 _atom_site_occupancy
  Er  Er0  1  0.263147  0.558487  0.972598  1
  Er  Er1  1  0.736853  0.441513  0.027402  1
  Er  Er2  1  0.750682  0.957651  0.519035  1
  Er  Er3  1  0.249318  0.042349  0.480965  1
  Er  Er4  1  0.902165  0.067382  0.837097  1
  Er  Er5  1  0.097835  0.932618  0.162903  1
  Er  Er6  1  0.097310  0.435876  0.670997  1
  Er  Er7  1  0.902690  0.564124  0.329003  1
  Er  Er8  1  0.564261  0.558478  0.656790  1
  Er  Er9  1  0.435739  0.441522  0.343210  1
  Er  Er10  1  0.427272  0.943014  0.845033  1
  Er  Er11  1  0.572728  0.056986  0.154967  1
  B  B12  1  0.477841  0.284884  0.921867  1
  B  B13  1  0.522159  0.715116  0.078133  1
  B  B14  1  0.466458  0.779790  0.386601  1
  B  B15  1  0.533542  0.220210  0.613399  1
  B  B16  1  0.831426  0.728028  0.794047  1
  B  B17  1  0.168574  0.271972  0.205953  1
  B  B18  1  0.219519  0.782752  0.691914  1
  B  B19  1  0.780481  0.217248  0.308086  1
  B  B20  1  0.885101  0.743774  0.051440  1
  B  B21  1  0.114899  0.256226  0.948560  1
  B  B22  1  0.106700  0.752255  0.447746  1
  B  B23  1  0.893300  0.247745  0.552253  1
  O  O24  1  0.064957  0.185908  0.629903  1
  O  O25  1  0.935043  0.814092  0.370097  1
  O  O26  1  0.941198  0.318316  0.873257  1
  O  O27  1  0.058802  0.681684  0.126743  1
  O  O28  1  0.920106  0.161073  0.427755  1
  O  O29  1  0.079894  0.838927  0.572245  1
  O  O30  1  0.081475  0.334566  0.080668  1
  O  O31  1  0.918525  0.665434  0.919332  1
  O  O32  1  0.850247  0.412720  0.534416  1
  O  O33  1  0.149753  0.587280  0.465584  1
  O  O34  1  0.152822  0.089995  0.964475  1
  O  O35  1  0.847178  0.910005  0.035525  1
  O  O36  1  0.268109  0.817674  0.363633  1
  O  O37  1  0.731891  0.182326  0.636367  1
  O  O38  1  0.271432  0.323509  0.872371  1
  O  O39  1  0.728568  0.676491  0.127629  1
  O  O40  1  0.843189  0.124666  0.197560  1
  O  O41  1  0.156811  0.875334  0.802440  1
  O  O42  1  0.168503  0.370091  0.300760  1
  O  O43  1  0.831497  0.629909  0.699240  1
  O  O44  1  0.755183  0.383569  0.263013  1
  O  O45  1  0.244817  0.616431  0.736987  1
  O  O46  1  0.245948  0.116667  0.239788  1
  O  O47  1  0.754052  0.883333  0.760212  1
  O  O48  1  0.453619  0.093036  0.625619  1
  O  O49  1  0.546381  0.906964  0.374381  1
  O  O50  1  0.435114  0.592687  0.149305  1
  O  O51  1  0.564886  0.407313  0.850695  1
  O  O52  1  0.566127  0.631726  0.416099  1
  O  O53  1  0.433873  0.368274  0.583901  1
  O  O54  1  0.428480  0.872837  0.088185  1
  O  O55  1  0.571520  0.127163  0.911815  1
  O  O56  1  0.591463  0.187052  0.367974  1
  O  O57  1  0.408537  0.812948  0.632026  1
  O  O58  1  0.473756  0.310728  0.071236  1
  O  O59  1  0.526244  0.689272  0.928764  1
