# generated using pymatgen
data_LaMnO3
_symmetry_space_group_name_H-M   'P 1'
_cell_length_a   5.56396973
_cell_length_b   5.56396973
_cell_length_c   5.56396973
_cell_angle_alpha   61.04400604
_cell_angle_beta   61.04400604
_cell_angle_gamma   61.04400604
_symmetry_Int_Tables_number   1
_chemical_formula_structural   LaMnO3
_chemical_formula_sum   'La2 Mn2 O6'
_cell_volume   124.66110766
_cell_formula_units_Z   2
loop_
 _symmetry_equiv_pos_site_id
 _symmetry_equiv_pos_as_xyz
  1  'x, y, z'
loop_
 _atom_site_type_symbol
 _atom_site_label
 _atom_site_symmetry_multiplicity
 _atom_site_fract_x
 _atom_site_fract_y
 _atom_site_fract_z
 _atom_site_occupancy
  La  La0  1  0.250000  0.250000  0.250000  1
  La  La1  1  0.750000  0.750000  0.750000  1
  Mn  Mn2  1  0.500000  0.500000  0.500000  1
  Mn  Mn3  1  0.000000  0.000000  0.000000  1
  O  O4  1  0.823581  0.676419  0.250000  1
  O  O5  1  0.676419  0.250000  0.823581  1
  O  O6  1  0.250000  0.823581  0.676419  1
  O  O7  1  0.176419  0.323581  0.750000  1
  O  O8  1  0.750000  0.176419  0.323581  1
  O  O9  1  0.323581  0.750000  0.176419  1
