# generated using pymatgen
data_HgB4O7
_symmetry_space_group_name_H-M   'P 1'
_cell_length_a   4.24180230
_cell_length_b   4.44825599
_cell_length_c   10.83168600
_cell_angle_alpha   90.00000000
_cell_angle_beta   90.00000000
_cell_angle_gamma   90.00000000
_symmetry_Int_Tables_number   1
_chemical_formula_structural   HgB4O7
_chemical_formula_sum   'Hg2 B8 O14'
_cell_volume   204.37899406
_cell_formula_units_Z   2
loop_
 _symmetry_equiv_pos_site_id
 _symmetry_equiv_pos_as_xyz
  1  'x, y, z'
loop_
 _atom_site_type_symbol
 _atom_site_label
 _atom_site_symmetry_multiplicity
 _atom_site_fract_x
 _atom_site_fract_y
 _atom_site_fract_z
 _atom_site_occupancy
  Hg  Hg0  1  0.392695  0.176845  0.500000  1
  Hg  Hg1  1  0.892695  0.823155  0.000000  1
  B  B2  1  0.408523  0.326311  0.879383  1
  B  B3  1  0.931120  0.172987  0.248777  1
  B  B4  1  0.431120  0.827013  0.251223  1
  B  B5  1  0.908523  0.673689  0.620617  1
  B  B6  1  0.908523  0.673689  0.379383  1
  B  B7  1  0.408523  0.326311  0.120617  1
  B  B8  1  0.931120  0.172987  0.751223  1
  B  B9  1  0.431120  0.827013  0.748777  1
  O  O10  1  0.072195  0.266971  0.134838  1
  O  O11  1  0.572195  0.733029  0.365162  1
  O  O12  1  0.480148  0.644395  0.858296  1
  O  O13  1  0.980148  0.355605  0.641704  1
  O  O14  1  0.980148  0.355605  0.358296  1
  O  O15  1  0.480148  0.644395  0.141704  1
  O  O16  1  0.575976  0.132933  0.779103  1
  O  O17  1  0.075976  0.867067  0.720897  1
  O  O18  1  0.075976  0.867067  0.279103  1
  O  O19  1  0.575976  0.132933  0.220897  1
  O  O20  1  0.516552  0.233003  0.000000  1
  O  O21  1  0.016552  0.766997  0.500000  1
  O  O22  1  0.072195  0.266971  0.865162  1
  O  O23  1  0.572195  0.733029  0.634838  1
