# generated using pymatgen
data_RbTbSe2
_symmetry_space_group_name_H-M   'P 1'
_cell_length_a   8.36921760
_cell_length_b   8.36921760
_cell_length_c   8.36921760
_cell_angle_alpha   29.51012904
_cell_angle_beta   29.51012904
_cell_angle_gamma   29.51012904
_symmetry_Int_Tables_number   1
_chemical_formula_structural   RbTbSe2
_chemical_formula_sum   'Rb1 Tb1 Se2'
_cell_volume   125.89759724
_cell_formula_units_Z   1
loop_
 _symmetry_equiv_pos_site_id
 _symmetry_equiv_pos_as_xyz
  1  'x, y, z'
loop_
 _atom_site_type_symbol
 _atom_site_label
 _atom_site_symmetry_multiplicity
 _atom_site_fract_x
 _atom_site_fract_y
 _atom_site_fract_z
 _atom_site_occupancy
  Rb  Rb0  1  0.000000  0.000000  0.000000  1
  Tb  Tb1  1  0.500000  0.500000  0.500000  1
  Se  Se2  1  0.767989  0.767989  0.767989  1
  Se  Se3  1  0.232011  0.232011  0.232011  1
