# generated using pymatgen
data_Rh3Se8
_symmetry_space_group_name_H-M   'P 1'
_cell_length_a   6.06034651
_cell_length_b   6.06034651
_cell_length_c   6.06034651
_cell_angle_alpha   90.88937102
_cell_angle_beta   90.88937102
_cell_angle_gamma   90.88937102
_symmetry_Int_Tables_number   1
_chemical_formula_structural   Rh3Se8
_chemical_formula_sum   'Rh3 Se8'
_cell_volume   222.50190720
_cell_formula_units_Z   1
loop_
 _symmetry_equiv_pos_site_id
 _symmetry_equiv_pos_as_xyz
  1  'x, y, z'
loop_
 _atom_site_type_symbol
 _atom_site_label
 _atom_site_symmetry_multiplicity
 _atom_site_fract_x
 _atom_site_fract_y
 _atom_site_fract_z
 _atom_site_occupancy
  Rh  Rh0  1  0.500000  0.000000  0.500000  1
  Rh  Rh1  1  0.500000  0.500000  1.000000  1
  Rh  Rh2  1  0.000000  0.500000  0.500000  1
  Se  Se3  1  0.112457  0.383474  0.881637  1
  Se  Se4  1  0.881637  0.112457  0.383474  1
  Se  Se5  1  0.383474  0.881637  0.112457  1
  Se  Se6  1  0.887543  0.616526  0.118363  1
  Se  Se7  1  0.118363  0.887543  0.616526  1
  Se  Se8  1  0.616526  0.118363  0.887543  1
  Se  Se9  1  0.621235  0.621235  0.621235  1
  Se  Se10  1  0.378765  0.378765  0.378765  1
