# generated using pymatgen
data_TbAl7Au3
_symmetry_space_group_name_H-M   'P 1'
_cell_length_a   8.46458746
_cell_length_b   8.46458746
_cell_length_c   8.46458746
_cell_angle_alpha   57.23768994
_cell_angle_beta   57.23768994
_cell_angle_gamma   57.23768994
_symmetry_Int_Tables_number   1
_chemical_formula_structural   TbAl7Au3
_chemical_formula_sum   'Tb2 Al14 Au6'
_cell_volume   401.56510780
_cell_formula_units_Z   2
loop_
 _symmetry_equiv_pos_site_id
 _symmetry_equiv_pos_as_xyz
  1  'x, y, z'
loop_
 _atom_site_type_symbol
 _atom_site_label
 _atom_site_symmetry_multiplicity
 _atom_site_fract_x
 _atom_site_fract_y
 _atom_site_fract_z
 _atom_site_occupancy
  Tb  Tb0  1  0.500000  0.500000  0.500000  1
  Tb  Tb1  1  0.000000  0.000000  0.000000  1
  Al  Al2  1  0.569690  0.167394  0.352758  1
  Al  Al3  1  0.167394  0.352758  0.569690  1
  Al  Al4  1  0.352758  0.569690  0.167394  1
  Al  Al5  1  0.930310  0.147242  0.332606  1
  Al  Al6  1  0.147242  0.332606  0.930310  1
  Al  Al7  1  0.332606  0.930310  0.147242  1
  Al  Al8  1  0.430310  0.832606  0.647242  1
  Al  Al9  1  0.832606  0.647242  0.430310  1
  Al  Al10  1  0.750000  0.750000  0.750000  1
  Al  Al11  1  0.250000  0.250000  0.250000  1
  Al  Al12  1  0.667394  0.069690  0.852758  1
  Al  Al13  1  0.852758  0.667394  0.069690  1
  Al  Al14  1  0.069690  0.852758  0.667394  1
  Al  Al15  1  0.647242  0.430310  0.832606  1
  Au  Au16  1  0.250000  0.573388  0.926612  1
  Au  Au17  1  0.573388  0.926612  0.250000  1
  Au  Au18  1  0.926612  0.250000  0.573388  1
  Au  Au19  1  0.750000  0.426612  0.073388  1
  Au  Au20  1  0.426612  0.073388  0.750000  1
  Au  Au21  1  0.073388  0.750000  0.426612  1
