# generated using pymatgen
data_LuAl3(PbO4)2
_symmetry_space_group_name_H-M   'P 1'
_cell_length_a   9.48430377
_cell_length_b   9.48430377
_cell_length_c   9.48430377
_cell_angle_alpha   90.00000000
_cell_angle_beta   90.00000000
_cell_angle_gamma   90.00000000
_symmetry_Int_Tables_number   1
_chemical_formula_structural   LuAl3(PbO4)2
_chemical_formula_sum   'Lu4 Al12 Pb8 O32'
_cell_volume   853.13226345
_cell_formula_units_Z   4
loop_
 _symmetry_equiv_pos_site_id
 _symmetry_equiv_pos_as_xyz
  1  'x, y, z'
loop_
 _atom_site_type_symbol
 _atom_site_label
 _atom_site_symmetry_multiplicity
 _atom_site_fract_x
 _atom_site_fract_y
 _atom_site_fract_z
 _atom_site_occupancy
  Lu  Lu0  1  0.250000  0.750000  0.250000  1
  Lu  Lu1  1  0.750000  0.250000  0.250000  1
  Lu  Lu2  1  0.750000  0.750000  0.750000  1
  Lu  Lu3  1  0.250000  0.250000  0.750000  1
  Al  Al4  1  0.500000  0.000000  0.250000  1
  Al  Al5  1  0.750000  0.500000  0.000000  1
  Al  Al6  1  0.250000  0.500000  0.000000  1
  Al  Al7  1  0.000000  0.250000  0.500000  1
  Al  Al8  1  0.000000  0.750000  0.500000  1
  Al  Al9  1  0.500000  0.000000  0.750000  1
  Al  Al10  1  0.000000  0.500000  0.250000  1
  Al  Al11  1  0.750000  0.000000  0.500000  1
  Al  Al12  1  0.250000  0.000000  0.500000  1
  Al  Al13  1  0.500000  0.250000  0.000000  1
  Al  Al14  1  0.500000  0.750000  0.000000  1
  Al  Al15  1  0.000000  0.500000  0.750000  1
  Pb  Pb16  1  0.365534  0.365534  0.365534  1
  Pb  Pb17  1  0.865534  0.134466  0.865534  1
  Pb  Pb18  1  0.134466  0.865534  0.865534  1
  Pb  Pb19  1  0.865534  0.865534  0.134466  1
  Pb  Pb20  1  0.365534  0.634466  0.634466  1
  Pb  Pb21  1  0.634466  0.634466  0.365534  1
  Pb  Pb22  1  0.634466  0.365534  0.634466  1
  Pb  Pb23  1  0.134466  0.134466  0.134466  1
  O  O24  1  0.515901  0.160201  0.160201  1
  O  O25  1  0.515901  0.839799  0.839799  1
  O  O26  1  0.160201  0.160201  0.515901  1
  O  O27  1  0.839799  0.160201  0.484099  1
  O  O28  1  0.160201  0.515901  0.160201  1
  O  O29  1  0.839799  0.484099  0.160201  1
  O  O30  1  0.015901  0.660201  0.339799  1
  O  O31  1  0.015901  0.339799  0.660201  1
  O  O32  1  0.984099  0.660201  0.660201  1
  O  O33  1  0.339799  0.660201  0.015901  1
  O  O34  1  0.660201  0.984099  0.660201  1
  O  O35  1  0.660201  0.015901  0.339799  1
  O  O36  1  0.660201  0.339799  0.015901  1
  O  O37  1  0.339799  0.015901  0.660201  1
  O  O38  1  0.660201  0.660201  0.984099  1
  O  O39  1  0.339799  0.339799  0.984099  1
  O  O40  1  0.339799  0.984099  0.339799  1
  O  O41  1  0.839799  0.515901  0.839799  1
  O  O42  1  0.160201  0.484099  0.839799  1
  O  O43  1  0.160201  0.839799  0.484099  1
  O  O44  1  0.839799  0.839799  0.515901  1
  O  O45  1  0.484099  0.839799  0.160201  1
  O  O46  1  0.484099  0.160201  0.839799  1
  O  O47  1  0.984099  0.339799  0.339799  1
  O  O48  1  0.615122  0.615122  0.615122  1
  O  O49  1  0.115122  0.884878  0.115122  1
  O  O50  1  0.115122  0.115122  0.884878  1
  O  O51  1  0.884878  0.115122  0.115122  1
  O  O52  1  0.384878  0.384878  0.615122  1
  O  O53  1  0.615122  0.384878  0.384878  1
  O  O54  1  0.384878  0.615122  0.384878  1
  O  O55  1  0.884878  0.884878  0.884878  1
