# generated using pymatgen
data_Al2O3
_symmetry_space_group_name_H-M   'P 1'
_cell_length_a   4.84693288
_cell_length_b   4.98540426
_cell_length_c   7.08994123
_cell_angle_alpha   90.00000000
_cell_angle_beta   90.00000000
_cell_angle_gamma   90.00000000
_symmetry_Int_Tables_number   1
_chemical_formula_structural   Al2O3
_chemical_formula_sum   'Al8 O12'
_cell_volume   171.32077147
_cell_formula_units_Z   4
loop_
 _symmetry_equiv_pos_site_id
 _symmetry_equiv_pos_as_xyz
  1  'x, y, z'
loop_
 _atom_site_type_symbol
 _atom_site_label
 _atom_site_symmetry_multiplicity
 _atom_site_fract_x
 _atom_site_fract_y
 _atom_site_fract_z
 _atom_site_occupancy
  Al  Al0  1  0.252152  0.030514  0.390395  1
  Al  Al1  1  0.252152  0.469486  0.609605  1
  Al  Al2  1  0.247848  0.530514  0.109605  1
  Al  Al3  1  0.247848  0.969486  0.890395  1
  Al  Al4  1  0.747848  0.969486  0.609605  1
  Al  Al5  1  0.747848  0.530514  0.390395  1
  Al  Al6  1  0.752152  0.469486  0.890395  1
  Al  Al7  1  0.752152  0.030514  0.109605  1
  O  O8  1  0.107021  0.101976  0.654002  1
  O  O9  1  0.107021  0.398024  0.345998  1
  O  O10  1  0.392979  0.601976  0.845998  1
  O  O11  1  0.392979  0.898024  0.154002  1
  O  O12  1  0.892979  0.898024  0.345998  1
  O  O13  1  0.892979  0.601976  0.654002  1
  O  O14  1  0.607021  0.398024  0.154002  1
  O  O15  1  0.607021  0.101976  0.845998  1
  O  O16  1  0.049404  0.250000  0.000000  1
  O  O17  1  0.450596  0.750000  0.500000  1
  O  O18  1  0.950596  0.750000  0.000000  1
  O  O19  1  0.549404  0.250000  0.500000  1
