# generated using pymatgen
data_Tl3B3S10
_symmetry_space_group_name_H-M   'P 1'
_cell_length_a   7.04996441
_cell_length_b   7.99545519
_cell_length_c   13.96633768
_cell_angle_alpha   102.91384077
_cell_angle_beta   93.25886866
_cell_angle_gamma   95.98971680
_symmetry_Int_Tables_number   1
_chemical_formula_structural   Tl3B3S10
_chemical_formula_sum   'Tl6 B6 S20'
_cell_volume   760.53490788
_cell_formula_units_Z   2
loop_
 _symmetry_equiv_pos_site_id
 _symmetry_equiv_pos_as_xyz
  1  'x, y, z'
loop_
 _atom_site_type_symbol
 _atom_site_label
 _atom_site_symmetry_multiplicity
 _atom_site_fract_x
 _atom_site_fract_y
 _atom_site_fract_z
 _atom_site_occupancy
  Tl  Tl0  1  0.009327  0.874828  0.797132  1
  Tl  Tl1  1  0.990673  0.125172  0.202868  1
  Tl  Tl2  1  0.273552  0.436970  0.842895  1
  Tl  Tl3  1  0.726448  0.563030  0.157105  1
  Tl  Tl4  1  0.681979  0.813465  0.515934  1
  Tl  Tl5  1  0.318021  0.186535  0.484066  1
  B  B6  1  0.632613  0.084821  0.911179  1
  B  B7  1  0.367387  0.915179  0.088821  1
  B  B8  1  0.740261  0.275957  0.758799  1
  B  B9  1  0.259739  0.724043  0.241201  1
  B  B10  1  0.896103  0.382945  0.585947  1
  B  B11  1  0.103897  0.617055  0.414053  1
  S  S12  1  0.075398  0.785785  0.337592  1
  S  S13  1  0.924602  0.214215  0.662408  1
  S  S14  1  0.169661  0.749900  0.113789  1
  S  S15  1  0.830339  0.250100  0.886211  1
  S  S16  1  0.328628  0.505766  0.382585  1
  S  S17  1  0.671372  0.494234  0.617415  1
  S  S18  1  0.297368  0.485865  0.230989  1
  S  S19  1  0.702632  0.514135  0.769011  1
  S  S20  1  0.509308  0.857589  0.281288  1
  S  S21  1  0.490692  0.142411  0.718712  1
  S  S22  1  0.478668  0.058565  0.212260  1
  S  S23  1  0.521332  0.941435  0.787740  1
  S  S24  1  0.535445  0.773512  0.013882  1
  S  S25  1  0.464555  0.226488  0.986118  1
  S  S26  1  0.242023  0.054482  0.015440  1
  S  S27  1  0.757977  0.945518  0.984560  1
  S  S28  1  0.138504  0.732202  0.550270  1
  S  S29  1  0.861496  0.267798  0.449730  1
  S  S30  1  0.135576  0.527635  0.623084  1
  S  S31  1  0.864424  0.472365  0.376916  1
