# generated using pymatgen
data_SrSb2
_symmetry_space_group_name_H-M   'P 1'
_cell_length_a   4.95475915
_cell_length_b   4.37873669
_cell_length_c   9.18725848
_cell_angle_alpha   90.00000000
_cell_angle_beta   101.74988830
_cell_angle_gamma   90.00000000
_symmetry_Int_Tables_number   1
_chemical_formula_structural   SrSb2
_chemical_formula_sum   'Sr2 Sb4'
_cell_volume   195.14631421
_cell_formula_units_Z   2
loop_
 _symmetry_equiv_pos_site_id
 _symmetry_equiv_pos_as_xyz
  1  'x, y, z'
loop_
 _atom_site_type_symbol
 _atom_site_label
 _atom_site_symmetry_multiplicity
 _atom_site_fract_x
 _atom_site_fract_y
 _atom_site_fract_z
 _atom_site_occupancy
  Sr  Sr0  1  0.406755  0.750000  0.289920  1
  Sr  Sr1  1  0.593245  0.250000  0.710080  1
  Sb  Sb2  1  0.813189  0.750000  0.021321  1
  Sb  Sb3  1  0.186811  0.250000  0.978679  1
  Sb  Sb4  1  0.056135  0.750000  0.613249  1
  Sb  Sb5  1  0.943865  0.250000  0.386751  1
