# generated using pymatgen
data_Ba6Ga5N
_symmetry_space_group_name_H-M   'P 1'
_cell_length_a   14.86310504
_cell_length_b   14.86310504
_cell_length_c   14.86310504
_cell_angle_alpha   31.14513477
_cell_angle_beta   31.14513477
_cell_angle_gamma   31.14513477
_symmetry_Int_Tables_number   1
_chemical_formula_structural   Ba6Ga5N
_chemical_formula_sum   'Ba12 Ga10 N2'
_cell_volume   779.35586920
_cell_formula_units_Z   2
loop_
 _symmetry_equiv_pos_site_id
 _symmetry_equiv_pos_as_xyz
  1  'x, y, z'
loop_
 _atom_site_type_symbol
 _atom_site_label
 _atom_site_symmetry_multiplicity
 _atom_site_fract_x
 _atom_site_fract_y
 _atom_site_fract_z
 _atom_site_occupancy
  Ba  Ba0  1  0.789695  0.238348  0.363929  1
  Ba  Ba1  1  0.238348  0.363929  0.789695  1
  Ba  Ba2  1  0.363929  0.789695  0.238348  1
  Ba  Ba3  1  0.710305  0.136071  0.261652  1
  Ba  Ba4  1  0.136071  0.261652  0.710305  1
  Ba  Ba5  1  0.261652  0.710305  0.136071  1
  Ba  Ba6  1  0.210305  0.761652  0.636071  1
  Ba  Ba7  1  0.761652  0.636071  0.210305  1
  Ba  Ba8  1  0.636071  0.210305  0.761652  1
  Ba  Ba9  1  0.289695  0.863929  0.738348  1
  Ba  Ba10  1  0.863929  0.738348  0.289695  1
  Ba  Ba11  1  0.738348  0.289695  0.863929  1
  Ga  Ga12  1  0.250000  0.452037  0.047963  1
  Ga  Ga13  1  0.197671  0.197671  0.197671  1
  Ga  Ga14  1  0.697671  0.697671  0.697671  1
  Ga  Ga15  1  0.302329  0.302329  0.302329  1
  Ga  Ga16  1  0.802329  0.802329  0.802329  1
  Ga  Ga17  1  0.452037  0.047963  0.250000  1
  Ga  Ga18  1  0.047963  0.250000  0.452037  1
  Ga  Ga19  1  0.750000  0.547963  0.952037  1
  Ga  Ga20  1  0.547963  0.952037  0.750000  1
  Ga  Ga21  1  0.952037  0.750000  0.547963  1
  N  N22  1  0.500000  0.500000  0.500000  1
  N  N23  1  0.000000  0.000000  0.000000  1
