# generated using pymatgen
data_YbCu
_symmetry_space_group_name_H-M   'P 1'
_cell_length_a   4.27558146
_cell_length_b   5.59677167
_cell_length_c   7.25495688
_cell_angle_alpha   90.00000000
_cell_angle_beta   90.00000000
_cell_angle_gamma   90.00000000
_symmetry_Int_Tables_number   1
_chemical_formula_structural   YbCu
_chemical_formula_sum   'Yb4 Cu4'
_cell_volume   173.60715104
_cell_formula_units_Z   4
loop_
 _symmetry_equiv_pos_site_id
 _symmetry_equiv_pos_as_xyz
  1  'x, y, z'
loop_
 _atom_site_type_symbol
 _atom_site_label
 _atom_site_symmetry_multiplicity
 _atom_site_fract_x
 _atom_site_fract_y
 _atom_site_fract_z
 _atom_site_occupancy
  Yb  Yb0  1  0.250000  0.131479  0.180588  1
  Yb  Yb1  1  0.750000  0.868521  0.819412  1
  Yb  Yb2  1  0.750000  0.631479  0.319412  1
  Yb  Yb3  1  0.250000  0.368521  0.680588  1
  Cu  Cu4  1  0.250000  0.614860  0.032972  1
  Cu  Cu5  1  0.750000  0.385140  0.967028  1
  Cu  Cu6  1  0.750000  0.114860  0.467028  1
  Cu  Cu7  1  0.250000  0.885140  0.532972  1
