# generated using pymatgen
data_NaGdSiO4
_symmetry_space_group_name_H-M   'P 1'
_cell_length_a   8.77864769
_cell_length_b   8.77864769
_cell_length_c   8.77864769
_cell_angle_alpha   95.40626074
_cell_angle_beta   95.40626074
_cell_angle_gamma   144.24919795
_symmetry_Int_Tables_number   1
_chemical_formula_structural   NaGdSiO4
_chemical_formula_sum   'Na4 Gd4 Si4 O16'
_cell_volume   376.18531292
_cell_formula_units_Z   4
loop_
 _symmetry_equiv_pos_site_id
 _symmetry_equiv_pos_as_xyz
  1  'x, y, z'
loop_
 _atom_site_type_symbol
 _atom_site_label
 _atom_site_symmetry_multiplicity
 _atom_site_fract_x
 _atom_site_fract_y
 _atom_site_fract_z
 _atom_site_occupancy
  Na  Na0  1  0.607021  0.086609  0.693630  1
  Na  Na1  1  0.913391  0.607021  0.520412  1
  Na  Na2  1  0.086609  0.392979  0.479588  1
  Na  Na3  1  0.392979  0.913391  0.306370  1
  Gd  Gd4  1  0.120891  0.809074  0.929965  1
  Gd  Gd5  1  0.190926  0.120891  0.311816  1
  Gd  Gd6  1  0.809074  0.879109  0.688184  1
  Gd  Gd7  1  0.879109  0.190926  0.070035  1
  Si  Si8  1  0.737824  0.401668  0.139492  1
  Si  Si9  1  0.598333  0.737824  0.336157  1
  Si  Si10  1  0.401668  0.262176  0.663843  1
  Si  Si11  1  0.262176  0.598333  0.860508  1
  O  O12  1  0.564238  0.797107  0.847560  1
  O  O13  1  0.716678  0.564238  0.767131  1
  O  O14  1  0.797107  0.949547  0.232869  1
  O  O15  1  0.949547  0.716678  0.152440  1
  O  O16  1  0.435762  0.202893  0.152440  1
  O  O17  1  0.283322  0.435762  0.232869  1
  O  O18  1  0.202893  0.050453  0.767131  1
  O  O19  1  0.050453  0.283322  0.847560  1
  O  O20  1  0.695070  0.267824  0.962894  1
  O  O21  1  0.732176  0.695070  0.427245  1
  O  O22  1  0.267824  0.304930  0.572755  1
  O  O23  1  0.304931  0.732176  0.037106  1
  O  O24  1  0.878812  0.396347  0.275159  1
  O  O25  1  0.603653  0.878811  0.482464  1
  O  O26  1  0.396347  0.121189  0.517536  1
  O  O27  1  0.121189  0.603653  0.724841  1
