# generated using pymatgen
data_ThS2
_symmetry_space_group_name_H-M   'P 1'
_cell_length_a   4.29954429
_cell_length_b   7.27797425
_cell_length_c   8.65000960
_cell_angle_alpha   90.00000000
_cell_angle_beta   90.00000000
_cell_angle_gamma   90.00000000
_symmetry_Int_Tables_number   1
_chemical_formula_structural   ThS2
_chemical_formula_sum   'Th4 S8'
_cell_volume   270.67586365
_cell_formula_units_Z   4
loop_
 _symmetry_equiv_pos_site_id
 _symmetry_equiv_pos_as_xyz
  1  'x, y, z'
loop_
 _atom_site_type_symbol
 _atom_site_label
 _atom_site_symmetry_multiplicity
 _atom_site_fract_x
 _atom_site_fract_y
 _atom_site_fract_z
 _atom_site_occupancy
  Th  Th0  1  0.750000  0.749712  0.117248  1
  Th  Th1  1  0.250000  0.250288  0.882752  1
  Th  Th2  1  0.750000  0.249712  0.382752  1
  Th  Th3  1  0.250000  0.750288  0.617248  1
  S  S4  1  0.750000  0.139433  0.070779  1
  S  S5  1  0.250000  0.860567  0.929221  1
  S  S6  1  0.750000  0.639433  0.429221  1
  S  S7  1  0.250000  0.360567  0.570779  1
  S  S8  1  0.750000  0.027573  0.664983  1
  S  S9  1  0.250000  0.972427  0.335017  1
  S  S10  1  0.750000  0.527573  0.835017  1
  S  S11  1  0.250000  0.472427  0.164983  1
