# generated using pymatgen
data_SmAl4Ni
_symmetry_space_group_name_H-M   'P 1'
_cell_length_a   8.10149063
_cell_length_b   8.10149063
_cell_length_c   6.60899807
_cell_angle_alpha   90.00000000
_cell_angle_beta   90.00000000
_cell_angle_gamma   150.68183810
_symmetry_Int_Tables_number   1
_chemical_formula_structural   SmAl4Ni
_chemical_formula_sum   'Sm2 Al8 Ni2'
_cell_volume   212.40224843
_cell_formula_units_Z   2
loop_
 _symmetry_equiv_pos_site_id
 _symmetry_equiv_pos_as_xyz
  1  'x, y, z'
loop_
 _atom_site_type_symbol
 _atom_site_label
 _atom_site_symmetry_multiplicity
 _atom_site_fract_x
 _atom_site_fract_y
 _atom_site_fract_z
 _atom_site_occupancy
  Sm  Sm0  1  0.614725  0.385275  0.250000  1
  Sm  Sm1  1  0.385275  0.614725  0.750000  1
  Al  Al2  1  0.000000  0.000000  0.500000  1
  Al  Al3  1  0.000000  0.000000  0.000000  1
  Al  Al4  1  0.421855  0.578145  0.250000  1
  Al  Al5  1  0.578145  0.421855  0.750000  1
  Al  Al6  1  0.190315  0.809685  0.947165  1
  Al  Al7  1  0.809685  0.190315  0.052835  1
  Al  Al8  1  0.809685  0.190315  0.447165  1
  Al  Al9  1  0.190315  0.809685  0.552835  1
  Ni  Ni10  1  0.274525  0.725475  0.250000  1
  Ni  Ni11  1  0.725475  0.274525  0.750000  1
