# generated using pymatgen
data_AsRu
_symmetry_space_group_name_H-M   'P 1'
_cell_length_a   3.35268267
_cell_length_b   5.76623381
_cell_length_c   6.42637002
_cell_angle_alpha   90.00000000
_cell_angle_beta   90.00000000
_cell_angle_gamma   90.00000000
_symmetry_Int_Tables_number   1
_chemical_formula_structural   AsRu
_chemical_formula_sum   'As4 Ru4'
_cell_volume   124.23684838
_cell_formula_units_Z   4
loop_
 _symmetry_equiv_pos_site_id
 _symmetry_equiv_pos_as_xyz
  1  'x, y, z'
loop_
 _atom_site_type_symbol
 _atom_site_label
 _atom_site_symmetry_multiplicity
 _atom_site_fract_x
 _atom_site_fract_y
 _atom_site_fract_z
 _atom_site_occupancy
  As  As0  1  0.250000  0.696447  0.068172  1
  As  As1  1  0.750000  0.303553  0.931828  1
  As  As2  1  0.250000  0.196447  0.431828  1
  As  As3  1  0.750000  0.803553  0.568172  1
  Ru  Ru4  1  0.250000  0.501665  0.703740  1
  Ru  Ru5  1  0.750000  0.498335  0.296260  1
  Ru  Ru6  1  0.250000  0.001665  0.796260  1
  Ru  Ru7  1  0.750000  0.998335  0.203740  1
