# generated using pymatgen
data_NdCu2
_symmetry_space_group_name_H-M   'P 1'
_cell_length_a   5.53661414
_cell_length_b   5.53661414
_cell_length_c   5.53661414
_cell_angle_alpha   133.69690115
_cell_angle_beta   100.71717147
_cell_angle_gamma   97.07656570
_symmetry_Int_Tables_number   1
_chemical_formula_structural   NdCu2
_chemical_formula_sum   'Nd2 Cu4'
_cell_volume   112.74856906
_cell_formula_units_Z   2
loop_
 _symmetry_equiv_pos_site_id
 _symmetry_equiv_pos_as_xyz
  1  'x, y, z'
loop_
 _atom_site_type_symbol
 _atom_site_label
 _atom_site_symmetry_multiplicity
 _atom_site_fract_x
 _atom_site_fract_y
 _atom_site_fract_z
 _atom_site_occupancy
  Nd  Nd0  1  0.790896  0.540896  0.750000  1
  Nd  Nd1  1  0.209104  0.459104  0.250000  1
  Cu  Cu2  1  0.612576  0.165218  0.947358  1
  Cu  Cu3  1  0.387424  0.834782  0.052642  1
  Cu  Cu4  1  0.782141  0.834782  0.447358  1
  Cu  Cu5  1  0.217859  0.165218  0.552642  1
