# generated using pymatgen
data_CaMn2Be3(SiO4)3
_symmetry_space_group_name_H-M   'P 1'
_cell_length_a   8.17530721
_cell_length_b   7.69123300
_cell_length_c   16.38163361
_cell_angle_alpha   90.00000000
_cell_angle_beta   119.96360515
_cell_angle_gamma   90.00000000
_symmetry_Int_Tables_number   1
_chemical_formula_structural   CaMn2Be3(SiO4)3
_chemical_formula_sum   'Ca4 Mn8 Be12 Si12 O48'
_cell_volume   892.37428205
_cell_formula_units_Z   4
loop_
 _symmetry_equiv_pos_site_id
 _symmetry_equiv_pos_as_xyz
  1  'x, y, z'
loop_
 _atom_site_type_symbol
 _atom_site_label
 _atom_site_symmetry_multiplicity
 _atom_site_fract_x
 _atom_site_fract_y
 _atom_site_fract_z
 _atom_site_occupancy
  Ca  Ca0  1  0.502441  0.499767  0.251576  1
  Ca  Ca1  1  0.497559  0.999767  0.248424  1
  Ca  Ca2  1  0.497559  0.500233  0.748424  1
  Ca  Ca3  1  0.502441  0.000233  0.751577  1
  Mn  Mn4  1  0.831847  0.535868  0.090611  1
  Mn  Mn5  1  0.831847  0.964132  0.590612  1
  Mn  Mn6  1  0.168153  0.464132  0.909389  1
  Mn  Mn7  1  0.168153  0.035868  0.409389  1
  Mn  Mn8  1  0.166547  0.460523  0.428298  1
  Mn  Mn9  1  0.833453  0.960523  0.071702  1
  Mn  Mn10  1  0.833453  0.539477  0.571702  1
  Mn  Mn11  1  0.166547  0.039477  0.928298  1
  Be  Be12  1  0.844441  0.163505  0.764193  1
  Be  Be13  1  0.471661  0.336261  0.408509  1
  Be  Be14  1  0.528339  0.836261  0.091491  1
  Be  Be15  1  0.528339  0.663739  0.591491  1
  Be  Be16  1  0.471661  0.163739  0.908510  1
  Be  Be17  1  0.818499  0.837501  0.421123  1
  Be  Be18  1  0.181501  0.337501  0.078877  1
  Be  Be19  1  0.181501  0.162499  0.578877  1
  Be  Be20  1  0.818499  0.662499  0.921123  1
  Be  Be21  1  0.844441  0.336495  0.264193  1
  Be  Be22  1  0.155559  0.836495  0.235807  1
  Be  Be23  1  0.155559  0.663505  0.735807  1
  Si  Si24  1  0.846626  0.773995  0.766250  1
  Si  Si25  1  0.153374  0.273995  0.733750  1
  Si  Si26  1  0.153374  0.226005  0.233750  1
  Si  Si27  1  0.846626  0.726005  0.266250  1
  Si  Si28  1  0.814206  0.275158  0.923486  1
  Si  Si29  1  0.185794  0.775158  0.576514  1
  Si  Si30  1  0.185794  0.724842  0.076514  1
  Si  Si31  1  0.814206  0.224842  0.423486  1
  Si  Si32  1  0.467616  0.772003  0.907264  1
  Si  Si33  1  0.532384  0.272003  0.592736  1
  Si  Si34  1  0.532384  0.227997  0.092736  1
  Si  Si35  1  0.467616  0.727997  0.407264  1
  O  O36  1  0.298199  0.863516  0.045272  1
  O  O37  1  0.891523  0.968801  0.814316  1
  O  O38  1  0.108477  0.468801  0.685684  1
  O  O39  1  0.108477  0.031199  0.185684  1
  O  O40  1  0.891523  0.531199  0.314316  1
  O  O41  1  0.772591  0.470427  0.949114  1
  O  O42  1  0.227409  0.970427  0.550886  1
  O  O43  1  0.227409  0.529573  0.050886  1
  O  O44  1  0.772591  0.029573  0.449114  1
  O  O45  1  0.375359  0.968237  0.886779  1
  O  O46  1  0.624641  0.468237  0.613221  1
  O  O47  1  0.624641  0.031763  0.113221  1
  O  O48  1  0.291651  0.865607  0.350548  1
  O  O49  1  0.708349  0.365607  0.149452  1
  O  O50  1  0.708349  0.134393  0.649452  1
  O  O51  1  0.291651  0.634393  0.850548  1
  O  O52  1  0.701801  0.363516  0.454728  1
  O  O53  1  0.375359  0.531763  0.386779  1
  O  O54  1  0.298199  0.636484  0.545272  1
  O  O55  1  0.701801  0.136484  0.954728  1
  O  O56  1  0.408378  0.237539  0.477813  1
  O  O57  1  0.087341  0.366725  0.147218  1
  O  O58  1  0.087341  0.133275  0.647218  1
  O  O59  1  0.912659  0.633275  0.852782  1
  O  O60  1  0.382543  0.259191  0.806356  1
  O  O61  1  0.617457  0.759191  0.693644  1
  O  O62  1  0.617457  0.740809  0.193644  1
  O  O63  1  0.382543  0.240809  0.306356  1
  O  O64  1  0.731213  0.261995  0.809275  1
  O  O65  1  0.268787  0.761995  0.690725  1
  O  O66  1  0.268787  0.738005  0.190725  1
  O  O67  1  0.731213  0.238005  0.309275  1
  O  O68  1  0.612374  0.758535  0.864891  1
  O  O69  1  0.387626  0.258535  0.635109  1
  O  O70  1  0.387626  0.241465  0.135109  1
  O  O71  1  0.612374  0.741465  0.364891  1
  O  O72  1  0.049057  0.252852  0.797256  1
  O  O73  1  0.950943  0.752852  0.702744  1
  O  O74  1  0.950943  0.747148  0.202744  1
  O  O75  1  0.049057  0.247148  0.297256  1
  O  O76  1  0.043502  0.236609  0.978869  1
  O  O77  1  0.956498  0.736609  0.521131  1
  O  O78  1  0.956498  0.763391  0.021131  1
  O  O79  1  0.043502  0.263391  0.478869  1
  O  O80  1  0.408378  0.262461  0.977813  1
  O  O81  1  0.591622  0.762461  0.522187  1
  O  O82  1  0.591622  0.737539  0.022187  1
  O  O83  1  0.912659  0.866725  0.352782  1
