# generated using pymatgen
data_K3YF6
_symmetry_space_group_name_H-M   'P 1'
_cell_length_a   6.40695357
_cell_length_b   6.65463810
_cell_length_c   11.10586077
_cell_angle_alpha   90.00000000
_cell_angle_beta   124.40729998
_cell_angle_gamma   90.00000000
_symmetry_Int_Tables_number   1
_chemical_formula_structural   K3YF6
_chemical_formula_sum   'K6 Y2 F12'
_cell_volume   390.66458506
_cell_formula_units_Z   2
loop_
 _symmetry_equiv_pos_site_id
 _symmetry_equiv_pos_as_xyz
  1  'x, y, z'
loop_
 _atom_site_type_symbol
 _atom_site_label
 _atom_site_symmetry_multiplicity
 _atom_site_fract_x
 _atom_site_fract_y
 _atom_site_fract_z
 _atom_site_occupancy
  K  K0  1  0.727269  0.948914  0.243265  1
  K  K1  1  0.272731  0.448914  0.256735  1
  K  K2  1  0.272731  0.051086  0.756735  1
  K  K3  1  0.727269  0.551086  0.743265  1
  K  K4  1  0.500000  0.000000  0.500000  1
  K  K5  1  0.500000  0.500000  0.000000  1
  Y  Y6  1  0.000000  0.500000  0.500000  1
  Y  Y7  1  0.000000  0.000000  0.000000  1
  F  F8  1  0.893768  0.937413  0.777226  1
  F  F9  1  0.106232  0.437413  0.722774  1
  F  F10  1  0.106232  0.062587  0.222774  1
  F  F11  1  0.893768  0.562587  0.277226  1
  F  F12  1  0.243867  0.730824  0.074778  1
  F  F13  1  0.756133  0.230824  0.425222  1
  F  F14  1  0.756133  0.269176  0.925222  1
  F  F15  1  0.243867  0.769176  0.574778  1
  F  F16  1  0.328832  0.323315  0.549520  1
  F  F17  1  0.671168  0.823315  0.950480  1
  F  F18  1  0.671168  0.676685  0.450480  1
  F  F19  1  0.328832  0.176685  0.049520  1
