# generated using pymatgen
data_MgSiN2
_symmetry_space_group_name_H-M   'P 1'
_cell_length_a   5.16567445
_cell_length_b   5.16567445
_cell_length_c   5.16567445
_cell_angle_alpha   32.04407511
_cell_angle_beta   32.04407511
_cell_angle_gamma   32.04407511
_symmetry_Int_Tables_number   1
_chemical_formula_structural   MgSiN2
_chemical_formula_sum   'Mg1 Si1 N2'
_cell_volume   34.47890494
_cell_formula_units_Z   1
loop_
 _symmetry_equiv_pos_site_id
 _symmetry_equiv_pos_as_xyz
  1  'x, y, z'
loop_
 _atom_site_type_symbol
 _atom_site_label
 _atom_site_symmetry_multiplicity
 _atom_site_fract_x
 _atom_site_fract_y
 _atom_site_fract_z
 _atom_site_occupancy
  Mg  Mg0  1  0.000000  0.000000  0.000000  1
  Si  Si1  1  0.500000  0.500000  0.500000  1
  N  N2  1  0.236663  0.236663  0.236663  1
  N  N3  1  0.763337  0.763337  0.763337  1
