# generated using pymatgen
data_Co2B4Mo
_symmetry_space_group_name_H-M   'P 1'
_cell_length_a   6.59259546
_cell_length_b   6.59259546
_cell_length_c   6.59259546
_cell_angle_alpha   153.44465898
_cell_angle_beta   153.06172450
_cell_angle_gamma   38.18691909
_symmetry_Int_Tables_number   1
_chemical_formula_structural   Co2B4Mo
_chemical_formula_sum   'Co2 B4 Mo1'
_cell_volume   57.93881201
_cell_formula_units_Z   1
loop_
 _symmetry_equiv_pos_site_id
 _symmetry_equiv_pos_as_xyz
  1  'x, y, z'
loop_
 _atom_site_type_symbol
 _atom_site_label
 _atom_site_symmetry_multiplicity
 _atom_site_fract_x
 _atom_site_fract_y
 _atom_site_fract_z
 _atom_site_occupancy
  Co  Co0  1  0.814416  0.814416  0.000000  1
  Co  Co1  1  0.185584  0.185584  0.000000  1
  B  B2  1  0.424991  0.924991  0.500000  1
  B  B3  1  0.575009  0.075009  0.500000  1
  B  B4  1  0.348361  0.348361  0.000000  1
  B  B5  1  0.651639  0.651639  0.000000  1
  Mo  Mo6  1  0.000000  0.500000  0.500000  1
