# generated using pymatgen
data_Y3B7W
_symmetry_space_group_name_H-M   'P 1'
_cell_length_a   8.19499658
_cell_length_b   8.19499658
_cell_length_c   9.49972597
_cell_angle_alpha   90.00000000
_cell_angle_beta   90.00000000
_cell_angle_gamma   155.53143176
_symmetry_Int_Tables_number   1
_chemical_formula_structural   Y3B7W
_chemical_formula_sum   'Y6 B14 W2'
_cell_volume   264.24843270
_cell_formula_units_Z   2
loop_
 _symmetry_equiv_pos_site_id
 _symmetry_equiv_pos_as_xyz
  1  'x, y, z'
loop_
 _atom_site_type_symbol
 _atom_site_label
 _atom_site_symmetry_multiplicity
 _atom_site_fract_x
 _atom_site_fract_y
 _atom_site_fract_z
 _atom_site_occupancy
  Y  Y0  1  0.893376  0.106624  0.939673  1
  Y  Y1  1  0.106624  0.893376  0.060327  1
  Y  Y2  1  0.756142  0.243858  0.250000  1
  Y  Y3  1  0.243858  0.756142  0.750000  1
  Y  Y4  1  0.893376  0.106624  0.560327  1
  Y  Y5  1  0.106624  0.893376  0.439673  1
  B  B6  1  0.543804  0.456196  0.250000  1
  B  B7  1  0.456196  0.543804  0.750000  1
  B  B8  1  0.519737  0.480263  0.907952  1
  B  B9  1  0.480263  0.519737  0.092048  1
  B  B10  1  0.480263  0.519737  0.407952  1
  B  B11  1  0.519737  0.480263  0.592048  1
  B  B12  1  0.634879  0.365121  0.852666  1
  B  B13  1  0.365121  0.634879  0.147334  1
  B  B14  1  0.727463  0.272537  0.967094  1
  B  B15  1  0.272537  0.727463  0.032906  1
  B  B16  1  0.272537  0.727463  0.467094  1
  B  B17  1  0.727463  0.272537  0.532906  1
  B  B18  1  0.634879  0.365121  0.647334  1
  B  B19  1  0.365121  0.634879  0.352666  1
  W  W20  1  0.053531  0.946469  0.750000  1
  W  W21  1  0.946469  0.053531  0.250000  1
