# generated using pymatgen
data_LiTi2(PO4)3
_symmetry_space_group_name_H-M   'P 1'
_cell_length_a   8.61194408
_cell_length_b   8.61194408
_cell_length_c   8.61194408
_cell_angle_alpha   60.08291520
_cell_angle_beta   60.08291520
_cell_angle_gamma   60.08291520
_symmetry_Int_Tables_number   1
_chemical_formula_structural   LiTi2(PO4)3
_chemical_formula_sum   'Li2 Ti4 P6 O24'
_cell_volume   452.48463906
_cell_formula_units_Z   2
loop_
 _symmetry_equiv_pos_site_id
 _symmetry_equiv_pos_as_xyz
  1  'x, y, z'
loop_
 _atom_site_type_symbol
 _atom_site_label
 _atom_site_symmetry_multiplicity
 _atom_site_fract_x
 _atom_site_fract_y
 _atom_site_fract_z
 _atom_site_occupancy
  Li  Li0  1  0.000000  0.000000  0.000000  1
  Li  Li1  1  0.500000  0.500000  0.500000  1
  Ti  Ti2  1  0.858545  0.858545  0.858545  1
  Ti  Ti3  1  0.358545  0.358545  0.358545  1
  Ti  Ti4  1  0.141455  0.141455  0.141455  1
  Ti  Ti5  1  0.641455  0.641455  0.641455  1
  P  P6  1  0.040534  0.750000  0.459466  1
  P  P7  1  0.540534  0.959466  0.250000  1
  P  P8  1  0.959466  0.250000  0.540534  1
  P  P9  1  0.250000  0.540534  0.959466  1
  P  P10  1  0.459466  0.040534  0.750000  1
  P  P11  1  0.750000  0.459466  0.040534  1
  O  O12  1  0.807065  0.624121  0.998004  1
  O  O13  1  0.443450  0.231117  0.584163  1
  O  O14  1  0.231117  0.584163  0.443450  1
  O  O15  1  0.584163  0.443450  0.231117  1
  O  O16  1  0.268883  0.056550  0.915837  1
  O  O17  1  0.056550  0.915837  0.268883  1
  O  O18  1  0.915837  0.268883  0.056550  1
  O  O19  1  0.556550  0.768883  0.415837  1
  O  O20  1  0.768883  0.415837  0.556550  1
  O  O21  1  0.415837  0.556550  0.768883  1
  O  O22  1  0.192935  0.375879  0.001996  1
  O  O23  1  0.998004  0.807065  0.624121  1
  O  O24  1  0.624121  0.998004  0.807065  1
  O  O25  1  0.692935  0.501996  0.875879  1
  O  O26  1  0.875879  0.692935  0.501996  1
  O  O27  1  0.501996  0.875879  0.692935  1
  O  O28  1  0.001996  0.192935  0.375879  1
  O  O29  1  0.943450  0.084163  0.731117  1
  O  O30  1  0.375879  0.001996  0.192935  1
  O  O31  1  0.307065  0.498004  0.124121  1
  O  O32  1  0.124121  0.307065  0.498004  1
  O  O33  1  0.498004  0.124121  0.307065  1
  O  O34  1  0.084163  0.731117  0.943450  1
  O  O35  1  0.731117  0.943450  0.084163  1
