# generated using pymatgen
data_Ba4GaN3O
_symmetry_space_group_name_H-M   'P 1'
_cell_length_a   7.98743275
_cell_length_b   8.02536594
_cell_length_c   25.01159020
_cell_angle_alpha   90.00000000
_cell_angle_beta   90.00000000
_cell_angle_gamma   90.00000000
_symmetry_Int_Tables_number   1
_chemical_formula_structural   Ba4GaN3O
_chemical_formula_sum   'Ba32 Ga8 N24 O8'
_cell_volume   1603.29472432
_cell_formula_units_Z   8
loop_
 _symmetry_equiv_pos_site_id
 _symmetry_equiv_pos_as_xyz
  1  'x, y, z'
loop_
 _atom_site_type_symbol
 _atom_site_label
 _atom_site_symmetry_multiplicity
 _atom_site_fract_x
 _atom_site_fract_y
 _atom_site_fract_z
 _atom_site_occupancy
  Ba  Ba0  1  0.165991  0.857439  0.436821  1
  Ba  Ba1  1  0.834009  0.357439  0.063179  1
  Ba  Ba2  1  0.334009  0.142561  0.936821  1
  Ba  Ba3  1  0.665991  0.642561  0.563179  1
  Ba  Ba4  1  0.834009  0.142561  0.563179  1
  Ba  Ba5  1  0.165991  0.642561  0.936821  1
  Ba  Ba6  1  0.665991  0.857439  0.063179  1
  Ba  Ba7  1  0.334009  0.357439  0.436821  1
  Ba  Ba8  1  0.357449  0.518938  0.061206  1
  Ba  Ba9  1  0.642551  0.018938  0.438794  1
  Ba  Ba10  1  0.142551  0.481062  0.561206  1
  Ba  Ba11  1  0.857449  0.981062  0.938794  1
  Ba  Ba12  1  0.642551  0.481062  0.938794  1
  Ba  Ba13  1  0.357449  0.981062  0.561206  1
  Ba  Ba14  1  0.857449  0.518938  0.438794  1
  Ba  Ba15  1  0.142551  0.018938  0.061206  1
  Ba  Ba16  1  0.263359  0.953141  0.266457  1
  Ba  Ba17  1  0.736641  0.453141  0.233543  1
  Ba  Ba18  1  0.236641  0.046859  0.766457  1
  Ba  Ba19  1  0.763359  0.546859  0.733543  1
  Ba  Ba20  1  0.736641  0.046859  0.733543  1
  Ba  Ba21  1  0.263359  0.546859  0.766457  1
  Ba  Ba22  1  0.763359  0.953141  0.233543  1
  Ba  Ba23  1  0.236641  0.453141  0.266457  1
  Ba  Ba24  1  0.040533  0.691156  0.149727  1
  Ba  Ba25  1  0.959467  0.191156  0.350273  1
  Ba  Ba26  1  0.459467  0.308844  0.649727  1
  Ba  Ba27  1  0.540533  0.808844  0.850273  1
  Ba  Ba28  1  0.959467  0.308844  0.850273  1
  Ba  Ba29  1  0.040533  0.808844  0.649727  1
  Ba  Ba30  1  0.540533  0.691156  0.350273  1
  Ba  Ba31  1  0.459467  0.191156  0.149727  1
  Ga  Ga32  1  0.484376  0.706300  0.171455  1
  Ga  Ga33  1  0.515624  0.206300  0.328545  1
  Ga  Ga34  1  0.015624  0.293700  0.671455  1
  Ga  Ga35  1  0.984376  0.793700  0.828545  1
  Ga  Ga36  1  0.515624  0.293700  0.828545  1
  Ga  Ga37  1  0.484376  0.793700  0.671455  1
  Ga  Ga38  1  0.984376  0.706300  0.328545  1
  Ga  Ga39  1  0.015624  0.206300  0.171455  1
  N  N40  1  0.138824  0.574450  0.372332  1
  N  N41  1  0.861176  0.074450  0.127668  1
  N  N42  1  0.361176  0.425550  0.872332  1
  N  N43  1  0.638824  0.925550  0.627668  1
  N  N44  1  0.861176  0.425550  0.627668  1
  N  N45  1  0.138824  0.925550  0.872332  1
  N  N46  1  0.638824  0.574450  0.127668  1
  N  N47  1  0.361176  0.074450  0.372332  1
  N  N48  1  0.348850  0.860983  0.131949  1
  N  N49  1  0.651150  0.360983  0.368051  1
  N  N50  1  0.151150  0.139017  0.631949  1
  N  N51  1  0.848850  0.639017  0.868051  1
  N  N52  1  0.651150  0.139017  0.868051  1
  N  N53  1  0.348850  0.639017  0.631949  1
  N  N54  1  0.848850  0.860983  0.368051  1
  N  N55  1  0.151150  0.360983  0.131949  1
  N  N56  1  0.491239  0.691393  0.247219  1
  N  N57  1  0.508761  0.191393  0.252781  1
  N  N58  1  0.008761  0.308607  0.747219  1
  N  N59  1  0.991239  0.808607  0.752781  1
  N  N60  1  0.508761  0.308607  0.752781  1
  N  N61  1  0.491239  0.808607  0.747219  1
  N  N62  1  0.991239  0.691393  0.252781  1
  N  N63  1  0.008761  0.191393  0.247219  1
  O  O64  1  0.974325  0.768338  0.025338  1
  O  O65  1  0.025675  0.268338  0.474662  1
  O  O66  1  0.525675  0.231662  0.525338  1
  O  O67  1  0.474325  0.731662  0.974662  1
  O  O68  1  0.025675  0.231662  0.974662  1
  O  O69  1  0.974325  0.731662  0.525338  1
  O  O70  1  0.474325  0.768338  0.474662  1
  O  O71  1  0.525675  0.268338  0.025338  1
