# generated using pymatgen
data_CaAl2SiO6
_symmetry_space_group_name_H-M   'P 1'
_cell_length_a   5.33814564
_cell_length_b   8.73929397
_cell_length_c   9.69073614
_cell_angle_alpha   89.61033057
_cell_angle_beta   74.49137868
_cell_angle_gamma   89.35771756
_symmetry_Int_Tables_number   1
_chemical_formula_structural   CaAl2SiO6
_chemical_formula_sum   'Ca4 Al8 Si4 O24'
_cell_volume   435.59737290
_cell_formula_units_Z   4
loop_
 _symmetry_equiv_pos_site_id
 _symmetry_equiv_pos_as_xyz
  1  'x, y, z'
loop_
 _atom_site_type_symbol
 _atom_site_label
 _atom_site_symmetry_multiplicity
 _atom_site_fract_x
 _atom_site_fract_y
 _atom_site_fract_z
 _atom_site_occupancy
  Ca  Ca0  1  0.744073  0.690980  0.000242  1
  Ca  Ca1  1  0.245720  0.188324  0.502250  1
  Ca  Ca2  1  0.253081  0.312295  0.000178  1
  Ca  Ca3  1  0.755277  0.808808  0.498444  1
  Al  Al4  1  0.076310  0.899469  0.715866  1
  Al  Al5  1  0.574481  0.402077  0.213132  1
  Al  Al6  1  0.428122  0.905192  0.284725  1
  Al  Al7  1  0.424925  0.595953  0.785500  1
  Al  Al8  1  0.746539  0.089300  0.999349  1
  Al  Al9  1  0.266545  0.594253  0.495335  1
  Al  Al10  1  0.250495  0.906724  0.001046  1
  Al  Al11  1  0.738936  0.408971  0.503147  1
  Si  Si12  1  0.922863  0.401201  0.790373  1
  Si  Si13  1  0.923322  0.098479  0.291383  1
  Si  Si14  1  0.574248  0.094205  0.708366  1
  Si  Si15  1  0.075210  0.596241  0.211305  1
  O  O16  1  0.981210  0.922717  0.905341  1
  O  O17  1  0.061405  0.727844  0.628133  1
  O  O18  1  0.382626  0.984455  0.644134  1
  O  O19  1  0.473047  0.414165  0.402086  1
  O  O20  1  0.557529  0.233321  0.122940  1
  O  O21  1  0.881614  0.488225  0.146759  1
  O  O22  1  0.516478  0.922355  0.096671  1
  O  O23  1  0.456046  0.731987  0.366778  1
  O  O24  1  0.118163  0.988697  0.356714  1
  O  O25  1  0.003215  0.409889  0.611787  1
  O  O26  1  0.948586  0.234203  0.862641  1
  O  O27  1  0.631605  0.474148  0.857044  1
  O  O28  1  0.016633  0.086681  0.113192  1
  O  O29  1  0.937205  0.265227  0.365015  1
  O  O30  1  0.632674  0.027087  0.353959  1
  O  O31  1  0.530433  0.578077  0.598300  1
  O  O32  1  0.438079  0.767521  0.871601  1
  O  O33  1  0.117269  0.511500  0.852221  1
  O  O34  1  0.483930  0.086951  0.885781  1
  O  O35  1  0.551807  0.260936  0.635678  1
  O  O36  1  0.866718  0.021802  0.646432  1
  O  O37  1  0.992693  0.578352  0.389148  1
  O  O38  1  0.053839  0.766230  0.143764  1
  O  O39  1  0.367048  0.525160  0.143241  1
