# generated using pymatgen
data_Tm2Ni17
_symmetry_space_group_name_H-M   'P 1'
_cell_length_a   8.23694561
_cell_length_b   8.23694561
_cell_length_c   7.98161087
_cell_angle_alpha   90.00000000
_cell_angle_beta   90.00000000
_cell_angle_gamma   120.00000000
_symmetry_Int_Tables_number   1
_chemical_formula_structural   Tm2Ni17
_chemical_formula_sum   'Tm4 Ni34'
_cell_volume   468.97919720
_cell_formula_units_Z   2
loop_
 _symmetry_equiv_pos_site_id
 _symmetry_equiv_pos_as_xyz
  1  'x, y, z'
loop_
 _atom_site_type_symbol
 _atom_site_label
 _atom_site_symmetry_multiplicity
 _atom_site_fract_x
 _atom_site_fract_y
 _atom_site_fract_z
 _atom_site_occupancy
  Tm  Tm0  1  0.000000  0.000000  0.250000  1
  Tm  Tm1  1  0.000000  0.000000  0.750000  1
  Tm  Tm2  1  0.333333  0.666667  0.750000  1
  Tm  Tm3  1  0.666667  0.333333  0.250000  1
  Ni  Ni4  1  0.333333  0.666667  0.101095  1
  Ni  Ni5  1  0.666667  0.333333  0.601095  1
  Ni  Ni6  1  0.666667  0.333333  0.898905  1
  Ni  Ni7  1  0.333333  0.666667  0.398905  1
  Ni  Ni8  1  0.500000  0.000000  0.000000  1
  Ni  Ni9  1  0.500000  0.500000  0.500000  1
  Ni  Ni10  1  0.000000  0.500000  0.500000  1
  Ni  Ni11  1  0.000000  0.500000  0.000000  1
  Ni  Ni12  1  0.500000  0.500000  0.000000  1
  Ni  Ni13  1  0.500000  0.000000  0.500000  1
  Ni  Ni14  1  0.327499  0.958002  0.250000  1
  Ni  Ni15  1  0.369497  0.327499  0.750000  1
  Ni  Ni16  1  0.958002  0.630503  0.750000  1
  Ni  Ni17  1  0.041998  0.369497  0.250000  1
  Ni  Ni18  1  0.630503  0.672501  0.250000  1
  Ni  Ni19  1  0.369497  0.041998  0.750000  1
  Ni  Ni20  1  0.672501  0.630503  0.750000  1
  Ni  Ni21  1  0.672501  0.041998  0.750000  1
  Ni  Ni22  1  0.958002  0.327499  0.750000  1
  Ni  Ni23  1  0.041998  0.672501  0.250000  1
  Ni  Ni24  1  0.630503  0.958002  0.250000  1
  Ni  Ni25  1  0.327499  0.369497  0.250000  1
  Ni  Ni26  1  0.165300  0.330601  0.978055  1
  Ni  Ni27  1  0.834700  0.165300  0.478055  1
  Ni  Ni28  1  0.330601  0.165300  0.478055  1
  Ni  Ni29  1  0.669399  0.834700  0.978055  1
  Ni  Ni30  1  0.165300  0.834700  0.978055  1
  Ni  Ni31  1  0.834700  0.669399  0.021945  1
  Ni  Ni32  1  0.834700  0.165300  0.021945  1
  Ni  Ni33  1  0.834700  0.669399  0.478055  1
  Ni  Ni34  1  0.330601  0.165300  0.021945  1
  Ni  Ni35  1  0.669399  0.834700  0.521945  1
  Ni  Ni36  1  0.165300  0.330601  0.521945  1
  Ni  Ni37  1  0.165300  0.834700  0.521945  1
