# generated using pymatgen
data_Dy3Si3O10F
_symmetry_space_group_name_H-M   'P 1'
_cell_length_a   7.39099242
_cell_length_b   11.26885577
_cell_length_c   12.03352782
_cell_angle_alpha   90.00000000
_cell_angle_beta   120.28381203
_cell_angle_gamma   90.00000000
_symmetry_Int_Tables_number   1
_chemical_formula_structural   Dy3Si3O10F
_chemical_formula_sum   'Dy12 Si12 O40 F4'
_cell_volume   865.47998409
_cell_formula_units_Z   4
loop_
 _symmetry_equiv_pos_site_id
 _symmetry_equiv_pos_as_xyz
  1  'x, y, z'
loop_
 _atom_site_type_symbol
 _atom_site_label
 _atom_site_symmetry_multiplicity
 _atom_site_fract_x
 _atom_site_fract_y
 _atom_site_fract_z
 _atom_site_occupancy
  Dy  Dy0  1  0.743675  0.469138  0.981487  1
  Dy  Dy1  1  0.256325  0.969138  0.518513  1
  Dy  Dy2  1  0.256325  0.530862  0.018513  1
  Dy  Dy3  1  0.743675  0.030862  0.481487  1
  Dy  Dy4  1  0.595288  0.229756  0.688917  1
  Dy  Dy5  1  0.404712  0.729756  0.811083  1
  Dy  Dy6  1  0.404712  0.770244  0.311083  1
  Dy  Dy7  1  0.595288  0.270244  0.188917  1
  Dy  Dy8  1  0.805301  0.098216  0.003406  1
  Dy  Dy9  1  0.194699  0.598216  0.496594  1
  Dy  Dy10  1  0.194699  0.901784  0.996594  1
  Dy  Dy11  1  0.805301  0.401784  0.503406  1
  Si  Si12  1  0.285873  0.462442  0.291325  1
  Si  Si13  1  0.876469  0.755132  0.110575  1
  Si  Si14  1  0.876469  0.744868  0.610575  1
  Si  Si15  1  0.123531  0.244868  0.889425  1
  Si  Si16  1  0.284528  0.414042  0.759499  1
  Si  Si17  1  0.715472  0.914042  0.740501  1
  Si  Si18  1  0.715472  0.585958  0.240501  1
  Si  Si19  1  0.284528  0.085958  0.259499  1
  Si  Si20  1  0.285873  0.037558  0.791325  1
  Si  Si21  1  0.714127  0.537558  0.708675  1
  Si  Si22  1  0.123531  0.255132  0.389425  1
  Si  Si23  1  0.714127  0.962442  0.208675  1
  O  O24  1  0.657779  0.089164  0.130445  1
  O  O25  1  0.342221  0.589164  0.369555  1
  O  O26  1  0.342221  0.910836  0.869555  1
  O  O27  1  0.657779  0.410836  0.630445  1
  O  O28  1  0.104199  0.477492  0.138265  1
  O  O29  1  0.895801  0.977492  0.361735  1
  O  O30  1  0.895801  0.522508  0.861735  1
  O  O31  1  0.104199  0.022508  0.638265  1
  O  O32  1  0.495040  0.104167  0.808093  1
  O  O33  1  0.504960  0.604167  0.691907  1
  O  O34  1  0.504960  0.895833  0.191907  1
  O  O35  1  0.495040  0.395833  0.308093  1
  O  O36  1  0.198876  0.390882  0.377652  1
  O  O37  1  0.801124  0.890882  0.122348  1
  O  O38  1  0.801124  0.609118  0.622348  1
  O  O39  1  0.198876  0.109118  0.877652  1
  O  O40  1  0.512588  0.356608  0.802626  1
  O  O41  1  0.897050  0.273838  0.379320  1
  O  O42  1  0.102950  0.726162  0.620680  1
  O  O43  1  0.897050  0.226162  0.879320  1
  O  O44  1  0.286920  0.180954  0.517526  1
  O  O45  1  0.713080  0.680954  0.982474  1
  O  O46  1  0.713080  0.819046  0.482474  1
  O  O47  1  0.286920  0.319046  0.017526  1
  O  O48  1  0.114790  0.177521  0.269104  1
  O  O49  1  0.885210  0.677521  0.230896  1
  O  O50  1  0.885210  0.822479  0.730896  1
  O  O51  1  0.114790  0.322479  0.769104  1
  O  O52  1  0.649136  0.024417  0.636854  1
  O  O53  1  0.350864  0.524417  0.863146  1
  O  O54  1  0.350864  0.975583  0.363146  1
  O  O55  1  0.649136  0.475583  0.136854  1
  O  O56  1  0.148757  0.049559  0.108356  1
  O  O57  1  0.851243  0.549559  0.391644  1
  O  O58  1  0.851243  0.950441  0.891644  1
  O  O59  1  0.148757  0.450441  0.608356  1
  O  O60  1  0.512588  0.143392  0.302626  1
  O  O61  1  0.487412  0.643392  0.197374  1
  O  O62  1  0.487412  0.856608  0.697374  1
  O  O63  1  0.102950  0.773838  0.120680  1
  F  F64  1  0.244708  0.714828  0.940668  1
  F  F65  1  0.755292  0.214828  0.559332  1
  F  F66  1  0.244708  0.785172  0.440668  1
  F  F67  1  0.755292  0.285172  0.059332  1
