# generated using pymatgen
data_CrCdO4
_symmetry_space_group_name_H-M   'P 1'
_cell_length_a   5.31932699
_cell_length_b   5.31932699
_cell_length_c   7.11341599
_cell_angle_alpha   90.00000000
_cell_angle_beta   90.00000000
_cell_angle_gamma   114.55253456
_symmetry_Int_Tables_number   1
_chemical_formula_structural   CrCdO4
_chemical_formula_sum   'Cr2 Cd2 O8'
_cell_volume   183.07658325
_cell_formula_units_Z   2
loop_
 _symmetry_equiv_pos_site_id
 _symmetry_equiv_pos_as_xyz
  1  'x, y, z'
loop_
 _atom_site_type_symbol
 _atom_site_label
 _atom_site_symmetry_multiplicity
 _atom_site_fract_x
 _atom_site_fract_y
 _atom_site_fract_z
 _atom_site_occupancy
  Cr  Cr0  1  0.357093  0.642907  0.750000  1
  Cr  Cr1  1  0.642907  0.357093  0.250000  1
  Cd  Cd2  1  0.000000  0.000000  0.500000  1
  Cd  Cd3  1  0.000000  0.000000  0.000000  1
  O  O4  1  0.778070  0.709106  0.250000  1
  O  O5  1  0.221930  0.290894  0.750000  1
  O  O6  1  0.709106  0.778070  0.750000  1
  O  O7  1  0.290894  0.221930  0.250000  1
  O  O8  1  0.747932  0.252068  0.061412  1
  O  O9  1  0.252068  0.747932  0.561412  1
  O  O10  1  0.252068  0.747932  0.938588  1
  O  O11  1  0.747932  0.252068  0.438588  1
