# generated using pymatgen
data_AgSb2F12
_symmetry_space_group_name_H-M   'P 1'
_cell_length_a   5.43027134
_cell_length_b   5.60626987
_cell_length_c   9.03434484
_cell_angle_alpha   104.03552586
_cell_angle_beta   88.53351033
_cell_angle_gamma   114.71384503
_symmetry_Int_Tables_number   1
_chemical_formula_structural   AgSb2F12
_chemical_formula_sum   'Ag1 Sb2 F12'
_cell_volume   241.48886139
_cell_formula_units_Z   1
loop_
 _symmetry_equiv_pos_site_id
 _symmetry_equiv_pos_as_xyz
  1  'x, y, z'
loop_
 _atom_site_type_symbol
 _atom_site_label
 _atom_site_symmetry_multiplicity
 _atom_site_fract_x
 _atom_site_fract_y
 _atom_site_fract_z
 _atom_site_occupancy
  Ag  Ag0  1  0.500000  0.500000  0.500000  1
  Sb  Sb1  1  0.269088  0.011548  0.764973  1
  Sb  Sb2  1  0.730912  0.988452  0.235027  1
  F  F3  1  0.772751  0.772911  0.372530  1
  F  F4  1  0.227249  0.227089  0.627470  1
  F  F5  1  0.352633  0.773417  0.228632  1
  F  F6  1  0.306282  0.769067  0.865730  1
  F  F7  1  0.693718  0.230933  0.134270  1
  F  F8  1  0.886317  0.795552  0.710440  1
  F  F9  1  0.113683  0.204448  0.289560  1
  F  F10  1  0.306162  0.771987  0.567575  1
  F  F11  1  0.693838  0.228013  0.432425  1
  F  F12  1  0.208232  0.240320  0.937031  1
  F  F13  1  0.791768  0.759680  0.062969  1
  F  F14  1  0.647367  0.226583  0.771368  1
