# generated using pymatgen
data_Dy3Pd2
_symmetry_space_group_name_H-M   'P 1'
_cell_length_a   7.81035551
_cell_length_b   7.81035551
_cell_length_c   3.94486099
_cell_angle_alpha   90.00000000
_cell_angle_beta   90.00000000
_cell_angle_gamma   90.00000000
_symmetry_Int_Tables_number   1
_chemical_formula_structural   Dy3Pd2
_chemical_formula_sum   'Dy6 Pd4'
_cell_volume   240.64304200
_cell_formula_units_Z   2
loop_
 _symmetry_equiv_pos_site_id
 _symmetry_equiv_pos_as_xyz
  1  'x, y, z'
loop_
 _atom_site_type_symbol
 _atom_site_label
 _atom_site_symmetry_multiplicity
 _atom_site_fract_x
 _atom_site_fract_y
 _atom_site_fract_z
 _atom_site_occupancy
  Dy  Dy0  1  0.835189  0.664811  0.500000  1
  Dy  Dy1  1  0.335189  0.835189  0.500000  1
  Dy  Dy2  1  0.164811  0.335189  0.500000  1
  Dy  Dy3  1  0.664811  0.164811  0.500000  1
  Dy  Dy4  1  0.500000  0.500000  0.000000  1
  Dy  Dy5  1  0.000000  0.000000  0.000000  1
  Pd  Pd6  1  0.132480  0.632480  0.000000  1
  Pd  Pd7  1  0.632480  0.867520  0.000000  1
  Pd  Pd8  1  0.367520  0.132480  0.000000  1
  Pd  Pd9  1  0.867520  0.367520  0.000000  1
