# generated using pymatgen
data_PrMgRh
_symmetry_space_group_name_H-M   'P 1'
_cell_length_a   4.22015077
_cell_length_b   7.30276532
_cell_length_c   8.75504976
_cell_angle_alpha   90.00000000
_cell_angle_beta   90.00000000
_cell_angle_gamma   90.00000000
_symmetry_Int_Tables_number   1
_chemical_formula_structural   PrMgRh
_chemical_formula_sum   'Pr4 Mg4 Rh4'
_cell_volume   269.81987092
_cell_formula_units_Z   4
loop_
 _symmetry_equiv_pos_site_id
 _symmetry_equiv_pos_as_xyz
  1  'x, y, z'
loop_
 _atom_site_type_symbol
 _atom_site_label
 _atom_site_symmetry_multiplicity
 _atom_site_fract_x
 _atom_site_fract_y
 _atom_site_fract_z
 _atom_site_occupancy
  Pr  Pr0  1  0.250000  0.538267  0.179027  1
  Pr  Pr1  1  0.750000  0.461733  0.820973  1
  Pr  Pr2  1  0.250000  0.038267  0.320973  1
  Pr  Pr3  1  0.750000  0.961733  0.679027  1
  Mg  Mg4  1  0.250000  0.633418  0.557386  1
  Mg  Mg5  1  0.750000  0.366582  0.442614  1
  Mg  Mg6  1  0.250000  0.133418  0.942614  1
  Mg  Mg7  1  0.750000  0.866582  0.057386  1
  Rh  Rh8  1  0.750000  0.746546  0.373542  1
  Rh  Rh9  1  0.250000  0.253454  0.626458  1
  Rh  Rh10  1  0.750000  0.246546  0.126458  1
  Rh  Rh11  1  0.250000  0.753454  0.873542  1
