# generated using pymatgen
data_Sm9Ga4
_symmetry_space_group_name_H-M   'P 1'
_cell_length_a   8.82328415
_cell_length_b   8.82328415
_cell_length_c   8.82328415
_cell_angle_alpha   94.84349284
_cell_angle_beta   94.84349284
_cell_angle_gamma   146.21514641
_symmetry_Int_Tables_number   1
_chemical_formula_structural   Sm9Ga4
_chemical_formula_sum   'Sm9 Ga4'
_cell_volume   365.48508286
_cell_formula_units_Z   1
loop_
 _symmetry_equiv_pos_site_id
 _symmetry_equiv_pos_as_xyz
  1  'x, y, z'
loop_
 _atom_site_type_symbol
 _atom_site_label
 _atom_site_symmetry_multiplicity
 _atom_site_fract_x
 _atom_site_fract_y
 _atom_site_fract_z
 _atom_site_occupancy
  Sm  Sm0  1  0.500000  0.500000  0.000000  1
  Sm  Sm1  1  0.595209  0.124057  0.719266  1
  Sm  Sm2  1  0.875943  0.595209  0.471151  1
  Sm  Sm3  1  0.124057  0.404791  0.528849  1
  Sm  Sm4  1  0.404791  0.875943  0.280734  1
  Sm  Sm5  1  0.889815  0.184509  0.074325  1
  Sm  Sm6  1  0.815491  0.889815  0.705306  1
  Sm  Sm7  1  0.184509  0.110185  0.294694  1
  Sm  Sm8  1  0.110185  0.815491  0.925675  1
  Ga  Ga9  1  0.731842  0.387163  0.119005  1
  Ga  Ga10  1  0.612837  0.731842  0.344680  1
  Ga  Ga11  1  0.387163  0.268158  0.655320  1
  Ga  Ga12  1  0.268158  0.612837  0.880995  1
