# generated using pymatgen
data_ErAsPd
_symmetry_space_group_name_H-M   'P 1'
_cell_length_a   4.11319431
_cell_length_b   7.01989774
_cell_length_c   7.94386319
_cell_angle_alpha   90.00000000
_cell_angle_beta   90.00000000
_cell_angle_gamma   90.00000000
_symmetry_Int_Tables_number   1
_chemical_formula_structural   ErAsPd
_chemical_formula_sum   'Er4 As4 Pd4'
_cell_volume   229.37272186
_cell_formula_units_Z   4
loop_
 _symmetry_equiv_pos_site_id
 _symmetry_equiv_pos_as_xyz
  1  'x, y, z'
loop_
 _atom_site_type_symbol
 _atom_site_label
 _atom_site_symmetry_multiplicity
 _atom_site_fract_x
 _atom_site_fract_y
 _atom_site_fract_z
 _atom_site_occupancy
  Er  Er0  1  0.250000  0.532212  0.190875  1
  Er  Er1  1  0.750000  0.467788  0.809125  1
  Er  Er2  1  0.250000  0.032212  0.309125  1
  Er  Er3  1  0.750000  0.967788  0.690875  1
  As  As4  1  0.250000  0.747097  0.878729  1
  As  As5  1  0.750000  0.252903  0.121271  1
  As  As6  1  0.250000  0.247097  0.621271  1
  As  As7  1  0.750000  0.752903  0.378729  1
  Pd  Pd8  1  0.750000  0.357738  0.437615  1
  Pd  Pd9  1  0.250000  0.642262  0.562385  1
  Pd  Pd10  1  0.750000  0.857738  0.062385  1
  Pd  Pd11  1  0.250000  0.142262  0.937615  1
