# generated using pymatgen
data_TiO2
_symmetry_space_group_name_H-M   'P 1'
_cell_length_a   4.58538821
_cell_length_b   4.93503511
_cell_length_c   5.58117108
_cell_angle_alpha   90.00000000
_cell_angle_beta   90.00000000
_cell_angle_gamma   90.00000000
_symmetry_Int_Tables_number   1
_chemical_formula_structural   TiO2
_chemical_formula_sum   'Ti4 O8'
_cell_volume   126.29660953
_cell_formula_units_Z   4
loop_
 _symmetry_equiv_pos_site_id
 _symmetry_equiv_pos_as_xyz
  1  'x, y, z'
loop_
 _atom_site_type_symbol
 _atom_site_label
 _atom_site_symmetry_multiplicity
 _atom_site_fract_x
 _atom_site_fract_y
 _atom_site_fract_z
 _atom_site_occupancy
  Ti  Ti0  1  0.500000  0.750000  0.676524  1
  Ti  Ti1  1  0.000000  0.250000  0.823476  1
  Ti  Ti2  1  0.500000  0.250000  0.323476  1
  Ti  Ti3  1  0.000000  0.750000  0.176524  1
  O  O4  1  0.728683  0.081255  0.619362  1
  O  O5  1  0.228683  0.918745  0.880638  1
  O  O6  1  0.771317  0.581255  0.880638  1
  O  O7  1  0.271317  0.418745  0.619362  1
  O  O8  1  0.728683  0.581255  0.380638  1
  O  O9  1  0.228683  0.418745  0.119362  1
  O  O10  1  0.771317  0.081255  0.119362  1
  O  O11  1  0.271317  0.918745  0.380638  1
