# generated using pymatgen
data_Cd5(S2Cl)2
_symmetry_space_group_name_H-M   'P 1'
_cell_length_a   10.18278182
_cell_length_b   10.18278182
_cell_length_c   10.18278182
_cell_angle_alpha   141.38390098
_cell_angle_beta   101.28680750
_cell_angle_gamma   91.31416567
_symmetry_Int_Tables_number   1
_chemical_formula_structural   Cd5(S2Cl)2
_chemical_formula_sum   'Cd10 S8 Cl4'
_cell_volume   618.95525652
_cell_formula_units_Z   2
loop_
 _symmetry_equiv_pos_site_id
 _symmetry_equiv_pos_as_xyz
  1  'x, y, z'
loop_
 _atom_site_type_symbol
 _atom_site_label
 _atom_site_symmetry_multiplicity
 _atom_site_fract_x
 _atom_site_fract_y
 _atom_site_fract_z
 _atom_site_occupancy
  Cd  Cd0  1  0.250000  0.250000  0.000000  1
  Cd  Cd1  1  0.750000  0.750000  0.000000  1
  Cd  Cd2  1  0.952464  0.250000  0.702464  1
  Cd  Cd3  1  0.547536  0.250000  0.297536  1
  Cd  Cd4  1  0.047536  0.750000  0.297536  1
  Cd  Cd5  1  0.452464  0.750000  0.702464  1
  Cd  Cd6  1  0.900977  0.304953  0.205930  1
  Cd  Cd7  1  0.099023  0.695047  0.794070  1
  Cd  Cd8  1  0.599023  0.804953  0.403977  1
  Cd  Cd9  1  0.400977  0.195047  0.596023  1
  S  S10  1  0.694464  0.034102  0.054627  1
  S  S11  1  0.979475  0.639837  0.945373  1
  S  S12  1  0.805536  0.860163  0.339638  1
  S  S13  1  0.520525  0.465898  0.660362  1
  S  S14  1  0.305536  0.965898  0.945373  1
  S  S15  1  0.020525  0.360163  0.054627  1
  S  S16  1  0.194464  0.139837  0.660362  1
  S  S17  1  0.479475  0.534102  0.339638  1
  Cl  Cl18  1  0.604909  0.192454  0.797363  1
  Cl  Cl19  1  0.395091  0.807546  0.202637  1
  Cl  Cl20  1  0.895091  0.692454  0.587545  1
  Cl  Cl21  1  0.104909  0.307546  0.412455  1
