# generated using pymatgen
data_NaSiAu3
_symmetry_space_group_name_H-M   'P 1'
_cell_length_a   9.07036288
_cell_length_b   9.07036288
_cell_length_c   9.07036288
_cell_angle_alpha   90.00000000
_cell_angle_beta   90.00000000
_cell_angle_gamma   90.00000000
_symmetry_Int_Tables_number   1
_chemical_formula_structural   NaSiAu3
_chemical_formula_sum   'Na8 Si8 Au24'
_cell_volume   746.23220344
_cell_formula_units_Z   8
loop_
 _symmetry_equiv_pos_site_id
 _symmetry_equiv_pos_as_xyz
  1  'x, y, z'
loop_
 _atom_site_type_symbol
 _atom_site_label
 _atom_site_symmetry_multiplicity
 _atom_site_fract_x
 _atom_site_fract_y
 _atom_site_fract_z
 _atom_site_occupancy
  Na  Na0  1  0.096757  0.096757  0.096757  1
  Na  Na1  1  0.403243  0.903243  0.596757  1
  Na  Na2  1  0.596757  0.403243  0.903243  1
  Na  Na3  1  0.903243  0.596757  0.403243  1
  Na  Na4  1  0.903243  0.903243  0.903243  1
  Na  Na5  1  0.596757  0.096757  0.403243  1
  Na  Na6  1  0.403243  0.596757  0.096757  1
  Na  Na7  1  0.096757  0.403243  0.596757  1
  Si  Si8  1  0.124047  0.875953  0.375953  1
  Si  Si9  1  0.875953  0.375953  0.124047  1
  Si  Si10  1  0.624047  0.624047  0.624047  1
  Si  Si11  1  0.624047  0.875953  0.124047  1
  Si  Si12  1  0.875953  0.124047  0.624047  1
  Si  Si13  1  0.124047  0.624047  0.875953  1
  Si  Si14  1  0.375953  0.375953  0.375953  1
  Si  Si15  1  0.375953  0.124047  0.875953  1
  Au  Au16  1  0.595531  0.726547  0.371462  1
  Au  Au17  1  0.726547  0.371462  0.595531  1
  Au  Au18  1  0.773453  0.628538  0.095531  1
  Au  Au19  1  0.273453  0.871462  0.904469  1
  Au  Au20  1  0.628538  0.095531  0.773453  1
  Au  Au21  1  0.595531  0.773453  0.871462  1
  Au  Au22  1  0.871462  0.595531  0.773453  1
  Au  Au23  1  0.628538  0.404469  0.273453  1
  Au  Au24  1  0.095531  0.726547  0.128538  1
  Au  Au25  1  0.128538  0.095531  0.726547  1
  Au  Au26  1  0.904469  0.226547  0.371462  1
  Au  Au27  1  0.404469  0.273453  0.628538  1
  Au  Au28  1  0.371462  0.904469  0.226547  1
  Au  Au29  1  0.273453  0.628538  0.404469  1
  Au  Au30  1  0.226547  0.371462  0.904469  1
  Au  Au31  1  0.726547  0.128538  0.095531  1
  Au  Au32  1  0.095531  0.773453  0.628538  1
  Au  Au33  1  0.871462  0.904469  0.273453  1
  Au  Au34  1  0.904469  0.273453  0.871462  1
  Au  Au35  1  0.371462  0.595531  0.726547  1
  Au  Au36  1  0.128538  0.404469  0.226547  1
  Au  Au37  1  0.404469  0.226547  0.128538  1
  Au  Au38  1  0.226547  0.128538  0.404469  1
  Au  Au39  1  0.773453  0.871462  0.595531  1
