# generated using pymatgen
data_GePd
_symmetry_space_group_name_H-M   'P 1'
_cell_length_a   3.60861271
_cell_length_b   5.84837416
_cell_length_c   6.31480724
_cell_angle_alpha   90.00000000
_cell_angle_beta   90.00000000
_cell_angle_gamma   90.00000000
_symmetry_Int_Tables_number   1
_chemical_formula_structural   GePd
_chemical_formula_sum   'Ge4 Pd4'
_cell_volume   133.27095881
_cell_formula_units_Z   4
loop_
 _symmetry_equiv_pos_site_id
 _symmetry_equiv_pos_as_xyz
  1  'x, y, z'
loop_
 _atom_site_type_symbol
 _atom_site_label
 _atom_site_symmetry_multiplicity
 _atom_site_fract_x
 _atom_site_fract_y
 _atom_site_fract_z
 _atom_site_occupancy
  Ge  Ge0  1  0.750000  0.813852  0.579493  1
  Ge  Ge1  1  0.250000  0.186148  0.420507  1
  Ge  Ge2  1  0.750000  0.313852  0.920507  1
  Ge  Ge3  1  0.250000  0.686148  0.079493  1
  Pd  Pd4  1  0.750000  0.995733  0.190331  1
  Pd  Pd5  1  0.250000  0.004267  0.809669  1
  Pd  Pd6  1  0.750000  0.495733  0.309669  1
  Pd  Pd7  1  0.250000  0.504267  0.690331  1
