# generated using pymatgen
data_SnPS3
_symmetry_space_group_name_H-M   'P 1'
_cell_length_a   6.65579758
_cell_length_b   7.68465435
_cell_length_c   11.84574605
_cell_angle_alpha   90.00000000
_cell_angle_beta   123.82087366
_cell_angle_gamma   90.00000000
_symmetry_Int_Tables_number   1
_chemical_formula_structural   SnPS3
_chemical_formula_sum   'Sn4 P4 S12'
_cell_volume   503.35432923
_cell_formula_units_Z   4
loop_
 _symmetry_equiv_pos_site_id
 _symmetry_equiv_pos_as_xyz
  1  'x, y, z'
loop_
 _atom_site_type_symbol
 _atom_site_label
 _atom_site_symmetry_multiplicity
 _atom_site_fract_x
 _atom_site_fract_y
 _atom_site_fract_z
 _atom_site_occupancy
  Sn  Sn0  1  0.745242  0.129558  0.448926  1
  Sn  Sn1  1  0.745242  0.870442  0.948926  1
  Sn  Sn2  1  0.195152  0.399722  0.956295  1
  Sn  Sn3  1  0.195152  0.600278  0.456295  1
  P  P4  1  0.873935  0.649743  0.687055  1
  P  P5  1  0.873935  0.350257  0.187055  1
  P  P6  1  0.127433  0.865113  0.818487  1
  P  P7  1  0.127433  0.134887  0.318487  1
  S  S8  1  0.721663  0.426685  0.289912  1
  S  S9  1  0.721663  0.573315  0.789912  1
  S  S10  1  0.094513  0.546556  0.203073  1
  S  S11  1  0.094513  0.453444  0.703073  1
  S  S12  1  0.352790  0.248290  0.503350  1
  S  S13  1  0.352790  0.751710  0.003350  1
  S  S14  1  0.299529  0.046696  0.231625  1
  S  S15  1  0.299529  0.953304  0.731625  1
  S  S16  1  0.901574  0.948363  0.311184  1
  S  S17  1  0.901574  0.051637  0.811184  1
  S  S18  1  0.643068  0.259948  0.996793  1
  S  S19  1  0.643068  0.740052  0.496793  1
