# generated using pymatgen
data_BaCuF4
_symmetry_space_group_name_H-M   'P 1'
_cell_length_a   7.56305762
_cell_length_b   7.56305762
_cell_length_c   5.76112291
_cell_angle_alpha   90.00000000
_cell_angle_beta   90.00000000
_cell_angle_gamma   146.42610721
_symmetry_Int_Tables_number   1
_chemical_formula_structural   BaCuF4
_chemical_formula_sum   'Ba2 Cu2 F8'
_cell_volume   182.23697069
_cell_formula_units_Z   2
loop_
 _symmetry_equiv_pos_site_id
 _symmetry_equiv_pos_as_xyz
  1  'x, y, z'
loop_
 _atom_site_type_symbol
 _atom_site_label
 _atom_site_symmetry_multiplicity
 _atom_site_fract_x
 _atom_site_fract_y
 _atom_site_fract_z
 _atom_site_occupancy
  Ba  Ba0  1  0.858157  0.141843  0.502570  1
  Ba  Ba1  1  0.141843  0.858157  0.002570  1
  Cu  Cu2  1  0.589845  0.410155  0.469276  1
  Cu  Cu3  1  0.410155  0.589845  0.969276  1
  F  F4  1  0.078591  0.921409  0.465955  1
  F  F5  1  0.921409  0.078591  0.965955  1
  F  F6  1  0.670280  0.329720  0.744468  1
  F  F7  1  0.329720  0.670280  0.244468  1
  F  F8  1  0.477368  0.522632  0.661600  1
  F  F9  1  0.522632  0.477368  0.161600  1
  F  F10  1  0.301808  0.698192  0.763031  1
  F  F11  1  0.698192  0.301808  0.263031  1
