# generated using pymatgen
data_LiFe2P2O9
_symmetry_space_group_name_H-M   'P 1'
_cell_length_a   6.34389655
_cell_length_b   7.68106727
_cell_length_c   14.04571624
_cell_angle_alpha   90.00000000
_cell_angle_beta   90.00000000
_cell_angle_gamma   90.00000000
_symmetry_Int_Tables_number   1
_chemical_formula_structural   LiFe2P2O9
_chemical_formula_sum   'Li4 Fe8 P8 O36'
_cell_volume   684.41820236
_cell_formula_units_Z   4
loop_
 _symmetry_equiv_pos_site_id
 _symmetry_equiv_pos_as_xyz
  1  'x, y, z'
loop_
 _atom_site_type_symbol
 _atom_site_label
 _atom_site_symmetry_multiplicity
 _atom_site_fract_x
 _atom_site_fract_y
 _atom_site_fract_z
 _atom_site_occupancy
  Li  Li0  1  0.750000  0.953782  0.769692  1
  Li  Li1  1  0.750000  0.546218  0.269692  1
  Li  Li2  1  0.250000  0.453782  0.730308  1
  Li  Li3  1  0.250000  0.046218  0.230308  1
  Fe  Fe4  1  0.750000  0.351045  0.881168  1
  Fe  Fe5  1  0.250000  0.648955  0.118832  1
  Fe  Fe6  1  0.250000  0.851045  0.618832  1
  Fe  Fe7  1  0.750000  0.148955  0.381168  1
  Fe  Fe8  1  0.500000  0.000000  0.000000  1
  Fe  Fe9  1  0.500000  0.500000  0.500000  1
  Fe  Fe10  1  0.000000  0.500000  0.500000  1
  Fe  Fe11  1  0.000000  0.000000  0.000000  1
  P  P12  1  0.250000  0.353383  0.934764  1
  P  P13  1  0.750000  0.646617  0.065236  1
  P  P14  1  0.750000  0.853383  0.565236  1
  P  P15  1  0.250000  0.146617  0.434764  1
  P  P16  1  0.750000  0.389462  0.692997  1
  P  P17  1  0.750000  0.110538  0.192997  1
  P  P18  1  0.250000  0.889462  0.807003  1
  P  P19  1  0.250000  0.610538  0.307003  1
  O  O20  1  0.045884  0.587539  0.365825  1
  O  O21  1  0.545884  0.412461  0.634175  1
  O  O22  1  0.954116  0.087539  0.134175  1
  O  O23  1  0.454116  0.912461  0.865825  1
  O  O24  1  0.954116  0.412461  0.634175  1
  O  O25  1  0.454116  0.587539  0.365825  1
  O  O26  1  0.045884  0.912461  0.865825  1
  O  O27  1  0.545884  0.087539  0.134175  1
  O  O28  1  0.250000  0.330406  0.485408  1
  O  O29  1  0.750000  0.669594  0.514592  1
  O  O30  1  0.750000  0.830406  0.014592  1
  O  O31  1  0.250000  0.169594  0.985408  1
  O  O32  1  0.750000  0.142409  0.953096  1
  O  O33  1  0.250000  0.857591  0.046904  1
  O  O34  1  0.250000  0.642409  0.546904  1
  O  O35  1  0.750000  0.357591  0.453096  1
  O  O36  1  0.750000  0.215281  0.749579  1
  O  O37  1  0.250000  0.784719  0.250421  1
  O  O38  1  0.250000  0.715281  0.750421  1
  O  O39  1  0.750000  0.284719  0.249579  1
  O  O40  1  0.439319  0.138545  0.366299  1
  O  O41  1  0.939319  0.861455  0.633701  1
  O  O42  1  0.560681  0.638545  0.133701  1
  O  O43  1  0.060681  0.361455  0.866299  1
  O  O44  1  0.560681  0.861455  0.633701  1
  O  O45  1  0.060681  0.138545  0.366299  1
  O  O46  1  0.439319  0.361455  0.866299  1
  O  O47  1  0.939319  0.638545  0.133701  1
  O  O48  1  0.750000  0.505318  0.990207  1
  O  O49  1  0.250000  0.023981  0.722430  1
  O  O50  1  0.250000  0.476019  0.222430  1
  O  O51  1  0.750000  0.523981  0.777570  1
  O  O52  1  0.750000  0.994682  0.490207  1
  O  O53  1  0.250000  0.005318  0.509793  1
  O  O54  1  0.250000  0.494682  0.009793  1
  O  O55  1  0.750000  0.976019  0.277570  1
