# generated using pymatgen
data_BaCaP2O7
_symmetry_space_group_name_H-M   'P 1'
_cell_length_a   9.66249965
_cell_length_b   10.74102418
_cell_length_c   12.23308691
_cell_angle_alpha   90.00000000
_cell_angle_beta   94.80179267
_cell_angle_gamma   90.00000000
_symmetry_Int_Tables_number   1
_chemical_formula_structural   BaCaP2O7
_chemical_formula_sum   'Ba8 Ca8 P16 O56'
_cell_volume   1265.15663281
_cell_formula_units_Z   8
loop_
 _symmetry_equiv_pos_site_id
 _symmetry_equiv_pos_as_xyz
  1  'x, y, z'
loop_
 _atom_site_type_symbol
 _atom_site_label
 _atom_site_symmetry_multiplicity
 _atom_site_fract_x
 _atom_site_fract_y
 _atom_site_fract_z
 _atom_site_occupancy
  Ba  Ba0  1  0.408407  0.807179  0.343327  1
  Ba  Ba1  1  0.091593  0.307179  0.656673  1
  Ba  Ba2  1  0.591593  0.192821  0.656673  1
  Ba  Ba3  1  0.908407  0.692821  0.343327  1
  Ba  Ba4  1  0.223528  0.514387  0.084067  1
  Ba  Ba5  1  0.276472  0.014387  0.915933  1
  Ba  Ba6  1  0.776472  0.485613  0.915933  1
  Ba  Ba7  1  0.723528  0.985613  0.084067  1
  Ca  Ca8  1  0.327739  0.152944  0.217766  1
  Ca  Ca9  1  0.172261  0.652944  0.782234  1
  Ca  Ca10  1  0.672261  0.847056  0.782234  1
  Ca  Ca11  1  0.827739  0.347056  0.217766  1
  Ca  Ca12  1  0.510282  0.576781  0.652135  1
  Ca  Ca13  1  0.989718  0.076781  0.347865  1
  Ca  Ca14  1  0.489718  0.423219  0.347865  1
  Ca  Ca15  1  0.010282  0.923219  0.652135  1
  P  P16  1  0.255695  0.091927  0.502641  1
  P  P17  1  0.244305  0.591927  0.497359  1
  P  P18  1  0.744305  0.908073  0.497359  1
  P  P19  1  0.755695  0.408073  0.502641  1
  P  P20  1  0.382910  0.895405  0.656508  1
  P  P21  1  0.117090  0.395405  0.343492  1
  P  P22  1  0.617090  0.104595  0.343492  1
  P  P23  1  0.882910  0.604595  0.656508  1
  P  P24  1  0.113063  0.861556  0.158726  1
  P  P25  1  0.386937  0.361556  0.841274  1
  P  P26  1  0.886937  0.138444  0.841274  1
  P  P27  1  0.613063  0.638444  0.158726  1
  P  P28  1  0.971541  0.771404  0.939065  1
  P  P29  1  0.528459  0.271404  0.060935  1
  P  P30  1  0.028459  0.228596  0.060935  1
  P  P31  1  0.471541  0.728596  0.939065  1
  O  O32  1  0.327718  0.207410  0.550417  1
  O  O33  1  0.172282  0.707410  0.449583  1
  O  O34  1  0.672282  0.792590  0.449583  1
  O  O35  1  0.827718  0.292590  0.550417  1
  O  O36  1  0.242143  0.074693  0.377441  1
  O  O37  1  0.257857  0.574693  0.622559  1
  O  O38  1  0.757857  0.925307  0.622559  1
  O  O39  1  0.742143  0.425307  0.377441  1
  O  O40  1  0.111411  0.074969  0.545843  1
  O  O41  1  0.388589  0.574969  0.454157  1
  O  O42  1  0.888589  0.925031  0.454157  1
  O  O43  1  0.611411  0.425031  0.545843  1
  O  O44  1  0.349857  0.969573  0.540305  1
  O  O45  1  0.150143  0.469573  0.459695  1
  O  O46  1  0.650143  0.030427  0.459695  1
  O  O47  1  0.849857  0.530427  0.540305  1
  O  O48  1  0.467574  0.785759  0.621560  1
  O  O49  1  0.032426  0.285759  0.378440  1
  O  O50  1  0.532426  0.214241  0.378440  1
  O  O51  1  0.967574  0.714241  0.621560  1
  O  O52  1  0.244353  0.863985  0.703680  1
  O  O53  1  0.255647  0.363985  0.296320  1
  O  O54  1  0.755647  0.136015  0.296320  1
  O  O55  1  0.744353  0.636015  0.703680  1
  O  O56  1  0.470200  0.981960  0.734987  1
  O  O57  1  0.029800  0.481960  0.265013  1
  O  O58  1  0.529800  0.018040  0.265013  1
  O  O59  1  0.970200  0.518040  0.734987  1
  O  O60  1  0.990948  0.902186  0.224799  1
  O  O61  1  0.509052  0.402186  0.775201  1
  O  O62  1  0.009052  0.097814  0.775201  1
  O  O63  1  0.490948  0.597814  0.224799  1
  O  O64  1  0.162168  0.730494  0.190556  1
  O  O65  1  0.337832  0.230494  0.809444  1
  O  O66  1  0.837832  0.269506  0.809444  1
  O  O67  1  0.662168  0.769506  0.190556  1
  O  O68  1  0.232789  0.955085  0.159572  1
  O  O69  1  0.267211  0.455085  0.840428  1
  O  O70  1  0.767211  0.044915  0.840428  1
  O  O71  1  0.732789  0.544915  0.159572  1
  O  O72  1  0.049067  0.864520  0.030235  1
  O  O73  1  0.450933  0.364520  0.969765  1
  O  O74  1  0.950933  0.135480  0.969765  1
  O  O75  1  0.549067  0.635480  0.030235  1
  O  O76  1  0.814866  0.784804  0.946344  1
  O  O77  1  0.685134  0.284804  0.053656  1
  O  O78  1  0.185134  0.215196  0.053656  1
  O  O79  1  0.314866  0.715196  0.946344  1
  O  O80  1  0.021184  0.822393  0.831969  1
  O  O81  1  0.478816  0.322393  0.168031  1
  O  O82  1  0.978816  0.177607  0.168031  1
  O  O83  1  0.521184  0.677607  0.831969  1
  O  O84  1  0.021381  0.637225  0.959213  1
  O  O85  1  0.478619  0.137225  0.040787  1
  O  O86  1  0.978619  0.362775  0.040787  1
  O  O87  1  0.521381  0.862775  0.959213  1
