# generated using pymatgen
data_NaAlGeO4
_symmetry_space_group_name_H-M   'P 1'
_cell_length_a   8.90829079
_cell_length_b   8.38498612
_cell_length_c   17.97896292
_cell_angle_alpha   90.00000000
_cell_angle_beta   119.59661134
_cell_angle_gamma   90.00000000
_symmetry_Int_Tables_number   1
_chemical_formula_structural   NaAlGeO4
_chemical_formula_sum   'Na12 Al12 Ge12 O48'
_cell_volume   1167.73154929
_cell_formula_units_Z   12
loop_
 _symmetry_equiv_pos_site_id
 _symmetry_equiv_pos_as_xyz
  1  'x, y, z'
loop_
 _atom_site_type_symbol
 _atom_site_label
 _atom_site_symmetry_multiplicity
 _atom_site_fract_x
 _atom_site_fract_y
 _atom_site_fract_z
 _atom_site_occupancy
  Na  Na0  1  0.786786  0.523696  0.565428  1
  Na  Na1  1  0.213214  0.023696  0.934572  1
  Na  Na2  1  0.213214  0.476304  0.434572  1
  Na  Na3  1  0.786786  0.976304  0.065428  1
  Na  Na4  1  0.859320  0.968927  0.589697  1
  Na  Na5  1  0.140680  0.468927  0.910303  1
  Na  Na6  1  0.140680  0.031073  0.410303  1
  Na  Na7  1  0.859320  0.531073  0.089697  1
  Na  Na8  1  0.497136  0.947987  0.753273  1
  Na  Na9  1  0.502864  0.447987  0.746727  1
  Na  Na10  1  0.502864  0.052013  0.246727  1
  Na  Na11  1  0.497136  0.552013  0.253273  1
  Al  Al12  1  0.152242  0.666071  0.591965  1
  Al  Al13  1  0.847758  0.166071  0.908035  1
  Al  Al14  1  0.847758  0.333929  0.408035  1
  Al  Al15  1  0.152242  0.833929  0.091965  1
  Al  Al16  1  0.522848  0.669374  0.922515  1
  Al  Al17  1  0.477152  0.169374  0.577485  1
  Al  Al18  1  0.477152  0.330626  0.077485  1
  Al  Al19  1  0.522848  0.830626  0.422515  1
  Al  Al20  1  0.814603  0.670091  0.736943  1
  Al  Al21  1  0.185397  0.170091  0.763057  1
  Al  Al22  1  0.185397  0.329909  0.263057  1
  Al  Al23  1  0.814603  0.829909  0.236943  1
  Ge  Ge24  1  0.469959  0.783566  0.578478  1
  Ge  Ge25  1  0.530041  0.283566  0.921522  1
  Ge  Ge26  1  0.530041  0.216434  0.421522  1
  Ge  Ge27  1  0.469959  0.716434  0.078478  1
  Ge  Ge28  1  0.848341  0.778727  0.909961  1
  Ge  Ge29  1  0.151659  0.278727  0.590039  1
  Ge  Ge30  1  0.151659  0.221273  0.090039  1
  Ge  Ge31  1  0.848341  0.721273  0.409961  1
  Ge  Ge32  1  0.184681  0.782900  0.766292  1
  Ge  Ge33  1  0.815319  0.282900  0.733708  1
  Ge  Ge34  1  0.815319  0.217100  0.233708  1
  Ge  Ge35  1  0.184681  0.717100  0.266292  1
  O  O36  1  0.908043  0.971753  0.894314  1
  O  O37  1  0.091957  0.471753  0.605686  1
  O  O38  1  0.091957  0.028247  0.105686  1
  O  O39  1  0.908043  0.528247  0.394314  1
  O  O40  1  0.382725  0.977393  0.550498  1
  O  O41  1  0.617275  0.477393  0.949502  1
  O  O42  1  0.617275  0.022607  0.449502  1
  O  O43  1  0.382725  0.522607  0.050498  1
  O  O44  1  0.237762  0.977495  0.809641  1
  O  O45  1  0.762238  0.477495  0.690359  1
  O  O46  1  0.762238  0.022505  0.190359  1
  O  O47  1  0.237762  0.522505  0.309641  1
  O  O48  1  0.900782  0.648902  0.848775  1
  O  O49  1  0.099218  0.148902  0.651225  1
  O  O50  1  0.099218  0.351098  0.151225  1
  O  O51  1  0.900782  0.851098  0.348775  1
  O  O52  1  0.296158  0.651492  0.550872  1
  O  O53  1  0.703842  0.151492  0.949128  1
  O  O54  1  0.703842  0.348508  0.449128  1
  O  O55  1  0.296158  0.848508  0.050872  1
  O  O56  1  0.623009  0.772307  0.872375  1
  O  O57  1  0.296030  0.653170  0.854265  1
  O  O58  1  0.703970  0.346830  0.145735  1
  O  O59  1  0.296030  0.846830  0.354265  1
  O  O60  1  0.958029  0.767779  0.520537  1
  O  O61  1  0.041971  0.267779  0.979463  1
  O  O62  1  0.041971  0.232221  0.479463  1
  O  O63  1  0.958029  0.732221  0.020537  1
  O  O64  1  0.576589  0.732824  0.520587  1
  O  O65  1  0.423411  0.232824  0.979413  1
  O  O66  1  0.423411  0.267176  0.479413  1
  O  O67  1  0.576589  0.767176  0.020587  1
  O  O68  1  0.958957  0.757824  0.708060  1
  O  O69  1  0.041043  0.257824  0.791940  1
  O  O70  1  0.041043  0.242176  0.291940  1
  O  O71  1  0.958957  0.742176  0.208060  1
  O  O72  1  0.260990  0.737729  0.192534  1
  O  O73  1  0.739010  0.237729  0.307466  1
  O  O74  1  0.739010  0.262271  0.807466  1
  O  O75  1  0.260990  0.762271  0.692534  1
  O  O76  1  0.617424  0.722969  0.189732  1
  O  O77  1  0.382576  0.222969  0.310268  1
  O  O78  1  0.382576  0.277031  0.810268  1
  O  O79  1  0.617424  0.777031  0.689732  1
  O  O80  1  0.623009  0.727693  0.372375  1
  O  O81  1  0.376991  0.227693  0.127625  1
  O  O82  1  0.376991  0.272307  0.627625  1
  O  O83  1  0.703970  0.153170  0.645735  1
