# generated using pymatgen
data_Ba2SrTeO6
_symmetry_space_group_name_H-M   'P 1'
_cell_length_a   6.11840602
_cell_length_b   6.11840602
_cell_length_c   6.11840602
_cell_angle_alpha   60.76419277
_cell_angle_beta   60.76419277
_cell_angle_gamma   60.76419277
_symmetry_Int_Tables_number   1
_chemical_formula_structural   Ba2SrTeO6
_chemical_formula_sum   'Ba2 Sr1 Te1 O6'
_cell_volume   164.74929799
_cell_formula_units_Z   1
loop_
 _symmetry_equiv_pos_site_id
 _symmetry_equiv_pos_as_xyz
  1  'x, y, z'
loop_
 _atom_site_type_symbol
 _atom_site_label
 _atom_site_symmetry_multiplicity
 _atom_site_fract_x
 _atom_site_fract_y
 _atom_site_fract_z
 _atom_site_occupancy
  Ba  Ba0  1  0.252060  0.252060  0.252060  1
  Ba  Ba1  1  0.747940  0.747940  0.747940  1
  Sr  Sr2  1  0.000000  0.000000  0.000000  1
  Te  Te3  1  0.500000  0.500000  0.500000  1
  O  O4  1  0.226340  0.328441  0.717506  1
  O  O5  1  0.328441  0.717506  0.226340  1
  O  O6  1  0.717506  0.226340  0.328441  1
  O  O7  1  0.773660  0.671559  0.282494  1
  O  O8  1  0.282494  0.773660  0.671559  1
  O  O9  1  0.671559  0.282494  0.773660  1
