# generated using pymatgen
data_Zr4Al3
_symmetry_space_group_name_H-M   'P 1'
_cell_length_a   5.45596409
_cell_length_b   5.45596409
_cell_length_c   5.41705497
_cell_angle_alpha   90.00000000
_cell_angle_beta   90.00000000
_cell_angle_gamma   120.00000000
_symmetry_Int_Tables_number   1
_chemical_formula_structural   Zr4Al3
_chemical_formula_sum   'Zr4 Al3'
_cell_volume   139.64869476
_cell_formula_units_Z   1
loop_
 _symmetry_equiv_pos_site_id
 _symmetry_equiv_pos_as_xyz
  1  'x, y, z'
loop_
 _atom_site_type_symbol
 _atom_site_label
 _atom_site_symmetry_multiplicity
 _atom_site_fract_x
 _atom_site_fract_y
 _atom_site_fract_z
 _atom_site_occupancy
  Zr  Zr0  1  0.000000  0.000000  0.257549  1
  Zr  Zr1  1  0.000000  0.000000  0.742451  1
  Zr  Zr2  1  0.666667  0.333333  0.500000  1
  Zr  Zr3  1  0.333333  0.666667  0.500000  1
  Al  Al4  1  0.500000  0.500000  0.000000  1
  Al  Al5  1  0.500000  0.000000  0.000000  1
  Al  Al6  1  0.000000  0.500000  0.000000  1
