# generated using pymatgen
data_CeSi2Ni
_symmetry_space_group_name_H-M   'P 1'
_cell_length_a   8.39465360
_cell_length_b   8.39465360
_cell_length_c   4.05536593
_cell_angle_alpha   90.00000000
_cell_angle_beta   90.00000000
_cell_angle_gamma   151.70660671
_symmetry_Int_Tables_number   1
_chemical_formula_structural   CeSi2Ni
_chemical_formula_sum   'Ce2 Si4 Ni2'
_cell_volume   135.45709104
_cell_formula_units_Z   2
loop_
 _symmetry_equiv_pos_site_id
 _symmetry_equiv_pos_as_xyz
  1  'x, y, z'
loop_
 _atom_site_type_symbol
 _atom_site_label
 _atom_site_symmetry_multiplicity
 _atom_site_fract_x
 _atom_site_fract_y
 _atom_site_fract_z
 _atom_site_occupancy
  Ce  Ce0  1  0.106037  0.893963  0.250000  1
  Ce  Ce1  1  0.893963  0.106037  0.750000  1
  Si  Si2  1  0.750703  0.249297  0.250000  1
  Si  Si3  1  0.249297  0.750703  0.750000  1
  Si  Si4  1  0.539664  0.460336  0.750000  1
  Si  Si5  1  0.460336  0.539664  0.250000  1
  Ni  Ni6  1  0.680598  0.319402  0.750000  1
  Ni  Ni7  1  0.319402  0.680598  0.250000  1
