# generated using pymatgen
data_LiB(SO4)2
_symmetry_space_group_name_H-M   'P 1'
_cell_length_a   7.79267133
_cell_length_b   9.55410248
_cell_length_c   8.58042499
_cell_angle_alpha   90.00000000
_cell_angle_beta   92.32454642
_cell_angle_gamma   90.00000000
_symmetry_Int_Tables_number   1
_chemical_formula_structural   LiB(SO4)2
_chemical_formula_sum   'Li4 B4 S8 O32'
_cell_volume   638.30394767
_cell_formula_units_Z   4
loop_
 _symmetry_equiv_pos_site_id
 _symmetry_equiv_pos_as_xyz
  1  'x, y, z'
loop_
 _atom_site_type_symbol
 _atom_site_label
 _atom_site_symmetry_multiplicity
 _atom_site_fract_x
 _atom_site_fract_y
 _atom_site_fract_z
 _atom_site_occupancy
  Li  Li0  1  0.237587  0.876391  0.534145  1
  Li  Li1  1  0.237587  0.123609  0.034145  1
  Li  Li2  1  0.721914  0.331829  0.868878  1
  Li  Li3  1  0.721914  0.668171  0.368878  1
  B  B4  1  0.218555  0.602361  0.017378  1
  B  B5  1  0.218555  0.397639  0.517378  1
  B  B6  1  0.733250  0.146621  0.396956  1
  B  B7  1  0.733250  0.853379  0.896956  1
  S  S8  1  0.572275  0.623743  0.014049  1
  S  S9  1  0.572275  0.376257  0.514049  1
  S  S10  1  0.120892  0.612038  0.321285  1
  S  S11  1  0.120892  0.387962  0.821285  1
  S  S12  1  0.645710  0.941570  0.597375  1
  S  S13  1  0.645710  0.058430  0.097375  1
  S  S14  1  0.084377  0.161808  0.378868  1
  S  S15  1  0.084377  0.838192  0.878868  1
  O  O16  1  0.574571  0.676709  0.171750  1
  O  O17  1  0.574571  0.323291  0.671750  1
  O  O18  1  0.687257  0.510653  0.981013  1
  O  O19  1  0.687257  0.489347  0.481013  1
  O  O20  1  0.234129  0.708362  0.404455  1
  O  O21  1  0.234129  0.291638  0.904455  1
  O  O22  1  0.951197  0.661062  0.275932  1
  O  O23  1  0.951197  0.338938  0.775932  1
  O  O24  1  0.465059  0.965887  0.564347  1
  O  O25  1  0.465059  0.034113  0.064347  1
  O  O26  1  0.717780  0.813506  0.538972  1
  O  O27  1  0.717780  0.186494  0.038972  1
  O  O28  1  0.089934  0.017624  0.428423  1
  O  O29  1  0.089934  0.982376  0.928423  1
  O  O30  1  0.160344  0.196316  0.233653  1
  O  O31  1  0.160344  0.803684  0.733653  1
  O  O32  1  0.391311  0.575028  0.960245  1
  O  O33  1  0.391311  0.424972  0.460245  1
  O  O34  1  0.597314  0.745552  0.896557  1
  O  O35  1  0.597314  0.254448  0.396557  1
  O  O36  1  0.213372  0.553073  0.179740  1
  O  O37  1  0.213372  0.446927  0.679740  1
  O  O38  1  0.095721  0.477580  0.417150  1
  O  O39  1  0.095721  0.522420  0.917150  1
  O  O40  1  0.684817  0.043638  0.274361  1
  O  O41  1  0.684817  0.956362  0.774361  1
  O  O42  1  0.750751  0.069612  0.545647  1
  O  O43  1  0.750751  0.930388  0.045647  1
  O  O44  1  0.170958  0.752006  0.012861  1
  O  O45  1  0.170958  0.247994  0.512861  1
  O  O46  1  0.897786  0.217590  0.370891  1
  O  O47  1  0.897786  0.782410  0.870891  1
