# generated using pymatgen
data_SrNb6O16
_symmetry_space_group_name_H-M   'P 1'
_cell_length_a   9.17951619
_cell_length_b   9.17951619
_cell_length_c   3.91688045
_cell_angle_alpha   90.00000000
_cell_angle_beta   90.00000000
_cell_angle_gamma   109.91085206
_symmetry_Int_Tables_number   1
_chemical_formula_structural   SrNb6O16
_chemical_formula_sum   'Sr1 Nb6 O16'
_cell_volume   310.32092982
_cell_formula_units_Z   1
loop_
 _symmetry_equiv_pos_site_id
 _symmetry_equiv_pos_as_xyz
  1  'x, y, z'
loop_
 _atom_site_type_symbol
 _atom_site_label
 _atom_site_symmetry_multiplicity
 _atom_site_fract_x
 _atom_site_fract_y
 _atom_site_fract_z
 _atom_site_occupancy
  Sr  Sr0  1  0.601538  0.398462  0.500000  1
  Nb  Nb1  1  0.372462  0.002054  0.000000  1
  Nb  Nb2  1  0.258126  0.379845  0.000000  1
  Nb  Nb3  1  0.620155  0.741874  0.000000  1
  Nb  Nb4  1  0.793716  0.206284  1.000000  1
  Nb  Nb5  1  0.006715  0.993285  0.000000  1
  Nb  Nb6  1  0.997946  0.627538  0.000000  1
  O  O7  1  0.488397  0.511603  0.000000  1
  O  O8  1  0.142694  0.857306  0.000000  1
  O  O9  1  0.167084  0.533904  0.000000  1
  O  O10  1  0.466096  0.832916  0.000000  1
  O  O11  1  0.854426  0.761847  0.000000  1
  O  O12  1  0.238153  0.145574  0.000000  1
  O  O13  1  0.813145  0.443229  0.000000  1
  O  O14  1  0.996632  0.003368  0.500000  1
  O  O15  1  0.775235  0.224765  0.500000  1
  O  O16  1  0.633104  0.707911  0.500000  1
  O  O17  1  0.292089  0.366896  0.500000  1
  O  O18  1  0.373081  0.995466  0.500000  1
  O  O19  1  0.004534  0.626919  0.500000  1
  O  O20  1  0.764281  0.986380  0.000000  1
  O  O21  1  0.013620  0.235719  0.000000  1
  O  O22  1  0.556771  0.186855  0.000000  1
