# generated using pymatgen
data_KMg(PO3)3
_symmetry_space_group_name_H-M   'P 1'
_cell_length_a   6.71764470
_cell_length_b   6.71764470
_cell_length_c   9.93288196
_cell_angle_alpha   90.00000000
_cell_angle_beta   90.00000000
_cell_angle_gamma   120.00000000
_symmetry_Int_Tables_number   1
_chemical_formula_structural   KMg(PO3)3
_chemical_formula_sum   'K2 Mg2 P6 O18'
_cell_volume   388.18608722
_cell_formula_units_Z   2
loop_
 _symmetry_equiv_pos_site_id
 _symmetry_equiv_pos_as_xyz
  1  'x, y, z'
loop_
 _atom_site_type_symbol
 _atom_site_label
 _atom_site_symmetry_multiplicity
 _atom_site_fract_x
 _atom_site_fract_y
 _atom_site_fract_z
 _atom_site_occupancy
  K  K0  1  0.333333  0.666667  0.500000  1
  K  K1  1  0.333333  0.666667  0.000000  1
  Mg  Mg2  1  0.000000  0.000000  0.500000  1
  Mg  Mg3  1  0.000000  0.000000  0.000000  1
  P  P4  1  0.726918  0.110390  0.750000  1
  P  P5  1  0.726918  0.616528  0.250000  1
  P  P6  1  0.383472  0.110390  0.250000  1
  P  P7  1  0.889610  0.273082  0.250000  1
  P  P8  1  0.889610  0.616528  0.750000  1
  P  P9  1  0.383472  0.273082  0.750000  1
  O  O10  1  0.746286  0.007371  0.620327  1
  O  O11  1  0.992629  0.253714  0.379673  1
  O  O12  1  0.992629  0.738915  0.620327  1
  O  O13  1  0.261085  0.253714  0.620327  1
  O  O14  1  0.992629  0.738915  0.879673  1
  O  O15  1  0.261085  0.253714  0.879673  1
  O  O16  1  0.746286  0.007371  0.879673  1
  O  O17  1  0.261085  0.007371  0.120327  1
  O  O18  1  0.746286  0.738915  0.120327  1
  O  O19  1  0.746286  0.738915  0.379673  1
  O  O20  1  0.905246  0.521454  0.250000  1
  O  O21  1  0.616209  0.094754  0.250000  1
  O  O22  1  0.478546  0.383791  0.250000  1
  O  O23  1  0.478546  0.094754  0.750000  1
  O  O24  1  0.616209  0.521454  0.750000  1
  O  O25  1  0.905246  0.383791  0.750000  1
  O  O26  1  0.992629  0.253714  0.120327  1
  O  O27  1  0.261085  0.007371  0.379673  1
