# generated using pymatgen
data_KEr(PO3)4
_symmetry_space_group_name_H-M   'P 1'
_cell_length_a   7.32614382
_cell_length_b   8.39209018
_cell_length_c   7.91906441
_cell_angle_alpha   90.00000000
_cell_angle_beta   91.44959086
_cell_angle_gamma   90.00000000
_symmetry_Int_Tables_number   1
_chemical_formula_structural   KEr(PO3)4
_chemical_formula_sum   'K2 Er2 P8 O24'
_cell_volume   486.72140709
_cell_formula_units_Z   2
loop_
 _symmetry_equiv_pos_site_id
 _symmetry_equiv_pos_as_xyz
  1  'x, y, z'
loop_
 _atom_site_type_symbol
 _atom_site_label
 _atom_site_symmetry_multiplicity
 _atom_site_fract_x
 _atom_site_fract_y
 _atom_site_fract_z
 _atom_site_occupancy
  K  K0  1  0.267404  0.810963  0.716931  1
  K  K1  1  0.732596  0.310963  0.283069  1
  Er  Er2  1  0.238613  0.502321  0.242239  1
  Er  Er3  1  0.761387  0.002321  0.757761  1
  P  P4  1  0.903197  0.584831  0.902988  1
  P  P5  1  0.096803  0.084831  0.097012  1
  P  P6  1  0.994784  0.849441  0.382010  1
  P  P7  1  0.005216  0.349441  0.617990  1
  P  P8  1  0.612093  0.753887  0.398671  1
  P  P9  1  0.387907  0.253887  0.601329  1
  P  P10  1  0.435340  0.876184  0.090710  1
  P  P11  1  0.564660  0.376184  0.909290  1
  O  O12  1  0.908178  0.748691  0.829324  1
  O  O13  1  0.091822  0.248691  0.170676  1
  O  O14  1  0.984826  0.553979  0.075761  1
  O  O15  1  0.015174  0.053979  0.924239  1
  O  O16  1  0.964040  0.945174  0.539100  1
  O  O17  1  0.035960  0.445174  0.460900  1
  O  O18  1  0.160486  0.744148  0.382372  1
  O  O19  1  0.839514  0.244148  0.617628  1
  O  O20  1  0.990279  0.964989  0.220912  1
  O  O21  1  0.009721  0.464989  0.779088  1
  O  O22  1  0.520333  0.599503  0.354364  1
  O  O23  1  0.479667  0.099503  0.645636  1
  O  O24  1  0.465675  0.393682  0.725347  1
  O  O25  1  0.534325  0.893682  0.274653  1
  O  O26  1  0.307526  0.031598  0.101660  1
  O  O27  1  0.692474  0.531598  0.898340  1
  O  O28  1  0.428267  0.405332  0.044217  1
  O  O29  1  0.571733  0.905332  0.955783  1
  O  O30  1  0.677119  0.227869  0.928601  1
  O  O31  1  0.322881  0.727869  0.071399  1
  O  O32  1  0.390874  0.313260  0.423154  1
  O  O33  1  0.609126  0.813260  0.576846  1
  O  O34  1  0.180247  0.239449  0.661467  1
  O  O35  1  0.819753  0.739449  0.338533  1
