# generated using pymatgen
data_Ca6Ge2O
_symmetry_space_group_name_H-M   'P 1'
_cell_length_a   6.80541597
_cell_length_b   6.80541597
_cell_length_c   6.80541597
_cell_angle_alpha   60.00000000
_cell_angle_beta   60.00000000
_cell_angle_gamma   60.00000000
_symmetry_Int_Tables_number   1
_chemical_formula_structural   Ca6Ge2O
_chemical_formula_sum   'Ca6 Ge2 O1'
_cell_volume   222.86867419
_cell_formula_units_Z   1
loop_
 _symmetry_equiv_pos_site_id
 _symmetry_equiv_pos_as_xyz
  1  'x, y, z'
loop_
 _atom_site_type_symbol
 _atom_site_label
 _atom_site_symmetry_multiplicity
 _atom_site_fract_x
 _atom_site_fract_y
 _atom_site_fract_z
 _atom_site_occupancy
  Ca  Ca0  1  0.246477  0.246477  0.753523  1
  Ca  Ca1  1  0.753523  0.246477  0.246477  1
  Ca  Ca2  1  0.753523  0.246477  0.753523  1
  Ca  Ca3  1  0.753523  0.753523  0.246477  1
  Ca  Ca4  1  0.246477  0.753523  0.753523  1
  Ca  Ca5  1  0.246477  0.753523  0.246477  1
  Ge  Ge6  1  0.750000  0.750000  0.750000  1
  Ge  Ge7  1  0.250000  0.250000  0.250000  1
  O  O8  1  0.000000  0.000000  0.000000  1
