# generated using pymatgen
data_Si(CO)2
_symmetry_space_group_name_H-M   'P 1'
_cell_length_a   7.43869161
_cell_length_b   7.43869161
_cell_length_c   7.43869161
_cell_angle_alpha   157.48760817
_cell_angle_beta   123.58289992
_cell_angle_gamma   61.51428218
_symmetry_Int_Tables_number   1
_chemical_formula_structural   Si(CO)2
_chemical_formula_sum   'Si2 C4 O4'
_cell_volume   130.54406004
_cell_formula_units_Z   2
loop_
 _symmetry_equiv_pos_site_id
 _symmetry_equiv_pos_as_xyz
  1  'x, y, z'
loop_
 _atom_site_type_symbol
 _atom_site_label
 _atom_site_symmetry_multiplicity
 _atom_site_fract_x
 _atom_site_fract_y
 _atom_site_fract_z
 _atom_site_occupancy
  Si  Si0  1  0.377070  0.377070  0.000000  1
  Si  Si1  1  0.622930  0.622930  0.000000  1
  C  C2  1  0.083137  0.583137  0.500000  1
  C  C3  1  0.856659  0.500000  0.356659  1
  C  C4  1  0.916863  0.416863  0.500000  1
  C  C5  1  0.143341  0.500000  0.643341  1
  O  O6  1  0.334826  0.500000  0.834826  1
  O  O7  1  0.819757  0.319757  0.500000  1
  O  O8  1  0.180243  0.680243  0.500000  1
  O  O9  1  0.665174  0.500000  0.165174  1
