# generated using pymatgen
data_K3Ta3Si2O13
_symmetry_space_group_name_H-M   'P 1'
_cell_length_a   9.20529378
_cell_length_b   9.20529378
_cell_length_c   7.89292853
_cell_angle_alpha   90.00000000
_cell_angle_beta   90.00000000
_cell_angle_gamma   120.00000000
_symmetry_Int_Tables_number   1
_chemical_formula_structural   K3Ta3Si2O13
_chemical_formula_sum   'K6 Ta6 Si4 O26'
_cell_volume   579.22074566
_cell_formula_units_Z   2
loop_
 _symmetry_equiv_pos_site_id
 _symmetry_equiv_pos_as_xyz
  1  'x, y, z'
loop_
 _atom_site_type_symbol
 _atom_site_label
 _atom_site_symmetry_multiplicity
 _atom_site_fract_x
 _atom_site_fract_y
 _atom_site_fract_z
 _atom_site_occupancy
  K  K0  1  0.402516  0.402516  0.500000  1
  K  K1  1  0.000000  0.597484  0.500000  1
  K  K2  1  0.611194  0.000000  0.000000  1
  K  K3  1  0.388806  0.388806  0.000000  1
  K  K4  1  0.597484  0.000000  0.500000  1
  K  K5  1  0.000000  0.611194  0.000000  1
  Ta  Ta6  1  0.237411  0.000000  0.250756  1
  Ta  Ta7  1  0.000000  0.237411  0.749244  1
  Ta  Ta8  1  0.000000  0.237411  0.250756  1
  Ta  Ta9  1  0.762589  0.762589  0.250756  1
  Ta  Ta10  1  0.237411  0.000000  0.749244  1
  Ta  Ta11  1  0.762589  0.762589  0.749244  1
  Si  Si12  1  0.666667  0.333333  0.209373  1
  Si  Si13  1  0.666667  0.333333  0.790627  1
  Si  Si14  1  0.333333  0.666667  0.790627  1
  Si  Si15  1  0.333333  0.666667  0.209373  1
  O  O16  1  0.000000  0.231841  0.500000  1
  O  O17  1  0.768159  0.768159  0.500000  1
  O  O18  1  0.231841  0.000000  0.500000  1
  O  O19  1  0.514259  0.695629  0.270862  1
  O  O20  1  0.304371  0.818630  0.270862  1
  O  O21  1  0.181370  0.485741  0.270862  1
  O  O22  1  0.485741  0.181370  0.729138  1
  O  O23  1  0.181370  0.485741  0.729138  1
  O  O24  1  0.514259  0.695629  0.729138  1
  O  O25  1  0.304371  0.818630  0.729138  1
  O  O26  1  0.695629  0.514259  0.270862  1
  O  O27  1  0.818630  0.304371  0.270862  1
  O  O28  1  0.818630  0.304371  0.729138  1
  O  O29  1  0.695629  0.514259  0.729138  1
  O  O30  1  0.485741  0.181370  0.270862  1
  O  O31  1  0.824890  0.000000  0.763793  1
  O  O32  1  0.333333  0.666667  0.000000  1
  O  O33  1  0.666667  0.333333  0.000000  1
  O  O34  1  0.267807  0.000000  0.000000  1
  O  O35  1  0.732193  0.732193  0.000000  1
  O  O36  1  0.000000  0.267807  0.000000  1
  O  O37  1  0.824890  0.000000  0.236207  1
  O  O38  1  0.175110  0.175110  0.763793  1
  O  O39  1  0.000000  0.824890  0.763793  1
  O  O40  1  0.000000  0.824890  0.236207  1
  O  O41  1  0.175110  0.175110  0.236207  1
