# generated using pymatgen
data_Rb2Zr3OF12
_symmetry_space_group_name_H-M   'P 1'
_cell_length_a   11.10048943
_cell_length_b   11.10048943
_cell_length_c   11.10048943
_cell_angle_alpha   41.47961233
_cell_angle_beta   41.47961233
_cell_angle_gamma   41.47961233
_symmetry_Int_Tables_number   1
_chemical_formula_structural   Rb2Zr3OF12
_chemical_formula_sum   'Rb4 Zr6 O2 F24'
_cell_volume   542.24831613
_cell_formula_units_Z   2
loop_
 _symmetry_equiv_pos_site_id
 _symmetry_equiv_pos_as_xyz
  1  'x, y, z'
loop_
 _atom_site_type_symbol
 _atom_site_label
 _atom_site_symmetry_multiplicity
 _atom_site_fract_x
 _atom_site_fract_y
 _atom_site_fract_z
 _atom_site_occupancy
  Rb  Rb0  1  0.000000  0.000000  0.000000  1
  Rb  Rb1  1  0.500000  0.500000  0.500000  1
  Rb  Rb2  1  0.861943  0.861943  0.861943  1
  Rb  Rb3  1  0.138057  0.138057  0.138057  1
  Zr  Zr4  1  0.424192  0.970911  0.424192  1
  Zr  Zr5  1  0.970911  0.424192  0.424192  1
  Zr  Zr6  1  0.424192  0.424192  0.970911  1
  Zr  Zr7  1  0.575808  0.575808  0.029089  1
  Zr  Zr8  1  0.029089  0.575808  0.575808  1
  Zr  Zr9  1  0.575808  0.029089  0.575808  1
  O  O10  1  0.713373  0.713373  0.713373  1
  O  O11  1  0.286627  0.286627  0.286627  1
  F  F12  1  0.629154  0.293154  0.293154  1
  F  F13  1  0.293154  0.293154  0.629154  1
  F  F14  1  0.293154  0.629154  0.293154  1
  F  F15  1  0.370846  0.706846  0.706846  1
  F  F16  1  0.706846  0.706846  0.370846  1
  F  F17  1  0.706846  0.370846  0.706846  1
  F  F18  1  0.910406  0.910406  0.402271  1
  F  F19  1  0.910406  0.402271  0.910406  1
  F  F20  1  1.000000  0.352146  0.647854  1
  F  F21  1  0.647854  0.000000  0.352146  1
  F  F22  1  0.352146  0.647854  0.000000  1
  F  F23  1  0.000000  0.647854  0.352146  1
  F  F24  1  0.352146  0.000000  0.647854  1
  F  F25  1  0.647854  0.352146  1.000000  1
  F  F26  1  0.916381  0.351881  0.351881  1
  F  F27  1  0.351881  0.916381  0.351881  1
  F  F28  1  0.351881  0.351881  0.916381  1
  F  F29  1  0.648119  0.648119  0.083619  1
  F  F30  1  0.083619  0.648119  0.648119  1
  F  F31  1  0.648119  0.083619  0.648119  1
  F  F32  1  0.089594  0.089594  0.597729  1
  F  F33  1  0.597729  0.089594  0.089594  1
  F  F34  1  0.089594  0.597729  0.089594  1
  F  F35  1  0.402271  0.910406  0.910406  1
