# generated using pymatgen
data_K2Li3GaO4
_symmetry_space_group_name_H-M   'P 1'
_cell_length_a   5.60825570
_cell_length_b   8.90846736
_cell_length_c   11.07387055
_cell_angle_alpha   90.00000000
_cell_angle_beta   111.23173255
_cell_angle_gamma   90.00000000
_symmetry_Int_Tables_number   1
_chemical_formula_structural   K2Li3GaO4
_chemical_formula_sum   'K8 Li12 Ga4 O16'
_cell_volume   515.70773064
_cell_formula_units_Z   4
loop_
 _symmetry_equiv_pos_site_id
 _symmetry_equiv_pos_as_xyz
  1  'x, y, z'
loop_
 _atom_site_type_symbol
 _atom_site_label
 _atom_site_symmetry_multiplicity
 _atom_site_fract_x
 _atom_site_fract_y
 _atom_site_fract_z
 _atom_site_occupancy
  K  K0  1  0.291048  0.992786  0.137314  1
  K  K1  1  0.708952  0.492786  0.362686  1
  K  K2  1  0.708952  0.007214  0.862686  1
  K  K3  1  0.291048  0.507214  0.637314  1
  K  K4  1  0.279912  0.727866  0.390789  1
  K  K5  1  0.720088  0.227866  0.109211  1
  K  K6  1  0.720088  0.272134  0.609211  1
  K  K7  1  0.279912  0.772134  0.890789  1
  Li  Li8  1  0.382756  0.261470  0.799013  1
  Li  Li9  1  0.617244  0.761470  0.700987  1
  Li  Li10  1  0.617244  0.738530  0.200987  1
  Li  Li11  1  0.382756  0.238530  0.299013  1
  Li  Li12  1  0.093371  0.035283  0.702766  1
  Li  Li13  1  0.906629  0.535283  0.797234  1
  Li  Li14  1  0.906629  0.964717  0.297234  1
  Li  Li15  1  0.093371  0.464717  0.202766  1
  Li  Li16  1  0.628494  0.491028  0.930143  1
  Li  Li17  1  0.371506  0.991028  0.569857  1
  Li  Li18  1  0.371506  0.508972  0.069857  1
  Li  Li19  1  0.628494  0.008972  0.430143  1
  Ga  Ga20  1  0.102786  0.288559  0.936492  1
  Ga  Ga21  1  0.897214  0.788559  0.563508  1
  Ga  Ga22  1  0.897214  0.711441  0.063508  1
  Ga  Ga23  1  0.102786  0.211441  0.436492  1
  O  O24  1  0.749481  0.322224  0.857570  1
  O  O25  1  0.250519  0.822224  0.642430  1
  O  O26  1  0.250519  0.677776  0.142430  1
  O  O27  1  0.749481  0.177776  0.357570  1
  O  O28  1  0.232476  0.189894  0.618238  1
  O  O29  1  0.767524  0.689894  0.881762  1
  O  O30  1  0.767524  0.810106  0.381762  1
  O  O31  1  0.232476  0.310106  0.118238  1
  O  O32  1  0.217470  0.109040  0.884961  1
  O  O33  1  0.782530  0.609040  0.615039  1
  O  O34  1  0.782530  0.890960  0.115039  1
  O  O35  1  0.217470  0.390960  0.384961  1
  O  O36  1  0.258352  0.051367  0.376508  1
  O  O37  1  0.741648  0.551367  0.123492  1
  O  O38  1  0.741648  0.948633  0.623492  1
  O  O39  1  0.258352  0.448633  0.876508  1
