# generated using pymatgen
data_CsBS3O11
_symmetry_space_group_name_H-M   'P 1'
_cell_length_a   8.47923128
_cell_length_b   11.72039845
_cell_length_c   10.75544757
_cell_angle_alpha   90.00000000
_cell_angle_beta   103.21143304
_cell_angle_gamma   90.00000000
_symmetry_Int_Tables_number   1
_chemical_formula_structural   CsBS3O11
_chemical_formula_sum   'Cs4 B4 S12 O44'
_cell_volume   1040.58644470
_cell_formula_units_Z   4
loop_
 _symmetry_equiv_pos_site_id
 _symmetry_equiv_pos_as_xyz
  1  'x, y, z'
loop_
 _atom_site_type_symbol
 _atom_site_label
 _atom_site_symmetry_multiplicity
 _atom_site_fract_x
 _atom_site_fract_y
 _atom_site_fract_z
 _atom_site_occupancy
  Cs  Cs0  1  0.442510  0.630734  0.757827  1
  Cs  Cs1  1  0.057490  0.130734  0.242173  1
  Cs  Cs2  1  0.557490  0.369266  0.242173  1
  Cs  Cs3  1  0.942510  0.869266  0.757827  1
  B  B4  1  0.563485  0.222019  0.676777  1
  B  B5  1  0.936515  0.722019  0.323223  1
  B  B6  1  0.436515  0.777981  0.323223  1
  B  B7  1  0.063485  0.277981  0.676777  1
  S  S8  1  0.295642  0.337455  0.546654  1
  S  S9  1  0.204358  0.837455  0.453346  1
  S  S10  1  0.704358  0.662545  0.453346  1
  S  S11  1  0.795642  0.162545  0.546654  1
  S  S12  1  0.049307  0.522765  0.234923  1
  S  S13  1  0.450693  0.022765  0.765077  1
  S  S14  1  0.950693  0.477235  0.765077  1
  S  S15  1  0.549307  0.977235  0.234923  1
  S  S16  1  0.801682  0.659657  0.077116  1
  S  S17  1  0.698318  0.159657  0.922884  1
  S  S18  1  0.198318  0.340343  0.922884  1
  S  S19  1  0.301682  0.840343  0.077116  1
  O  O20  1  0.258663  0.456644  0.552014  1
  O  O21  1  0.241337  0.956644  0.447986  1
  O  O22  1  0.741337  0.543356  0.447986  1
  O  O23  1  0.758663  0.043356  0.552014  1
  O  O24  1  0.676489  0.710596  0.569520  1
  O  O25  1  0.823511  0.210596  0.430480  1
  O  O26  1  0.323511  0.289404  0.430480  1
  O  O27  1  0.176489  0.789404  0.569520  1
  O  O28  1  0.782042  0.484465  0.762604  1
  O  O29  1  0.717958  0.984465  0.237396  1
  O  O30  1  0.217958  0.515535  0.237396  1
  O  O31  1  0.282042  0.015535  0.762604  1
  O  O32  1  0.044833  0.578561  0.765210  1
  O  O33  1  0.455167  0.078561  0.234790  1
  O  O34  1  0.955167  0.421439  0.234790  1
  O  O35  1  0.544833  0.921439  0.765210  1
  O  O36  1  0.677350  0.577553  0.080629  1
  O  O37  1  0.822650  0.077553  0.919371  1
  O  O38  1  0.322650  0.422447  0.919371  1
  O  O39  1  0.177350  0.922447  0.080629  1
  O  O40  1  0.793854  0.725563  0.963898  1
  O  O41  1  0.706146  0.225563  0.036102  1
  O  O42  1  0.206146  0.274437  0.036102  1
  O  O43  1  0.293854  0.774437  0.963898  1
  O  O44  1  0.444069  0.315211  0.661295  1
  O  O45  1  0.055931  0.815211  0.338705  1
  O  O46  1  0.555931  0.684789  0.338705  1
  O  O47  1  0.944069  0.184789  0.661295  1
  O  O48  1  0.342815  0.763097  0.420533  1
  O  O49  1  0.157185  0.263097  0.579467  1
  O  O50  1  0.657185  0.236903  0.579467  1
  O  O51  1  0.842815  0.736903  0.420533  1
  O  O52  1  0.015521  0.607512  0.334878  1
  O  O53  1  0.484479  0.107512  0.665122  1
  O  O54  1  0.984479  0.392488  0.665122  1
  O  O55  1  0.515521  0.892488  0.334878  1
  O  O56  1  0.830136  0.739919  0.193199  1
  O  O57  1  0.669864  0.239919  0.806801  1
  O  O58  1  0.169864  0.260081  0.806801  1
  O  O59  1  0.330136  0.760081  0.193199  1
  O  O60  1  0.976639  0.594086  0.099121  1
  O  O61  1  0.523361  0.094086  0.900879  1
  O  O62  1  0.023361  0.405914  0.900879  1
  O  O63  1  0.476639  0.905914  0.099121  1
