# generated using pymatgen
data_La4Mo2O11
_symmetry_space_group_name_H-M   'P 1'
_cell_length_a   13.22185321
_cell_length_b   13.22185321
_cell_length_c   5.76375663
_cell_angle_alpha   90.00000000
_cell_angle_beta   90.00000000
_cell_angle_gamma   90.00000000
_symmetry_Int_Tables_number   1
_chemical_formula_structural   La4Mo2O11
_chemical_formula_sum   'La16 Mo8 O44'
_cell_volume   1007.60496159
_cell_formula_units_Z   4
loop_
 _symmetry_equiv_pos_site_id
 _symmetry_equiv_pos_as_xyz
  1  'x, y, z'
loop_
 _atom_site_type_symbol
 _atom_site_label
 _atom_site_symmetry_multiplicity
 _atom_site_fract_x
 _atom_site_fract_y
 _atom_site_fract_z
 _atom_site_occupancy
  La  La0  1  0.360850  0.949187  0.661349  1
  La  La1  1  0.449187  0.139150  0.161349  1
  La  La2  1  0.550813  0.860850  0.161349  1
  La  La3  1  0.639150  0.050813  0.661349  1
  La  La4  1  0.139150  0.550813  0.838651  1
  La  La5  1  0.050813  0.360850  0.338651  1
  La  La6  1  0.949187  0.639150  0.338651  1
  La  La7  1  0.860850  0.449187  0.838651  1
  La  La8  1  0.370653  0.429019  0.252752  1
  La  La9  1  0.929019  0.129347  0.752752  1
  La  La10  1  0.070981  0.870653  0.752752  1
  La  La11  1  0.629347  0.570981  0.252752  1
  La  La12  1  0.129347  0.070981  0.247248  1
  La  La13  1  0.570981  0.370653  0.747248  1
  La  La14  1  0.429019  0.629347  0.747248  1
  La  La15  1  0.870653  0.929019  0.247248  1
  Mo  Mo16  1  0.280181  0.852389  0.164769  1
  Mo  Mo17  1  0.352389  0.219819  0.664769  1
  Mo  Mo18  1  0.647611  0.780181  0.664769  1
  Mo  Mo19  1  0.719819  0.147611  0.164769  1
  Mo  Mo20  1  0.219819  0.647611  0.335231  1
  Mo  Mo21  1  0.147611  0.280181  0.835231  1
  Mo  Mo22  1  0.852389  0.719819  0.835231  1
  Mo  Mo23  1  0.780181  0.352389  0.335231  1
  O  O24  1  0.500000  0.500000  0.000000  1
  O  O25  1  0.000000  0.000000  0.500000  1
  O  O26  1  0.500000  0.500000  0.500000  1
  O  O27  1  0.000000  0.000000  0.000000  1
  O  O28  1  0.325493  0.748267  0.417485  1
  O  O29  1  0.248267  0.174507  0.917485  1
  O  O30  1  0.751733  0.825493  0.917485  1
  O  O31  1  0.674507  0.251733  0.417485  1
  O  O32  1  0.174507  0.751733  0.082515  1
  O  O33  1  0.251733  0.325493  0.582515  1
  O  O34  1  0.748267  0.674507  0.582515  1
  O  O35  1  0.825493  0.248267  0.082515  1
  O  O36  1  0.292676  0.581663  0.076606  1
  O  O37  1  0.081663  0.207324  0.576606  1
  O  O38  1  0.918337  0.792676  0.576606  1
  O  O39  1  0.707324  0.418337  0.076606  1
  O  O40  1  0.124209  0.696787  0.554194  1
  O  O41  1  0.207324  0.918337  0.423394  1
  O  O42  1  0.581663  0.707324  0.923394  1
  O  O43  1  0.792676  0.081663  0.423394  1
  O  O44  1  0.375791  0.803213  0.945806  1
  O  O45  1  0.303213  0.124209  0.445806  1
  O  O46  1  0.696787  0.875791  0.445806  1
  O  O47  1  0.624209  0.196787  0.945806  1
  O  O48  1  0.903196  0.450895  0.245537  1
  O  O49  1  0.950895  0.596804  0.745537  1
  O  O50  1  0.049105  0.403196  0.745537  1
  O  O51  1  0.096804  0.549105  0.245537  1
  O  O52  1  0.596804  0.049105  0.254463  1
  O  O53  1  0.549105  0.903196  0.754463  1
  O  O54  1  0.450895  0.096804  0.754463  1
  O  O55  1  0.403196  0.950895  0.254463  1
  O  O56  1  0.779739  0.048643  0.943981  1
  O  O57  1  0.548643  0.720261  0.443981  1
  O  O58  1  0.451357  0.279739  0.443981  1
  O  O59  1  0.220261  0.951357  0.943981  1
  O  O60  1  0.720261  0.451357  0.556019  1
  O  O61  1  0.951357  0.779739  0.056019  1
  O  O62  1  0.048643  0.220261  0.056019  1
  O  O63  1  0.279739  0.548643  0.556019  1
  O  O64  1  0.875791  0.303213  0.554194  1
  O  O65  1  0.803213  0.624209  0.054194  1
  O  O66  1  0.196787  0.375791  0.054194  1
  O  O67  1  0.418337  0.292676  0.923394  1
