# generated using pymatgen
data_Zr2Al3
_symmetry_space_group_name_H-M   'P 1'
_cell_length_a   8.48180264
_cell_length_b   7.52015224
_cell_length_c   5.57026639
_cell_angle_alpha   79.24103605
_cell_angle_beta   60.57927513
_cell_angle_gamma   40.17968882
_symmetry_Int_Tables_number   1
_chemical_formula_structural   Zr2Al3
_chemical_formula_sum   'Zr4 Al6'
_cell_volume   188.08677605
_cell_formula_units_Z   2
loop_
 _symmetry_equiv_pos_site_id
 _symmetry_equiv_pos_as_xyz
  1  'x, y, z'
loop_
 _atom_site_type_symbol
 _atom_site_label
 _atom_site_symmetry_multiplicity
 _atom_site_fract_x
 _atom_site_fract_y
 _atom_site_fract_z
 _atom_site_occupancy
  Zr  Zr0  1  0.864612  0.740869  0.270088  1
  Zr  Zr1  1  0.124431  0.270088  0.740869  1
  Zr  Zr2  1  0.979912  0.125569  0.385388  1
  Zr  Zr3  1  0.509131  0.385388  0.125569  1
  Al  Al4  1  0.129881  0.870119  0.870119  1
  Al  Al5  1  0.379881  0.120119  0.120119  1
  Al  Al6  1  0.456511  0.313829  0.680095  1
  Al  Al7  1  0.549564  0.680095  0.313829  1
  Al  Al8  1  0.569905  0.700436  0.793489  1
  Al  Al9  1  0.936171  0.793489  0.700436  1
