# generated using pymatgen
data_NdCo9Si4
_symmetry_space_group_name_H-M   'P 1'
_cell_length_a   7.92021696
_cell_length_b   7.92021696
_cell_length_c   7.92021696
_cell_angle_alpha   121.51467201
_cell_angle_beta   121.51467201
_cell_angle_gamma   87.39594005
_symmetry_Int_Tables_number   1
_chemical_formula_structural   NdCo9Si4
_chemical_formula_sum   'Nd2 Co18 Si8'
_cell_volume   342.88664138
_cell_formula_units_Z   2
loop_
 _symmetry_equiv_pos_site_id
 _symmetry_equiv_pos_as_xyz
  1  'x, y, z'
loop_
 _atom_site_type_symbol
 _atom_site_label
 _atom_site_symmetry_multiplicity
 _atom_site_fract_x
 _atom_site_fract_y
 _atom_site_fract_z
 _atom_site_occupancy
  Nd  Nd0  1  0.750000  0.750000  0.000000  1
  Nd  Nd1  1  0.250000  0.250000  0.000000  1
  Co  Co2  1  0.690292  0.449720  0.500000  1
  Co  Co3  1  0.449720  0.949720  0.759428  1
  Co  Co4  1  0.190292  0.690292  0.240572  1
  Co  Co5  1  0.550280  0.050280  0.240572  1
  Co  Co6  1  0.949720  0.190292  0.500000  1
  Co  Co7  1  0.199105  0.930688  0.129793  1
  Co  Co8  1  0.800895  0.069312  0.870207  1
  Co  Co9  1  0.430688  0.699105  0.129793  1
  Co  Co10  1  0.569312  0.300895  0.870207  1
  Co  Co11  1  0.699105  0.569312  0.268417  1
  Co  Co12  1  0.300895  0.430688  0.731583  1
  Co  Co13  1  0.930688  0.800895  0.731583  1
  Co  Co14  1  0.309708  0.550280  0.500000  1
  Co  Co15  1  0.809708  0.309708  0.759428  1
  Co  Co16  1  1.000000  0.500000  0.500000  1
  Co  Co17  1  0.500000  1.000000  0.500000  1
  Co  Co18  1  0.069312  0.199105  0.268417  1
  Co  Co19  1  0.050280  0.809708  0.500000  1
  Si  Si20  1  0.290493  0.790493  0.837198  1
  Si  Si21  1  0.046705  0.546705  0.837198  1
  Si  Si22  1  0.546705  0.709507  0.500000  1
  Si  Si23  1  0.790493  0.953295  0.500000  1
  Si  Si24  1  0.453295  0.290493  0.500000  1
  Si  Si25  1  0.953295  0.453295  0.162802  1
  Si  Si26  1  0.709507  0.209507  0.162802  1
  Si  Si27  1  0.209507  0.046705  0.500000  1
