# generated using pymatgen
data_HoAl7Au3
_symmetry_space_group_name_H-M   'P 1'
_cell_length_a   8.45346448
_cell_length_b   8.45346448
_cell_length_c   8.45346448
_cell_angle_alpha   57.20219585
_cell_angle_beta   57.20219585
_cell_angle_gamma   57.20219585
_symmetry_Int_Tables_number   1
_chemical_formula_structural   HoAl7Au3
_chemical_formula_sum   'Ho2 Al14 Au6'
_cell_volume   399.63004046
_cell_formula_units_Z   2
loop_
 _symmetry_equiv_pos_site_id
 _symmetry_equiv_pos_as_xyz
  1  'x, y, z'
loop_
 _atom_site_type_symbol
 _atom_site_label
 _atom_site_symmetry_multiplicity
 _atom_site_fract_x
 _atom_site_fract_y
 _atom_site_fract_z
 _atom_site_occupancy
  Ho  Ho0  1  0.500000  0.500000  0.500000  1
  Ho  Ho1  1  0.000000  0.000000  0.000000  1
  Al  Al2  1  0.569753  0.167106  0.352780  1
  Al  Al3  1  0.167106  0.352780  0.569753  1
  Al  Al4  1  0.352780  0.569753  0.167106  1
  Al  Al5  1  0.930247  0.147220  0.332894  1
  Al  Al6  1  0.147220  0.332894  0.930247  1
  Al  Al7  1  0.332894  0.930247  0.147220  1
  Al  Al8  1  0.430247  0.832894  0.647220  1
  Al  Al9  1  0.832894  0.647220  0.430247  1
  Al  Al10  1  0.750000  0.750000  0.750000  1
  Al  Al11  1  0.250000  0.250000  0.250000  1
  Al  Al12  1  0.667106  0.069753  0.852780  1
  Al  Al13  1  0.852780  0.667106  0.069753  1
  Al  Al14  1  0.069753  0.852780  0.667106  1
  Al  Al15  1  0.647220  0.430247  0.832894  1
  Au  Au16  1  0.250000  0.574191  0.925809  1
  Au  Au17  1  0.574191  0.925809  0.250000  1
  Au  Au18  1  0.925809  0.250000  0.574191  1
  Au  Au19  1  0.750000  0.425809  0.074191  1
  Au  Au20  1  0.425809  0.074191  0.750000  1
  Au  Au21  1  0.074191  0.750000  0.425809  1
