# generated using pymatgen
data_PrAl7Au3
_symmetry_space_group_name_H-M   'P 1'
_cell_length_a   8.52567204
_cell_length_b   8.52567204
_cell_length_c   8.52567204
_cell_angle_alpha   57.29135549
_cell_angle_beta   57.29135549
_cell_angle_gamma   57.29135549
_symmetry_Int_Tables_number   1
_chemical_formula_structural   PrAl7Au3
_chemical_formula_sum   'Pr2 Al14 Au6'
_cell_volume   410.87067659
_cell_formula_units_Z   2
loop_
 _symmetry_equiv_pos_site_id
 _symmetry_equiv_pos_as_xyz
  1  'x, y, z'
loop_
 _atom_site_type_symbol
 _atom_site_label
 _atom_site_symmetry_multiplicity
 _atom_site_fract_x
 _atom_site_fract_y
 _atom_site_fract_z
 _atom_site_occupancy
  Pr  Pr0  1  0.500000  0.500000  0.500000  1
  Pr  Pr1  1  0.000000  0.000000  1.000000  1
  Al  Al2  1  0.568797  0.168385  0.352752  1
  Al  Al3  1  0.168385  0.352752  0.568797  1
  Al  Al4  1  0.352752  0.568797  0.168385  1
  Al  Al5  1  0.931203  0.147248  0.331615  1
  Al  Al6  1  0.147248  0.331615  0.931203  1
  Al  Al7  1  0.331615  0.931203  0.147248  1
  Al  Al8  1  0.431203  0.831615  0.647248  1
  Al  Al9  1  0.831615  0.647248  0.431203  1
  Al  Al10  1  0.750000  0.750000  0.750000  1
  Al  Al11  1  0.250000  0.250000  0.250000  1
  Al  Al12  1  0.668385  0.068797  0.852752  1
  Al  Al13  1  0.852752  0.668385  0.068797  1
  Al  Al14  1  0.068797  0.852752  0.668385  1
  Al  Al15  1  0.647248  0.431203  0.831615  1
  Au  Au16  1  0.250000  0.570498  0.929502  1
  Au  Au17  1  0.570498  0.929502  0.250000  1
  Au  Au18  1  0.929502  0.250000  0.570498  1
  Au  Au19  1  0.750000  0.429502  0.070498  1
  Au  Au20  1  0.429502  0.070498  0.750000  1
  Au  Au21  1  0.070498  0.750000  0.429502  1
