# generated using pymatgen
data_Na3Co2(GeO4)3
_symmetry_space_group_name_H-M   'P 1'
_cell_length_a   10.50219415
_cell_length_b   10.50219415
_cell_length_c   10.50219415
_cell_angle_alpha   109.47122063
_cell_angle_beta   109.47122063
_cell_angle_gamma   109.47122063
_symmetry_Int_Tables_number   1
_chemical_formula_structural   Na3Co2(GeO4)3
_chemical_formula_sum   'Na12 Co8 Ge12 O48'
_cell_volume   891.69891419
_cell_formula_units_Z   4
loop_
 _symmetry_equiv_pos_site_id
 _symmetry_equiv_pos_as_xyz
  1  'x, y, z'
loop_
 _atom_site_type_symbol
 _atom_site_label
 _atom_site_symmetry_multiplicity
 _atom_site_fract_x
 _atom_site_fract_y
 _atom_site_fract_z
 _atom_site_occupancy
  Na  Na0  1  0.625000  0.250000  0.875000  1
  Na  Na1  1  0.875000  0.750000  0.625000  1
  Na  Na2  1  0.750000  0.625000  0.875000  1
  Na  Na3  1  0.250000  0.875000  0.625000  1
  Na  Na4  1  0.875000  0.625000  0.250000  1
  Na  Na5  1  0.625000  0.875000  0.750000  1
  Na  Na6  1  0.375000  0.750000  0.125000  1
  Na  Na7  1  0.125000  0.250000  0.375000  1
  Na  Na8  1  0.250000  0.375000  0.125000  1
  Na  Na9  1  0.750000  0.125000  0.375000  1
  Na  Na10  1  0.125000  0.375000  0.750000  1
  Na  Na11  1  0.375000  0.125000  0.250000  1
  Co  Co12  1  0.500000  0.500000  0.500000  1
  Co  Co13  1  0.500000  0.500000  0.000000  1
  Co  Co14  1  0.500000  1.000000  0.500000  1
  Co  Co15  1  1.000000  0.500000  0.500000  1
  Co  Co16  1  0.500000  1.000000  0.000000  1
  Co  Co17  1  1.000000  1.000000  0.500000  1
  Co  Co18  1  1.000000  0.500000  0.000000  1
  Co  Co19  1  0.000000  0.000000  0.000000  1
  Ge  Ge20  1  0.875000  0.125000  0.750000  1
  Ge  Ge21  1  0.125000  0.875000  0.250000  1
  Ge  Ge22  1  0.250000  0.625000  0.375000  1
  Ge  Ge23  1  0.125000  0.750000  0.875000  1
  Ge  Ge24  1  0.750000  0.875000  0.125000  1
  Ge  Ge25  1  0.375000  0.250000  0.625000  1
  Ge  Ge26  1  0.625000  0.750000  0.375000  1
  Ge  Ge27  1  0.875000  0.250000  0.125000  1
  Ge  Ge28  1  0.250000  0.125000  0.875000  1
  Ge  Ge29  1  0.750000  0.375000  0.625000  1
  Ge  Ge30  1  0.375000  0.625000  0.750000  1
  Ge  Ge31  1  0.625000  0.375000  0.250000  1
  O  O32  1  0.807104  0.418476  0.821704  1
  O  O33  1  0.081524  0.888628  0.403228  1
  O  O34  1  0.678296  0.096772  0.985400  1
  O  O35  1  0.692896  0.514600  0.611372  1
  O  O36  1  0.692896  0.678296  0.081524  1
  O  O37  1  0.514600  0.611372  0.692896  1
  O  O38  1  0.096772  0.611372  0.418476  1
  O  O39  1  0.611372  0.692896  0.514600  1
  O  O40  1  0.403228  0.821704  0.514600  1
  O  O41  1  0.888628  0.985400  0.807104  1
  O  O42  1  0.985400  0.807104  0.888628  1
  O  O43  1  0.081524  0.692896  0.678296  1
  O  O44  1  0.611372  0.418476  0.096772  1
  O  O45  1  0.514600  0.403228  0.821704  1
  O  O46  1  0.678296  0.081524  0.692896  1
  O  O47  1  0.418476  0.096772  0.611372  1
  O  O48  1  0.821704  0.514600  0.403228  1
  O  O49  1  0.403228  0.081524  0.888628  1
  O  O50  1  0.096772  0.985400  0.678296  1
  O  O51  1  0.596772  0.178296  0.485400  1
  O  O52  1  0.985400  0.678296  0.096772  1
  O  O53  1  0.821704  0.807104  0.418476  1
  O  O54  1  0.888628  0.403228  0.081524  1
  O  O55  1  0.807104  0.888628  0.985400  1
  O  O56  1  0.192896  0.581524  0.178296  1
  O  O57  1  0.918476  0.111372  0.596772  1
  O  O58  1  0.321704  0.903228  0.014600  1
  O  O59  1  0.307104  0.485400  0.388628  1
  O  O60  1  0.307104  0.321704  0.918476  1
  O  O61  1  0.485400  0.388628  0.307104  1
  O  O62  1  0.903228  0.388628  0.581524  1
  O  O63  1  0.388628  0.307104  0.485400  1
  O  O64  1  0.192896  0.111372  0.014600  1
  O  O65  1  0.111372  0.596772  0.918476  1
  O  O66  1  0.178296  0.192896  0.581524  1
  O  O67  1  0.581524  0.178296  0.192896  1
  O  O68  1  0.014600  0.321704  0.903228  1
  O  O69  1  0.903228  0.014600  0.321704  1
  O  O70  1  0.596772  0.918476  0.111372  1
  O  O71  1  0.178296  0.485400  0.596772  1
  O  O72  1  0.581524  0.903228  0.388628  1
  O  O73  1  0.321704  0.918476  0.307104  1
  O  O74  1  0.485400  0.596772  0.178296  1
  O  O75  1  0.388628  0.581524  0.903228  1
  O  O76  1  0.918476  0.307104  0.321704  1
  O  O77  1  0.014600  0.192896  0.111372  1
  O  O78  1  0.111372  0.014600  0.192896  1
  O  O79  1  0.418476  0.821704  0.807104  1
