# generated using pymatgen
data_BaNaNd(GeO3)3
_symmetry_space_group_name_H-M   'P 1'
_cell_length_a   5.94401968
_cell_length_b   11.87215556
_cell_length_c   13.06412911
_cell_angle_alpha   90.00000000
_cell_angle_beta   90.00000000
_cell_angle_gamma   90.00000000
_symmetry_Int_Tables_number   1
_chemical_formula_structural   BaNaNd(GeO3)3
_chemical_formula_sum   'Ba4 Na4 Nd4 Ge12 O36'
_cell_volume   921.91372576
_cell_formula_units_Z   4
loop_
 _symmetry_equiv_pos_site_id
 _symmetry_equiv_pos_as_xyz
  1  'x, y, z'
loop_
 _atom_site_type_symbol
 _atom_site_label
 _atom_site_symmetry_multiplicity
 _atom_site_fract_x
 _atom_site_fract_y
 _atom_site_fract_z
 _atom_site_occupancy
  Ba  Ba0  1  0.106574  0.613940  0.081946  1
  Ba  Ba1  1  0.606574  0.886060  0.918054  1
  Ba  Ba2  1  0.893426  0.113940  0.418054  1
  Ba  Ba3  1  0.393426  0.386060  0.581946  1
  Na  Na4  1  0.062485  0.278841  0.114407  1
  Na  Na5  1  0.562485  0.221159  0.885593  1
  Na  Na6  1  0.437515  0.721159  0.614407  1
  Na  Na7  1  0.937515  0.778841  0.385593  1
  Nd  Nd8  1  0.383171  0.036196  0.641545  1
  Nd  Nd9  1  0.883171  0.463804  0.358455  1
  Nd  Nd10  1  0.616829  0.536196  0.858455  1
  Nd  Nd11  1  0.116829  0.963804  0.141545  1
  Ge  Ge12  1  0.101033  0.089836  0.883679  1
  Ge  Ge13  1  0.608058  0.795955  0.188133  1
  Ge  Ge14  1  0.891942  0.204045  0.688133  1
  Ge  Ge15  1  0.108058  0.704045  0.811867  1
  Ge  Ge16  1  0.402328  0.639756  0.360815  1
  Ge  Ge17  1  0.902328  0.860244  0.639185  1
  Ge  Ge18  1  0.597672  0.139756  0.139185  1
  Ge  Ge19  1  0.097672  0.360244  0.860815  1
  Ge  Ge20  1  0.398967  0.910164  0.383679  1
  Ge  Ge21  1  0.898967  0.589836  0.616321  1
  Ge  Ge22  1  0.391942  0.295955  0.311867  1
  Ge  Ge23  1  0.601033  0.410164  0.116321  1
  O  O24  1  0.142227  0.937040  0.323295  1
  O  O25  1  0.642227  0.562960  0.676705  1
  O  O26  1  0.857773  0.437040  0.176705  1
  O  O27  1  0.357773  0.062960  0.823295  1
  O  O28  1  0.354734  0.688687  0.882193  1
  O  O29  1  0.854734  0.811313  0.117807  1
  O  O30  1  0.645266  0.188687  0.617807  1
  O  O31  1  0.145266  0.311313  0.382193  1
  O  O32  1  0.500612  0.507386  0.028960  1
  O  O33  1  0.000612  0.992614  0.971040  1
  O  O34  1  0.499388  0.007386  0.471040  1
  O  O35  1  0.999388  0.492614  0.528960  1
  O  O36  1  0.383126  0.768595  0.438486  1
  O  O37  1  0.883126  0.731405  0.561514  1
  O  O38  1  0.114463  0.833818  0.737786  1
  O  O39  1  0.616874  0.268595  0.061514  1
  O  O40  1  0.360662  0.802970  0.117094  1
  O  O41  1  0.860662  0.697030  0.882906  1
  O  O42  1  0.639338  0.302970  0.382906  1
  O  O43  1  0.139338  0.197030  0.617094  1
  O  O44  1  0.124026  0.600146  0.709885  1
  O  O45  1  0.624026  0.899854  0.290115  1
  O  O46  1  0.875974  0.100146  0.790115  1
  O  O47  1  0.375974  0.399854  0.209885  1
  O  O48  1  0.367772  0.383242  0.812458  1
  O  O49  1  0.867772  0.116758  0.187542  1
  O  O50  1  0.632228  0.883242  0.687542  1
  O  O51  1  0.132228  0.616758  0.312458  1
  O  O52  1  0.959737  0.461337  0.933505  1
  O  O53  1  0.459737  0.038663  0.066495  1
  O  O54  1  0.040263  0.961337  0.566495  1
  O  O55  1  0.540263  0.538663  0.433505  1
  O  O56  1  0.385537  0.166182  0.237786  1
  O  O57  1  0.885537  0.333818  0.762214  1
  O  O58  1  0.614463  0.666182  0.262214  1
  O  O59  1  0.116874  0.231405  0.938486  1
