# generated using pymatgen
data_BaNaLi3(BO2)6
_symmetry_space_group_name_H-M   'P 1'
_cell_length_a   8.39910560
_cell_length_b   8.39910560
_cell_length_c   8.39910560
_cell_angle_alpha   69.38326941
_cell_angle_beta   69.38326941
_cell_angle_gamma   69.38326941
_symmetry_Int_Tables_number   1
_chemical_formula_structural   BaNaLi3(BO2)6
_chemical_formula_sum   'Ba2 Na2 Li6 B12 O24'
_cell_volume   501.14242112
_cell_formula_units_Z   2
loop_
 _symmetry_equiv_pos_site_id
 _symmetry_equiv_pos_as_xyz
  1  'x, y, z'
loop_
 _atom_site_type_symbol
 _atom_site_label
 _atom_site_symmetry_multiplicity
 _atom_site_fract_x
 _atom_site_fract_y
 _atom_site_fract_z
 _atom_site_occupancy
  Ba  Ba0  1  0.147639  0.147639  0.147639  1
  Ba  Ba1  1  0.852361  0.852361  0.852361  1
  Na  Na2  1  0.331368  0.331368  0.331368  1
  Na  Na3  1  0.668632  0.668632  0.668632  1
  Li  Li4  1  0.720064  0.401474  0.217312  1
  Li  Li5  1  0.401474  0.217312  0.720064  1
  Li  Li6  1  0.217312  0.720064  0.401474  1
  Li  Li7  1  0.279936  0.598526  0.782688  1
  Li  Li8  1  0.598526  0.782688  0.279936  1
  Li  Li9  1  0.782688  0.279936  0.598526  1
  B  B10  1  0.932643  0.515367  0.307135  1
  B  B11  1  0.515367  0.307135  0.932643  1
  B  B12  1  0.307135  0.932643  0.515367  1
  B  B13  1  0.067357  0.484633  0.692865  1
  B  B14  1  0.484633  0.692865  0.067357  1
  B  B15  1  0.692865  0.067357  0.484633  1
  B  B16  1  0.833400  0.313922  0.867488  1
  B  B17  1  0.313922  0.867488  0.833400  1
  B  B18  1  0.867488  0.833400  0.313922  1
  B  B19  1  0.166600  0.686078  0.132512  1
  B  B20  1  0.686078  0.132512  0.166600  1
  B  B21  1  0.132512  0.166600  0.686078  1
  O  O22  1  0.529254  0.190052  0.096250  1
  O  O23  1  0.190052  0.096250  0.529254  1
  O  O24  1  0.096250  0.529254  0.190052  1
  O  O25  1  0.470746  0.809948  0.903750  1
  O  O26  1  0.809948  0.903750  0.470746  1
  O  O27  1  0.903750  0.470746  0.809948  1
  O  O28  1  0.621909  0.176950  0.342319  1
  O  O29  1  0.176950  0.342319  0.621909  1
  O  O30  1  0.342319  0.621909  0.176950  1
  O  O31  1  0.378091  0.823050  0.657681  1
  O  O32  1  0.823050  0.657681  0.378091  1
  O  O33  1  0.657681  0.378091  0.823050  1
  O  O34  1  0.813534  0.239942  0.057085  1
  O  O35  1  0.239942  0.057085  0.813534  1
  O  O36  1  0.057085  0.813534  0.239942  1
  O  O37  1  0.186466  0.760058  0.942915  1
  O  O38  1  0.760058  0.942915  0.186466  1
  O  O39  1  0.942915  0.186466  0.760058  1
  O  O40  1  0.882023  0.366839  0.348216  1
  O  O41  1  0.366839  0.348216  0.882023  1
  O  O42  1  0.348216  0.882023  0.366839  1
  O  O43  1  0.117977  0.633161  0.651784  1
  O  O44  1  0.633161  0.651784  0.117977  1
  O  O45  1  0.651784  0.117977  0.633161  1
