# generated using pymatgen
data_Tm5Mg24
_symmetry_space_group_name_H-M   'P 1'
_cell_length_a   9.70822265
_cell_length_b   9.70822265
_cell_length_c   9.70822265
_cell_angle_alpha   109.47122063
_cell_angle_beta   109.47122063
_cell_angle_gamma   109.47122063
_symmetry_Int_Tables_number   1
_chemical_formula_structural   Tm5Mg24
_chemical_formula_sum   'Tm5 Mg24'
_cell_volume   704.36422939
_cell_formula_units_Z   1
loop_
 _symmetry_equiv_pos_site_id
 _symmetry_equiv_pos_as_xyz
  1  'x, y, z'
loop_
 _atom_site_type_symbol
 _atom_site_label
 _atom_site_symmetry_multiplicity
 _atom_site_fract_x
 _atom_site_fract_y
 _atom_site_fract_z
 _atom_site_occupancy
  Tm  Tm0  1  0.000000  1.000000  0.371683  1
  Tm  Tm1  1  0.000000  0.371683  1.000000  1
  Tm  Tm2  1  0.371683  0.000000  0.000000  1
  Tm  Tm3  1  0.628317  0.628317  0.628317  1
  Tm  Tm4  1  0.000000  0.000000  0.000000  1
  Mg  Mg5  1  0.190488  0.190488  0.819283  1
  Mg  Mg6  1  0.371204  0.180717  0.371204  1
  Mg  Mg7  1  0.180717  0.371204  0.371204  1
  Mg  Mg8  1  0.000000  0.628796  0.809512  1
  Mg  Mg9  1  0.628796  0.000000  0.809512  1
  Mg  Mg10  1  0.390149  0.390149  0.713051  1
  Mg  Mg11  1  0.609851  0.322903  1.000000  1
  Mg  Mg12  1  0.322903  0.609851  0.000000  1
  Mg  Mg13  1  0.000000  0.322903  0.609851  1
  Mg  Mg14  1  0.286949  0.677097  0.677097  1
  Mg  Mg15  1  0.677097  0.286949  0.677097  1
  Mg  Mg16  1  0.322903  0.000000  0.609851  1
  Mg  Mg17  1  0.609851  0.000000  0.322903  1
  Mg  Mg18  1  0.000000  0.609851  0.322903  1
  Mg  Mg19  1  0.713051  0.390149  0.390149  1
  Mg  Mg20  1  0.390149  0.713051  0.390149  1
  Mg  Mg21  1  0.677097  0.677097  0.286949  1
  Mg  Mg22  1  0.371204  0.371204  0.180717  1
  Mg  Mg23  1  0.628796  0.809512  0.000000  1
  Mg  Mg24  1  0.809512  0.628796  0.000000  1
  Mg  Mg25  1  0.000000  0.809512  0.628796  1
  Mg  Mg26  1  0.819283  0.190488  0.190488  1
  Mg  Mg27  1  0.190488  0.819283  0.190488  1
  Mg  Mg28  1  0.809512  0.000000  0.628796  1
