# generated using pymatgen
data_SiO2
_symmetry_space_group_name_H-M   'P 1'
_cell_length_a   12.54300587
_cell_length_b   12.54300587
_cell_length_c   12.54300587
_cell_angle_alpha   144.86733588
_cell_angle_beta   110.23279995
_cell_angle_gamma   80.58076409
_symmetry_Int_Tables_number   1
_chemical_formula_structural   SiO2
_chemical_formula_sum   'Si18 O36'
_cell_volume   1039.25985495
_cell_formula_units_Z   18
loop_
 _symmetry_equiv_pos_site_id
 _symmetry_equiv_pos_as_xyz
  1  'x, y, z'
loop_
 _atom_site_type_symbol
 _atom_site_label
 _atom_site_symmetry_multiplicity
 _atom_site_fract_x
 _atom_site_fract_y
 _atom_site_fract_z
 _atom_site_occupancy
  Si  Si0  1  0.226552  0.020183  0.793631  1
  Si  Si1  1  0.773448  0.567079  0.793631  1
  Si  Si2  1  0.773448  0.979817  0.206369  1
  Si  Si3  1  0.226552  0.432921  0.206369  1
  Si  Si4  1  0.346114  0.846114  0.500000  1
  Si  Si5  1  0.653886  0.153886  0.500000  1
  Si  Si6  1  0.382855  0.083716  0.299139  1
  Si  Si7  1  0.617145  0.916284  0.700861  1
  Si  Si8  1  0.215423  0.916284  0.299139  1
  Si  Si9  1  0.784577  0.083716  0.700861  1
  Si  Si10  1  0.973280  0.881544  0.504489  1
  Si  Si11  1  0.026720  0.531209  0.908264  1
  Si  Si12  1  0.622945  0.118456  0.091736  1
  Si  Si13  1  0.377055  0.468791  0.495511  1
  Si  Si14  1  0.026720  0.118456  0.495511  1
  Si  Si15  1  0.973280  0.468791  0.091736  1
  Si  Si16  1  0.377055  0.881544  0.908264  1
  Si  Si17  1  0.622945  0.531209  0.504489  1
  O  O18  1  0.702414  0.378786  0.676372  1
  O  O19  1  0.297586  0.973959  0.676372  1
  O  O20  1  0.297586  0.621214  0.323628  1
  O  O21  1  0.702414  0.026041  0.323628  1
  O  O22  1  0.500000  0.000000  0.000000  1
  O  O23  1  0.500000  0.500000  0.500000  1
  O  O24  1  0.000000  0.000000  0.500000  1
  O  O25  1  0.000000  0.500000  0.000000  1
  O  O26  1  0.373259  0.655776  0.717483  1
  O  O27  1  0.626741  0.344224  0.282517  1
  O  O28  1  0.061706  0.344224  0.717483  1
  O  O29  1  0.938294  0.655776  0.282517  1
  O  O30  1  0.864953  0.937662  0.574377  1
  O  O31  1  0.135047  0.709424  0.072709  1
  O  O32  1  0.636715  0.062338  0.927291  1
  O  O33  1  0.135047  0.062338  0.425623  1
  O  O34  1  0.864953  0.290576  0.927291  1
  O  O35  1  0.363285  0.937662  0.072709  1
  O  O36  1  0.636715  0.709424  0.574377  1
  O  O37  1  0.288839  0.000000  0.288839  1
  O  O38  1  0.711161  0.000000  0.711161  1
  O  O39  1  0.750020  0.750020  0.000000  1
  O  O40  1  0.249980  0.249980  0.000000  1
  O  O41  1  0.729844  0.570762  0.658873  1
  O  O42  1  0.270156  0.929028  0.840918  1
  O  O43  1  0.088110  0.429238  0.159082  1
  O  O44  1  0.911890  0.070972  0.341127  1
  O  O45  1  0.270156  0.429238  0.341127  1
  O  O46  1  0.729844  0.070972  0.159082  1
  O  O47  1  0.911890  0.570762  0.840918  1
  O  O48  1  0.088110  0.929028  0.658873  1
  O  O49  1  0.304499  0.895694  0.408804  1
  O  O50  1  0.695501  0.104306  0.591196  1
  O  O51  1  0.513110  0.104306  0.408804  1
  O  O52  1  0.486890  0.895694  0.591196  1
  O  O53  1  0.363285  0.290576  0.425623  1
