# generated using pymatgen
data_KAsOF4
_symmetry_space_group_name_H-M   'P 1'
_cell_length_a   5.40248248
_cell_length_b   5.94945944
_cell_length_c   14.50008859
_cell_angle_alpha   90.00000000
_cell_angle_beta   109.46695819
_cell_angle_gamma   90.00000000
_symmetry_Int_Tables_number   1
_chemical_formula_structural   KAsOF4
_chemical_formula_sum   'K4 As4 O4 F16'
_cell_volume   439.41683458
_cell_formula_units_Z   4
loop_
 _symmetry_equiv_pos_site_id
 _symmetry_equiv_pos_as_xyz
  1  'x, y, z'
loop_
 _atom_site_type_symbol
 _atom_site_label
 _atom_site_symmetry_multiplicity
 _atom_site_fract_x
 _atom_site_fract_y
 _atom_site_fract_z
 _atom_site_occupancy
  K  K0  1  0.642808  0.631158  0.147609  1
  K  K1  1  0.357192  0.131158  0.352391  1
  K  K2  1  0.357192  0.368842  0.852391  1
  K  K3  1  0.642808  0.868842  0.647609  1
  As  As4  1  0.027273  0.117848  0.083052  1
  As  As5  1  0.972727  0.617848  0.416948  1
  As  As6  1  0.972727  0.882152  0.916948  1
  As  As7  1  0.027273  0.382152  0.583052  1
  O  O8  1  0.832332  0.618762  0.515488  1
  O  O9  1  0.167668  0.118762  0.984512  1
  O  O10  1  0.167668  0.381238  0.484512  1
  O  O11  1  0.832332  0.881238  0.015488  1
  F  F12  1  0.778351  0.175342  0.525785  1
  F  F13  1  0.221649  0.675342  0.974215  1
  F  F14  1  0.221649  0.824658  0.474215  1
  F  F15  1  0.778351  0.324658  0.025785  1
  F  F16  1  0.280001  0.935573  0.161423  1
  F  F17  1  0.719999  0.435573  0.338577  1
  F  F18  1  0.719999  0.064427  0.838577  1
  F  F19  1  0.280001  0.564427  0.661423  1
  F  F20  1  0.877529  0.097623  0.176427  1
  F  F21  1  0.122471  0.597623  0.323573  1
  F  F22  1  0.122471  0.902377  0.823573  1
  F  F23  1  0.877529  0.402377  0.676427  1
  F  F24  1  0.227199  0.346312  0.146772  1
  F  F25  1  0.772801  0.846312  0.353228  1
  F  F26  1  0.772801  0.653688  0.853228  1
  F  F27  1  0.227199  0.153688  0.646772  1
