# generated using pymatgen
data_Li3Nd2(BO3)3
_symmetry_space_group_name_H-M   'P 1'
_cell_length_a   5.84481765
_cell_length_b   14.22914747
_cell_length_c   9.41275226
_cell_angle_alpha   90.00000000
_cell_angle_beta   113.10197352
_cell_angle_gamma   90.00000000
_symmetry_Int_Tables_number   1
_chemical_formula_structural   Li3Nd2(BO3)3
_chemical_formula_sum   'Li12 Nd8 B12 O36'
_cell_volume   720.05164862
_cell_formula_units_Z   4
loop_
 _symmetry_equiv_pos_site_id
 _symmetry_equiv_pos_as_xyz
  1  'x, y, z'
loop_
 _atom_site_type_symbol
 _atom_site_label
 _atom_site_symmetry_multiplicity
 _atom_site_fract_x
 _atom_site_fract_y
 _atom_site_fract_z
 _atom_site_occupancy
  Li  Li0  1  0.425986  0.665091  0.496881  1
  Li  Li1  1  0.950519  0.887686  0.791471  1
  Li  Li2  1  0.049481  0.387686  0.708529  1
  Li  Li3  1  0.049481  0.112314  0.208529  1
  Li  Li4  1  0.950519  0.612314  0.291471  1
  Li  Li5  1  0.425986  0.834909  0.996881  1
  Li  Li6  1  0.574014  0.334909  0.503119  1
  Li  Li7  1  0.574014  0.165091  0.003119  1
  Li  Li8  1  0.581133  0.715004  0.289744  1
  Li  Li9  1  0.418867  0.215004  0.210256  1
  Li  Li10  1  0.418867  0.284996  0.710256  1
  Li  Li11  1  0.581133  0.784996  0.789744  1
  Nd  Nd12  1  0.653230  0.503206  0.841412  1
  Nd  Nd13  1  0.346770  0.003206  0.658588  1
  Nd  Nd14  1  0.346770  0.496794  0.158588  1
  Nd  Nd15  1  0.653230  0.996794  0.341412  1
  Nd  Nd16  1  0.058985  0.663722  0.692359  1
  Nd  Nd17  1  0.941015  0.163722  0.807641  1
  Nd  Nd18  1  0.941015  0.336278  0.307641  1
  Nd  Nd19  1  0.058985  0.836278  0.192359  1
  B  B20  1  0.263037  0.015478  0.013524  1
  B  B21  1  0.113843  0.823125  0.517994  1
  B  B22  1  0.886157  0.323125  0.982006  1
  B  B23  1  0.886157  0.176875  0.482006  1
  B  B24  1  0.113843  0.676875  0.017994  1
  B  B25  1  0.736963  0.515478  0.486476  1
  B  B26  1  0.263037  0.484522  0.513524  1
  B  B27  1  0.736963  0.984522  0.986476  1
  B  B28  1  0.615470  0.836796  0.528191  1
  B  B29  1  0.384530  0.336796  0.971809  1
  B  B30  1  0.384530  0.163204  0.471809  1
  B  B31  1  0.615470  0.663204  0.028191  1
  O  O32  1  0.692968  0.896457  0.919965  1
  O  O33  1  0.158097  0.492656  0.353680  1
  O  O34  1  0.158097  0.007344  0.853680  1
  O  O35  1  0.841903  0.507344  0.646320  1
  O  O36  1  0.692968  0.603543  0.419965  1
  O  O37  1  0.841903  0.992656  0.146320  1
  O  O38  1  0.307032  0.103543  0.080035  1
  O  O39  1  0.307032  0.396457  0.580035  1
  O  O40  1  0.503856  0.831807  0.368295  1
  O  O41  1  0.496144  0.331807  0.131705  1
  O  O42  1  0.496144  0.168193  0.631705  1
  O  O43  1  0.503856  0.668193  0.868295  1
  O  O44  1  0.661944  0.925969  0.593232  1
  O  O45  1  0.338056  0.425969  0.906768  1
  O  O46  1  0.338056  0.074031  0.406768  1
  O  O47  1  0.661944  0.574031  0.093232  1
  O  O48  1  0.684643  0.757954  0.621262  1
  O  O49  1  0.315357  0.257954  0.878738  1
  O  O50  1  0.315357  0.242046  0.378738  1
  O  O51  1  0.684643  0.742046  0.121262  1
  O  O52  1  0.042178  0.905170  0.430760  1
  O  O53  1  0.957822  0.405170  0.069240  1
  O  O54  1  0.957822  0.094830  0.569240  1
  O  O55  1  0.042178  0.594830  0.930760  1
  O  O56  1  0.095040  0.737464  0.445798  1
  O  O57  1  0.904960  0.237464  0.054202  1
  O  O58  1  0.904960  0.262536  0.554202  1
  O  O59  1  0.322198  0.564182  0.606522  1
  O  O60  1  0.212884  0.830872  0.678096  1
  O  O61  1  0.787116  0.330872  0.821904  1
  O  O62  1  0.787116  0.169128  0.321904  1
  O  O63  1  0.212884  0.669128  0.178096  1
  O  O64  1  0.322198  0.935818  0.106522  1
  O  O65  1  0.677802  0.435818  0.393478  1
  O  O66  1  0.677802  0.064182  0.893478  1
  O  O67  1  0.095040  0.762536  0.945798  1
