# generated using pymatgen
data_Pr5Ge4
_symmetry_space_group_name_H-M   'P 1'
_cell_length_a   8.01725113
_cell_length_b   8.11065605
_cell_length_c   15.35813518
_cell_angle_alpha   90.00000000
_cell_angle_beta   90.00000000
_cell_angle_gamma   90.00000000
_symmetry_Int_Tables_number   1
_chemical_formula_structural   Pr5Ge4
_chemical_formula_sum   'Pr20 Ge16'
_cell_volume   998.66529540
_cell_formula_units_Z   4
loop_
 _symmetry_equiv_pos_site_id
 _symmetry_equiv_pos_as_xyz
  1  'x, y, z'
loop_
 _atom_site_type_symbol
 _atom_site_label
 _atom_site_symmetry_multiplicity
 _atom_site_fract_x
 _atom_site_fract_y
 _atom_site_fract_z
 _atom_site_occupancy
  Pr  Pr0  1  0.380298  0.160058  0.114331  1
  Pr  Pr1  1  0.880298  0.339942  0.385669  1
  Pr  Pr2  1  0.119702  0.660058  0.885669  1
  Pr  Pr3  1  0.619702  0.839942  0.614331  1
  Pr  Pr4  1  0.380298  0.160058  0.385669  1
  Pr  Pr5  1  0.880298  0.339942  0.114331  1
  Pr  Pr6  1  0.119702  0.660058  0.614331  1
  Pr  Pr7  1  0.619702  0.839942  0.885669  1
  Pr  Pr8  1  0.024647  0.820998  0.397233  1
  Pr  Pr9  1  0.524647  0.679002  0.102767  1
  Pr  Pr10  1  0.475353  0.320998  0.602767  1
  Pr  Pr11  1  0.975353  0.179002  0.897233  1
  Pr  Pr12  1  0.975353  0.179002  0.602767  1
  Pr  Pr13  1  0.475353  0.320998  0.897233  1
  Pr  Pr14  1  0.524647  0.679002  0.397233  1
  Pr  Pr15  1  0.024647  0.820998  0.102767  1
  Pr  Pr16  1  0.285058  0.997252  0.750000  1
  Pr  Pr17  1  0.785058  0.502748  0.750000  1
  Pr  Pr18  1  0.214942  0.497252  0.250000  1
  Pr  Pr19  1  0.714942  0.002748  0.250000  1
  Ge  Ge20  1  0.777574  0.531935  0.545042  1
  Ge  Ge21  1  0.277574  0.968065  0.954958  1
  Ge  Ge22  1  0.722426  0.031935  0.454958  1
  Ge  Ge23  1  0.222426  0.468065  0.045042  1
  Ge  Ge24  1  0.222426  0.468065  0.454958  1
  Ge  Ge25  1  0.722426  0.031935  0.045042  1
  Ge  Ge26  1  0.277574  0.968065  0.545042  1
  Ge  Ge27  1  0.777574  0.531935  0.954958  1
  Ge  Ge28  1  0.910447  0.891392  0.750000  1
  Ge  Ge29  1  0.410447  0.608608  0.750000  1
  Ge  Ge30  1  0.589553  0.391392  0.250000  1
  Ge  Ge31  1  0.089553  0.108608  0.250000  1
  Ge  Ge32  1  0.175324  0.367676  0.750000  1
  Ge  Ge33  1  0.675324  0.132324  0.750000  1
  Ge  Ge34  1  0.324676  0.867676  0.250000  1
  Ge  Ge35  1  0.824676  0.632324  0.250000  1
