# generated using pymatgen
data_Mg2Pd
_symmetry_space_group_name_H-M   'P 1'
_cell_length_a   8.58524244
_cell_length_b   8.58524244
_cell_length_c   8.58524244
_cell_angle_alpha   60.00000000
_cell_angle_beta   60.00000000
_cell_angle_gamma   60.00000000
_symmetry_Int_Tables_number   1
_chemical_formula_structural   Mg2Pd
_chemical_formula_sum   'Mg16 Pd8'
_cell_volume   447.44812549
_cell_formula_units_Z   8
loop_
 _symmetry_equiv_pos_site_id
 _symmetry_equiv_pos_as_xyz
  1  'x, y, z'
loop_
 _atom_site_type_symbol
 _atom_site_label
 _atom_site_symmetry_multiplicity
 _atom_site_fract_x
 _atom_site_fract_y
 _atom_site_fract_z
 _atom_site_occupancy
  Mg  Mg0  1  0.055680  0.444320  0.444320  1
  Mg  Mg1  1  0.444320  0.444320  0.055680  1
  Mg  Mg2  1  0.444320  0.055680  0.444320  1
  Mg  Mg3  1  0.194320  0.805680  0.805680  1
  Mg  Mg4  1  0.055680  0.444320  0.055680  1
  Mg  Mg5  1  0.805680  0.194320  0.805680  1
  Mg  Mg6  1  0.805680  0.194320  0.194320  1
  Mg  Mg7  1  0.194320  0.194320  0.805680  1
  Mg  Mg8  1  0.055680  0.055680  0.444320  1
  Mg  Mg9  1  0.194320  0.805680  0.194320  1
  Mg  Mg10  1  0.625000  0.125000  0.625000  1
  Mg  Mg11  1  0.444320  0.055680  0.055680  1
  Mg  Mg12  1  0.805680  0.805680  0.194320  1
  Mg  Mg13  1  0.625000  0.625000  0.625000  1
  Mg  Mg14  1  0.125000  0.625000  0.625000  1
  Mg  Mg15  1  0.625000  0.625000  0.125000  1
  Pd  Pd16  1  0.407707  0.407707  0.776879  1
  Pd  Pd17  1  0.407707  0.776879  0.407707  1
  Pd  Pd18  1  0.407707  0.407707  0.407707  1
  Pd  Pd19  1  0.842293  0.842293  0.473121  1
  Pd  Pd20  1  0.776879  0.407707  0.407707  1
  Pd  Pd21  1  0.842293  0.842293  0.842293  1
  Pd  Pd22  1  0.842293  0.473121  0.842293  1
  Pd  Pd23  1  0.473121  0.842293  0.842293  1
