# generated using pymatgen
data_CeSi2Ir3
_symmetry_space_group_name_H-M   'P 1'
_cell_length_a   6.69771814
_cell_length_b   6.69771814
_cell_length_c   6.69771814
_cell_angle_alpha   130.34399908
_cell_angle_beta   114.42197200
_cell_angle_gamma   86.51260811
_symmetry_Int_Tables_number   1
_chemical_formula_structural   CeSi2Ir3
_chemical_formula_sum   'Ce2 Si4 Ir6'
_cell_volume   199.03334087
_cell_formula_units_Z   2
loop_
 _symmetry_equiv_pos_site_id
 _symmetry_equiv_pos_as_xyz
  1  'x, y, z'
loop_
 _atom_site_type_symbol
 _atom_site_label
 _atom_site_symmetry_multiplicity
 _atom_site_fract_x
 _atom_site_fract_y
 _atom_site_fract_z
 _atom_site_occupancy
  Ce  Ce0  1  0.750000  0.532299  0.282299  1
  Ce  Ce1  1  0.250000  0.467701  0.717701  1
  Si  Si2  1  0.919801  0.221010  0.801209  1
  Si  Si3  1  0.419801  0.118593  0.198791  1
  Si  Si4  1  0.080199  0.778990  0.198791  1
  Si  Si5  1  0.580199  0.881407  0.801209  1
  Ir  Ir6  1  0.281898  0.500000  0.281898  1
  Ir  Ir7  1  0.000000  0.000000  0.000000  1
  Ir  Ir8  1  0.218102  0.000000  0.718102  1
  Ir  Ir9  1  0.718102  0.500000  0.718102  1
  Ir  Ir10  1  0.781898  0.000000  0.281898  1
  Ir  Ir11  1  0.500000  0.000000  0.500000  1
