# generated using pymatgen
data_Na2MgInF7
_symmetry_space_group_name_H-M   'P 1'
_cell_length_a   7.46185797
_cell_length_b   7.67550244
_cell_length_c   10.62244922
_cell_angle_alpha   90.00000000
_cell_angle_beta   90.00000000
_cell_angle_gamma   90.00000000
_symmetry_Int_Tables_number   1
_chemical_formula_structural   Na2MgInF7
_chemical_formula_sum   'Na8 Mg4 In4 F28'
_cell_volume   608.38494160
_cell_formula_units_Z   4
loop_
 _symmetry_equiv_pos_site_id
 _symmetry_equiv_pos_as_xyz
  1  'x, y, z'
loop_
 _atom_site_type_symbol
 _atom_site_label
 _atom_site_symmetry_multiplicity
 _atom_site_fract_x
 _atom_site_fract_y
 _atom_site_fract_z
 _atom_site_occupancy
  Na  Na0  1  0.000000  0.000000  0.000000  1
  Na  Na1  1  0.500000  0.000000  0.000000  1
  Na  Na2  1  0.000000  0.500000  0.500000  1
  Na  Na3  1  0.500000  0.500000  0.500000  1
  Na  Na4  1  0.250000  0.232887  0.271609  1
  Na  Na5  1  0.250000  0.267113  0.771609  1
  Na  Na6  1  0.750000  0.732887  0.228391  1
  Na  Na7  1  0.750000  0.767113  0.728391  1
  Mg  Mg8  1  0.500000  0.000000  0.500000  1
  Mg  Mg9  1  0.500000  0.500000  0.000000  1
  Mg  Mg10  1  0.000000  0.000000  0.500000  1
  Mg  Mg11  1  0.000000  0.500000  0.000000  1
  In  In12  1  0.250000  0.749742  0.263231  1
  In  In13  1  0.750000  0.250258  0.736769  1
  In  In14  1  0.750000  0.249742  0.236769  1
  In  In15  1  0.250000  0.750258  0.763231  1
  F  F16  1  0.452059  0.674967  0.135419  1
  F  F17  1  0.952059  0.325033  0.864581  1
  F  F18  1  0.547941  0.174967  0.364581  1
  F  F19  1  0.047941  0.825033  0.635419  1
  F  F20  1  0.547941  0.325033  0.864581  1
  F  F21  1  0.047941  0.674967  0.135419  1
  F  F22  1  0.452059  0.825033  0.635419  1
  F  F23  1  0.952059  0.174967  0.364581  1
  F  F24  1  0.519130  0.299556  0.124791  1
  F  F25  1  0.019130  0.700444  0.875209  1
  F  F26  1  0.480870  0.799556  0.375209  1
  F  F27  1  0.980870  0.200444  0.624791  1
  F  F28  1  0.480870  0.700444  0.875209  1
  F  F29  1  0.980870  0.299556  0.124791  1
  F  F30  1  0.519130  0.200444  0.624791  1
  F  F31  1  0.019130  0.799556  0.375209  1
  F  F32  1  0.250000  0.506341  0.359875  1
  F  F33  1  0.750000  0.493659  0.640125  1
  F  F34  1  0.750000  0.006341  0.140125  1
  F  F35  1  0.250000  0.993659  0.859875  1
  F  F36  1  0.250000  0.983583  0.159617  1
  F  F37  1  0.750000  0.016417  0.840383  1
  F  F38  1  0.750000  0.483583  0.340383  1
  F  F39  1  0.250000  0.516417  0.659617  1
  F  F40  1  0.250000  0.051668  0.465608  1
  F  F41  1  0.750000  0.948332  0.534392  1
  F  F42  1  0.750000  0.551668  0.034392  1
  F  F43  1  0.250000  0.448332  0.965608  1
