# generated using pymatgen
data_Ce2Al3Ge4
_symmetry_space_group_name_H-M   'P 1'
_cell_length_a   8.10355278
_cell_length_b   8.10355278
_cell_length_c   7.93684592
_cell_angle_alpha   90.00000000
_cell_angle_beta   90.00000000
_cell_angle_gamma   136.33993210
_symmetry_Int_Tables_number   1
_chemical_formula_structural   Ce2Al3Ge4
_chemical_formula_sum   'Ce4 Al6 Ge8'
_cell_volume   359.82062853
_cell_formula_units_Z   2
loop_
 _symmetry_equiv_pos_site_id
 _symmetry_equiv_pos_as_xyz
  1  'x, y, z'
loop_
 _atom_site_type_symbol
 _atom_site_label
 _atom_site_symmetry_multiplicity
 _atom_site_fract_x
 _atom_site_fract_y
 _atom_site_fract_z
 _atom_site_occupancy
  Ce  Ce0  1  0.386244  0.613756  0.081660  1
  Ce  Ce1  1  0.613756  0.386244  0.918340  1
  Ce  Ce2  1  0.886244  0.113756  0.418340  1
  Ce  Ce3  1  0.113756  0.886244  0.581660  1
  Al  Al4  1  0.500000  0.500000  0.500000  1
  Al  Al5  1  0.000000  0.000000  0.000000  1
  Al  Al6  1  0.034863  0.465137  0.750000  1
  Al  Al7  1  0.465137  0.034863  0.250000  1
  Al  Al8  1  0.534863  0.965137  0.750000  1
  Al  Al9  1  0.965137  0.534863  0.250000  1
  Ge  Ge10  1  0.315801  0.684199  0.449282  1
  Ge  Ge11  1  0.684199  0.315801  0.550718  1
  Ge  Ge12  1  0.815801  0.184199  0.050718  1
  Ge  Ge13  1  0.703545  0.796455  0.750000  1
  Ge  Ge14  1  0.203545  0.296455  0.750000  1
  Ge  Ge15  1  0.296455  0.203545  0.250000  1
  Ge  Ge16  1  0.796455  0.703545  0.250000  1
  Ge  Ge17  1  0.184199  0.815801  0.949282  1
