# generated using pymatgen
data_Mg3V6(FeO6)4
_symmetry_space_group_name_H-M   'P 1'
_cell_length_a   6.76522693
_cell_length_b   8.19601696
_cell_length_c   9.95291879
_cell_angle_alpha   105.40092742
_cell_angle_beta   105.10449345
_cell_angle_gamma   102.32516815
_symmetry_Int_Tables_number   1
_chemical_formula_structural   Mg3V6(FeO6)4
_chemical_formula_sum   'Mg3 V6 Fe4 O24'
_cell_volume   489.41150964
_cell_formula_units_Z   1
loop_
 _symmetry_equiv_pos_site_id
 _symmetry_equiv_pos_as_xyz
  1  'x, y, z'
loop_
 _atom_site_type_symbol
 _atom_site_label
 _atom_site_symmetry_multiplicity
 _atom_site_fract_x
 _atom_site_fract_y
 _atom_site_fract_z
 _atom_site_occupancy
  Mg  Mg0  1  0.000000  0.500000  0.500000  1
  Mg  Mg1  1  0.720805  0.713606  0.206676  1
  Mg  Mg2  1  0.279195  0.286394  0.793324  1
  V  V3  1  0.896258  0.903404  0.666978  1
  V  V4  1  0.103742  0.096596  0.333022  1
  V  V5  1  0.221840  0.658839  0.270242  1
  V  V6  1  0.778160  0.341161  0.729758  1
  V  V7  1  0.596151  0.272621  0.128866  1
  V  V8  1  0.403849  0.727379  0.871134  1
  Fe  Fe9  1  0.380324  0.951015  0.606996  1
  Fe  Fe10  1  0.619676  0.048985  0.393004  1
  Fe  Fe11  1  0.042018  0.210093  0.015901  1
  Fe  Fe12  1  0.957982  0.789907  0.984099  1
  O  O13  1  0.073970  0.056092  0.143517  1
  O  O14  1  0.926030  0.943908  0.856483  1
  O  O15  1  0.559171  0.136476  0.232429  1
  O  O16  1  0.440829  0.863524  0.767571  1
  O  O17  1  0.180000  0.440617  0.183237  1
  O  O18  1  0.820000  0.559383  0.816763  1
  O  O19  1  0.986423  0.278561  0.833343  1
  O  O20  1  0.013577  0.721439  0.166657  1
  O  O21  1  0.236280  0.784091  0.966710  1
  O  O22  1  0.763720  0.215909  0.033290  1
  O  O23  1  0.868380  0.972122  0.347681  1
  O  O24  1  0.131620  0.027878  0.652319  1
  O  O25  1  0.527692  0.225688  0.729396  1
  O  O26  1  0.472308  0.774312  0.270604  1
  O  O27  1  0.348798  0.255446  0.996567  1
  O  O28  1  0.651202  0.744554  0.003433  1
  O  O29  1  0.332805  0.040731  0.425674  1
  O  O30  1  0.667195  0.959269  0.574326  1
  O  O31  1  0.212738  0.697483  0.453647  1
  O  O32  1  0.787262  0.302517  0.546353  1
  O  O33  1  0.722955  0.487997  0.252669  1
  O  O34  1  0.277045  0.512003  0.747331  1
  O  O35  1  0.124236  0.309076  0.414748  1
  O  O36  1  0.875764  0.690924  0.585252  1
