# generated using pymatgen
data_BaEu2O4
_symmetry_space_group_name_H-M   'P 1'
_cell_length_a   3.58064938
_cell_length_b   10.60788751
_cell_length_c   12.46557987
_cell_angle_alpha   90.00000000
_cell_angle_beta   90.00000000
_cell_angle_gamma   90.00000000
_symmetry_Int_Tables_number   1
_chemical_formula_structural   BaEu2O4
_chemical_formula_sum   'Ba4 Eu8 O16'
_cell_volume   473.48168882
_cell_formula_units_Z   4
loop_
 _symmetry_equiv_pos_site_id
 _symmetry_equiv_pos_as_xyz
  1  'x, y, z'
loop_
 _atom_site_type_symbol
 _atom_site_label
 _atom_site_symmetry_multiplicity
 _atom_site_fract_x
 _atom_site_fract_y
 _atom_site_fract_z
 _atom_site_occupancy
  Ba  Ba0  1  0.750000  0.252455  0.850082  1
  Ba  Ba1  1  0.750000  0.752455  0.649918  1
  Ba  Ba2  1  0.250000  0.747545  0.149918  1
  Ba  Ba3  1  0.250000  0.247545  0.350082  1
  Eu  Eu4  1  0.750000  0.422017  0.109173  1
  Eu  Eu5  1  0.750000  0.922017  0.390827  1
  Eu  Eu6  1  0.250000  0.577983  0.890827  1
  Eu  Eu7  1  0.250000  0.077983  0.609173  1
  Eu  Eu8  1  0.750000  0.925285  0.888128  1
  Eu  Eu9  1  0.750000  0.425285  0.611872  1
  Eu  Eu10  1  0.250000  0.074715  0.111872  1
  Eu  Eu11  1  0.250000  0.574715  0.388128  1
  O  O12  1  0.750000  0.212987  0.167941  1
  O  O13  1  0.750000  0.712987  0.332059  1
  O  O14  1  0.250000  0.787013  0.832059  1
  O  O15  1  0.250000  0.287013  0.667941  1
  O  O16  1  0.750000  0.118014  0.481142  1
  O  O17  1  0.750000  0.618014  0.018858  1
  O  O18  1  0.250000  0.881986  0.518858  1
  O  O19  1  0.250000  0.381986  0.981142  1
  O  O20  1  0.750000  0.014915  0.716367  1
  O  O21  1  0.750000  0.514915  0.783633  1
  O  O22  1  0.250000  0.985085  0.283633  1
  O  O23  1  0.250000  0.485085  0.216367  1
  O  O24  1  0.750000  0.427225  0.424487  1
  O  O25  1  0.750000  0.927225  0.075513  1
  O  O26  1  0.250000  0.572775  0.575513  1
  O  O27  1  0.250000  0.072775  0.924487  1
