# generated using pymatgen
data_AlPt2
_symmetry_space_group_name_H-M   'P 1'
_cell_length_a   3.95962454
_cell_length_b   5.51045538
_cell_length_c   16.49818916
_cell_angle_alpha   90.00000000
_cell_angle_beta   90.00000000
_cell_angle_gamma   90.00000000
_symmetry_Int_Tables_number   1
_chemical_formula_structural   AlPt2
_chemical_formula_sum   'Al8 Pt16'
_cell_volume   359.97950544
_cell_formula_units_Z   8
loop_
 _symmetry_equiv_pos_site_id
 _symmetry_equiv_pos_as_xyz
  1  'x, y, z'
loop_
 _atom_site_type_symbol
 _atom_site_label
 _atom_site_symmetry_multiplicity
 _atom_site_fract_x
 _atom_site_fract_y
 _atom_site_fract_z
 _atom_site_occupancy
  Al  Al0  1  0.000000  0.203694  0.750000  1
  Al  Al1  1  0.000000  0.796306  0.250000  1
  Al  Al2  1  0.000000  0.687318  0.591570  1
  Al  Al3  1  0.000000  0.312682  0.408430  1
  Al  Al4  1  0.000000  0.687318  0.908430  1
  Al  Al5  1  0.000000  0.312682  0.091570  1
  Al  Al6  1  0.500000  0.000000  0.500000  1
  Al  Al7  1  0.500000  0.000000  0.000000  1
  Pt  Pt8  1  0.500000  0.054209  0.343601  1
  Pt  Pt9  1  0.500000  0.945791  0.656399  1
  Pt  Pt10  1  0.500000  0.558509  0.167577  1
  Pt  Pt11  1  0.500000  0.441491  0.832423  1
  Pt  Pt12  1  0.500000  0.558509  0.332423  1
  Pt  Pt13  1  0.500000  0.441491  0.667577  1
  Pt  Pt14  1  0.000000  0.275361  0.250000  1
  Pt  Pt15  1  0.000000  0.724639  0.750000  1
  Pt  Pt16  1  0.500000  0.945791  0.843601  1
  Pt  Pt17  1  0.500000  0.054209  0.156399  1
  Pt  Pt18  1  0.500000  0.500000  0.500000  1
  Pt  Pt19  1  0.500000  0.500000  0.000000  1
  Pt  Pt20  1  0.000000  0.200611  0.569011  1
  Pt  Pt21  1  0.000000  0.799389  0.430989  1
  Pt  Pt22  1  0.000000  0.200611  0.930989  1
  Pt  Pt23  1  0.000000  0.799389  0.069011  1
