# generated using pymatgen
data_C3N
_symmetry_space_group_name_H-M   'P 1'
_cell_length_a   4.32507127
_cell_length_b   4.77556746
_cell_length_c   9.12560413
_cell_angle_alpha   90.00000000
_cell_angle_beta   90.00000000
_cell_angle_gamma   90.00000000
_symmetry_Int_Tables_number   1
_chemical_formula_structural   C3N
_chemical_formula_sum   'C12 N4'
_cell_volume   188.48633838
_cell_formula_units_Z   4
loop_
 _symmetry_equiv_pos_site_id
 _symmetry_equiv_pos_as_xyz
  1  'x, y, z'
loop_
 _atom_site_type_symbol
 _atom_site_label
 _atom_site_symmetry_multiplicity
 _atom_site_fract_x
 _atom_site_fract_y
 _atom_site_fract_z
 _atom_site_occupancy
  C  C0  1  0.137984  0.316714  0.433731  1
  C  C1  1  0.362016  0.683286  0.933731  1
  C  C2  1  0.637984  0.183286  0.566269  1
  C  C3  1  0.862016  0.816714  0.066269  1
  C  C4  1  0.655542  0.834809  0.936532  1
  C  C5  1  0.844458  0.165191  0.436532  1
  C  C6  1  0.155542  0.665191  0.063468  1
  C  C7  1  0.344458  0.334809  0.563468  1
  C  C8  1  0.712543  0.053006  0.692843  1
  C  C9  1  0.787457  0.946994  0.192843  1
  C  C10  1  0.212543  0.446994  0.307157  1
  C  C11  1  0.287457  0.553006  0.807157  1
  N  N12  1  0.740429  0.985188  0.820737  1
  N  N13  1  0.759571  0.014812  0.320737  1
  N  N14  1  0.240429  0.514812  0.179263  1
  N  N15  1  0.259571  0.485188  0.679263  1
