# generated using pymatgen
data_Tm2O3
_symmetry_space_group_name_H-M   'P 1'
_cell_length_a   9.07189654
_cell_length_b   9.07189654
_cell_length_c   9.07189654
_cell_angle_alpha   109.47122063
_cell_angle_beta   109.47122063
_cell_angle_gamma   109.47122063
_symmetry_Int_Tables_number   1
_chemical_formula_structural   Tm2O3
_chemical_formula_sum   'Tm16 O24'
_cell_volume   574.74125870
_cell_formula_units_Z   8
loop_
 _symmetry_equiv_pos_site_id
 _symmetry_equiv_pos_as_xyz
  1  'x, y, z'
loop_
 _atom_site_type_symbol
 _atom_site_label
 _atom_site_symmetry_multiplicity
 _atom_site_fract_x
 _atom_site_fract_y
 _atom_site_fract_z
 _atom_site_occupancy
  Tm  Tm0  1  0.500000  0.500000  0.500000  1
  Tm  Tm1  1  0.000000  0.000000  0.500000  1
  Tm  Tm2  1  0.500000  0.000000  1.000000  1
  Tm  Tm3  1  0.000000  0.500000  0.000000  1
  Tm  Tm4  1  0.250000  0.216778  0.966778  1
  Tm  Tm5  1  0.283222  0.533222  0.750000  1
  Tm  Tm6  1  0.533222  0.750000  0.283222  1
  Tm  Tm7  1  0.216778  0.966778  0.250000  1
  Tm  Tm8  1  0.966778  0.250000  0.216778  1
  Tm  Tm9  1  0.750000  0.283222  0.533222  1
  Tm  Tm10  1  0.750000  0.783222  0.033222  1
  Tm  Tm11  1  0.716778  0.466778  0.250000  1
  Tm  Tm12  1  0.466778  0.250000  0.716778  1
  Tm  Tm13  1  0.783222  0.033222  0.750000  1
  Tm  Tm14  1  0.033222  0.750000  0.783222  1
  Tm  Tm15  1  0.250000  0.716778  0.466778  1
  O  O16  1  0.532043  0.771088  0.543221  1
  O  O17  1  0.988822  0.956779  0.727867  1
  O  O18  1  0.260955  0.772133  0.728912  1
  O  O19  1  0.511178  0.239045  0.967957  1
  O  O20  1  0.956779  0.727867  0.988822  1
  O  O21  1  0.728912  0.260955  0.772133  1
  O  O22  1  0.239045  0.967957  0.511178  1
  O  O23  1  0.543221  0.532043  0.771088  1
  O  O24  1  0.771088  0.543221  0.532043  1
  O  O25  1  0.727867  0.988822  0.956779  1
  O  O26  1  0.772133  0.728912  0.260955  1
  O  O27  1  0.967957  0.511178  0.239045  1
  O  O28  1  0.467957  0.228912  0.456779  1
  O  O29  1  0.011178  0.043221  0.272133  1
  O  O30  1  0.739045  0.227867  0.271088  1
  O  O31  1  0.488822  0.760955  0.032043  1
  O  O32  1  0.043221  0.272133  0.011178  1
  O  O33  1  0.271088  0.739045  0.227867  1
  O  O34  1  0.760955  0.032043  0.488822  1
  O  O35  1  0.456779  0.467957  0.228912  1
  O  O36  1  0.228912  0.456779  0.467957  1
  O  O37  1  0.272133  0.011178  0.043221  1
  O  O38  1  0.227867  0.271088  0.739045  1
  O  O39  1  0.032043  0.488822  0.760955  1
