# generated using pymatgen
data_Li7TaN4
_symmetry_space_group_name_H-M   'P 1'
_cell_length_a   9.85157800
_cell_length_b   9.85157800
_cell_length_c   9.85157800
_cell_angle_alpha   90.00000000
_cell_angle_beta   90.00000000
_cell_angle_gamma   90.00000000
_symmetry_Int_Tables_number   1
_chemical_formula_structural   Li7TaN4
_chemical_formula_sum   'Li56 Ta8 N32'
_cell_volume   956.13100310
_cell_formula_units_Z   8
loop_
 _symmetry_equiv_pos_site_id
 _symmetry_equiv_pos_as_xyz
  1  'x, y, z'
loop_
 _atom_site_type_symbol
 _atom_site_label
 _atom_site_symmetry_multiplicity
 _atom_site_fract_x
 _atom_site_fract_y
 _atom_site_fract_z
 _atom_site_occupancy
  Li  Li0  1  0.868518  0.360232  0.384179  1
  Li  Li1  1  0.368518  0.139768  0.615821  1
  Li  Li2  1  0.131482  0.860232  0.115821  1
  Li  Li3  1  0.139768  0.615821  0.368518  1
  Li  Li4  1  0.115821  0.131482  0.860232  1
  Li  Li5  1  0.615821  0.368518  0.139768  1
  Li  Li6  1  0.360232  0.384179  0.868518  1
  Li  Li7  1  0.384179  0.868518  0.360232  1
  Li  Li8  1  0.860232  0.115821  0.131482  1
  Li  Li9  1  0.639768  0.884179  0.631482  1
  Li  Li10  1  0.884179  0.631482  0.639768  1
  Li  Li11  1  0.631482  0.639768  0.884179  1
  Li  Li12  1  0.131482  0.639768  0.615821  1
  Li  Li13  1  0.631482  0.860232  0.384179  1
  Li  Li14  1  0.868518  0.139768  0.884179  1
  Li  Li15  1  0.860232  0.384179  0.631482  1
  Li  Li16  1  0.884179  0.868518  0.139768  1
  Li  Li17  1  0.384179  0.631482  0.860232  1
  Li  Li18  1  0.639768  0.615821  0.131482  1
  Li  Li19  1  0.615821  0.131482  0.639768  1
  Li  Li20  1  0.139768  0.884179  0.868518  1
  Li  Li21  1  0.360232  0.115821  0.368518  1
  Li  Li22  1  0.115821  0.368518  0.360232  1
  Li  Li23  1  0.867560  0.620123  0.099347  1
  Li  Li24  1  0.368518  0.360232  0.115821  1
  Li  Li25  1  0.120123  0.099347  0.632440  1
  Li  Li26  1  0.379877  0.900653  0.132440  1
  Li  Li27  1  0.099347  0.632440  0.120123  1
  Li  Li28  1  0.132440  0.379877  0.900653  1
  Li  Li29  1  0.632440  0.120123  0.099347  1
  Li  Li30  1  0.400653  0.367560  0.620123  1
  Li  Li31  1  0.367560  0.620123  0.400653  1
  Li  Li32  1  0.900653  0.132440  0.379877  1
  Li  Li33  1  0.599347  0.867560  0.879877  1
  Li  Li34  1  0.867560  0.879877  0.599347  1
  Li  Li35  1  0.879877  0.599347  0.867560  1
  Li  Li36  1  0.379877  0.599347  0.632440  1
  Li  Li37  1  0.879877  0.900653  0.367560  1
  Li  Li38  1  0.620123  0.099347  0.867560  1
  Li  Li39  1  0.900653  0.367560  0.879877  1
  Li  Li40  1  0.368107  0.368107  0.368107  1
  Li  Li41  1  0.131893  0.631893  0.868107  1
  Li  Li42  1  0.868107  0.131893  0.631893  1
  Li  Li43  1  0.631893  0.868107  0.131893  1
  Li  Li44  1  0.631893  0.631893  0.631893  1
  Li  Li45  1  0.868107  0.368107  0.131893  1
  Li  Li46  1  0.131893  0.868107  0.368107  1
  Li  Li47  1  0.368107  0.131893  0.868107  1
  Li  Li48  1  0.120123  0.400653  0.132440  1
  Li  Li49  1  0.132440  0.120123  0.400653  1
  Li  Li50  1  0.400653  0.132440  0.120123  1
  Li  Li51  1  0.099347  0.867560  0.620123  1
  Li  Li52  1  0.632440  0.379877  0.599347  1
  Li  Li53  1  0.599347  0.632440  0.379877  1
  Li  Li54  1  0.367560  0.879877  0.900653  1
  Li  Li55  1  0.620123  0.400653  0.367560  1
  Ta  Ta56  1  0.127642  0.372358  0.627642  1
  Ta  Ta57  1  0.372358  0.627642  0.127642  1
  Ta  Ta58  1  0.627642  0.127642  0.372358  1
  Ta  Ta59  1  0.872358  0.872358  0.872358  1
  Ta  Ta60  1  0.872358  0.627642  0.372358  1
  Ta  Ta61  1  0.627642  0.372358  0.872358  1
  Ta  Ta62  1  0.372358  0.872358  0.627642  1
  Ta  Ta63  1  0.127642  0.127642  0.127642  1
  N  N64  1  0.010261  0.244268  0.014325  1
  N  N65  1  0.510261  0.255732  0.985675  1
  N  N66  1  0.989739  0.744268  0.485675  1
  N  N67  1  0.255732  0.985675  0.510261  1
  N  N68  1  0.485675  0.989739  0.744268  1
  N  N69  1  0.985675  0.510261  0.255732  1
  N  N70  1  0.244268  0.014325  0.010261  1
  N  N71  1  0.014325  0.010261  0.244268  1
  N  N72  1  0.744268  0.485675  0.989739  1
  N  N73  1  0.755732  0.514325  0.489739  1
  N  N74  1  0.514325  0.489739  0.755732  1
  N  N75  1  0.489739  0.755732  0.514325  1
  N  N76  1  0.989739  0.755732  0.985675  1
  N  N77  1  0.489739  0.744268  0.014325  1
  N  N78  1  0.010261  0.255732  0.514325  1
  N  N79  1  0.744268  0.014325  0.489739  1
  N  N80  1  0.514325  0.010261  0.255732  1
  N  N81  1  0.014325  0.489739  0.744268  1
  N  N82  1  0.755732  0.985675  0.989739  1
  N  N83  1  0.985675  0.989739  0.755732  1
  N  N84  1  0.255732  0.514325  0.010261  1
  N  N85  1  0.244268  0.485675  0.510261  1
  N  N86  1  0.485675  0.510261  0.244268  1
  N  N87  1  0.510261  0.244268  0.485675  1
  N  N88  1  0.242364  0.257636  0.742364  1
  N  N89  1  0.257636  0.742364  0.242364  1
  N  N90  1  0.742364  0.242364  0.257636  1
  N  N91  1  0.757636  0.757636  0.757636  1
  N  N92  1  0.757636  0.742364  0.257636  1
  N  N93  1  0.742364  0.257636  0.757636  1
  N  N94  1  0.257636  0.757636  0.742364  1
  N  N95  1  0.242364  0.242364  0.242364  1
