# generated using pymatgen
data_LiSn4Rh
_symmetry_space_group_name_H-M   'P 1'
_cell_length_a   7.45833174
_cell_length_b   7.45833174
_cell_length_c   7.45833174
_cell_angle_alpha   126.58247290
_cell_angle_beta   126.58247290
_cell_angle_gamma   78.93289661
_symmetry_Int_Tables_number   1
_chemical_formula_structural   LiSn4Rh
_chemical_formula_sum   'Li2 Sn8 Rh2'
_cell_volume   258.80598659
_cell_formula_units_Z   2
loop_
 _symmetry_equiv_pos_site_id
 _symmetry_equiv_pos_as_xyz
  1  'x, y, z'
loop_
 _atom_site_type_symbol
 _atom_site_label
 _atom_site_symmetry_multiplicity
 _atom_site_fract_x
 _atom_site_fract_y
 _atom_site_fract_z
 _atom_site_occupancy
  Li  Li0  1  0.000000  0.000000  0.000000  1
  Li  Li1  1  0.500000  0.500000  0.000000  1
  Sn  Sn2  1  0.703891  0.523845  0.500000  1
  Sn  Sn3  1  0.523845  0.023845  0.819954  1
  Sn  Sn4  1  0.203891  0.703891  0.180046  1
  Sn  Sn5  1  0.796109  0.296109  0.819954  1
  Sn  Sn6  1  0.476155  0.976155  0.180046  1
  Sn  Sn7  1  0.296109  0.476155  0.500000  1
  Sn  Sn8  1  0.976155  0.796109  0.500000  1
  Sn  Sn9  1  0.023845  0.203891  0.500000  1
  Rh  Rh10  1  0.250000  0.250000  0.000000  1
  Rh  Rh11  1  0.750000  0.750000  0.000000  1
