# generated using pymatgen
data_Yb(Al4Co)2
_symmetry_space_group_name_H-M   'P 1'
_cell_length_a   3.96464484
_cell_length_b   12.42794527
_cell_length_c   14.41907967
_cell_angle_alpha   90.00000000
_cell_angle_beta   90.00000000
_cell_angle_gamma   90.00000000
_symmetry_Int_Tables_number   1
_chemical_formula_structural   Yb(Al4Co)2
_chemical_formula_sum   'Yb4 Al32 Co8'
_cell_volume   710.46250377
_cell_formula_units_Z   4
loop_
 _symmetry_equiv_pos_site_id
 _symmetry_equiv_pos_as_xyz
  1  'x, y, z'
loop_
 _atom_site_type_symbol
 _atom_site_label
 _atom_site_symmetry_multiplicity
 _atom_site_fract_x
 _atom_site_fract_y
 _atom_site_fract_z
 _atom_site_occupancy
  Yb  Yb0  1  0.000000  0.159143  0.818769  1
  Yb  Yb1  1  0.000000  0.840857  0.181231  1
  Yb  Yb2  1  0.000000  0.659143  0.681231  1
  Yb  Yb3  1  0.000000  0.340857  0.318769  1
  Al  Al4  1  0.500000  0.024558  0.132730  1
  Al  Al5  1  0.500000  0.975442  0.867270  1
  Al  Al6  1  0.500000  0.524558  0.367270  1
  Al  Al7  1  0.500000  0.475442  0.632730  1
  Al  Al8  1  0.500000  0.168101  0.992275  1
  Al  Al9  1  0.500000  0.831899  0.007725  1
  Al  Al10  1  0.500000  0.668101  0.507725  1
  Al  Al11  1  0.500000  0.331899  0.492275  1
  Al  Al12  1  0.500000  0.160778  0.380007  1
  Al  Al13  1  0.500000  0.839222  0.619993  1
  Al  Al14  1  0.500000  0.660778  0.119993  1
  Al  Al15  1  0.500000  0.339222  0.880007  1
  Al  Al16  1  0.500000  0.235712  0.174111  1
  Al  Al17  1  0.500000  0.764288  0.825889  1
  Al  Al18  1  0.500000  0.735712  0.325889  1
  Al  Al19  1  0.500000  0.264288  0.674111  1
  Al  Al20  1  0.500000  0.451487  0.180021  1
  Al  Al21  1  0.500000  0.548513  0.819979  1
  Al  Al22  1  0.500000  0.951487  0.319979  1
  Al  Al23  1  0.500000  0.048513  0.680021  1
  Al  Al24  1  0.000000  0.000000  0.000000  1
  Al  Al25  1  0.500000  0.500000  0.000000  1
  Al  Al26  1  0.000000  0.500000  0.500000  1
  Al  Al27  1  0.500000  0.000000  0.500000  1
  Al  Al28  1  0.000000  0.095893  0.254182  1
  Al  Al29  1  0.000000  0.904107  0.745818  1
  Al  Al30  1  0.000000  0.595893  0.245818  1
  Al  Al31  1  0.000000  0.404107  0.754182  1
  Al  Al32  1  0.000000  0.161685  0.545045  1
  Al  Al33  1  0.000000  0.838315  0.454955  1
  Al  Al34  1  0.000000  0.661685  0.954955  1
  Al  Al35  1  0.000000  0.338315  0.045046  1
  Co  Co36  1  0.000000  0.534209  0.092965  1
  Co  Co37  1  0.000000  0.034209  0.407035  1
  Co  Co38  1  0.000000  0.965791  0.592965  1
  Co  Co39  1  0.000000  0.465791  0.907035  1
  Co  Co40  1  0.000000  0.350242  0.598040  1
  Co  Co41  1  0.000000  0.649758  0.401960  1
  Co  Co42  1  0.000000  0.850242  0.901960  1
  Co  Co43  1  0.000000  0.149758  0.098040  1
