# generated using pymatgen
data_TiCdO3
_symmetry_space_group_name_H-M   'P 1'
_cell_length_a   5.36967809
_cell_length_b   5.48663885
_cell_length_c   7.71809525
_cell_angle_alpha   90.00000000
_cell_angle_beta   90.00000000
_cell_angle_gamma   90.00000000
_symmetry_Int_Tables_number   1
_chemical_formula_structural   TiCdO3
_chemical_formula_sum   'Ti4 Cd4 O12'
_cell_volume   227.38654296
_cell_formula_units_Z   4
loop_
 _symmetry_equiv_pos_site_id
 _symmetry_equiv_pos_as_xyz
  1  'x, y, z'
loop_
 _atom_site_type_symbol
 _atom_site_label
 _atom_site_symmetry_multiplicity
 _atom_site_fract_x
 _atom_site_fract_y
 _atom_site_fract_z
 _atom_site_occupancy
  Ti  Ti0  1  0.000000  0.500000  0.500000  1
  Ti  Ti1  1  0.500000  0.000000  0.500000  1
  Ti  Ti2  1  0.500000  0.000000  0.000000  1
  Ti  Ti3  1  0.000000  0.500000  0.000000  1
  Cd  Cd4  1  0.008627  0.961050  0.750000  1
  Cd  Cd5  1  0.508627  0.538950  0.250000  1
  Cd  Cd6  1  0.491373  0.461050  0.750000  1
  Cd  Cd7  1  0.991373  0.038950  0.250000  1
  O  O8  1  0.701119  0.296236  0.453300  1
  O  O9  1  0.201119  0.203764  0.546700  1
  O  O10  1  0.798881  0.796236  0.046700  1
  O  O11  1  0.298881  0.703764  0.953300  1
  O  O12  1  0.298881  0.703764  0.546700  1
  O  O13  1  0.798881  0.796236  0.453300  1
  O  O14  1  0.201119  0.203764  0.953300  1
  O  O15  1  0.701119  0.296236  0.046700  1
  O  O16  1  0.089440  0.471960  0.250000  1
  O  O17  1  0.589440  0.028040  0.750000  1
  O  O18  1  0.410560  0.971960  0.250000  1
  O  O19  1  0.910560  0.528040  0.750000  1
