# generated using pymatgen
data_Al(PO3)3
_symmetry_space_group_name_H-M   'P 1'
_cell_length_a   6.15788034
_cell_length_b   15.24073464
_cell_length_c   8.28818622
_cell_angle_alpha   90.00000000
_cell_angle_beta   105.11017669
_cell_angle_gamma   90.00000000
_symmetry_Int_Tables_number   1
_chemical_formula_structural   Al(PO3)3
_chemical_formula_sum   'Al4 P12 O36'
_cell_volume   750.95825210
_cell_formula_units_Z   4
loop_
 _symmetry_equiv_pos_site_id
 _symmetry_equiv_pos_as_xyz
  1  'x, y, z'
loop_
 _atom_site_type_symbol
 _atom_site_label
 _atom_site_symmetry_multiplicity
 _atom_site_fract_x
 _atom_site_fract_y
 _atom_site_fract_z
 _atom_site_occupancy
  Al  Al0  1  0.615212  0.638136  0.376768  1
  Al  Al1  1  0.384788  0.138136  0.123232  1
  Al  Al2  1  0.384788  0.361864  0.623232  1
  Al  Al3  1  0.615212  0.861864  0.876768  1
  P  P4  1  0.701437  0.837259  0.517142  1
  P  P5  1  0.298563  0.337259  0.982858  1
  P  P6  1  0.298563  0.162741  0.482858  1
  P  P7  1  0.701437  0.662741  0.017142  1
  P  P8  1  0.644958  0.544164  0.718204  1
  P  P9  1  0.355042  0.044164  0.781796  1
  P  P10  1  0.355042  0.455836  0.281796  1
  P  P11  1  0.644958  0.955836  0.218204  1
  P  P12  1  0.084894  0.613008  0.290417  1
  P  P13  1  0.915106  0.113008  0.209583  1
  P  P14  1  0.915106  0.386992  0.709583  1
  P  P15  1  0.084894  0.886992  0.790417  1
  O  O16  1  0.305517  0.658541  0.355050  1
  O  O17  1  0.694483  0.158541  0.144950  1
  O  O18  1  0.694483  0.341459  0.644950  1
  O  O19  1  0.305517  0.841459  0.855050  1
  O  O20  1  0.923397  0.614976  0.397508  1
  O  O21  1  0.076603  0.114976  0.102492  1
  O  O22  1  0.076603  0.385024  0.602492  1
  O  O23  1  0.923397  0.885024  0.897508  1
  O  O24  1  0.674965  0.758451  0.407798  1
  O  O25  1  0.325035  0.258451  0.092202  1
  O  O26  1  0.325035  0.241549  0.592202  1
  O  O27  1  0.674965  0.741549  0.907798  1
  O  O28  1  0.665102  0.621417  0.611242  1
  O  O29  1  0.334898  0.121417  0.888758  1
  O  O30  1  0.334898  0.378583  0.388758  1
  O  O31  1  0.665102  0.878583  0.111242  1
  O  O32  1  0.565384  0.845692  0.641867  1
  O  O33  1  0.434616  0.345692  0.858133  1
  O  O34  1  0.434616  0.154308  0.358133  1
  O  O35  1  0.565384  0.654308  0.141867  1
  O  O36  1  0.444833  0.484858  0.661305  1
  O  O37  1  0.555167  0.984858  0.838695  1
  O  O38  1  0.555167  0.515142  0.338695  1
  O  O39  1  0.444833  0.015142  0.161305  1
  O  O40  1  0.649913  0.923688  0.402685  1
  O  O41  1  0.350087  0.423688  0.097315  1
  O  O42  1  0.350087  0.076312  0.597315  1
  O  O43  1  0.649913  0.576312  0.902685  1
  O  O44  1  0.874625  0.487817  0.753803  1
  O  O45  1  0.125375  0.987817  0.746197  1
  O  O46  1  0.125375  0.512183  0.246197  1
  O  O47  1  0.874625  0.012183  0.253803  1
  O  O48  1  0.966359  0.847474  0.608180  1
  O  O49  1  0.033641  0.347474  0.891820  1
  O  O50  1  0.033641  0.152526  0.391820  1
  O  O51  1  0.966359  0.652526  0.108180  1
