# generated using pymatgen
data_Sr3(SiAs2)2
_symmetry_space_group_name_H-M   'P 1'
_cell_length_a   9.68894080
_cell_length_b   9.68894080
_cell_length_c   7.45636957
_cell_angle_alpha   75.06128788
_cell_angle_beta   104.93871212
_cell_angle_gamma   57.33860205
_symmetry_Int_Tables_number   1
_chemical_formula_structural   Sr3(SiAs2)2
_chemical_formula_sum   'Sr6 Si4 As8'
_cell_volume   496.98904458
_cell_formula_units_Z   2
loop_
 _symmetry_equiv_pos_site_id
 _symmetry_equiv_pos_as_xyz
  1  'x, y, z'
loop_
 _atom_site_type_symbol
 _atom_site_label
 _atom_site_symmetry_multiplicity
 _atom_site_fract_x
 _atom_site_fract_y
 _atom_site_fract_z
 _atom_site_occupancy
  Sr  Sr0  1  0.941067  0.941067  0.250000  1
  Sr  Sr1  1  0.058933  0.058933  0.750000  1
  Sr  Sr2  1  0.564638  0.564639  0.750000  1
  Sr  Sr3  1  0.435362  0.435362  0.250000  1
  Sr  Sr4  1  0.813968  0.813968  0.750000  1
  Sr  Sr5  1  0.186032  0.186032  0.250000  1
  Si  Si6  1  0.169562  0.471671  0.655798  1
  Si  Si7  1  0.471671  0.169562  0.844202  1
  Si  Si8  1  0.830438  0.528329  0.344202  1
  Si  Si9  1  0.528329  0.830438  0.155798  1
  As  As10  1  0.949538  0.444241  0.717930  1
  As  As11  1  0.444241  0.949538  0.782070  1
  As  As12  1  0.678162  0.188598  0.751984  1
  As  As13  1  0.188598  0.678162  0.748016  1
  As  As14  1  0.321838  0.811402  0.248016  1
  As  As15  1  0.811402  0.321838  0.251984  1
  As  As16  1  0.555759  0.050462  0.217930  1
  As  As17  1  0.050462  0.555759  0.282070  1
