# generated using pymatgen
data_CsBe4(BO3)3
_symmetry_space_group_name_H-M   'P 1'
_cell_length_a   6.52948886
_cell_length_b   8.45744877
_cell_length_c   13.47130679
_cell_angle_alpha   90.00000000
_cell_angle_beta   90.00000000
_cell_angle_gamma   90.00000000
_symmetry_Int_Tables_number   1
_chemical_formula_structural   CsBe4(BO3)3
_chemical_formula_sum   'Cs4 Be16 B12 O36'
_cell_volume   743.92351672
_cell_formula_units_Z   4
loop_
 _symmetry_equiv_pos_site_id
 _symmetry_equiv_pos_as_xyz
  1  'x, y, z'
loop_
 _atom_site_type_symbol
 _atom_site_label
 _atom_site_symmetry_multiplicity
 _atom_site_fract_x
 _atom_site_fract_y
 _atom_site_fract_z
 _atom_site_occupancy
  Cs  Cs0  1  0.340354  0.916980  0.750000  1
  Cs  Cs1  1  0.159646  0.416980  0.750000  1
  Cs  Cs2  1  0.659646  0.083020  0.250000  1
  Cs  Cs3  1  0.840354  0.583020  0.250000  1
  Be  Be4  1  0.911848  0.062298  0.558431  1
  Be  Be5  1  0.588152  0.562298  0.941569  1
  Be  Be6  1  0.088152  0.937702  0.058431  1
  Be  Be7  1  0.411848  0.437702  0.441569  1
  Be  Be8  1  0.088152  0.937702  0.441569  1
  Be  Be9  1  0.411848  0.437702  0.058431  1
  Be  Be10  1  0.911848  0.062298  0.941569  1
  Be  Be11  1  0.588152  0.562298  0.558431  1
  Be  Be12  1  0.642744  0.274219  0.642107  1
  Be  Be13  1  0.857256  0.774219  0.857893  1
  Be  Be14  1  0.357256  0.725781  0.142107  1
  Be  Be15  1  0.142744  0.225781  0.357893  1
  Be  Be16  1  0.357256  0.725781  0.357893  1
  Be  Be17  1  0.142744  0.225781  0.142107  1
  Be  Be18  1  0.642744  0.274219  0.857893  1
  Be  Be19  1  0.857256  0.774219  0.642107  1
  B  B20  1  0.814277  0.046710  0.750000  1
  B  B21  1  0.685723  0.546710  0.750000  1
  B  B22  1  0.185723  0.953290  0.250000  1
  B  B23  1  0.314277  0.453290  0.250000  1
  B  B24  1  0.308032  0.173951  0.531277  1
  B  B25  1  0.191968  0.673951  0.968723  1
  B  B26  1  0.691968  0.826049  0.031277  1
  B  B27  1  0.808032  0.326049  0.468723  1
  B  B28  1  0.691968  0.826049  0.468723  1
  B  B29  1  0.808032  0.326049  0.031277  1
  B  B30  1  0.308032  0.173951  0.968723  1
  B  B31  1  0.191968  0.673951  0.531277  1
  O  O32  1  0.858446  0.971113  0.661977  1
  O  O33  1  0.641554  0.471113  0.838023  1
  O  O34  1  0.141554  0.028887  0.161977  1
  O  O35  1  0.358446  0.528887  0.338023  1
  O  O36  1  0.141554  0.028887  0.338023  1
  O  O37  1  0.358446  0.528887  0.161977  1
  O  O38  1  0.858446  0.971113  0.838023  1
  O  O39  1  0.641554  0.471113  0.661977  1
  O  O40  1  0.819790  0.238800  0.557425  1
  O  O41  1  0.680210  0.738800  0.942575  1
  O  O42  1  0.180210  0.761200  0.057425  1
  O  O43  1  0.319790  0.261200  0.442575  1
  O  O44  1  0.180210  0.761200  0.442575  1
  O  O45  1  0.319790  0.261200  0.057425  1
  O  O46  1  0.819790  0.238800  0.942575  1
  O  O47  1  0.680210  0.738800  0.557425  1
  O  O48  1  0.159276  0.054176  0.533552  1
  O  O49  1  0.340724  0.554176  0.966448  1
  O  O50  1  0.840724  0.945824  0.033552  1
  O  O51  1  0.659276  0.445824  0.466448  1
  O  O52  1  0.840724  0.945824  0.466448  1
  O  O53  1  0.659276  0.445824  0.033552  1
  O  O54  1  0.159276  0.054176  0.966448  1
  O  O55  1  0.340724  0.554176  0.533552  1
  O  O56  1  0.427065  0.202293  0.611133  1
  O  O57  1  0.072935  0.702293  0.888867  1
  O  O58  1  0.572935  0.797707  0.111133  1
  O  O59  1  0.927065  0.297707  0.388867  1
  O  O60  1  0.572935  0.797707  0.388867  1
  O  O61  1  0.927065  0.297707  0.111133  1
  O  O62  1  0.427065  0.202293  0.888867  1
  O  O63  1  0.072935  0.702293  0.611133  1
  O  O64  1  0.726587  0.195650  0.750000  1
  O  O65  1  0.773413  0.695650  0.750000  1
  O  O66  1  0.273413  0.804350  0.250000  1
  O  O67  1  0.226587  0.304350  0.250000  1
