# generated using pymatgen
data_LaFeGe3
_symmetry_space_group_name_H-M   'P 1'
_cell_length_a   5.88346657
_cell_length_b   5.88346657
_cell_length_c   5.88346657
_cell_angle_alpha   136.44418859
_cell_angle_beta   136.44418859
_cell_angle_gamma   63.29435521
_symmetry_Int_Tables_number   1
_chemical_formula_structural   LaFeGe3
_chemical_formula_sum   'La1 Fe1 Ge3'
_cell_volume   95.45764791
_cell_formula_units_Z   1
loop_
 _symmetry_equiv_pos_site_id
 _symmetry_equiv_pos_as_xyz
  1  'x, y, z'
loop_
 _atom_site_type_symbol
 _atom_site_label
 _atom_site_symmetry_multiplicity
 _atom_site_fract_x
 _atom_site_fract_y
 _atom_site_fract_z
 _atom_site_occupancy
  La  La0  1  0.565702  0.565702  0.000000  1
  Fe  Fe1  1  0.231090  0.231090  0.000000  1
  Ge  Ge2  1  0.321792  0.821792  0.500000  1
  Ge  Ge3  1  0.003395  0.003395  0.000000  1
  Ge  Ge4  1  0.821792  0.321792  0.500000  1
