# generated using pymatgen
data_ZnSnO3
_symmetry_space_group_name_H-M   'P 1'
_cell_length_a   5.65912197
_cell_length_b   5.65912197
_cell_length_c   5.65912197
_cell_angle_alpha   56.42809555
_cell_angle_beta   56.42809555
_cell_angle_gamma   56.42809555
_symmetry_Int_Tables_number   1
_chemical_formula_structural   ZnSnO3
_chemical_formula_sum   'Zn2 Sn2 O6'
_cell_volume   117.57008742
_cell_formula_units_Z   2
loop_
 _symmetry_equiv_pos_site_id
 _symmetry_equiv_pos_as_xyz
  1  'x, y, z'
loop_
 _atom_site_type_symbol
 _atom_site_label
 _atom_site_symmetry_multiplicity
 _atom_site_fract_x
 _atom_site_fract_y
 _atom_site_fract_z
 _atom_site_occupancy
  Zn  Zn0  1  0.715928  0.715928  0.715928  1
  Zn  Zn1  1  0.215928  0.215928  0.215928  1
  Sn  Sn2  1  0.998156  0.998156  0.998156  1
  Sn  Sn3  1  0.498156  0.498156  0.498156  1
  O  O4  1  0.787192  0.107231  0.392894  1
  O  O5  1  0.107231  0.392894  0.787192  1
  O  O6  1  0.392894  0.787192  0.107231  1
  O  O7  1  0.287192  0.892894  0.607231  1
  O  O8  1  0.607231  0.287192  0.892894  1
  O  O9  1  0.892894  0.607231  0.287192  1
