# generated using pymatgen
data_Al13Ru4
_symmetry_space_group_name_H-M   'P 1'
_cell_length_a   8.97068602
_cell_length_b   8.97068602
_cell_length_c   12.79902278
_cell_angle_alpha   74.26307840
_cell_angle_beta   105.73692160
_cell_angle_gamma   125.47586267
_symmetry_Int_Tables_number   1
_chemical_formula_structural   Al13Ru4
_chemical_formula_sum   'Al39 Ru12'
_cell_volume   798.77752374
_cell_formula_units_Z   3
loop_
 _symmetry_equiv_pos_site_id
 _symmetry_equiv_pos_as_xyz
  1  'x, y, z'
loop_
 _atom_site_type_symbol
 _atom_site_label
 _atom_site_symmetry_multiplicity
 _atom_site_fract_x
 _atom_site_fract_y
 _atom_site_fract_z
 _atom_site_occupancy
  Al  Al0  1  0.500000  0.500000  0.500000  1
  Al  Al1  1  0.749490  0.749490  0.000000  1
  Al  Al2  1  0.250510  0.250510  0.000000  1
  Al  Al3  1  0.932413  0.067587  0.825442  1
  Al  Al4  1  0.067587  0.932413  0.174558  1
  Al  Al5  1  0.677576  0.322424  0.716884  1
  Al  Al6  1  0.322424  0.677576  0.283116  1
  Al  Al7  1  0.764137  0.235863  0.460898  1
  Al  Al8  1  0.235863  0.764137  0.539102  1
  Al  Al9  1  0.927872  0.072128  0.419788  1
  Al  Al10  1  0.072128  0.927872  0.580212  1
  Al  Al11  1  0.760558  0.239442  0.043074  1
  Al  Al12  1  0.239442  0.760558  0.956926  1
  Al  Al13  1  0.518631  0.481369  0.170444  1
  Al  Al14  1  0.481369  0.518631  0.829556  1
  Al  Al15  1  0.690063  0.309937  0.226318  1
  Al  Al16  1  0.309937  0.690063  0.773682  1
  Al  Al17  1  0.917682  0.082318  0.214240  1
  Al  Al18  1  0.082318  0.917682  0.785760  1
  Al  Al19  1  0.593805  0.965561  0.890151  1
  Al  Al20  1  0.965561  0.593805  0.109849  1
  Al  Al21  1  0.406195  0.034439  0.109849  1
  Al  Al22  1  0.034439  0.406195  0.890151  1
  Al  Al23  1  0.416807  0.150855  0.891050  1
  Al  Al24  1  0.150855  0.416807  0.108950  1
  Al  Al25  1  0.583193  0.849145  0.108950  1
  Al  Al26  1  0.849145  0.583193  0.891050  1
  Al  Al27  1  0.599327  0.957133  0.664674  1
  Al  Al28  1  0.957133  0.599327  0.335326  1
  Al  Al29  1  0.400673  0.042867  0.335326  1
  Al  Al30  1  0.042867  0.400673  0.664674  1
  Al  Al31  1  0.276630  0.257947  0.670476  1
  Al  Al32  1  0.257947  0.276630  0.329524  1
  Al  Al33  1  0.723370  0.742053  0.329524  1
  Al  Al34  1  0.742053  0.723370  0.670476  1
  Al  Al35  1  0.413228  0.141163  0.519539  1
  Al  Al36  1  0.141163  0.413228  0.480461  1
  Al  Al37  1  0.586772  0.858837  0.480461  1
  Al  Al38  1  0.858837  0.586772  0.519539  1
  Ru  Ru39  1  0.914703  0.085297  0.617016  1
  Ru  Ru40  1  0.085297  0.914703  0.382984  1
  Ru  Ru41  1  0.598627  0.401373  0.375539  1
  Ru  Ru42  1  0.401373  0.598627  0.624461  1
  Ru  Ru43  1  0.908101  0.091899  0.012450  1
  Ru  Ru44  1  0.091899  0.908101  0.987550  1
  Ru  Ru45  1  0.599513  0.400487  0.015311  1
  Ru  Ru46  1  0.400487  0.599513  0.984689  1
  Ru  Ru47  1  0.384434  0.023057  0.721586  1
  Ru  Ru48  1  0.023057  0.384434  0.278414  1
  Ru  Ru49  1  0.615566  0.976943  0.278414  1
  Ru  Ru50  1  0.976943  0.615566  0.721586  1
