# generated using pymatgen
data_ZrVGe
_symmetry_space_group_name_H-M   'P 1'
_cell_length_a   7.75956659
_cell_length_b   7.75956659
_cell_length_c   7.75956659
_cell_angle_alpha   152.00924927
_cell_angle_beta   152.00924927
_cell_angle_gamma   39.99979558
_symmetry_Int_Tables_number   1
_chemical_formula_structural   ZrVGe
_chemical_formula_sum   'Zr2 V2 Ge2'
_cell_volume   102.71351696
_cell_formula_units_Z   2
loop_
 _symmetry_equiv_pos_site_id
 _symmetry_equiv_pos_as_xyz
  1  'x, y, z'
loop_
 _atom_site_type_symbol
 _atom_site_label
 _atom_site_symmetry_multiplicity
 _atom_site_fract_x
 _atom_site_fract_y
 _atom_site_fract_z
 _atom_site_occupancy
  Zr  Zr0  1  0.676313  0.676313  0.000000  1
  Zr  Zr1  1  0.323687  0.323687  0.000000  1
  V  V2  1  0.500000  0.000000  0.500000  1
  V  V3  1  0.000000  0.500000  0.500000  1
  Ge  Ge4  1  0.126739  0.126739  0.000000  1
  Ge  Ge5  1  0.873261  0.873261  0.000000  1
