# generated using pymatgen
data_Li3PO4
_symmetry_space_group_name_H-M   'P 1'
_cell_length_a   4.92244766
_cell_length_b   5.29640242
_cell_length_c   6.17613558
_cell_angle_alpha   90.00000000
_cell_angle_beta   90.00000000
_cell_angle_gamma   90.00000000
_symmetry_Int_Tables_number   1
_chemical_formula_structural   Li3PO4
_chemical_formula_sum   'Li6 P2 O8'
_cell_volume   161.01965935
_cell_formula_units_Z   2
loop_
 _symmetry_equiv_pos_site_id
 _symmetry_equiv_pos_as_xyz
  1  'x, y, z'
loop_
 _atom_site_type_symbol
 _atom_site_label
 _atom_site_symmetry_multiplicity
 _atom_site_fract_x
 _atom_site_fract_y
 _atom_site_fract_z
 _atom_site_occupancy
  Li  Li0  1  0.509417  0.844520  0.000000  1
  Li  Li1  1  0.009417  0.155480  0.500000  1
  Li  Li2  1  0.508363  0.326434  0.252873  1
  Li  Li3  1  0.008363  0.673566  0.247127  1
  Li  Li4  1  0.008363  0.673566  0.752873  1
  Li  Li5  1  0.508363  0.326434  0.747127  1
  P  P6  1  0.501420  0.824261  0.500000  1
  P  P7  1  0.001420  0.175739  0.000000  1
  O  O8  1  0.107010  0.313509  0.792862  1
  O  O9  1  0.602126  0.103508  0.500000  1
  O  O10  1  0.185191  0.818396  0.500000  1
  O  O11  1  0.685191  0.181604  0.000000  1
  O  O12  1  0.607010  0.686491  0.292862  1
  O  O13  1  0.107010  0.313509  0.207138  1
  O  O14  1  0.102126  0.896492  0.000000  1
  O  O15  1  0.607010  0.686491  0.707138  1
