# generated using pymatgen
data_Er(CuO2)2
_symmetry_space_group_name_H-M   'P 1'
_cell_length_a   6.24775606
_cell_length_b   6.24775606
_cell_length_c   6.24775606
_cell_angle_alpha   126.16817755
_cell_angle_beta   126.16817755
_cell_angle_gamma   79.61190514
_symmetry_Int_Tables_number   1
_chemical_formula_structural   Er(CuO2)2
_chemical_formula_sum   'Er2 Cu4 O8'
_cell_volume   153.56888304
_cell_formula_units_Z   2
loop_
 _symmetry_equiv_pos_site_id
 _symmetry_equiv_pos_as_xyz
  1  'x, y, z'
loop_
 _atom_site_type_symbol
 _atom_site_label
 _atom_site_symmetry_multiplicity
 _atom_site_fract_x
 _atom_site_fract_y
 _atom_site_fract_z
 _atom_site_occupancy
  Er  Er0  1  0.500000  0.500000  0.000000  1
  Er  Er1  1  0.250000  0.750000  0.500000  1
  Cu  Cu2  1  0.375000  0.125000  0.250000  1
  Cu  Cu3  1  0.875000  0.125000  0.750000  1
  Cu  Cu4  1  0.875000  0.625000  0.750000  1
  Cu  Cu5  1  0.875000  0.125000  0.250000  1
  O  O6  1  0.903800  0.347595  0.145962  1
  O  O7  1  0.201632  0.757837  0.854038  1
  O  O8  1  0.846200  0.902405  0.354038  1
  O  O9  1  0.548368  0.492163  0.645962  1
  O  O10  1  0.507837  0.153800  0.056205  1
  O  O11  1  0.097595  0.451632  0.943795  1
  O  O12  1  0.652405  0.798368  0.556205  1
  O  O13  1  0.242163  0.096200  0.443795  1
