# generated using pymatgen
data_HfPt
_symmetry_space_group_name_H-M   'P 1'
_cell_length_a   5.45571674
_cell_length_b   5.45571674
_cell_length_c   4.31572443
_cell_angle_alpha   90.00000000
_cell_angle_beta   90.00000000
_cell_angle_gamma   143.88451163
_symmetry_Int_Tables_number   1
_chemical_formula_structural   HfPt
_chemical_formula_sum   'Hf2 Pt2'
_cell_volume   75.71437411
_cell_formula_units_Z   2
loop_
 _symmetry_equiv_pos_site_id
 _symmetry_equiv_pos_as_xyz
  1  'x, y, z'
loop_
 _atom_site_type_symbol
 _atom_site_label
 _atom_site_symmetry_multiplicity
 _atom_site_fract_x
 _atom_site_fract_y
 _atom_site_fract_z
 _atom_site_occupancy
  Hf  Hf0  1  0.142653  0.857347  0.250000  1
  Hf  Hf1  1  0.857347  0.142653  0.750000  1
  Pt  Pt2  1  0.407217  0.592783  0.250000  1
  Pt  Pt3  1  0.592783  0.407217  0.750000  1
