# generated using pymatgen
data_Yb2Ge6Pd
_symmetry_space_group_name_H-M   'P 1'
_cell_length_a   5.75326840
_cell_length_b   5.75326840
_cell_length_c   22.55508126
_cell_angle_alpha   90.00000000
_cell_angle_beta   90.00000000
_cell_angle_gamma   91.49929054
_symmetry_Int_Tables_number   1
_chemical_formula_structural   Yb2Ge6Pd
_chemical_formula_sum   'Yb8 Ge24 Pd4'
_cell_volume   746.31979367
_cell_formula_units_Z   4
loop_
 _symmetry_equiv_pos_site_id
 _symmetry_equiv_pos_as_xyz
  1  'x, y, z'
loop_
 _atom_site_type_symbol
 _atom_site_label
 _atom_site_symmetry_multiplicity
 _atom_site_fract_x
 _atom_site_fract_y
 _atom_site_fract_z
 _atom_site_occupancy
  Yb  Yb0  1  0.625031  0.125975  0.084932  1
  Yb  Yb1  1  0.874969  0.374025  0.584932  1
  Yb  Yb2  1  0.625975  0.125031  0.415068  1
  Yb  Yb3  1  0.874025  0.374969  0.915068  1
  Yb  Yb4  1  0.374969  0.874025  0.915068  1
  Yb  Yb5  1  0.125031  0.625975  0.415068  1
  Yb  Yb6  1  0.374025  0.874969  0.584932  1
  Yb  Yb7  1  0.125975  0.625031  0.084932  1
  Ge  Ge8  1  0.596299  0.596299  0.805476  1
  Ge  Ge9  1  0.903701  0.903701  0.305476  1
  Ge  Ge10  1  0.096299  0.096299  0.694524  1
  Ge  Ge11  1  0.403701  0.403701  0.194524  1
  Ge  Ge12  1  0.652142  0.652142  0.694265  1
  Ge  Ge13  1  0.847858  0.847858  0.194265  1
  Ge  Ge14  1  0.152142  0.152142  0.805735  1
  Ge  Ge15  1  0.347858  0.347858  0.305735  1
  Ge  Ge16  1  0.870666  0.870666  0.969749  1
  Ge  Ge17  1  0.629334  0.629334  0.469749  1
  Ge  Ge18  1  0.370666  0.370666  0.530251  1
  Ge  Ge19  1  0.129334  0.129334  0.030251  1
  Ge  Ge20  1  0.851566  0.399689  0.194928  1
  Ge  Ge21  1  0.648434  0.100311  0.694928  1
  Ge  Ge22  1  0.899689  0.351566  0.305072  1
  Ge  Ge23  1  0.600311  0.148434  0.805072  1
  Ge  Ge24  1  0.148434  0.600311  0.805072  1
  Ge  Ge25  1  0.351566  0.899689  0.305072  1
  Ge  Ge26  1  0.100311  0.648434  0.694928  1
  Ge  Ge27  1  0.399689  0.851566  0.194928  1
  Ge  Ge28  1  0.121707  0.121707  0.464312  1
  Ge  Ge29  1  0.378293  0.378293  0.964312  1
  Ge  Ge30  1  0.621707  0.621707  0.035688  1
  Ge  Ge31  1  0.878293  0.878293  0.535688  1
  Pd  Pd32  1  0.874273  0.874273  0.859448  1
  Pd  Pd33  1  0.625727  0.625727  0.359448  1
  Pd  Pd34  1  0.374273  0.374273  0.640552  1
  Pd  Pd35  1  0.125727  0.125727  0.140552  1
