# generated using pymatgen
data_Na2Ge(S2O7)3
_symmetry_space_group_name_H-M   'P 1'
_cell_length_a   9.93818717
_cell_length_b   13.01521011
_cell_length_c   14.96375377
_cell_angle_alpha   90.00000000
_cell_angle_beta   90.00000000
_cell_angle_gamma   90.00000000
_symmetry_Int_Tables_number   1
_chemical_formula_structural   Na2Ge(S2O7)3
_chemical_formula_sum   'Na8 Ge4 S24 O84'
_cell_volume   1935.52554930
_cell_formula_units_Z   4
loop_
 _symmetry_equiv_pos_site_id
 _symmetry_equiv_pos_as_xyz
  1  'x, y, z'
loop_
 _atom_site_type_symbol
 _atom_site_label
 _atom_site_symmetry_multiplicity
 _atom_site_fract_x
 _atom_site_fract_y
 _atom_site_fract_z
 _atom_site_occupancy
  Na  Na0  1  0.559231  0.198151  0.959552  1
  Na  Na1  1  0.940769  0.801849  0.459551  1
  Na  Na2  1  0.059231  0.301849  0.040448  1
  Na  Na3  1  0.440769  0.698151  0.540448  1
  Na  Na4  1  0.885097  0.182227  0.384352  1
  Na  Na5  1  0.614903  0.817773  0.884352  1
  Na  Na6  1  0.385097  0.317773  0.615648  1
  Na  Na7  1  0.114903  0.682227  0.115648  1
  Ge  Ge8  1  0.433446  0.033342  0.276558  1
  Ge  Ge9  1  0.066554  0.966658  0.776558  1
  Ge  Ge10  1  0.933446  0.466658  0.723442  1
  Ge  Ge11  1  0.566554  0.533342  0.223442  1
  S  S12  1  0.166592  0.903783  0.275527  1
  S  S13  1  0.333408  0.096217  0.775527  1
  S  S14  1  0.666592  0.596217  0.724473  1
  S  S15  1  0.833408  0.403783  0.224473  1
  S  S16  1  0.520708  0.969227  0.087255  1
  S  S17  1  0.979292  0.030773  0.587255  1
  S  S18  1  0.020708  0.530773  0.912745  1
  S  S19  1  0.479292  0.469227  0.412745  1
  S  S20  1  0.152653  0.118407  0.226233  1
  S  S21  1  0.347347  0.881593  0.726233  1
  S  S22  1  0.652653  0.381593  0.773767  1
  S  S23  1  0.847347  0.618407  0.273767  1
  S  S24  1  0.698818  0.105519  0.179983  1
  S  S25  1  0.801182  0.894481  0.679983  1
  S  S26  1  0.198818  0.394481  0.820017  1
  S  S27  1  0.301182  0.605519  0.320017  1
  S  S28  1  0.528005  0.114092  0.460828  1
  S  S29  1  0.971995  0.885908  0.960828  1
  S  S30  1  0.028005  0.385908  0.539172  1
  S  S31  1  0.471995  0.614092  0.039172  1
  S  S32  1  0.615233  0.908914  0.416902  1
  S  S33  1  0.884767  0.091086  0.916902  1
  S  S34  1  0.115233  0.591086  0.583098  1
  S  S35  1  0.384767  0.408914  0.083098  1
  O  O36  1  0.565785  0.124439  0.228941  1
  O  O37  1  0.934215  0.875560  0.728941  1
  O  O38  1  0.065785  0.375561  0.771059  1
  O  O39  1  0.434215  0.624440  0.271059  1
  O  O40  1  0.306385  0.125488  0.225392  1
  O  O41  1  0.193615  0.874512  0.725392  1
  O  O42  1  0.806385  0.374512  0.774608  1
  O  O43  1  0.693615  0.625488  0.274608  1
  O  O44  1  0.292345  0.946864  0.321258  1
  O  O45  1  0.207655  0.053136  0.821258  1
  O  O46  1  0.792345  0.553136  0.678742  1
  O  O47  1  0.707655  0.446864  0.178742  1
  O  O48  1  0.472063  0.058448  0.041214  1
  O  O49  1  0.027937  0.941552  0.541214  1
  O  O50  1  0.972063  0.441552  0.958786  1
  O  O51  1  0.527937  0.558448  0.458786  1
  O  O52  1  0.568335  0.944233  0.325291  1
  O  O53  1  0.931665  0.055767  0.825291  1
  O  O54  1  0.068335  0.555767  0.674709  1
  O  O55  1  0.431665  0.444233  0.174709  1
  O  O56  1  0.126054  0.996380  0.203794  1
  O  O57  1  0.373946  0.003620  0.703794  1
  O  O58  1  0.626054  0.503620  0.796206  1
  O  O59  1  0.873946  0.496380  0.296206  1
  O  O60  1  0.440335  0.947858  0.172417  1
  O  O61  1  0.059665  0.052142  0.672417  1
  O  O62  1  0.940335  0.552142  0.827583  1
  O  O63  1  0.559665  0.447858  0.327583  1
  O  O64  1  0.758377  0.921498  0.423372  1
  O  O65  1  0.741623  0.078502  0.923372  1
  O  O66  1  0.258377  0.578502  0.576628  1
  O  O67  1  0.241623  0.421498  0.076628  1
  O  O68  1  0.425260  0.111004  0.384532  1
  O  O69  1  0.074740  0.888996  0.884532  1
  O  O70  1  0.925260  0.388996  0.615468  1
  O  O71  1  0.574740  0.611004  0.115468  1
  O  O72  1  0.193752  0.818493  0.217873  1
  O  O73  1  0.306248  0.181507  0.717873  1
  O  O74  1  0.693752  0.681507  0.782127  1
  O  O75  1  0.806248  0.318493  0.282127  1
  O  O76  1  0.101397  0.169462  0.148774  1
  O  O77  1  0.398603  0.830538  0.648774  1
  O  O78  1  0.601397  0.330538  0.851226  1
  O  O79  1  0.898603  0.669462  0.351226  1
  O  O80  1  0.060433  0.895718  0.339662  1
  O  O81  1  0.439567  0.104282  0.839662  1
  O  O82  1  0.560433  0.604282  0.660338  1
  O  O83  1  0.939567  0.395718  0.160338  1
  O  O84  1  0.465778  0.155861  0.538821  1
  O  O85  1  0.034222  0.844139  0.038821  1
  O  O86  1  0.965778  0.344139  0.461179  1
  O  O87  1  0.534222  0.655861  0.961179  1
  O  O88  1  0.097295  0.141627  0.312511  1
  O  O89  1  0.402705  0.858373  0.812511  1
  O  O90  1  0.597295  0.358373  0.687489  1
  O  O91  1  0.902705  0.641627  0.187489  1
  O  O92  1  0.540237  0.875278  0.039305  1
  O  O93  1  0.959763  0.124722  0.539305  1
  O  O94  1  0.040237  0.624722  0.960695  1
  O  O95  1  0.459763  0.375278  0.460695  1
  O  O96  1  0.542691  0.990513  0.486296  1
  O  O97  1  0.957309  0.009487  0.986296  1
  O  O98  1  0.042691  0.509487  0.513704  1
  O  O99  1  0.457309  0.490513  0.013704  1
  O  O100  1  0.807376  0.081746  0.239278  1
  O  O101  1  0.692624  0.918254  0.739278  1
  O  O102  1  0.307376  0.418254  0.760722  1
  O  O103  1  0.192624  0.581746  0.260722  1
  O  O104  1  0.657252  0.150534  0.432745  1
  O  O105  1  0.842748  0.849466  0.932745  1
  O  O106  1  0.157252  0.349466  0.567255  1
  O  O107  1  0.342748  0.650534  0.067255  1
  O  O108  1  0.716618  0.182394  0.112374  1
  O  O109  1  0.783382  0.817606  0.612374  1
  O  O110  1  0.216618  0.317606  0.887626  1
  O  O111  1  0.283382  0.682394  0.387626  1
  O  O112  1  0.558142  0.812230  0.442396  1
  O  O113  1  0.941858  0.187770  0.942396  1
  O  O114  1  0.058142  0.687770  0.557604  1
  O  O115  1  0.441858  0.312230  0.057604  1
  O  O116  1  0.671384  0.994251  0.127910  1
  O  O117  1  0.828616  0.005749  0.627910  1
  O  O118  1  0.171384  0.505749  0.872090  1
  O  O119  1  0.328616  0.494251  0.372090  1
