# generated using pymatgen
data_Al8Cr5
_symmetry_space_group_name_H-M   'P 1'
_cell_length_a   7.87891329
_cell_length_b   7.87891329
_cell_length_c   7.87891329
_cell_angle_alpha   109.69518963
_cell_angle_beta   109.69518963
_cell_angle_gamma   109.69518963
_symmetry_Int_Tables_number   1
_chemical_formula_structural   Al8Cr5
_chemical_formula_sum   'Al16 Cr10'
_cell_volume   373.35574181
_cell_formula_units_Z   2
loop_
 _symmetry_equiv_pos_site_id
 _symmetry_equiv_pos_as_xyz
  1  'x, y, z'
loop_
 _atom_site_type_symbol
 _atom_site_label
 _atom_site_symmetry_multiplicity
 _atom_site_fract_x
 _atom_site_fract_y
 _atom_site_fract_z
 _atom_site_occupancy
  Al  Al0  1  0.696455  0.696455  0.696455  1
  Al  Al1  1  0.646563  0.646563  0.002044  1
  Al  Al2  1  0.646563  0.002044  0.646563  1
  Al  Al3  1  0.002044  0.646563  0.646563  1
  Al  Al4  1  0.336523  0.336523  0.558569  1
  Al  Al5  1  0.336523  0.558569  0.336523  1
  Al  Al6  1  0.558569  0.336523  0.336523  1
  Al  Al7  1  0.734771  0.734771  0.383622  1
  Al  Al8  1  0.734771  0.383622  0.734771  1
  Al  Al9  1  0.383622  0.734771  0.734771  1
  Al  Al10  1  0.280797  0.038053  0.666745  1
  Al  Al11  1  0.038053  0.666745  0.280797  1
  Al  Al12  1  0.666745  0.280797  0.038053  1
  Al  Al13  1  0.666745  0.038053  0.280797  1
  Al  Al14  1  0.038053  0.280797  0.666745  1
  Al  Al15  1  0.280797  0.666745  0.038053  1
  Cr  Cr16  1  0.151124  0.151124  0.151124  1
  Cr  Cr17  1  0.015343  0.015343  0.797266  1
  Cr  Cr18  1  0.015343  0.797266  0.015343  1
  Cr  Cr19  1  0.797266  0.015343  0.015343  1
  Cr  Cr20  1  0.987828  0.987828  0.333690  1
  Cr  Cr21  1  0.987828  0.333690  0.987828  1
  Cr  Cr22  1  0.333690  0.987828  0.987828  1
  Cr  Cr23  1  0.365023  0.365023  0.015932  1
  Cr  Cr24  1  0.365023  0.015932  0.365023  1
  Cr  Cr25  1  0.015932  0.365023  0.365023  1
