# generated using pymatgen
data_UF5
_symmetry_space_group_name_H-M   'P 1'
_cell_length_a   8.60051925
_cell_length_b   8.60051925
_cell_length_c   8.60051925
_cell_angle_alpha   95.60698487
_cell_angle_beta   95.60698487
_cell_angle_gamma   143.57082725
_symmetry_Int_Tables_number   1
_chemical_formula_structural   UF5
_chemical_formula_sum   'U4 F20'
_cell_volume   358.84724023
_cell_formula_units_Z   4
loop_
 _symmetry_equiv_pos_site_id
 _symmetry_equiv_pos_as_xyz
  1  'x, y, z'
loop_
 _atom_site_type_symbol
 _atom_site_label
 _atom_site_symmetry_multiplicity
 _atom_site_fract_x
 _atom_site_fract_y
 _atom_site_fract_z
 _atom_site_occupancy
  U  U0  1  0.625000  0.785320  0.660320  1
  U  U1  1  0.035320  0.375000  0.160320  1
  U  U2  1  0.214680  0.875000  0.839680  1
  U  U3  1  0.125000  0.964680  0.339680  1
  F  F4  1  0.143520  0.922099  0.069081  1
  F  F5  1  0.853017  0.074439  0.930919  1
  F  F6  1  0.077901  0.146983  0.221421  1
  F  F7  1  0.925561  0.856480  0.778579  1
  F  F8  1  0.520767  0.230175  0.369926  1
  F  F9  1  0.849159  0.479233  0.709408  1
  F  F10  1  0.769825  0.139751  0.290592  1
  F  F11  1  0.860249  0.150841  0.630074  1
  F  F12  1  0.389751  0.519825  0.790592  1
  F  F13  1  0.729233  0.599159  0.209408  1
  F  F14  1  0.400841  0.610249  0.130074  1
  F  F15  1  0.480175  0.270767  0.869926  1
  F  F16  1  0.125000  0.600928  0.975928  1
  F  F17  1  0.850928  0.875000  0.475928  1
  F  F18  1  0.399072  0.375000  0.524072  1
  F  F19  1  0.625000  0.149072  0.024072  1
  F  F20  1  0.172099  0.893520  0.569081  1
  F  F21  1  0.396983  0.827901  0.721421  1
  F  F22  1  0.106480  0.675561  0.278579  1
  F  F23  1  0.324439  0.603017  0.430919  1
