# generated using pymatgen
data_Ca3ZnGe5O14
_symmetry_space_group_name_H-M   'P 1'
_cell_length_a   8.12582115
_cell_length_b   8.12582115
_cell_length_c   5.14415788
_cell_angle_alpha   89.64740291
_cell_angle_beta   90.35259709
_cell_angle_gamma   120.51910421
_symmetry_Int_Tables_number   1
_chemical_formula_structural   Ca3ZnGe5O14
_chemical_formula_sum   'Ca3 Zn1 Ge5 O14'
_cell_volume   292.59908077
_cell_formula_units_Z   1
loop_
 _symmetry_equiv_pos_site_id
 _symmetry_equiv_pos_as_xyz
  1  'x, y, z'
loop_
 _atom_site_type_symbol
 _atom_site_label
 _atom_site_symmetry_multiplicity
 _atom_site_fract_x
 _atom_site_fract_y
 _atom_site_fract_z
 _atom_site_occupancy
  Ca  Ca0  1  0.731764  0.731764  0.000000  1
  Ca  Ca1  1  0.313554  0.901841  0.000080  1
  Ca  Ca2  1  0.901841  0.313554  0.999920  1
  Zn  Zn3  1  0.316524  0.316524  0.000000  1
  Ge  Ge4  1  0.311581  0.554189  0.505932  1
  Ge  Ge5  1  0.554189  0.311581  0.494068  1
  Ge  Ge6  1  0.980130  0.647536  0.522017  1
  Ge  Ge7  1  0.647536  0.980130  0.477983  1
  Ge  Ge8  1  0.078461  0.078461  0.500000  1
  O  O9  1  0.165414  0.392561  0.267545  1
  O  O10  1  0.392561  0.165414  0.732455  1
  O  O11  1  0.453903  0.777136  0.316781  1
  O  O12  1  0.777136  0.453903  0.683219  1
  O  O13  1  0.993643  0.849936  0.682929  1
  O  O14  1  0.849936  0.993643  0.317071  1
  O  O15  1  0.227465  0.081358  0.252860  1
  O  O16  1  0.081358  0.227465  0.747140  1
  O  O17  1  0.983583  0.647118  0.187194  1
  O  O18  1  0.647118  0.983583  0.812806  1
  O  O19  1  0.462924  0.550015  0.744526  1
  O  O20  1  0.550015  0.462924  0.255474  1
  O  O21  1  0.168307  0.632946  0.689496  1
  O  O22  1  0.632946  0.168307  0.310504  1
