# generated using pymatgen
data_Ca3Ga2(GeO4)3
_symmetry_space_group_name_H-M   'P 1'
_cell_length_a   10.73727869
_cell_length_b   10.73727869
_cell_length_c   10.73727869
_cell_angle_alpha   109.47122063
_cell_angle_beta   109.47122063
_cell_angle_gamma   109.47122063
_symmetry_Int_Tables_number   1
_chemical_formula_structural   Ca3Ga2(GeO4)3
_chemical_formula_sum   'Ca12 Ga8 Ge12 O48'
_cell_volume   952.92953011
_cell_formula_units_Z   4
loop_
 _symmetry_equiv_pos_site_id
 _symmetry_equiv_pos_as_xyz
  1  'x, y, z'
loop_
 _atom_site_type_symbol
 _atom_site_label
 _atom_site_symmetry_multiplicity
 _atom_site_fract_x
 _atom_site_fract_y
 _atom_site_fract_z
 _atom_site_occupancy
  Ca  Ca0  1  0.375000  0.125000  0.250000  1
  Ca  Ca1  1  0.125000  0.375000  0.750000  1
  Ca  Ca2  1  0.250000  0.375000  0.125000  1
  Ca  Ca3  1  0.750000  0.125000  0.375000  1
  Ca  Ca4  1  0.125000  0.250000  0.375000  1
  Ca  Ca5  1  0.375000  0.750000  0.125000  1
  Ca  Ca6  1  0.625000  0.875000  0.750000  1
  Ca  Ca7  1  0.875000  0.625000  0.250000  1
  Ca  Ca8  1  0.750000  0.625000  0.875000  1
  Ca  Ca9  1  0.250000  0.875000  0.625000  1
  Ca  Ca10  1  0.875000  0.750000  0.625000  1
  Ca  Ca11  1  0.625000  0.250000  0.875000  1
  Ga  Ga12  1  0.500000  0.000000  0.500000  1
  Ga  Ga13  1  0.000000  0.500000  0.500000  1
  Ga  Ga14  1  0.500000  0.500000  0.000000  1
  Ga  Ga15  1  0.000000  0.000000  0.000000  1
  Ga  Ga16  1  0.500000  0.000000  1.000000  1
  Ga  Ga17  1  0.000000  0.500000  0.000000  1
  Ga  Ga18  1  0.000000  0.000000  0.500000  1
  Ga  Ga19  1  0.500000  0.500000  0.500000  1
  Ge  Ge20  1  0.625000  0.375000  0.250000  1
  Ge  Ge21  1  0.875000  0.125000  0.750000  1
  Ge  Ge22  1  0.250000  0.625000  0.375000  1
  Ge  Ge23  1  0.750000  0.875000  0.125000  1
  Ge  Ge24  1  0.375000  0.250000  0.625000  1
  Ge  Ge25  1  0.125000  0.750000  0.875000  1
  Ge  Ge26  1  0.375000  0.625000  0.750000  1
  Ge  Ge27  1  0.125000  0.875000  0.250000  1
  Ge  Ge28  1  0.750000  0.375000  0.625000  1
  Ge  Ge29  1  0.250000  0.125000  0.875000  1
  Ge  Ge30  1  0.625000  0.750000  0.375000  1
  Ge  Ge31  1  0.875000  0.250000  0.125000  1
  O  O32  1  0.600245  0.184237  0.482396  1
  O  O33  1  0.899755  0.382151  0.583992  1
  O  O34  1  0.298159  0.315763  0.916008  1
  O  O35  1  0.201841  0.117849  0.017604  1
  O  O36  1  0.482396  0.600245  0.184237  1
  O  O37  1  0.583992  0.899755  0.382151  1
  O  O38  1  0.916008  0.298159  0.315763  1
  O  O39  1  0.017604  0.201841  0.117849  1
  O  O40  1  0.184237  0.482396  0.600245  1
  O  O41  1  0.382151  0.583992  0.899755  1
  O  O42  1  0.315763  0.916008  0.298159  1
  O  O43  1  0.117849  0.017604  0.201841  1
  O  O44  1  0.399755  0.815763  0.517604  1
  O  O45  1  0.100245  0.617849  0.416008  1
  O  O46  1  0.701841  0.684237  0.083992  1
  O  O47  1  0.798159  0.882151  0.982396  1
  O  O48  1  0.517604  0.399755  0.815763  1
  O  O49  1  0.416008  0.100245  0.617849  1
  O  O50  1  0.083992  0.701841  0.684237  1
  O  O51  1  0.982396  0.798159  0.882151  1
  O  O52  1  0.815763  0.517604  0.399755  1
  O  O53  1  0.617849  0.416008  0.100245  1
  O  O54  1  0.684237  0.083992  0.701841  1
  O  O55  1  0.882151  0.982396  0.798159  1
  O  O56  1  0.684237  0.100245  0.982396  1
  O  O57  1  0.882151  0.399755  0.083992  1
  O  O58  1  0.815763  0.798159  0.416008  1
  O  O59  1  0.617849  0.701841  0.517604  1
  O  O60  1  0.100245  0.982396  0.684237  1
  O  O61  1  0.399755  0.083992  0.882151  1
  O  O62  1  0.798159  0.416008  0.815763  1
  O  O63  1  0.701841  0.517604  0.617849  1
  O  O64  1  0.982396  0.684237  0.100245  1
  O  O65  1  0.083992  0.882151  0.399755  1
  O  O66  1  0.416008  0.815763  0.798159  1
  O  O67  1  0.517604  0.617849  0.701841  1
  O  O68  1  0.315763  0.899755  0.017604  1
  O  O69  1  0.117849  0.600245  0.916008  1
  O  O70  1  0.184237  0.201841  0.583992  1
  O  O71  1  0.382151  0.298159  0.482396  1
  O  O72  1  0.899755  0.017604  0.315763  1
  O  O73  1  0.600245  0.916008  0.117849  1
  O  O74  1  0.201841  0.583992  0.184237  1
  O  O75  1  0.298159  0.482396  0.382151  1
  O  O76  1  0.017604  0.315763  0.899755  1
  O  O77  1  0.916008  0.117849  0.600245  1
  O  O78  1  0.583992  0.184237  0.201841  1
  O  O79  1  0.482396  0.382151  0.298159  1
