# generated using pymatgen
data_CeAsO4
_symmetry_space_group_name_H-M   'P 1'
_cell_length_a   6.83103447
_cell_length_b   7.26654190
_cell_length_c   8.41905393
_cell_angle_alpha   90.00000000
_cell_angle_beta   126.42338202
_cell_angle_gamma   90.00000000
_symmetry_Int_Tables_number   1
_chemical_formula_structural   CeAsO4
_chemical_formula_sum   'Ce4 As4 O16'
_cell_volume   336.26789720
_cell_formula_units_Z   4
loop_
 _symmetry_equiv_pos_site_id
 _symmetry_equiv_pos_as_xyz
  1  'x, y, z'
loop_
 _atom_site_type_symbol
 _atom_site_label
 _atom_site_symmetry_multiplicity
 _atom_site_fract_x
 _atom_site_fract_y
 _atom_site_fract_z
 _atom_site_occupancy
  Ce  Ce0  1  0.186186  0.151894  0.783928  1
  Ce  Ce1  1  0.186186  0.348106  0.283928  1
  Ce  Ce2  1  0.813814  0.651894  0.716072  1
  Ce  Ce3  1  0.813814  0.848106  0.216072  1
  As  As4  1  0.690748  0.162583  0.803760  1
  As  As5  1  0.309252  0.662583  0.696240  1
  As  As6  1  0.309252  0.837417  0.196240  1
  As  As7  1  0.690748  0.337417  0.303760  1
  O  O8  1  0.345608  0.606584  0.516005  1
  O  O9  1  0.345608  0.893416  0.016005  1
  O  O10  1  0.104882  0.657222  0.106930  1
  O  O11  1  0.104882  0.842778  0.606930  1
  O  O12  1  0.393203  0.215131  0.617431  1
  O  O13  1  0.826134  0.503596  0.253129  1
  O  O14  1  0.895118  0.157222  0.393070  1
  O  O15  1  0.606797  0.715131  0.882569  1
  O  O16  1  0.826134  0.996404  0.753129  1
  O  O17  1  0.654392  0.393416  0.483995  1
  O  O18  1  0.173866  0.003596  0.246871  1
  O  O19  1  0.393203  0.284869  0.117431  1
  O  O20  1  0.606797  0.784869  0.382569  1
  O  O21  1  0.654392  0.106584  0.983995  1
  O  O22  1  0.895118  0.342778  0.893070  1
  O  O23  1  0.173866  0.496404  0.746871  1
