# generated using pymatgen
data_SrNiGe2
_symmetry_space_group_name_H-M   'P 1'
_cell_length_a   8.95593345
_cell_length_b   8.95593345
_cell_length_c   4.20605575
_cell_angle_alpha   90.00000000
_cell_angle_beta   90.00000000
_cell_angle_gamma   151.32989502
_symmetry_Int_Tables_number   1
_chemical_formula_structural   SrNiGe2
_chemical_formula_sum   'Sr2 Ni2 Ge4'
_cell_volume   161.85495371
_cell_formula_units_Z   2
loop_
 _symmetry_equiv_pos_site_id
 _symmetry_equiv_pos_as_xyz
  1  'x, y, z'
loop_
 _atom_site_type_symbol
 _atom_site_label
 _atom_site_symmetry_multiplicity
 _atom_site_fract_x
 _atom_site_fract_y
 _atom_site_fract_z
 _atom_site_occupancy
  Sr  Sr0  1  0.892102  0.107898  0.750000  1
  Sr  Sr1  1  0.107898  0.892102  0.250000  1
  Ni  Ni2  1  0.681316  0.318684  0.750000  1
  Ni  Ni3  1  0.318684  0.681316  0.250000  1
  Ge  Ge4  1  0.543617  0.456383  0.750000  1
  Ge  Ge5  1  0.456383  0.543617  0.250000  1
  Ge  Ge6  1  0.250401  0.749599  0.750000  1
  Ge  Ge7  1  0.749599  0.250401  0.250000  1
