# generated using pymatgen
data_KInP2O7
_symmetry_space_group_name_H-M   'P 1'
_cell_length_a   7.55635955
_cell_length_b   10.61027155
_cell_length_c   8.58323761
_cell_angle_alpha   90.00000000
_cell_angle_beta   107.00832321
_cell_angle_gamma   90.00000000
_symmetry_Int_Tables_number   1
_chemical_formula_structural   KInP2O7
_chemical_formula_sum   'K4 In4 P8 O28'
_cell_volume   658.06269389
_cell_formula_units_Z   4
loop_
 _symmetry_equiv_pos_site_id
 _symmetry_equiv_pos_as_xyz
  1  'x, y, z'
loop_
 _atom_site_type_symbol
 _atom_site_label
 _atom_site_symmetry_multiplicity
 _atom_site_fract_x
 _atom_site_fract_y
 _atom_site_fract_z
 _atom_site_occupancy
  K  K0  1  0.173110  0.320835  0.563555  1
  K  K1  1  0.826890  0.679165  0.436445  1
  K  K2  1  0.826890  0.820835  0.936445  1
  K  K3  1  0.173110  0.179165  0.063555  1
  In  In4  1  0.763507  0.399597  0.742997  1
  In  In5  1  0.236493  0.899597  0.757003  1
  In  In6  1  0.236493  0.600403  0.257003  1
  In  In7  1  0.763507  0.100403  0.242997  1
  P  P8  1  0.558161  0.138097  0.805944  1
  P  P9  1  0.441839  0.638097  0.694056  1
  P  P10  1  0.441839  0.861903  0.194056  1
  P  P11  1  0.558161  0.361903  0.305944  1
  P  P12  1  0.871741  0.400007  0.177972  1
  P  P13  1  0.871741  0.099993  0.677972  1
  P  P14  1  0.128259  0.599993  0.822028  1
  P  P15  1  0.128259  0.900007  0.322028  1
  O  O16  1  0.868767  0.096480  0.501840  1
  O  O17  1  0.131233  0.596480  0.998160  1
  O  O18  1  0.131233  0.903520  0.498160  1
  O  O19  1  0.868767  0.403520  0.001840  1
  O  O20  1  0.363425  0.081249  0.759557  1
  O  O21  1  0.636575  0.581249  0.740443  1
  O  O22  1  0.636575  0.918751  0.240443  1
  O  O23  1  0.363425  0.418751  0.259557  1
  O  O24  1  0.676917  0.106437  0.977707  1
  O  O25  1  0.323083  0.606437  0.522293  1
  O  O26  1  0.323083  0.893563  0.022293  1
  O  O27  1  0.676917  0.393563  0.477707  1
  O  O28  1  0.661832  0.071887  0.684367  1
  O  O29  1  0.338168  0.571887  0.815633  1
  O  O30  1  0.338168  0.928113  0.315633  1
  O  O31  1  0.661832  0.428113  0.184367  1
  O  O32  1  0.538364  0.220700  0.262131  1
  O  O33  1  0.461636  0.720700  0.237869  1
  O  O34  1  0.461636  0.779300  0.737869  1
  O  O35  1  0.538364  0.279300  0.762131  1
  O  O36  1  0.991962  0.503658  0.282845  1
  O  O37  1  0.008038  0.003658  0.217155  1
  O  O38  1  0.008038  0.496342  0.717155  1
  O  O39  1  0.991962  0.996342  0.782845  1
  O  O40  1  0.931620  0.270130  0.256610  1
  O  O41  1  0.068380  0.770130  0.243390  1
  O  O42  1  0.068380  0.729870  0.743390  1
  O  O43  1  0.931620  0.229870  0.756610  1
