# generated using pymatgen
data_Ho2(Ga3Co)3
_symmetry_space_group_name_H-M   'P 1'
_cell_length_a   7.35415981
_cell_length_b   7.35415981
_cell_length_c   9.42056015
_cell_angle_alpha   90.00000000
_cell_angle_beta   90.00000000
_cell_angle_gamma   119.73426200
_symmetry_Int_Tables_number   1
_chemical_formula_structural   Ho2(Ga3Co)3
_chemical_formula_sum   'Ho4 Ga18 Co6'
_cell_volume   442.41536463
_cell_formula_units_Z   2
loop_
 _symmetry_equiv_pos_site_id
 _symmetry_equiv_pos_as_xyz
  1  'x, y, z'
loop_
 _atom_site_type_symbol
 _atom_site_label
 _atom_site_symmetry_multiplicity
 _atom_site_fract_x
 _atom_site_fract_y
 _atom_site_fract_z
 _atom_site_occupancy
  Ho  Ho0  1  0.331399  0.002894  0.750000  1
  Ho  Ho1  1  0.002894  0.331399  0.750000  1
  Ho  Ho2  1  0.668601  0.997106  0.250000  1
  Ho  Ho3  1  0.997106  0.668601  0.250000  1
  Ga  Ga4  1  0.665691  0.000123  0.928106  1
  Ga  Ga5  1  0.334309  0.999877  0.428106  1
  Ga  Ga6  1  0.999877  0.334309  0.428105  1
  Ga  Ga7  1  0.334309  0.999877  0.071894  1
  Ga  Ga8  1  0.000123  0.665691  0.928106  1
  Ga  Ga9  1  0.999877  0.334309  0.071894  1
  Ga  Ga10  1  0.333439  0.333439  0.558279  1
  Ga  Ga11  1  0.333439  0.333439  0.941721  1
  Ga  Ga12  1  0.666561  0.666561  0.058279  1
  Ga  Ga13  1  0.666561  0.666561  0.441721  1
  Ga  Ga14  1  0.878966  0.878966  0.750000  1
  Ga  Ga15  1  0.121034  0.121034  0.250000  1
  Ga  Ga16  1  0.336408  0.550501  0.250000  1
  Ga  Ga17  1  0.550501  0.336408  0.250000  1
  Ga  Ga18  1  0.663592  0.449499  0.750000  1
  Ga  Ga19  1  0.449499  0.663592  0.750000  1
  Ga  Ga20  1  0.665691  0.000123  0.571895  1
  Ga  Ga21  1  0.000123  0.665691  0.571894  1
  Co  Co22  1  0.329215  0.670785  0.000000  1
  Co  Co23  1  0.670785  0.329215  0.500000  1
  Co  Co24  1  0.670785  0.329215  1.000000  1
  Co  Co25  1  0.329215  0.670785  0.500000  1
  Co  Co26  1  0.000000  0.000000  0.000000  1
  Co  Co27  1  0.000000  0.000000  0.500000  1
