# generated using pymatgen
data_TiTl2O3
_symmetry_space_group_name_H-M   'P 1'
_cell_length_a   3.86939203
_cell_length_b   9.89231650
_cell_length_c   12.79130501
_cell_angle_alpha   90.00000000
_cell_angle_beta   90.00000000
_cell_angle_gamma   90.00000000
_symmetry_Int_Tables_number   1
_chemical_formula_structural   TiTl2O3
_chemical_formula_sum   'Ti4 Tl8 O12'
_cell_volume   489.61598767
_cell_formula_units_Z   4
loop_
 _symmetry_equiv_pos_site_id
 _symmetry_equiv_pos_as_xyz
  1  'x, y, z'
loop_
 _atom_site_type_symbol
 _atom_site_label
 _atom_site_symmetry_multiplicity
 _atom_site_fract_x
 _atom_site_fract_y
 _atom_site_fract_z
 _atom_site_occupancy
  Ti  Ti0  1  0.750000  0.470240  0.904309  1
  Ti  Ti1  1  0.250000  0.970240  0.595691  1
  Ti  Ti2  1  0.250000  0.529760  0.095691  1
  Ti  Ti3  1  0.750000  0.029760  0.404309  1
  Tl  Tl4  1  0.250000  0.734605  0.344756  1
  Tl  Tl5  1  0.250000  0.765395  0.844756  1
  Tl  Tl6  1  0.750000  0.234605  0.155244  1
  Tl  Tl7  1  0.750000  0.265395  0.655244  1
  Tl  Tl8  1  0.250000  0.356281  0.395916  1
  Tl  Tl9  1  0.750000  0.643719  0.604084  1
  Tl  Tl10  1  0.750000  0.856281  0.104084  1
  Tl  Tl11  1  0.250000  0.143719  0.895916  1
  O  O12  1  0.250000  0.024631  0.442580  1
  O  O13  1  0.750000  0.975369  0.557420  1
  O  O14  1  0.750000  0.524631  0.057420  1
  O  O15  1  0.250000  0.475369  0.942580  1
  O  O16  1  0.250000  0.401080  0.195874  1
  O  O17  1  0.750000  0.598920  0.804126  1
  O  O18  1  0.750000  0.901080  0.304126  1
  O  O19  1  0.750000  0.300071  0.848542  1
  O  O20  1  0.750000  0.199929  0.348542  1
  O  O21  1  0.250000  0.800071  0.651458  1
  O  O22  1  0.250000  0.699929  0.151458  1
  O  O23  1  0.250000  0.098920  0.695874  1
