# generated using pymatgen
data_Rb2B2Se7
_symmetry_space_group_name_H-M   'P 1'
_cell_length_a   9.01827767
_cell_length_b   9.01827767
_cell_length_c   13.06497516
_cell_angle_alpha   59.92911608
_cell_angle_beta   120.07088392
_cell_angle_gamma   130.69972504
_symmetry_Int_Tables_number   1
_chemical_formula_structural   Rb2B2Se7
_chemical_formula_sum   'Rb4 B4 Se14'
_cell_volume   672.08752332
_cell_formula_units_Z   2
loop_
 _symmetry_equiv_pos_site_id
 _symmetry_equiv_pos_as_xyz
  1  'x, y, z'
loop_
 _atom_site_type_symbol
 _atom_site_label
 _atom_site_symmetry_multiplicity
 _atom_site_fract_x
 _atom_site_fract_y
 _atom_site_fract_z
 _atom_site_occupancy
  Rb  Rb0  1  0.326637  0.118702  0.523606  1
  Rb  Rb1  1  0.118702  0.326637  0.976394  1
  Rb  Rb2  1  0.673363  0.881298  0.476394  1
  Rb  Rb3  1  0.881298  0.673363  0.023606  1
  B  B4  1  0.846197  0.614969  0.349109  1
  B  B5  1  0.614969  0.846197  0.150891  1
  B  B6  1  0.153803  0.385031  0.650891  1
  B  B7  1  0.385031  0.153803  0.849109  1
  Se  Se8  1  0.430513  0.167446  0.015467  1
  Se  Se9  1  0.167446  0.430513  0.484533  1
  Se  Se10  1  0.569487  0.832555  0.984533  1
  Se  Se11  1  0.832555  0.569487  0.515467  1
  Se  Se12  1  0.598134  0.146645  0.836378  1
  Se  Se13  1  0.146645  0.598134  0.663622  1
  Se  Se14  1  0.401866  0.853355  0.163622  1
  Se  Se15  1  0.853355  0.401866  0.336378  1
  Se  Se16  1  0.100464  0.937996  0.772091  1
  Se  Se17  1  0.937996  0.100464  0.727909  1
  Se  Se18  1  0.899536  0.062004  0.227909  1
  Se  Se19  1  0.062004  0.899536  0.272091  1
  Se  Se20  1  0.446373  0.446373  0.750000  1
  Se  Se21  1  0.553627  0.553627  0.250000  1
