# generated using pymatgen
data_Sr2Sb
_symmetry_space_group_name_H-M   'P 1'
_cell_length_a   9.61816565
_cell_length_b   9.61816565
_cell_length_c   9.61816565
_cell_angle_alpha   149.45402565
_cell_angle_beta   149.45402565
_cell_angle_gamma   43.74342892
_symmetry_Int_Tables_number   1
_chemical_formula_structural   Sr2Sb
_chemical_formula_sum   'Sr4 Sb2'
_cell_volume   229.18489575
_cell_formula_units_Z   2
loop_
 _symmetry_equiv_pos_site_id
 _symmetry_equiv_pos_as_xyz
  1  'x, y, z'
loop_
 _atom_site_type_symbol
 _atom_site_label
 _atom_site_symmetry_multiplicity
 _atom_site_fract_x
 _atom_site_fract_y
 _atom_site_fract_z
 _atom_site_occupancy
  Sr  Sr0  1  0.000000  0.500000  0.500000  1
  Sr  Sr1  1  0.500000  1.000000  0.500000  1
  Sr  Sr2  1  0.322034  0.322034  0.000000  1
  Sr  Sr3  1  0.677966  0.677966  0.000000  1
  Sb  Sb4  1  0.134948  0.134948  0.000000  1
  Sb  Sb5  1  0.865052  0.865052  0.000000  1
