# generated using pymatgen
data_BaCaGe
_symmetry_space_group_name_H-M   'P 1'
_cell_length_a   5.11124572
_cell_length_b   8.63430661
_cell_length_c   9.25700058
_cell_angle_alpha   90.00000000
_cell_angle_beta   90.00000000
_cell_angle_gamma   90.00000000
_symmetry_Int_Tables_number   1
_chemical_formula_structural   BaCaGe
_chemical_formula_sum   'Ba4 Ca4 Ge4'
_cell_volume   408.53053006
_cell_formula_units_Z   4
loop_
 _symmetry_equiv_pos_site_id
 _symmetry_equiv_pos_as_xyz
  1  'x, y, z'
loop_
 _atom_site_type_symbol
 _atom_site_label
 _atom_site_symmetry_multiplicity
 _atom_site_fract_x
 _atom_site_fract_y
 _atom_site_fract_z
 _atom_site_occupancy
  Ba  Ba0  1  0.250000  0.028371  0.175885  1
  Ba  Ba1  1  0.750000  0.971629  0.824115  1
  Ba  Ba2  1  0.250000  0.528371  0.324115  1
  Ba  Ba3  1  0.750000  0.471629  0.675885  1
  Ca  Ca4  1  0.750000  0.858614  0.425862  1
  Ca  Ca5  1  0.250000  0.641386  0.925862  1
  Ca  Ca6  1  0.750000  0.358614  0.074138  1
  Ca  Ca7  1  0.250000  0.141386  0.574138  1
  Ge  Ge8  1  0.250000  0.280952  0.891611  1
  Ge  Ge9  1  0.750000  0.219048  0.391611  1
  Ge  Ge10  1  0.250000  0.780952  0.608389  1
  Ge  Ge11  1  0.750000  0.719048  0.108389  1
