# generated using pymatgen
data_Al4CO4
_symmetry_space_group_name_H-M   'P 1'
_cell_length_a   5.19331286
_cell_length_b   5.19331286
_cell_length_c   9.17117158
_cell_angle_alpha   90.00000000
_cell_angle_beta   90.00000000
_cell_angle_gamma   112.29311224
_symmetry_Int_Tables_number   1
_chemical_formula_structural   Al4CO4
_chemical_formula_sum   'Al8 C2 O8'
_cell_volume   228.86289414
_cell_formula_units_Z   2
loop_
 _symmetry_equiv_pos_site_id
 _symmetry_equiv_pos_as_xyz
  1  'x, y, z'
loop_
 _atom_site_type_symbol
 _atom_site_label
 _atom_site_symmetry_multiplicity
 _atom_site_fract_x
 _atom_site_fract_y
 _atom_site_fract_z
 _atom_site_occupancy
  Al  Al0  1  0.565824  0.892688  0.500356  1
  Al  Al1  1  0.434176  0.107312  0.000356  1
  Al  Al2  1  0.107312  0.434176  0.500356  1
  Al  Al3  1  0.892688  0.565824  0.000356  1
  Al  Al4  1  0.398085  0.601915  0.790295  1
  Al  Al5  1  0.601915  0.398085  0.290295  1
  Al  Al6  1  0.062514  0.937486  0.710353  1
  Al  Al7  1  0.937486  0.062514  0.210353  1
  C  C8  1  0.195327  0.804673  0.884756  1
  C  C9  1  0.804673  0.195327  0.384756  1
  O  O10  1  0.690721  0.820893  0.676435  1
  O  O11  1  0.309279  0.179107  0.176435  1
  O  O12  1  0.179107  0.309279  0.676435  1
  O  O13  1  0.820893  0.690721  0.176435  1
  O  O14  1  0.557730  0.442270  0.910696  1
  O  O15  1  0.442270  0.557730  0.410696  1
  O  O16  1  0.803850  0.196150  0.055118  1
  O  O17  1  0.196150  0.803850  0.555118  1
