# generated using pymatgen
data_Cs2BaP2O7
_symmetry_space_group_name_H-M   'P 1'
_cell_length_a   10.92874351
_cell_length_b   6.27439541
_cell_length_c   15.45586880
_cell_angle_alpha   90.00000000
_cell_angle_beta   117.84685220
_cell_angle_gamma   90.00000000
_symmetry_Int_Tables_number   1
_chemical_formula_structural   Cs2BaP2O7
_chemical_formula_sum   'Cs8 Ba4 P8 O28'
_cell_volume   937.09950556
_cell_formula_units_Z   4
loop_
 _symmetry_equiv_pos_site_id
 _symmetry_equiv_pos_as_xyz
  1  'x, y, z'
loop_
 _atom_site_type_symbol
 _atom_site_label
 _atom_site_symmetry_multiplicity
 _atom_site_fract_x
 _atom_site_fract_y
 _atom_site_fract_z
 _atom_site_occupancy
  Cs  Cs0  1  0.481957  0.735514  0.344026  1
  Cs  Cs1  1  0.481957  0.764486  0.844026  1
  Cs  Cs2  1  0.518043  0.264486  0.655974  1
  Cs  Cs3  1  0.518043  0.235514  0.155974  1
  Cs  Cs4  1  0.033118  0.724233  0.173801  1
  Cs  Cs5  1  0.033118  0.775767  0.673801  1
  Cs  Cs6  1  0.966882  0.275767  0.826199  1
  Cs  Cs7  1  0.966882  0.224233  0.326199  1
  Ba  Ba8  1  0.239759  0.757710  0.491457  1
  Ba  Ba9  1  0.239759  0.742290  0.991457  1
  Ba  Ba10  1  0.760241  0.242290  0.508543  1
  Ba  Ba11  1  0.760241  0.257710  0.008543  1
  P  P12  1  0.176021  0.223165  0.135311  1
  P  P13  1  0.176021  0.276835  0.635311  1
  P  P14  1  0.823979  0.776835  0.864689  1
  P  P15  1  0.823979  0.723165  0.364689  1
  P  P16  1  0.673477  0.740182  0.141525  1
  P  P17  1  0.673477  0.759818  0.641525  1
  P  P18  1  0.326523  0.259818  0.858475  1
  P  P19  1  0.326523  0.240182  0.358475  1
  O  O20  1  0.745643  0.528131  0.144936  1
  O  O21  1  0.745643  0.971869  0.644936  1
  O  O22  1  0.254357  0.471869  0.855064  1
  O  O23  1  0.254357  0.028131  0.355064  1
  O  O24  1  0.032698  0.212842  0.130840  1
  O  O25  1  0.032698  0.287158  0.630840  1
  O  O26  1  0.967302  0.787158  0.869160  1
  O  O27  1  0.967302  0.712842  0.369160  1
  O  O28  1  0.231714  0.003663  0.126179  1
  O  O29  1  0.231714  0.496337  0.626179  1
  O  O30  1  0.768286  0.996337  0.873821  1
  O  O31  1  0.768286  0.503663  0.373821  1
  O  O32  1  0.285388  0.314688  0.244983  1
  O  O33  1  0.285388  0.185312  0.744983  1
  O  O34  1  0.714612  0.685312  0.755017  1
  O  O35  1  0.714612  0.814688  0.255017  1
  O  O36  1  0.187620  0.392966  0.068221  1
  O  O37  1  0.187620  0.107034  0.568221  1
  O  O38  1  0.812380  0.607034  0.931779  1
  O  O39  1  0.812380  0.892966  0.431779  1
  O  O40  1  0.515050  0.721291  0.093298  1
  O  O41  1  0.515050  0.778709  0.593298  1
  O  O42  1  0.484950  0.278709  0.906702  1
  O  O43  1  0.484950  0.221291  0.406702  1
  O  O44  1  0.723529  0.927179  0.102302  1
  O  O45  1  0.723529  0.572821  0.602302  1
  O  O46  1  0.276471  0.072821  0.897698  1
  O  O47  1  0.276471  0.427179  0.397698  1
