# generated using pymatgen
data_ZrCr5P3
_symmetry_space_group_name_H-M   'P 1'
_cell_length_a   6.88822738
_cell_length_b   3.65400263
_cell_length_c   9.35477826
_cell_angle_alpha   90.00000000
_cell_angle_beta   100.21587780
_cell_angle_gamma   90.00000000
_symmetry_Int_Tables_number   1
_chemical_formula_structural   ZrCr5P3
_chemical_formula_sum   'Zr2 Cr10 P6'
_cell_volume   231.72323303
_cell_formula_units_Z   2
loop_
 _symmetry_equiv_pos_site_id
 _symmetry_equiv_pos_as_xyz
  1  'x, y, z'
loop_
 _atom_site_type_symbol
 _atom_site_label
 _atom_site_symmetry_multiplicity
 _atom_site_fract_x
 _atom_site_fract_y
 _atom_site_fract_z
 _atom_site_occupancy
  Zr  Zr0  1  0.808478  0.750000  0.220889  1
  Zr  Zr1  1  0.191522  0.250000  0.779111  1
  Cr  Cr2  1  0.314219  0.750000  0.276534  1
  Cr  Cr3  1  0.458792  0.250000  0.075218  1
  Cr  Cr4  1  0.085064  0.250000  0.084262  1
  Cr  Cr5  1  0.914936  0.750000  0.915738  1
  Cr  Cr6  1  0.372869  0.250000  0.509160  1
  Cr  Cr7  1  0.627131  0.750000  0.490840  1
  Cr  Cr8  1  0.134881  0.750000  0.506321  1
  Cr  Cr9  1  0.865119  0.250000  0.493679  1
  Cr  Cr10  1  0.541208  0.750000  0.924782  1
  Cr  Cr11  1  0.685781  0.250000  0.723466  1
  P  P12  1  0.908359  0.750000  0.668210  1
  P  P13  1  0.091641  0.250000  0.331790  1
  P  P14  1  0.437337  0.750000  0.675506  1
  P  P15  1  0.562663  0.250000  0.324494  1
  P  P16  1  0.246686  0.750000  0.012828  1
  P  P17  1  0.753314  0.250000  0.987172  1
