# generated using pymatgen
data_NaCo3P3O13
_symmetry_space_group_name_H-M   'P 1'
_cell_length_a   7.48799969
_cell_length_b   6.19608498
_cell_length_c   10.57941364
_cell_angle_alpha   90.00000000
_cell_angle_beta   99.79592599
_cell_angle_gamma   90.00000000
_symmetry_Int_Tables_number   1
_chemical_formula_structural   NaCo3P3O13
_chemical_formula_sum   'Na2 Co6 P6 O26'
_cell_volume   483.68893589
_cell_formula_units_Z   2
loop_
 _symmetry_equiv_pos_site_id
 _symmetry_equiv_pos_as_xyz
  1  'x, y, z'
loop_
 _atom_site_type_symbol
 _atom_site_label
 _atom_site_symmetry_multiplicity
 _atom_site_fract_x
 _atom_site_fract_y
 _atom_site_fract_z
 _atom_site_occupancy
  Na  Na0  1  0.327792  0.750000  0.802508  1
  Na  Na1  1  0.672208  0.250000  0.197492  1
  Co  Co2  1  0.627304  0.250000  0.803798  1
  Co  Co3  1  0.372696  0.750000  0.196202  1
  Co  Co4  1  0.219896  0.250000  0.556787  1
  Co  Co5  1  0.000000  0.500000  0.000000  1
  Co  Co6  1  0.780104  0.750000  0.443213  1
  Co  Co7  1  0.000000  0.000000  0.000000  1
  P  P8  1  0.781469  0.250000  0.524174  1
  P  P9  1  0.218531  0.750000  0.475826  1
  P  P10  1  0.253515  0.250000  0.235740  1
  P  P11  1  0.746485  0.750000  0.764260  1
  P  P12  1  0.695341  0.750000  0.114119  1
  P  P13  1  0.304659  0.250000  0.885881  1
  O  O14  1  0.658007  0.750000  0.255399  1
  O  O15  1  0.256385  0.552033  0.567534  1
  O  O16  1  0.194538  0.250000  0.366171  1
  O  O17  1  0.799406  0.542268  0.090347  1
  O  O18  1  0.353983  0.750000  0.383116  1
  O  O19  1  0.117881  0.750000  0.082019  1
  O  O20  1  0.646017  0.250000  0.616884  1
  O  O21  1  0.200594  0.042268  0.909653  1
  O  O22  1  0.978334  0.250000  0.597597  1
  O  O23  1  0.021666  0.750000  0.402403  1
  O  O24  1  0.372069  0.054183  0.210721  1
  O  O25  1  0.882119  0.250000  0.917981  1
  O  O26  1  0.627931  0.554183  0.789279  1
  O  O27  1  0.498696  0.750000  0.038983  1
  O  O28  1  0.805462  0.750000  0.633829  1
  O  O29  1  0.200594  0.457732  0.909653  1
  O  O30  1  0.256385  0.947967  0.567534  1
  O  O31  1  0.743615  0.447967  0.432466  1
  O  O32  1  0.372069  0.445817  0.210721  1
  O  O33  1  0.341993  0.250000  0.744601  1
  O  O34  1  0.917663  0.750000  0.872106  1
  O  O35  1  0.082337  0.250000  0.127894  1
  O  O36  1  0.627931  0.945817  0.789279  1
  O  O37  1  0.799406  0.957732  0.090347  1
  O  O38  1  0.743615  0.052033  0.432466  1
  O  O39  1  0.501304  0.250000  0.961017  1
