# generated using pymatgen
data_HoSnPd
_symmetry_space_group_name_H-M   'P 1'
_cell_length_a   4.62923313
_cell_length_b   7.18916624
_cell_length_c   7.99619325
_cell_angle_alpha   90.00000000
_cell_angle_beta   90.00000000
_cell_angle_gamma   90.00000000
_symmetry_Int_Tables_number   1
_chemical_formula_structural   HoSnPd
_chemical_formula_sum   'Ho4 Sn4 Pd4'
_cell_volume   266.11592240
_cell_formula_units_Z   4
loop_
 _symmetry_equiv_pos_site_id
 _symmetry_equiv_pos_as_xyz
  1  'x, y, z'
loop_
 _atom_site_type_symbol
 _atom_site_label
 _atom_site_symmetry_multiplicity
 _atom_site_fract_x
 _atom_site_fract_y
 _atom_site_fract_z
 _atom_site_occupancy
  Ho  Ho0  1  0.250000  0.509011  0.206765  1
  Ho  Ho1  1  0.750000  0.490989  0.793235  1
  Ho  Ho2  1  0.250000  0.009011  0.293235  1
  Ho  Ho3  1  0.750000  0.990989  0.706765  1
  Sn  Sn4  1  0.250000  0.695653  0.587485  1
  Sn  Sn5  1  0.750000  0.804347  0.087485  1
  Sn  Sn6  1  0.250000  0.195653  0.912515  1
  Sn  Sn7  1  0.750000  0.304347  0.412515  1
  Pd  Pd8  1  0.750000  0.205995  0.084563  1
  Pd  Pd9  1  0.250000  0.294005  0.584563  1
  Pd  Pd10  1  0.750000  0.705995  0.415437  1
  Pd  Pd11  1  0.250000  0.794005  0.915437  1
