# generated using pymatgen
data_Li2CuAs
_symmetry_space_group_name_H-M   'P 1'
_cell_length_a   4.19361799
_cell_length_b   4.19361799
_cell_length_c   7.93207976
_cell_angle_alpha   90.00000000
_cell_angle_beta   90.00000000
_cell_angle_gamma   120.00000000
_symmetry_Int_Tables_number   1
_chemical_formula_structural   Li2CuAs
_chemical_formula_sum   'Li4 Cu2 As2'
_cell_volume   120.80792876
_cell_formula_units_Z   2
loop_
 _symmetry_equiv_pos_site_id
 _symmetry_equiv_pos_as_xyz
  1  'x, y, z'
loop_
 _atom_site_type_symbol
 _atom_site_label
 _atom_site_symmetry_multiplicity
 _atom_site_fract_x
 _atom_site_fract_y
 _atom_site_fract_z
 _atom_site_occupancy
  Li  Li0  1  0.666667  0.333333  0.414459  1
  Li  Li1  1  0.333333  0.666667  0.914459  1
  Li  Li2  1  0.666667  0.333333  0.085541  1
  Li  Li3  1  0.333333  0.666667  0.585541  1
  Cu  Cu4  1  0.000000  0.000000  0.750000  1
  Cu  Cu5  1  0.000000  0.000000  0.250000  1
  As  As6  1  0.333333  0.666667  0.250000  1
  As  As7  1  0.666667  0.333333  0.750000  1
