# generated using pymatgen
data_Zr2Fe
_symmetry_space_group_name_H-M   'P 1'
_cell_length_a   5.28499554
_cell_length_b   5.28499554
_cell_length_c   5.28499554
_cell_angle_alpha   107.13032666
_cell_angle_beta   107.13032666
_cell_angle_gamma   114.26186342
_symmetry_Int_Tables_number   1
_chemical_formula_structural   Zr2Fe
_chemical_formula_sum   'Zr4 Fe2'
_cell_volume   113.03401634
_cell_formula_units_Z   2
loop_
 _symmetry_equiv_pos_site_id
 _symmetry_equiv_pos_as_xyz
  1  'x, y, z'
loop_
 _atom_site_type_symbol
 _atom_site_label
 _atom_site_symmetry_multiplicity
 _atom_site_fract_x
 _atom_site_fract_y
 _atom_site_fract_z
 _atom_site_occupancy
  Zr  Zr0  1  0.321716  0.821716  0.143433  1
  Zr  Zr1  1  0.678284  0.178284  0.856567  1
  Zr  Zr2  1  0.821716  0.678284  0.500000  1
  Zr  Zr3  1  0.178284  0.321716  0.500000  1
  Fe  Fe4  1  0.750000  0.750000  0.000000  1
  Fe  Fe5  1  0.250000  0.250000  0.000000  1
