# generated using pymatgen
data_SnS2
_symmetry_space_group_name_H-M   'P 1'
_cell_length_a   6.54368147
_cell_length_b   6.54368147
_cell_length_c   6.54368147
_cell_angle_alpha   125.49724267
_cell_angle_beta   125.49724267
_cell_angle_gamma   80.71603951
_symmetry_Int_Tables_number   1
_chemical_formula_structural   SnS2
_chemical_formula_sum   'Sn2 S4'
_cell_volume   179.06932484
_cell_formula_units_Z   2
loop_
 _symmetry_equiv_pos_site_id
 _symmetry_equiv_pos_as_xyz
  1  'x, y, z'
loop_
 _atom_site_type_symbol
 _atom_site_label
 _atom_site_symmetry_multiplicity
 _atom_site_fract_x
 _atom_site_fract_y
 _atom_site_fract_z
 _atom_site_occupancy
  Sn  Sn0  1  0.000000  0.000000  0.000000  1
  Sn  Sn1  1  0.750000  0.250000  0.500000  1
  S  S2  1  0.632066  0.625000  0.507066  1
  S  S3  1  0.375000  0.882066  0.007066  1
  S  S4  1  0.117934  0.125000  0.492934  1
  S  S5  1  0.875000  0.367934  0.992934  1
