# generated using pymatgen
data_PrCoGe3
_symmetry_space_group_name_H-M   'P 1'
_cell_length_a   5.84125062
_cell_length_b   5.84125062
_cell_length_c   5.84125062
_cell_angle_alpha   136.37884166
_cell_angle_beta   136.37884166
_cell_angle_gamma   63.39518077
_symmetry_Int_Tables_number   1
_chemical_formula_structural   PrCoGe3
_chemical_formula_sum   'Pr1 Co1 Ge3'
_cell_volume   93.63352691
_cell_formula_units_Z   1
loop_
 _symmetry_equiv_pos_site_id
 _symmetry_equiv_pos_as_xyz
  1  'x, y, z'
loop_
 _atom_site_type_symbol
 _atom_site_label
 _atom_site_symmetry_multiplicity
 _atom_site_fract_x
 _atom_site_fract_y
 _atom_site_fract_z
 _atom_site_occupancy
  Pr  Pr0  1  0.567526  0.567526  0.000000  1
  Co  Co1  1  0.233704  0.233704  0.000000  1
  Ge  Ge2  1  0.325790  0.825790  0.500000  1
  Ge  Ge3  1  0.002549  0.002549  0.000000  1
  Ge  Ge4  1  0.825790  0.325790  0.500000  1
