# generated using pymatgen
data_HoGaNi
_symmetry_space_group_name_H-M   'P 1'
_cell_length_a   4.27643390
_cell_length_b   6.79258602
_cell_length_c   7.34605878
_cell_angle_alpha   90.00000000
_cell_angle_beta   90.00000000
_cell_angle_gamma   90.00000000
_symmetry_Int_Tables_number   1
_chemical_formula_structural   HoGaNi
_chemical_formula_sum   'Ho4 Ga4 Ni4'
_cell_volume   213.38864693
_cell_formula_units_Z   4
loop_
 _symmetry_equiv_pos_site_id
 _symmetry_equiv_pos_as_xyz
  1  'x, y, z'
loop_
 _atom_site_type_symbol
 _atom_site_label
 _atom_site_symmetry_multiplicity
 _atom_site_fract_x
 _atom_site_fract_y
 _atom_site_fract_z
 _atom_site_occupancy
  Ho  Ho0  1  0.250000  0.519298  0.694217  1
  Ho  Ho1  1  0.250000  0.019298  0.805783  1
  Ho  Ho2  1  0.750000  0.980702  0.194217  1
  Ho  Ho3  1  0.750000  0.480702  0.305783  1
  Ga  Ga4  1  0.750000  0.326989  0.924111  1
  Ga  Ga5  1  0.250000  0.173011  0.424111  1
  Ga  Ga6  1  0.750000  0.826989  0.575889  1
  Ga  Ga7  1  0.250000  0.673011  0.075889  1
  Ni  Ni8  1  0.250000  0.285773  0.097868  1
  Ni  Ni9  1  0.250000  0.785773  0.402132  1
  Ni  Ni10  1  0.750000  0.714227  0.902132  1
  Ni  Ni11  1  0.750000  0.214227  0.597868  1
