# generated using pymatgen
data_Sm4FeSe6O
_symmetry_space_group_name_H-M   'P 1'
_cell_length_a   9.55723752
_cell_length_b   9.55723752
_cell_length_c   6.97184696
_cell_angle_alpha   90.00000000
_cell_angle_beta   90.00000000
_cell_angle_gamma   120.00000000
_symmetry_Int_Tables_number   1
_chemical_formula_structural   Sm4FeSe6O
_chemical_formula_sum   'Sm8 Fe2 Se12 O2'
_cell_volume   551.49710328
_cell_formula_units_Z   2
loop_
 _symmetry_equiv_pos_site_id
 _symmetry_equiv_pos_as_xyz
  1  'x, y, z'
loop_
 _atom_site_type_symbol
 _atom_site_label
 _atom_site_symmetry_multiplicity
 _atom_site_fract_x
 _atom_site_fract_y
 _atom_site_fract_z
 _atom_site_occupancy
  Sm  Sm0  1  0.666667  0.333333  0.708471  1
  Sm  Sm1  1  0.333333  0.666667  0.208471  1
  Sm  Sm2  1  0.200729  0.799271  0.659493  1
  Sm  Sm3  1  0.401459  0.200729  0.159493  1
  Sm  Sm4  1  0.799271  0.598541  0.159493  1
  Sm  Sm5  1  0.200729  0.401459  0.659493  1
  Sm  Sm6  1  0.598541  0.799271  0.659493  1
  Sm  Sm7  1  0.799271  0.200729  0.159493  1
  Fe  Fe8  1  0.000000  0.000000  0.496557  1
  Fe  Fe9  1  0.000000  0.000000  0.996557  1
  Se  Se10  1  0.531340  0.062681  0.445771  1
  Se  Se11  1  0.468660  0.937319  0.945771  1
  Se  Se12  1  0.062681  0.531340  0.945771  1
  Se  Se13  1  0.531340  0.468660  0.445771  1
  Se  Se14  1  0.937319  0.468660  0.445771  1
  Se  Se15  1  0.468660  0.531340  0.945771  1
  Se  Se16  1  0.126155  0.873845  0.266751  1
  Se  Se17  1  0.252309  0.126155  0.766751  1
  Se  Se18  1  0.873845  0.747691  0.766751  1
  Se  Se19  1  0.126155  0.252309  0.266751  1
  Se  Se20  1  0.747691  0.873845  0.266751  1
  Se  Se21  1  0.873845  0.126155  0.766751  1
  O  O22  1  0.666667  0.333333  0.041296  1
  O  O23  1  0.333333  0.666667  0.541296  1
