# generated using pymatgen
data_Er2Fe17
_symmetry_space_group_name_H-M   'P 1'
_cell_length_a   8.50922741
_cell_length_b   8.50922741
_cell_length_c   8.18163527
_cell_angle_alpha   90.00000000
_cell_angle_beta   90.00000000
_cell_angle_gamma   120.00000000
_symmetry_Int_Tables_number   1
_chemical_formula_structural   Er2Fe17
_chemical_formula_sum   'Er4 Fe34'
_cell_volume   513.03974137
_cell_formula_units_Z   2
loop_
 _symmetry_equiv_pos_site_id
 _symmetry_equiv_pos_as_xyz
  1  'x, y, z'
loop_
 _atom_site_type_symbol
 _atom_site_label
 _atom_site_symmetry_multiplicity
 _atom_site_fract_x
 _atom_site_fract_y
 _atom_site_fract_z
 _atom_site_occupancy
  Er  Er0  1  0.000000  0.000000  0.750000  1
  Er  Er1  1  0.000000  0.000000  0.250000  1
  Er  Er2  1  0.666667  0.333333  0.250000  1
  Er  Er3  1  0.333333  0.666667  0.750000  1
  Fe  Fe4  1  0.666667  0.333333  0.605048  1
  Fe  Fe5  1  0.333333  0.666667  0.394952  1
  Fe  Fe6  1  0.333333  0.666667  0.105048  1
  Fe  Fe7  1  0.666667  0.333333  0.894952  1
  Fe  Fe8  1  0.500000  0.000000  0.500000  1
  Fe  Fe9  1  0.500000  0.500000  0.500000  1
  Fe  Fe10  1  0.000000  0.500000  0.500000  1
  Fe  Fe11  1  0.500000  0.000000  0.000000  1
  Fe  Fe12  1  0.500000  0.500000  0.000000  1
  Fe  Fe13  1  0.000000  0.500000  0.000000  1
  Fe  Fe14  1  0.670913  0.038596  0.750000  1
  Fe  Fe15  1  0.367683  0.329087  0.750000  1
  Fe  Fe16  1  0.961404  0.632317  0.750000  1
  Fe  Fe17  1  0.367683  0.038596  0.750000  1
  Fe  Fe18  1  0.961404  0.329087  0.750000  1
  Fe  Fe19  1  0.670913  0.632317  0.750000  1
  Fe  Fe20  1  0.329087  0.961404  0.250000  1
  Fe  Fe21  1  0.632317  0.670913  0.250000  1
  Fe  Fe22  1  0.038596  0.367683  0.250000  1
  Fe  Fe23  1  0.632317  0.961404  0.250000  1
  Fe  Fe24  1  0.038596  0.670913  0.250000  1
  Fe  Fe25  1  0.329087  0.367683  0.250000  1
  Fe  Fe26  1  0.834220  0.668441  0.483264  1
  Fe  Fe27  1  0.834220  0.165780  0.483264  1
  Fe  Fe28  1  0.331559  0.165780  0.483264  1
  Fe  Fe29  1  0.165780  0.331559  0.516736  1
  Fe  Fe30  1  0.165780  0.834220  0.516736  1
  Fe  Fe31  1  0.668441  0.834220  0.516736  1
  Fe  Fe32  1  0.165780  0.331559  0.983264  1
  Fe  Fe33  1  0.165780  0.834220  0.983264  1
  Fe  Fe34  1  0.668441  0.834220  0.983264  1
  Fe  Fe35  1  0.834220  0.668441  0.016736  1
  Fe  Fe36  1  0.834220  0.165780  0.016736  1
  Fe  Fe37  1  0.331559  0.165780  0.016736  1
