# generated using pymatgen
data_Ba3Ga3N5
_symmetry_space_group_name_H-M   'P 1'
_cell_length_a   9.48055723
_cell_length_b   9.48055723
_cell_length_c   11.78328426
_cell_angle_alpha   72.28277353
_cell_angle_beta   107.71722647
_cell_angle_gamma   127.30820102
_symmetry_Int_Tables_number   1
_chemical_formula_structural   Ba3Ga3N5
_chemical_formula_sum   'Ba12 Ga12 N20'
_cell_volume   792.32757622
_cell_formula_units_Z   4
loop_
 _symmetry_equiv_pos_site_id
 _symmetry_equiv_pos_as_xyz
  1  'x, y, z'
loop_
 _atom_site_type_symbol
 _atom_site_label
 _atom_site_symmetry_multiplicity
 _atom_site_fract_x
 _atom_site_fract_y
 _atom_site_fract_z
 _atom_site_occupancy
  Ba  Ba0  1  0.654727  0.654727  0.750000  1
  Ba  Ba1  1  0.345273  0.345273  0.250000  1
  Ba  Ba2  1  0.161594  0.161594  0.750000  1
  Ba  Ba3  1  0.838406  0.838406  0.250000  1
  Ba  Ba4  1  0.721081  0.098795  0.615377  1
  Ba  Ba5  1  0.098795  0.721081  0.884623  1
  Ba  Ba6  1  0.278919  0.901205  0.384623  1
  Ba  Ba7  1  0.901205  0.278919  0.115377  1
  Ba  Ba8  1  0.169944  0.581203  0.663065  1
  Ba  Ba9  1  0.581203  0.169944  0.836935  1
  Ba  Ba10  1  0.830056  0.418797  0.336935  1
  Ba  Ba11  1  0.418797  0.830056  0.163065  1
  Ga  Ga12  1  0.015091  0.855585  0.557053  1
  Ga  Ga13  1  0.855585  0.015091  0.942947  1
  Ga  Ga14  1  0.984909  0.144415  0.442947  1
  Ga  Ga15  1  0.144415  0.984909  0.057053  1
  Ga  Ga16  1  0.647239  0.842633  0.450454  1
  Ga  Ga17  1  0.842633  0.647239  0.049546  1
  Ga  Ga18  1  0.352761  0.157367  0.549546  1
  Ga  Ga19  1  0.157367  0.352761  0.950454  1
  Ga  Ga20  1  0.647341  0.488651  0.498182  1
  Ga  Ga21  1  0.488651  0.647341  0.001818  1
  Ga  Ga22  1  0.352659  0.511349  0.501818  1
  Ga  Ga23  1  0.511349  0.352659  0.998182  1
  N  N24  1  0.528653  0.619198  0.382606  1
  N  N25  1  0.619198  0.528653  0.117394  1
  N  N26  1  0.471347  0.380802  0.617394  1
  N  N27  1  0.380802  0.471347  0.882606  1
  N  N28  1  0.868818  0.928858  0.579286  1
  N  N29  1  0.928858  0.868818  0.920714  1
  N  N30  1  0.131182  0.071142  0.420714  1
  N  N31  1  0.071142  0.131182  0.079286  1
  N  N32  1  0.750660  0.065022  0.326189  1
  N  N33  1  0.065022  0.750660  0.173811  1
  N  N34  1  0.249340  0.934978  0.673811  1
  N  N35  1  0.934978  0.249340  0.826189  1
  N  N36  1  0.452156  0.754743  0.539682  1
  N  N37  1  0.754743  0.452156  0.960318  1
  N  N38  1  0.547844  0.245257  0.460318  1
  N  N39  1  0.245257  0.547844  0.039682  1
  N  N40  1  0.905538  0.631783  0.502207  1
  N  N41  1  0.631783  0.905538  0.997793  1
  N  N42  1  0.094462  0.368217  0.497793  1
  N  N43  1  0.368217  0.094462  0.002207  1
