# generated using pymatgen
data_LiMo3P3O13
_symmetry_space_group_name_H-M   'P 1'
_cell_length_a   7.67750810
_cell_length_b   6.66563737
_cell_length_c   10.96544357
_cell_angle_alpha   90.00000000
_cell_angle_beta   99.38250715
_cell_angle_gamma   90.00000000
_symmetry_Int_Tables_number   1
_chemical_formula_structural   LiMo3P3O13
_chemical_formula_sum   'Li2 Mo6 P6 O26'
_cell_volume   553.65465681
_cell_formula_units_Z   2
loop_
 _symmetry_equiv_pos_site_id
 _symmetry_equiv_pos_as_xyz
  1  'x, y, z'
loop_
 _atom_site_type_symbol
 _atom_site_label
 _atom_site_symmetry_multiplicity
 _atom_site_fract_x
 _atom_site_fract_y
 _atom_site_fract_z
 _atom_site_occupancy
  Li  Li0  1  0.417895  0.750000  0.866018  1
  Li  Li1  1  0.582105  0.250000  0.133982  1
  Mo  Mo2  1  0.639501  0.250000  0.797626  1
  Mo  Mo3  1  0.360499  0.750000  0.202374  1
  Mo  Mo4  1  0.233961  0.250000  0.548016  1
  Mo  Mo5  1  0.000000  0.500000  0.000000  1
  Mo  Mo6  1  0.766039  0.750000  0.451984  1
  Mo  Mo7  1  0.000000  0.000000  0.000000  1
  P  P8  1  0.787168  0.250000  0.518046  1
  P  P9  1  0.212832  0.750000  0.481954  1
  P  P10  1  0.264859  0.250000  0.226539  1
  P  P11  1  0.735141  0.750000  0.773461  1
  P  P12  1  0.693303  0.750000  0.122705  1
  P  P13  1  0.306697  0.250000  0.877295  1
  O  O14  1  0.647189  0.750000  0.257621  1
  O  O15  1  0.258778  0.563843  0.562703  1
  O  O16  1  0.206863  0.250000  0.351801  1
  O  O17  1  0.788649  0.555037  0.100183  1
  O  O18  1  0.336382  0.750000  0.379405  1
  O  O19  1  0.135859  0.750000  0.094562  1
  O  O20  1  0.663618  0.250000  0.620595  1
  O  O21  1  0.211351  0.055037  0.899817  1
  O  O22  1  0.978748  0.250000  0.588499  1
  O  O23  1  0.021252  0.750000  0.411501  1
  O  O24  1  0.379145  0.068039  0.200648  1
  O  O25  1  0.864141  0.250000  0.905438  1
  O  O26  1  0.620855  0.568039  0.799352  1
  O  O27  1  0.500119  0.750000  0.048886  1
  O  O28  1  0.793137  0.750000  0.648199  1
  O  O29  1  0.211351  0.444963  0.899817  1
  O  O30  1  0.258778  0.936157  0.562703  1
  O  O31  1  0.741222  0.436157  0.437297  1
  O  O32  1  0.379145  0.431961  0.200648  1
  O  O33  1  0.352811  0.250000  0.742379  1
  O  O34  1  0.906876  0.750000  0.877265  1
  O  O35  1  0.093124  0.250000  0.122735  1
  O  O36  1  0.620855  0.931961  0.799352  1
  O  O37  1  0.788649  0.944963  0.100183  1
  O  O38  1  0.741222  0.063843  0.437297  1
  O  O39  1  0.499881  0.250000  0.951114  1
