# generated using pymatgen
data_LaSnF7
_symmetry_space_group_name_H-M   'P 1'
_cell_length_a   9.39116512
_cell_length_b   5.87197396
_cell_length_c   12.60866383
_cell_angle_alpha   90.00000000
_cell_angle_beta   117.88686236
_cell_angle_gamma   90.00000000
_symmetry_Int_Tables_number   1
_chemical_formula_structural   LaSnF7
_chemical_formula_sum   'La4 Sn4 F28'
_cell_volume   614.55744211
_cell_formula_units_Z   4
loop_
 _symmetry_equiv_pos_site_id
 _symmetry_equiv_pos_as_xyz
  1  'x, y, z'
loop_
 _atom_site_type_symbol
 _atom_site_label
 _atom_site_symmetry_multiplicity
 _atom_site_fract_x
 _atom_site_fract_y
 _atom_site_fract_z
 _atom_site_occupancy
  La  La0  1  0.811061  0.758135  0.734918  1
  La  La1  1  0.188939  0.258135  0.765082  1
  La  La2  1  0.188939  0.241865  0.265082  1
  La  La3  1  0.811061  0.741865  0.234918  1
  Sn  Sn4  1  0.726256  0.244372  0.457126  1
  Sn  Sn5  1  0.273744  0.744372  0.042874  1
  Sn  Sn6  1  0.273744  0.755628  0.542874  1
  Sn  Sn7  1  0.726256  0.255628  0.957126  1
  F  F8  1  0.715127  0.962717  0.543603  1
  F  F9  1  0.284873  0.462717  0.956397  1
  F  F10  1  0.284873  0.037283  0.456397  1
  F  F11  1  0.715127  0.537283  0.043603  1
  F  F12  1  0.709342  0.052747  0.078220  1
  F  F13  1  0.290658  0.552747  0.421780  1
  F  F14  1  0.290658  0.947253  0.921780  1
  F  F15  1  0.709342  0.447253  0.578220  1
  F  F16  1  0.513447  0.733871  0.139055  1
  F  F17  1  0.486553  0.233871  0.360945  1
  F  F18  1  0.486553  0.266129  0.860945  1
  F  F19  1  0.513447  0.766129  0.639055  1
  F  F20  1  0.033655  0.739538  0.948112  1
  F  F21  1  0.966345  0.239538  0.551888  1
  F  F22  1  0.966345  0.260462  0.051888  1
  F  F23  1  0.033655  0.760462  0.448112  1
  F  F24  1  0.743107  0.047452  0.332968  1
  F  F25  1  0.256893  0.547452  0.167032  1
  F  F26  1  0.256893  0.952548  0.667032  1
  F  F27  1  0.743107  0.452548  0.832968  1
  F  F28  1  0.268549  0.015802  0.137219  1
  F  F29  1  0.731451  0.515802  0.362781  1
  F  F30  1  0.731451  0.984198  0.862781  1
  F  F31  1  0.268549  0.484198  0.637219  1
  F  F32  1  0.968904  0.085396  0.767355  1
  F  F33  1  0.031096  0.585396  0.732645  1
  F  F34  1  0.031096  0.914604  0.232645  1
  F  F35  1  0.968904  0.414604  0.267355  1
