# generated using pymatgen
data_Dy(Ni2As)2
_symmetry_space_group_name_H-M   'P 1'
_cell_length_a   7.24707940
_cell_length_b   7.24707940
_cell_length_c   3.76934626
_cell_angle_alpha   90.00000000
_cell_angle_beta   90.00000000
_cell_angle_gamma   90.00000000
_symmetry_Int_Tables_number   1
_chemical_formula_structural   Dy(Ni2As)2
_chemical_formula_sum   'Dy2 Ni8 As4'
_cell_volume   197.96666803
_cell_formula_units_Z   2
loop_
 _symmetry_equiv_pos_site_id
 _symmetry_equiv_pos_as_xyz
  1  'x, y, z'
loop_
 _atom_site_type_symbol
 _atom_site_label
 _atom_site_symmetry_multiplicity
 _atom_site_fract_x
 _atom_site_fract_y
 _atom_site_fract_z
 _atom_site_occupancy
  Dy  Dy0  1  0.000000  0.000000  0.000000  1
  Dy  Dy1  1  0.500000  0.500000  0.500000  1
  Ni  Ni2  1  0.346084  0.911774  0.500000  1
  Ni  Ni3  1  0.411774  0.153916  0.000000  1
  Ni  Ni4  1  0.846084  0.588226  0.000000  1
  Ni  Ni5  1  0.088226  0.653916  0.500000  1
  Ni  Ni6  1  0.911774  0.346084  0.500000  1
  Ni  Ni7  1  0.588226  0.846084  0.000000  1
  Ni  Ni8  1  0.653916  0.088226  0.500000  1
  Ni  Ni9  1  0.153916  0.411774  0.000000  1
  As  As10  1  0.217916  0.217916  0.500000  1
  As  As11  1  0.782084  0.782084  0.500000  1
  As  As12  1  0.282084  0.717916  0.000000  1
  As  As13  1  0.717916  0.282084  0.000000  1
