# generated using pymatgen
data_Ba3CoRu2O9
_symmetry_space_group_name_H-M   'P 1'
_cell_length_a   5.80034122
_cell_length_b   5.80034122
_cell_length_c   14.30015132
_cell_angle_alpha   90.00000000
_cell_angle_beta   90.00000000
_cell_angle_gamma   120.00000000
_symmetry_Int_Tables_number   1
_chemical_formula_structural   Ba3CoRu2O9
_chemical_formula_sum   'Ba6 Co2 Ru4 O18'
_cell_volume   416.65668170
_cell_formula_units_Z   2
loop_
 _symmetry_equiv_pos_site_id
 _symmetry_equiv_pos_as_xyz
  1  'x, y, z'
loop_
 _atom_site_type_symbol
 _atom_site_label
 _atom_site_symmetry_multiplicity
 _atom_site_fract_x
 _atom_site_fract_y
 _atom_site_fract_z
 _atom_site_occupancy
  Ba  Ba0  1  0.000000  0.000000  0.750000  1
  Ba  Ba1  1  0.000000  0.000000  0.250000  1
  Ba  Ba2  1  0.333333  0.666667  0.910215  1
  Ba  Ba3  1  0.666667  0.333333  0.410215  1
  Ba  Ba4  1  0.666667  0.333333  0.089785  1
  Ba  Ba5  1  0.333333  0.666667  0.589785  1
  Co  Co6  1  0.000000  0.000000  0.000000  1
  Co  Co7  1  0.000000  0.000000  0.500000  1
  Ru  Ru8  1  0.333333  0.666667  0.153292  1
  Ru  Ru9  1  0.666667  0.333333  0.653292  1
  Ru  Ru10  1  0.666667  0.333333  0.846708  1
  Ru  Ru11  1  0.333333  0.666667  0.346708  1
  O  O12  1  0.517975  0.482025  0.750000  1
  O  O13  1  0.482025  0.517975  0.250000  1
  O  O14  1  0.517975  0.035951  0.750000  1
  O  O15  1  0.482025  0.964049  0.250000  1
  O  O16  1  0.035951  0.517975  0.250000  1
  O  O17  1  0.964049  0.482025  0.750000  1
  O  O18  1  0.836108  0.163892  0.919432  1
  O  O19  1  0.163892  0.836108  0.419432  1
  O  O20  1  0.163892  0.836108  0.080568  1
  O  O21  1  0.836108  0.163892  0.580568  1
  O  O22  1  0.327785  0.163892  0.919432  1
  O  O23  1  0.672215  0.836108  0.419432  1
  O  O24  1  0.163892  0.327785  0.080568  1
  O  O25  1  0.836108  0.672215  0.580568  1
  O  O26  1  0.672215  0.836108  0.080568  1
  O  O27  1  0.327785  0.163892  0.580568  1
  O  O28  1  0.836108  0.672215  0.919432  1
  O  O29  1  0.163892  0.327785  0.419432  1
