# generated using pymatgen
data_Ba2HgS3
_symmetry_space_group_name_H-M   'P 1'
_cell_length_a   4.40863738
_cell_length_b   9.06836905
_cell_length_c   17.53796720
_cell_angle_alpha   90.00000000
_cell_angle_beta   90.00000000
_cell_angle_gamma   90.00000000
_symmetry_Int_Tables_number   1
_chemical_formula_structural   Ba2HgS3
_chemical_formula_sum   'Ba8 Hg4 S12'
_cell_volume   701.15303488
_cell_formula_units_Z   4
loop_
 _symmetry_equiv_pos_site_id
 _symmetry_equiv_pos_as_xyz
  1  'x, y, z'
loop_
 _atom_site_type_symbol
 _atom_site_label
 _atom_site_symmetry_multiplicity
 _atom_site_fract_x
 _atom_site_fract_y
 _atom_site_fract_z
 _atom_site_occupancy
  Ba  Ba0  1  0.250000  0.259943  0.960660  1
  Ba  Ba1  1  0.250000  0.422155  0.216151  1
  Ba  Ba2  1  0.750000  0.077845  0.716151  1
  Ba  Ba3  1  0.250000  0.922155  0.283849  1
  Ba  Ba4  1  0.250000  0.759943  0.539340  1
  Ba  Ba5  1  0.750000  0.240057  0.460660  1
  Ba  Ba6  1  0.750000  0.740057  0.039340  1
  Ba  Ba7  1  0.750000  0.577845  0.783849  1
  Hg  Hg8  1  0.750000  0.623800  0.366973  1
  Hg  Hg9  1  0.250000  0.376200  0.633027  1
  Hg  Hg10  1  0.750000  0.123800  0.133027  1
  Hg  Hg11  1  0.250000  0.876200  0.866973  1
  S  S12  1  0.250000  0.814529  0.722288  1
  S  S13  1  0.750000  0.185471  0.277712  1
  S  S14  1  0.250000  0.314529  0.777712  1
  S  S15  1  0.750000  0.685471  0.222288  1
  S  S16  1  0.250000  0.983485  0.096242  1
  S  S17  1  0.750000  0.016515  0.903758  1
  S  S18  1  0.250000  0.483485  0.403758  1
  S  S19  1  0.750000  0.516515  0.596242  1
  S  S20  1  0.250000  0.617563  0.928250  1
  S  S21  1  0.750000  0.882437  0.428250  1
  S  S22  1  0.250000  0.117563  0.571750  1
  S  S23  1  0.750000  0.382437  0.071750  1
