# generated using pymatgen
data_KCdC3(NO)3
_symmetry_space_group_name_H-M   'P 1'
_cell_length_a   3.77321410
_cell_length_b   10.22360202
_cell_length_c   18.55489656
_cell_angle_alpha   90.00000000
_cell_angle_beta   90.00000000
_cell_angle_gamma   90.00000000
_symmetry_Int_Tables_number   1
_chemical_formula_structural   KCdC3(NO)3
_chemical_formula_sum   'K4 Cd4 C12 N12 O12'
_cell_volume   715.77070783
_cell_formula_units_Z   4
loop_
 _symmetry_equiv_pos_site_id
 _symmetry_equiv_pos_as_xyz
  1  'x, y, z'
loop_
 _atom_site_type_symbol
 _atom_site_label
 _atom_site_symmetry_multiplicity
 _atom_site_fract_x
 _atom_site_fract_y
 _atom_site_fract_z
 _atom_site_occupancy
  K  K0  1  0.750000  0.927775  0.664715  1
  K  K1  1  0.250000  0.072225  0.335285  1
  K  K2  1  0.750000  0.427775  0.835285  1
  K  K3  1  0.250000  0.572225  0.164715  1
  Cd  Cd4  1  0.750000  0.862191  0.043590  1
  Cd  Cd5  1  0.250000  0.137809  0.956410  1
  Cd  Cd6  1  0.750000  0.362191  0.456410  1
  Cd  Cd7  1  0.250000  0.637809  0.543590  1
  C  C8  1  0.250000  0.584025  0.376462  1
  C  C9  1  0.250000  0.084025  0.123538  1
  C  C10  1  0.750000  0.915975  0.876462  1
  C  C11  1  0.750000  0.415975  0.623538  1
  C  C12  1  0.250000  0.639103  0.970397  1
  C  C13  1  0.750000  0.360897  0.029603  1
  C  C14  1  0.250000  0.139103  0.529603  1
  C  C15  1  0.750000  0.860897  0.470397  1
  C  C16  1  0.750000  0.852478  0.211917  1
  C  C17  1  0.250000  0.147522  0.788083  1
  C  C18  1  0.750000  0.352478  0.288083  1
  C  C19  1  0.250000  0.647522  0.711917  1
  N  N20  1  0.750000  0.285625  0.341603  1
  N  N21  1  0.750000  0.765934  0.509143  1
  N  N22  1  0.250000  0.522672  0.432805  1
  N  N23  1  0.750000  0.477328  0.567195  1
  N  N24  1  0.250000  0.022672  0.067195  1
  N  N25  1  0.750000  0.977328  0.932805  1
  N  N26  1  0.250000  0.734066  0.009143  1
  N  N27  1  0.750000  0.265934  0.990857  1
  N  N28  1  0.750000  0.785625  0.158397  1
  N  N29  1  0.250000  0.214375  0.841603  1
  N  N30  1  0.250000  0.714375  0.658397  1
  N  N31  1  0.250000  0.234066  0.490857  1
  O  O32  1  0.250000  0.043613  0.567748  1
  O  O33  1  0.250000  0.582829  0.766431  1
  O  O34  1  0.750000  0.356834  0.679126  1
  O  O35  1  0.250000  0.143166  0.179126  1
  O  O36  1  0.750000  0.956387  0.432252  1
  O  O37  1  0.750000  0.856834  0.820874  1
  O  O38  1  0.250000  0.543613  0.932252  1
  O  O39  1  0.750000  0.456387  0.067748  1
  O  O40  1  0.750000  0.917171  0.266431  1
  O  O41  1  0.250000  0.082829  0.733569  1
  O  O42  1  0.250000  0.643166  0.320874  1
  O  O43  1  0.750000  0.417171  0.233569  1
