# generated using pymatgen
data_Na3Li2Al(SiO4)2
_symmetry_space_group_name_H-M   'P 1'
_cell_length_a   10.30263761
_cell_length_b   10.30263761
_cell_length_c   7.15377022
_cell_angle_alpha   90.00000000
_cell_angle_beta   90.00000000
_cell_angle_gamma   92.46139268
_symmetry_Int_Tables_number   1
_chemical_formula_structural   Na3Li2Al(SiO4)2
_chemical_formula_sum   'Na12 Li8 Al4 Si8 O32'
_cell_volume   758.63166082
_cell_formula_units_Z   4
loop_
 _symmetry_equiv_pos_site_id
 _symmetry_equiv_pos_as_xyz
  1  'x, y, z'
loop_
 _atom_site_type_symbol
 _atom_site_label
 _atom_site_symmetry_multiplicity
 _atom_site_fract_x
 _atom_site_fract_y
 _atom_site_fract_z
 _atom_site_occupancy
  Na  Na0  1  0.622652  0.622652  0.500000  1
  Na  Na1  1  0.122652  0.122652  0.000000  1
  Na  Na2  1  0.377348  0.377348  0.500000  1
  Na  Na3  1  0.877348  0.877348  0.000000  1
  Na  Na4  1  0.402350  0.097650  0.250000  1
  Na  Na5  1  0.097650  0.402350  0.750000  1
  Na  Na6  1  0.597650  0.902350  0.750000  1
  Na  Na7  1  0.902350  0.597650  0.250000  1
  Na  Na8  1  0.634185  0.365815  0.747891  1
  Na  Na9  1  0.365815  0.634185  0.252109  1
  Na  Na10  1  0.865815  0.134185  0.247891  1
  Na  Na11  1  0.134185  0.865815  0.752109  1
  Li  Li12  1  0.336999  0.851721  0.014120  1
  Li  Li13  1  0.851721  0.336999  0.985880  1
  Li  Li14  1  0.351721  0.836999  0.514120  1
  Li  Li15  1  0.836999  0.351721  0.485880  1
  Li  Li16  1  0.663001  0.148279  0.985880  1
  Li  Li17  1  0.148279  0.663001  0.014120  1
  Li  Li18  1  0.648279  0.163001  0.485880  1
  Li  Li19  1  0.163001  0.648279  0.514120  1
  Al  Al20  1  0.661909  0.661909  0.000000  1
  Al  Al21  1  0.161909  0.161909  0.500000  1
  Al  Al22  1  0.338091  0.338091  0.000000  1
  Al  Al23  1  0.838091  0.838091  0.500000  1
  Si  Si24  1  0.401917  0.598083  0.784692  1
  Si  Si25  1  0.598083  0.401917  0.215308  1
  Si  Si26  1  0.098083  0.901917  0.284692  1
  Si  Si27  1  0.901917  0.098083  0.715308  1
  Si  Si28  1  0.595499  0.904501  0.250000  1
  Si  Si29  1  0.904501  0.595499  0.750000  1
  Si  Si30  1  0.404501  0.095499  0.750000  1
  Si  Si31  1  0.095499  0.404501  0.250000  1
  O  O32  1  0.328784  0.671216  0.950116  1
  O  O33  1  0.671216  0.328784  0.049884  1
  O  O34  1  0.171216  0.828784  0.450116  1
  O  O35  1  0.828784  0.171216  0.549884  1
  O  O36  1  0.366022  0.633978  0.569215  1
  O  O37  1  0.633978  0.366022  0.430785  1
  O  O38  1  0.133978  0.866022  0.069215  1
  O  O39  1  0.866022  0.133978  0.930785  1
  O  O40  1  0.564250  0.622984  0.804762  1
  O  O41  1  0.622984  0.564250  0.195238  1
  O  O42  1  0.122984  0.064250  0.304762  1
  O  O43  1  0.064250  0.122984  0.695238  1
  O  O44  1  0.435750  0.377016  0.195238  1
  O  O45  1  0.377016  0.435750  0.804762  1
  O  O46  1  0.877016  0.935750  0.695238  1
  O  O47  1  0.935750  0.877016  0.304762  1
  O  O48  1  0.671317  0.847019  0.438967  1
  O  O49  1  0.847019  0.671317  0.561033  1
  O  O50  1  0.347019  0.171317  0.938967  1
  O  O51  1  0.171317  0.347019  0.061033  1
  O  O52  1  0.328683  0.152981  0.561033  1
  O  O53  1  0.152981  0.328683  0.438967  1
  O  O54  1  0.652981  0.828683  0.061033  1
  O  O55  1  0.828683  0.652981  0.938967  1
  O  O56  1  0.439413  0.871231  0.267176  1
  O  O57  1  0.871231  0.439413  0.732824  1
  O  O58  1  0.371231  0.939413  0.767176  1
  O  O59  1  0.939413  0.371231  0.232824  1
  O  O60  1  0.560587  0.128769  0.732824  1
  O  O61  1  0.128769  0.560587  0.267176  1
  O  O62  1  0.628769  0.060587  0.232824  1
  O  O63  1  0.060587  0.628769  0.767176  1
