# generated using pymatgen
data_ScTlTe2
_symmetry_space_group_name_H-M   'P 1'
_cell_length_a   8.50831939
_cell_length_b   8.50831939
_cell_length_c   8.50831939
_cell_angle_alpha   29.06636901
_cell_angle_beta   29.06636901
_cell_angle_gamma   29.06636901
_symmetry_Int_Tables_number   1
_chemical_formula_structural   ScTlTe2
_chemical_formula_sum   'Sc1 Tl1 Te2'
_cell_volume   128.59408468
_cell_formula_units_Z   1
loop_
 _symmetry_equiv_pos_site_id
 _symmetry_equiv_pos_as_xyz
  1  'x, y, z'
loop_
 _atom_site_type_symbol
 _atom_site_label
 _atom_site_symmetry_multiplicity
 _atom_site_fract_x
 _atom_site_fract_y
 _atom_site_fract_z
 _atom_site_occupancy
  Sc  Sc0  1  0.000000  0.000000  0.000000  1
  Tl  Tl1  1  0.500000  0.500000  0.500000  1
  Te  Te2  1  0.265906  0.265906  0.265906  1
  Te  Te3  1  0.734094  0.734094  0.734094  1
