# generated using pymatgen
data_TaAlO4
_symmetry_space_group_name_H-M   'P 1'
_cell_length_a   6.42400180
_cell_length_b   6.42400180
_cell_length_c   6.51563868
_cell_angle_alpha   73.13489363
_cell_angle_beta   106.86510637
_cell_angle_gamma   145.47034912
_symmetry_Int_Tables_number   1
_chemical_formula_structural   TaAlO4
_chemical_formula_sum   'Ta2 Al2 O8'
_cell_volume   145.20931835
_cell_formula_units_Z   2
loop_
 _symmetry_equiv_pos_site_id
 _symmetry_equiv_pos_as_xyz
  1  'x, y, z'
loop_
 _atom_site_type_symbol
 _atom_site_label
 _atom_site_symmetry_multiplicity
 _atom_site_fract_x
 _atom_site_fract_y
 _atom_site_fract_z
 _atom_site_occupancy
  Ta  Ta0  1  0.894430  0.105570  0.766918  1
  Ta  Ta1  1  0.105570  0.894430  0.233082  1
  Al  Al2  1  0.799309  0.200691  0.179615  1
  Al  Al3  1  0.200691  0.799309  0.820385  1
  O  O4  1  0.358294  0.641706  0.796616  1
  O  O5  1  0.641706  0.358294  0.203384  1
  O  O6  1  0.942679  0.057321  0.136118  1
  O  O7  1  0.057321  0.942679  0.863882  1
  O  O8  1  0.141141  0.858859  0.525838  1
  O  O9  1  0.858859  0.141141  0.474162  1
  O  O10  1  0.261942  0.738058  0.141748  1
  O  O11  1  0.738058  0.261942  0.858252  1
