# generated using pymatgen
data_BaHg11
_symmetry_space_group_name_H-M   'P 1'
_cell_length_a   10.15789202
_cell_length_b   10.15789202
_cell_length_c   10.15789202
_cell_angle_alpha   90.00000000
_cell_angle_beta   90.00000000
_cell_angle_gamma   90.00000000
_symmetry_Int_Tables_number   1
_chemical_formula_structural   BaHg11
_chemical_formula_sum   'Ba3 Hg33'
_cell_volume   1048.11943893
_cell_formula_units_Z   3
loop_
 _symmetry_equiv_pos_site_id
 _symmetry_equiv_pos_as_xyz
  1  'x, y, z'
loop_
 _atom_site_type_symbol
 _atom_site_label
 _atom_site_symmetry_multiplicity
 _atom_site_fract_x
 _atom_site_fract_y
 _atom_site_fract_z
 _atom_site_occupancy
  Ba  Ba0  1  0.000000  0.000000  0.500000  1
  Ba  Ba1  1  0.000000  0.500000  0.000000  1
  Ba  Ba2  1  0.500000  0.000000  0.000000  1
  Hg  Hg3  1  0.500000  0.500000  0.500000  1
  Hg  Hg4  1  0.152774  0.152774  0.152774  1
  Hg  Hg5  1  0.152774  0.847226  0.152774  1
  Hg  Hg6  1  0.152774  0.152774  0.847226  1
  Hg  Hg7  1  0.847226  0.152774  0.152774  1
  Hg  Hg8  1  0.847226  0.847226  0.152774  1
  Hg  Hg9  1  0.152774  0.847226  0.847226  1
  Hg  Hg10  1  0.847226  0.152774  0.847226  1
  Hg  Hg11  1  0.847226  0.847226  0.847226  1
  Hg  Hg12  1  0.344159  0.344159  0.000000  1
  Hg  Hg13  1  0.344159  0.000000  0.344159  1
  Hg  Hg14  1  0.344159  0.000000  0.655841  1
  Hg  Hg15  1  0.000000  0.344159  0.655841  1
  Hg  Hg16  1  0.000000  0.344159  0.344159  1
  Hg  Hg17  1  0.655841  0.344159  0.000000  1
  Hg  Hg18  1  0.344159  0.655841  0.000000  1
  Hg  Hg19  1  0.655841  0.000000  0.344159  1
  Hg  Hg20  1  0.000000  0.655841  0.655841  1
  Hg  Hg21  1  0.655841  0.000000  0.655841  1
  Hg  Hg22  1  0.000000  0.655841  0.344159  1
  Hg  Hg23  1  0.655841  0.655841  0.000000  1
  Hg  Hg24  1  0.266021  0.266021  0.500000  1
  Hg  Hg25  1  0.266021  0.500000  0.266021  1
  Hg  Hg26  1  0.266021  0.500000  0.733979  1
  Hg  Hg27  1  0.500000  0.266021  0.733979  1
  Hg  Hg28  1  0.500000  0.266021  0.266021  1
  Hg  Hg29  1  0.733979  0.266021  0.500000  1
  Hg  Hg30  1  0.266021  0.733979  0.500000  1
  Hg  Hg31  1  0.733979  0.500000  0.266021  1
  Hg  Hg32  1  0.500000  0.733979  0.733979  1
  Hg  Hg33  1  0.733979  0.500000  0.733979  1
  Hg  Hg34  1  0.500000  0.733979  0.266021  1
  Hg  Hg35  1  0.733979  0.733979  0.500000  1
