# generated using pymatgen
data_ErAgSn
_symmetry_space_group_name_H-M   'P 1'
_cell_length_a   7.38169776
_cell_length_b   7.38169776
_cell_length_c   4.48572570
_cell_angle_alpha   90.00000000
_cell_angle_beta   90.00000000
_cell_angle_gamma   120.00000000
_symmetry_Int_Tables_number   1
_chemical_formula_structural   ErAgSn
_chemical_formula_sum   'Er3 Ag3 Sn3'
_cell_volume   211.67806808
_cell_formula_units_Z   3
loop_
 _symmetry_equiv_pos_site_id
 _symmetry_equiv_pos_as_xyz
  1  'x, y, z'
loop_
 _atom_site_type_symbol
 _atom_site_label
 _atom_site_symmetry_multiplicity
 _atom_site_fract_x
 _atom_site_fract_y
 _atom_site_fract_z
 _atom_site_occupancy
  Er  Er0  1  0.000000  0.569824  0.000000  1
  Er  Er1  1  0.430176  0.430176  0.000000  1
  Er  Er2  1  0.569824  0.000000  0.000000  1
  Ag  Ag3  1  0.000000  0.246574  0.500000  1
  Ag  Ag4  1  0.753426  0.753426  0.500000  1
  Ag  Ag5  1  0.246574  0.000000  0.500000  1
  Sn  Sn6  1  0.000000  0.000000  0.000000  1
  Sn  Sn7  1  0.666667  0.333333  0.500000  1
  Sn  Sn8  1  0.333333  0.666667  0.500000  1
