# generated using pymatgen
data_Dy3(CuSi)4
_symmetry_space_group_name_H-M   'P 1'
_cell_length_a   7.87347149
_cell_length_b   7.87347149
_cell_length_c   7.87347149
_cell_angle_alpha   149.49536728
_cell_angle_beta   130.90583778
_cell_angle_gamma   58.90852344
_symmetry_Int_Tables_number   1
_chemical_formula_structural   Dy3(CuSi)4
_chemical_formula_sum   'Dy3 Cu4 Si4'
_cell_volume   185.79429713
_cell_formula_units_Z   1
loop_
 _symmetry_equiv_pos_site_id
 _symmetry_equiv_pos_as_xyz
  1  'x, y, z'
loop_
 _atom_site_type_symbol
 _atom_site_label
 _atom_site_symmetry_multiplicity
 _atom_site_fract_x
 _atom_site_fract_y
 _atom_site_fract_z
 _atom_site_occupancy
  Dy  Dy0  1  0.870244  0.370244  0.500000  1
  Dy  Dy1  1  0.129756  0.629756  0.500000  1
  Dy  Dy2  1  0.500000  0.500000  0.000000  1
  Cu  Cu3  1  0.521688  0.831503  0.690186  1
  Cu  Cu4  1  0.858683  0.168497  0.690186  1
  Cu  Cu5  1  0.141317  0.831503  0.309814  1
  Cu  Cu6  1  0.478312  0.168497  0.309814  1
  Si  Si7  1  0.815668  1.000000  0.815668  1
  Si  Si8  1  0.184332  0.000000  0.184332  1
  Si  Si9  1  0.283804  0.283804  0.000000  1
  Si  Si10  1  0.716196  0.716196  0.000000  1
