# generated using pymatgen
data_BaCo2Si2O7
_symmetry_space_group_name_H-M   'P 1'
_cell_length_a   7.43319346
_cell_length_b   7.43319346
_cell_length_c   13.92592086
_cell_angle_alpha   89.94113949
_cell_angle_beta   90.05886051
_cell_angle_gamma   59.28831119
_symmetry_Int_Tables_number   1
_chemical_formula_structural   BaCo2Si2O7
_chemical_formula_sum   'Ba4 Co8 Si8 O28'
_cell_volume   661.52320362
_cell_formula_units_Z   4
loop_
 _symmetry_equiv_pos_site_id
 _symmetry_equiv_pos_as_xyz
  1  'x, y, z'
loop_
 _atom_site_type_symbol
 _atom_site_label
 _atom_site_symmetry_multiplicity
 _atom_site_fract_x
 _atom_site_fract_y
 _atom_site_fract_z
 _atom_site_occupancy
  Ba  Ba0  1  0.220253  0.818286  0.123183  1
  Ba  Ba1  1  0.818286  0.220253  0.376817  1
  Ba  Ba2  1  0.779747  0.181714  0.876817  1
  Ba  Ba3  1  0.181714  0.779747  0.623183  1
  Co  Co4  1  0.262106  0.199158  0.510035  1
  Co  Co5  1  0.199158  0.262106  0.989965  1
  Co  Co6  1  0.228017  0.228017  0.750000  1
  Co  Co7  1  0.800842  0.737894  0.010035  1
  Co  Co8  1  0.232524  0.232524  0.250000  1
  Co  Co9  1  0.767476  0.767476  0.750000  1
  Co  Co10  1  0.771983  0.771983  0.250000  1
  Co  Co11  1  0.737894  0.800842  0.489965  1
  Si  Si12  1  0.426048  0.788241  0.381416  1
  Si  Si13  1  0.788241  0.426048  0.118584  1
  Si  Si14  1  0.573952  0.211759  0.618584  1
  Si  Si15  1  0.211759  0.573952  0.881416  1
  Si  Si16  1  0.166255  0.588368  0.367425  1
  Si  Si17  1  0.588368  0.166255  0.132575  1
  Si  Si18  1  0.833745  0.411632  0.632575  1
  Si  Si19  1  0.411632  0.833745  0.867425  1
  O  O20  1  0.013010  0.761707  0.446288  1
  O  O21  1  0.761707  0.013010  0.053712  1
  O  O22  1  0.986990  0.238293  0.553712  1
  O  O23  1  0.238293  0.986990  0.946288  1
  O  O24  1  0.080747  0.647891  0.256394  1
  O  O25  1  0.647891  0.080747  0.243606  1
  O  O26  1  0.919253  0.352109  0.743606  1
  O  O27  1  0.352109  0.919253  0.756394  1
  O  O28  1  0.396435  0.578587  0.378113  1
  O  O29  1  0.578587  0.396435  0.121887  1
  O  O30  1  0.603565  0.421413  0.621887  1
  O  O31  1  0.421413  0.603565  0.878113  1
  O  O32  1  0.682073  0.682558  0.366423  1
  O  O33  1  0.682558  0.682073  0.133577  1
  O  O34  1  0.317927  0.317442  0.633577  1
  O  O35  1  0.317442  0.317927  0.866423  1
  O  O36  1  0.383836  0.889450  0.489274  1
  O  O37  1  0.889450  0.383836  0.010726  1
  O  O38  1  0.616164  0.110550  0.510726  1
  O  O39  1  0.110550  0.616164  0.989274  1
  O  O40  1  0.650192  0.792063  0.884823  1
  O  O41  1  0.792063  0.650192  0.615177  1
  O  O42  1  0.349808  0.207937  0.115177  1
  O  O43  1  0.207937  0.349808  0.384823  1
  O  O44  1  0.280953  0.949790  0.297933  1
  O  O45  1  0.719047  0.050210  0.702067  1
  O  O46  1  0.949790  0.280953  0.202067  1
  O  O47  1  0.050210  0.719047  0.797933  1
