# generated using pymatgen
data_Ca8Si5O18
_symmetry_space_group_name_H-M   'P 1'
_cell_length_a   5.13865000
_cell_length_b   11.52175500
_cell_length_c   28.94054900
_cell_angle_alpha   90.00000000
_cell_angle_beta   90.00000000
_cell_angle_gamma   90.00000000
_symmetry_Int_Tables_number   1
_chemical_formula_structural   Ca8Si5O18
_chemical_formula_sum   'Ca32 Si20 O72'
_cell_volume   1713.46185185
_cell_formula_units_Z   4
loop_
 _symmetry_equiv_pos_site_id
 _symmetry_equiv_pos_as_xyz
  1  'x, y, z'
loop_
 _atom_site_type_symbol
 _atom_site_label
 _atom_site_symmetry_multiplicity
 _atom_site_fract_x
 _atom_site_fract_y
 _atom_site_fract_z
 _atom_site_occupancy
  Ca  Ca0  1  0.497613  0.282958  0.942188  1
  Ca  Ca1  1  0.002387  0.217042  0.442188  1
  Ca  Ca2  1  0.997613  0.217042  0.057812  1
  Ca  Ca3  1  0.502387  0.282958  0.557812  1
  Ca  Ca4  1  0.502387  0.717042  0.057812  1
  Ca  Ca5  1  0.997613  0.782958  0.557812  1
  Ca  Ca6  1  0.002387  0.782958  0.942188  1
  Ca  Ca7  1  0.497613  0.717042  0.442188  1
  Ca  Ca8  1  0.000000  0.500000  0.000000  1
  Ca  Ca9  1  0.500000  0.000000  0.500000  1
  Ca  Ca10  1  0.500000  0.000000  0.000000  1
  Ca  Ca11  1  0.000000  0.500000  0.500000  1
  Ca  Ca12  1  0.994223  0.510422  0.877834  1
  Ca  Ca13  1  0.505777  0.989578  0.377834  1
  Ca  Ca14  1  0.494223  0.989578  0.122166  1
  Ca  Ca15  1  0.005777  0.510422  0.622166  1
  Ca  Ca16  1  0.005777  0.489578  0.122166  1
  Ca  Ca17  1  0.494223  0.010422  0.622166  1
  Ca  Ca18  1  0.505777  0.010422  0.877834  1
  Ca  Ca19  1  0.994223  0.489578  0.377834  1
  Ca  Ca20  1  0.506872  0.715304  0.830578  1
  Ca  Ca21  1  0.993128  0.784696  0.330578  1
  Ca  Ca22  1  0.006872  0.784696  0.169422  1
  Ca  Ca23  1  0.493128  0.715304  0.669422  1
  Ca  Ca24  1  0.493128  0.284696  0.169422  1
  Ca  Ca25  1  0.006872  0.215304  0.669422  1
  Ca  Ca26  1  0.993128  0.215304  0.830578  1
  Ca  Ca27  1  0.506872  0.284696  0.330578  1
  Ca  Ca28  1  0.000000  0.485690  0.750000  1
  Ca  Ca29  1  0.500000  0.014310  0.250000  1
  Ca  Ca30  1  0.000000  0.514310  0.250000  1
  Ca  Ca31  1  0.500000  0.985690  0.750000  1
  Si  Si32  1  0.572235  0.595150  0.942313  1
  Si  Si33  1  0.927765  0.904850  0.442313  1
  Si  Si34  1  0.072235  0.904850  0.057687  1
  Si  Si35  1  0.427765  0.595150  0.557687  1
  Si  Si36  1  0.427765  0.404850  0.057687  1
  Si  Si37  1  0.072235  0.095150  0.557687  1
  Si  Si38  1  0.927765  0.095150  0.942313  1
  Si  Si39  1  0.572235  0.404850  0.442313  1
  Si  Si40  1  0.440367  0.405348  0.827101  1
  Si  Si41  1  0.059633  0.094652  0.327101  1
  Si  Si42  1  0.940367  0.094652  0.172899  1
  Si  Si43  1  0.559633  0.405348  0.672899  1
  Si  Si44  1  0.559633  0.594652  0.172899  1
  Si  Si45  1  0.940367  0.905348  0.672899  1
  Si  Si46  1  0.059633  0.905348  0.827101  1
  Si  Si47  1  0.440367  0.594652  0.327101  1
  Si  Si48  1  0.500000  0.237859  0.750000  1
  Si  Si49  1  0.000000  0.262141  0.250000  1
  Si  Si50  1  0.500000  0.762141  0.250000  1
  Si  Si51  1  0.000000  0.737859  0.750000  1
  O  O52  1  0.705525  0.462910  0.940214  1
  O  O53  1  0.794475  0.037090  0.440214  1
  O  O54  1  0.205525  0.037090  0.059786  1
  O  O55  1  0.294475  0.462910  0.559786  1
  O  O56  1  0.294475  0.537090  0.059786  1
  O  O57  1  0.205525  0.962910  0.559786  1
  O  O58  1  0.794475  0.962910  0.940214  1
  O  O59  1  0.705525  0.537090  0.440214  1
  O  O60  1  0.704435  0.663956  0.897687  1
  O  O61  1  0.795565  0.836044  0.397687  1
  O  O62  1  0.204435  0.836044  0.102313  1
  O  O63  1  0.295565  0.663956  0.602313  1
  O  O64  1  0.295565  0.336044  0.102313  1
  O  O65  1  0.204435  0.163956  0.602313  1
  O  O66  1  0.795565  0.163956  0.897687  1
  O  O67  1  0.704435  0.336044  0.397687  1
  O  O68  1  0.701630  0.658384  0.988505  1
  O  O69  1  0.798370  0.841616  0.488505  1
  O  O70  1  0.201630  0.841616  0.011495  1
  O  O71  1  0.298370  0.658384  0.511495  1
  O  O72  1  0.298370  0.341616  0.011495  1
  O  O73  1  0.201630  0.158384  0.511495  1
  O  O74  1  0.798370  0.158384  0.988505  1
  O  O75  1  0.701630  0.341616  0.488505  1
  O  O76  1  0.252488  0.594742  0.940742  1
  O  O77  1  0.247512  0.905258  0.440742  1
  O  O78  1  0.752488  0.905258  0.059258  1
  O  O79  1  0.747512  0.594742  0.559258  1
  O  O80  1  0.747512  0.405258  0.059258  1
  O  O81  1  0.752488  0.094742  0.559258  1
  O  O82  1  0.247512  0.094742  0.940742  1
  O  O83  1  0.252488  0.405258  0.440742  1
  O  O84  1  0.299867  0.343299  0.871817  1
  O  O85  1  0.200133  0.156701  0.371817  1
  O  O86  1  0.799867  0.156701  0.128183  1
  O  O87  1  0.700133  0.343299  0.628183  1
  O  O88  1  0.700133  0.656701  0.128183  1
  O  O89  1  0.799867  0.843299  0.628183  1
  O  O90  1  0.200133  0.843299  0.871817  1
  O  O91  1  0.299867  0.656701  0.371817  1
  O  O92  1  0.307947  0.533216  0.820341  1
  O  O93  1  0.192053  0.966784  0.320341  1
  O  O94  1  0.807947  0.966784  0.179659  1
  O  O95  1  0.692053  0.533216  0.679659  1
  O  O96  1  0.692053  0.466784  0.179659  1
  O  O97  1  0.807947  0.033216  0.679659  1
  O  O98  1  0.192053  0.033216  0.820341  1
  O  O99  1  0.307947  0.466784  0.320341  1
  O  O100  1  0.310877  0.327778  0.781387  1
  O  O101  1  0.189123  0.172222  0.281387  1
  O  O102  1  0.810877  0.172222  0.218613  1
  O  O103  1  0.689123  0.327778  0.718613  1
  O  O104  1  0.689123  0.672222  0.218613  1
  O  O105  1  0.810877  0.827778  0.718613  1
  O  O106  1  0.189123  0.827778  0.781387  1
  O  O107  1  0.310877  0.672222  0.281387  1
  O  O108  1  0.756337  0.400806  0.823705  1
  O  O109  1  0.743663  0.099194  0.323705  1
  O  O110  1  0.256337  0.099194  0.176295  1
  O  O111  1  0.243663  0.400806  0.676295  1
  O  O112  1  0.243663  0.599194  0.176295  1
  O  O113  1  0.256337  0.900806  0.676295  1
  O  O114  1  0.743663  0.900806  0.823705  1
  O  O115  1  0.756337  0.599194  0.323705  1
  O  O116  1  0.676700  0.156512  0.782552  1
  O  O117  1  0.823300  0.343488  0.282552  1
  O  O118  1  0.176700  0.343488  0.217448  1
  O  O119  1  0.323300  0.156512  0.717448  1
  O  O120  1  0.323300  0.843488  0.217448  1
  O  O121  1  0.176700  0.656512  0.717448  1
  O  O122  1  0.823300  0.656512  0.782552  1
  O  O123  1  0.676700  0.843488  0.282552  1
