# generated using pymatgen
data_K2S2O3
_symmetry_space_group_name_H-M   'P 1'
_cell_length_a   10.24837241
_cell_length_b   9.29210023
_cell_length_c   13.51636052
_cell_angle_alpha   90.00000000
_cell_angle_beta   111.88355003
_cell_angle_gamma   90.00000000
_symmetry_Int_Tables_number   1
_chemical_formula_structural   K2S2O3
_chemical_formula_sum   'K16 S16 O24'
_cell_volume   1194.40054560
_cell_formula_units_Z   8
loop_
 _symmetry_equiv_pos_site_id
 _symmetry_equiv_pos_as_xyz
  1  'x, y, z'
loop_
 _atom_site_type_symbol
 _atom_site_label
 _atom_site_symmetry_multiplicity
 _atom_site_fract_x
 _atom_site_fract_y
 _atom_site_fract_z
 _atom_site_occupancy
  K  K0  1  0.417349  0.811022  0.553047  1
  K  K1  1  0.582651  0.311022  0.946953  1
  K  K2  1  0.582651  0.188978  0.446953  1
  K  K3  1  0.417349  0.688978  0.053047  1
  K  K4  1  0.216044  0.511627  0.694780  1
  K  K5  1  0.783956  0.011627  0.805220  1
  K  K6  1  0.783956  0.488373  0.305220  1
  K  K7  1  0.216044  0.988373  0.194780  1
  K  K8  1  0.878819  0.825093  0.539639  1
  K  K9  1  0.121181  0.325093  0.960361  1
  K  K10  1  0.121181  0.174907  0.460361  1
  K  K11  1  0.878819  0.674907  0.039639  1
  K  K12  1  0.264956  0.990906  0.793994  1
  K  K13  1  0.735044  0.490906  0.706006  1
  K  K14  1  0.735044  0.009094  0.206006  1
  K  K15  1  0.264956  0.509094  0.293994  1
  S  S16  1  0.095200  0.848852  0.942605  1
  S  S17  1  0.904800  0.348852  0.557395  1
  S  S18  1  0.904800  0.151148  0.057395  1
  S  S19  1  0.095200  0.651148  0.442605  1
  S  S20  1  0.591778  0.884840  0.935346  1
  S  S21  1  0.408222  0.384840  0.564654  1
  S  S22  1  0.408222  0.115160  0.064654  1
  S  S23  1  0.591778  0.615160  0.435346  1
  S  S24  1  0.058940  0.666028  0.854273  1
  S  S25  1  0.941060  0.166028  0.645727  1
  S  S26  1  0.941060  0.333972  0.145727  1
  S  S27  1  0.058940  0.833972  0.354273  1
  S  S28  1  0.543174  0.728895  0.821429  1
  S  S29  1  0.456826  0.228895  0.678571  1
  S  S30  1  0.456826  0.271105  0.178571  1
  S  S31  1  0.543174  0.771105  0.321429  1
  O  O32  1  0.193751  0.583835  0.884972  1
  O  O33  1  0.806249  0.083835  0.615028  1
  O  O34  1  0.806249  0.416165  0.115028  1
  O  O35  1  0.193751  0.916165  0.384972  1
  O  O36  1  0.046364  0.076941  0.621527  1
  O  O37  1  0.953636  0.576941  0.878473  1
  O  O38  1  0.953636  0.923059  0.378473  1
  O  O39  1  0.046364  0.423059  0.121527  1
  O  O40  1  0.006976  0.705333  0.739294  1
  O  O41  1  0.993024  0.205333  0.760706  1
  O  O42  1  0.993024  0.294667  0.260706  1
  O  O43  1  0.006976  0.794667  0.239294  1
  O  O44  1  0.391845  0.745145  0.751196  1
  O  O45  1  0.608155  0.245145  0.748804  1
  O  O46  1  0.608155  0.254855  0.248804  1
  O  O47  1  0.391845  0.754855  0.251196  1
  O  O48  1  0.632336  0.750053  0.756760  1
  O  O49  1  0.367664  0.250053  0.743240  1
  O  O50  1  0.367664  0.249947  0.243240  1
  O  O51  1  0.632336  0.749947  0.256760  1
  O  O52  1  0.570953  0.586854  0.875760  1
  O  O53  1  0.429047  0.086854  0.624240  1
  O  O54  1  0.429047  0.413146  0.124240  1
  O  O55  1  0.570953  0.913146  0.375760  1
