# generated using pymatgen
data_CaV2O5
_symmetry_space_group_name_H-M   'P 1'
_cell_length_a   3.61229637
_cell_length_b   5.08260486
_cell_length_c   11.52983825
_cell_angle_alpha   90.00000000
_cell_angle_beta   90.00000000
_cell_angle_gamma   90.00000000
_symmetry_Int_Tables_number   1
_chemical_formula_structural   CaV2O5
_chemical_formula_sum   'Ca2 V4 O10'
_cell_volume   211.68639003
_cell_formula_units_Z   2
loop_
 _symmetry_equiv_pos_site_id
 _symmetry_equiv_pos_as_xyz
  1  'x, y, z'
loop_
 _atom_site_type_symbol
 _atom_site_label
 _atom_site_symmetry_multiplicity
 _atom_site_fract_x
 _atom_site_fract_y
 _atom_site_fract_z
 _atom_site_occupancy
  Ca  Ca0  1  0.500000  0.148531  0.000000  1
  Ca  Ca1  1  0.000000  0.851469  0.500000  1
  V  V2  1  0.000000  0.606318  0.847434  1
  V  V3  1  0.500000  0.393682  0.652566  1
  V  V4  1  0.500000  0.393682  0.347434  1
  V  V5  1  0.000000  0.606318  0.152566  1
  O  O6  1  0.500000  0.557273  0.500000  1
  O  O7  1  0.000000  0.442727  0.000000  1
  O  O8  1  0.500000  0.459941  0.824313  1
  O  O9  1  0.000000  0.540059  0.675687  1
  O  O10  1  0.500000  0.459941  0.175687  1
  O  O11  1  0.000000  0.540059  0.324313  1
  O  O12  1  0.000000  0.932075  0.123349  1
  O  O13  1  0.500000  0.067925  0.376651  1
  O  O14  1  0.500000  0.067925  0.623349  1
  O  O15  1  0.000000  0.932075  0.876651  1
