# generated using pymatgen
data_Nb2Zn4O9
_symmetry_space_group_name_H-M   'P 1'
_cell_length_a   5.26038653
_cell_length_b   5.26038653
_cell_length_c   14.38239345
_cell_angle_alpha   90.00000000
_cell_angle_beta   90.00000000
_cell_angle_gamma   120.00000000
_symmetry_Int_Tables_number   1
_chemical_formula_structural   Nb2Zn4O9
_chemical_formula_sum   'Nb4 Zn8 O18'
_cell_volume   344.66494236
_cell_formula_units_Z   2
loop_
 _symmetry_equiv_pos_site_id
 _symmetry_equiv_pos_as_xyz
  1  'x, y, z'
loop_
 _atom_site_type_symbol
 _atom_site_label
 _atom_site_symmetry_multiplicity
 _atom_site_fract_x
 _atom_site_fract_y
 _atom_site_fract_z
 _atom_site_occupancy
  Nb  Nb0  1  0.000000  0.000000  0.360929  1
  Nb  Nb1  1  0.000000  0.000000  0.139071  1
  Nb  Nb2  1  0.000000  0.000000  0.639071  1
  Nb  Nb3  1  0.000000  0.000000  0.860929  1
  Zn  Zn4  1  0.333333  0.666667  0.014235  1
  Zn  Zn5  1  0.666667  0.333333  0.485766  1
  Zn  Zn6  1  0.666667  0.333333  0.985765  1
  Zn  Zn7  1  0.333333  0.666667  0.514235  1
  Zn  Zn8  1  0.333333  0.666667  0.794595  1
  Zn  Zn9  1  0.666667  0.333333  0.705405  1
  Zn  Zn10  1  0.666667  0.333333  0.205405  1
  Zn  Zn11  1  0.333333  0.666667  0.294595  1
  O  O12  1  0.285882  0.285882  0.750000  1
  O  O13  1  0.000000  0.714118  0.750000  1
  O  O14  1  0.714118  0.000000  0.750000  1
  O  O15  1  0.714118  0.714118  0.250000  1
  O  O16  1  0.000000  0.285882  0.250000  1
  O  O17  1  0.285882  0.000000  0.250000  1
  O  O18  1  0.680086  0.660399  0.583517  1
  O  O19  1  0.339601  0.019687  0.583517  1
  O  O20  1  0.980313  0.319914  0.583517  1
  O  O21  1  0.019687  0.339601  0.916483  1
  O  O22  1  0.319914  0.980313  0.916483  1
  O  O23  1  0.660399  0.680086  0.916483  1
  O  O24  1  0.339601  0.319914  0.083517  1
  O  O25  1  0.680086  0.019687  0.083517  1
  O  O26  1  0.980313  0.660399  0.083517  1
  O  O27  1  0.019687  0.680086  0.416483  1
  O  O28  1  0.660399  0.980313  0.416483  1
  O  O29  1  0.319914  0.339601  0.416483  1
