# generated using pymatgen
data_SmAl7Au3
_symmetry_space_group_name_H-M   'P 1'
_cell_length_a   8.49005717
_cell_length_b   8.49005717
_cell_length_c   8.49005717
_cell_angle_alpha   57.27220515
_cell_angle_beta   57.27220515
_cell_angle_gamma   57.27220515
_symmetry_Int_Tables_number   1
_chemical_formula_structural   SmAl7Au3
_chemical_formula_sum   'Sm2 Al14 Au6'
_cell_volume   405.54964382
_cell_formula_units_Z   2
loop_
 _symmetry_equiv_pos_site_id
 _symmetry_equiv_pos_as_xyz
  1  'x, y, z'
loop_
 _atom_site_type_symbol
 _atom_site_label
 _atom_site_symmetry_multiplicity
 _atom_site_fract_x
 _atom_site_fract_y
 _atom_site_fract_z
 _atom_site_occupancy
  Sm  Sm0  1  0.500000  0.500000  0.500000  1
  Sm  Sm1  1  0.000000  0.000000  0.000000  1
  Al  Al2  1  0.569410  0.167852  0.352739  1
  Al  Al3  1  0.167852  0.352739  0.569410  1
  Al  Al4  1  0.352739  0.569410  0.167852  1
  Al  Al5  1  0.930590  0.147261  0.332148  1
  Al  Al6  1  0.147261  0.332148  0.930590  1
  Al  Al7  1  0.332148  0.930590  0.147261  1
  Al  Al8  1  0.430590  0.832148  0.647261  1
  Al  Al9  1  0.832148  0.647261  0.430590  1
  Al  Al10  1  0.750000  0.750000  0.750000  1
  Al  Al11  1  0.250000  0.250000  0.250000  1
  Al  Al12  1  0.667852  0.069410  0.852739  1
  Al  Al13  1  0.852739  0.667852  0.069410  1
  Al  Al14  1  0.069410  0.852739  0.667852  1
  Al  Al15  1  0.647261  0.430590  0.832148  1
  Au  Au16  1  0.250000  0.572001  0.927999  1
  Au  Au17  1  0.572001  0.927999  0.250000  1
  Au  Au18  1  0.927999  0.250000  0.572001  1
  Au  Au19  1  0.750000  0.427999  0.072001  1
  Au  Au20  1  0.427999  0.072001  0.750000  1
  Au  Au21  1  0.072001  0.750000  0.427999  1
