# generated using pymatgen
data_Hf9V4S
_symmetry_space_group_name_H-M   'P 1'
_cell_length_a   8.57941802
_cell_length_b   8.57941802
_cell_length_c   8.41254275
_cell_angle_alpha   90.00000000
_cell_angle_beta   90.00000000
_cell_angle_gamma   120.00000000
_symmetry_Int_Tables_number   1
_chemical_formula_structural   Hf9V4S
_chemical_formula_sum   'Hf18 V8 S2'
_cell_volume   536.25773945
_cell_formula_units_Z   2
loop_
 _symmetry_equiv_pos_site_id
 _symmetry_equiv_pos_as_xyz
  1  'x, y, z'
loop_
 _atom_site_type_symbol
 _atom_site_label
 _atom_site_symmetry_multiplicity
 _atom_site_fract_x
 _atom_site_fract_y
 _atom_site_fract_z
 _atom_site_occupancy
  Hf  Hf0  1  0.195634  0.391267  0.948866  1
  Hf  Hf1  1  0.195634  0.804366  0.948866  1
  Hf  Hf2  1  0.456062  0.912124  0.250000  1
  Hf  Hf3  1  0.543938  0.456062  0.750000  1
  Hf  Hf4  1  0.912124  0.456062  0.750000  1
  Hf  Hf5  1  0.087876  0.543938  0.250000  1
  Hf  Hf6  1  0.456062  0.543938  0.250000  1
  Hf  Hf7  1  0.543938  0.087876  0.750000  1
  Hf  Hf8  1  0.608733  0.804366  0.948866  1
  Hf  Hf9  1  0.391267  0.195634  0.448866  1
  Hf  Hf10  1  0.804366  0.608733  0.051134  1
  Hf  Hf11  1  0.804366  0.195634  0.448866  1
  Hf  Hf12  1  0.804366  0.608733  0.448866  1
  Hf  Hf13  1  0.195634  0.804366  0.551134  1
  Hf  Hf14  1  0.608733  0.804366  0.551134  1
  Hf  Hf15  1  0.391267  0.195634  0.051134  1
  Hf  Hf16  1  0.804366  0.195634  0.051134  1
  Hf  Hf17  1  0.195634  0.391267  0.551134  1
  V  V18  1  0.000000  0.000000  0.500000  1
  V  V19  1  0.000000  0.000000  0.000000  1
  V  V20  1  0.893015  0.786031  0.750000  1
  V  V21  1  0.106985  0.893015  0.250000  1
  V  V22  1  0.786031  0.893015  0.250000  1
  V  V23  1  0.213969  0.106985  0.750000  1
  V  V24  1  0.893015  0.106985  0.750000  1
  V  V25  1  0.106985  0.213969  0.250000  1
  S  S26  1  0.666667  0.333333  0.250000  1
  S  S27  1  0.333333  0.666667  0.750000  1
