# generated using pymatgen
data_CsCd13
_symmetry_space_group_name_H-M   'P 1'
_cell_length_a   10.04711947
_cell_length_b   10.04711947
_cell_length_c   10.04711947
_cell_angle_alpha   60.00000000
_cell_angle_beta   60.00000000
_cell_angle_gamma   60.00000000
_symmetry_Int_Tables_number   1
_chemical_formula_structural   CsCd13
_chemical_formula_sum   'Cs2 Cd26'
_cell_volume   717.14950255
_cell_formula_units_Z   2
loop_
 _symmetry_equiv_pos_site_id
 _symmetry_equiv_pos_as_xyz
  1  'x, y, z'
loop_
 _atom_site_type_symbol
 _atom_site_label
 _atom_site_symmetry_multiplicity
 _atom_site_fract_x
 _atom_site_fract_y
 _atom_site_fract_z
 _atom_site_occupancy
  Cs  Cs0  1  0.250000  0.250000  0.250000  1
  Cs  Cs1  1  0.750000  0.750000  0.750000  1
  Cd  Cd2  1  0.500000  0.500000  0.500000  1
  Cd  Cd3  1  0.000000  0.000000  0.000000  1
  Cd  Cd4  1  0.199195  0.441211  0.800805  1
  Cd  Cd5  1  0.941211  0.699195  0.300805  1
  Cd  Cd6  1  0.699195  0.941211  0.058789  1
  Cd  Cd7  1  0.058789  0.941211  0.300805  1
  Cd  Cd8  1  0.699195  0.300805  0.941211  1
  Cd  Cd9  1  0.058789  0.699195  0.941211  1
  Cd  Cd10  1  0.941211  0.300805  0.058789  1
  Cd  Cd11  1  0.800805  0.441211  0.558789  1
  Cd  Cd12  1  0.558789  0.441211  0.199195  1
  Cd  Cd13  1  0.800805  0.199195  0.441211  1
  Cd  Cd14  1  0.441211  0.800805  0.199195  1
  Cd  Cd15  1  0.199195  0.558789  0.441211  1
  Cd  Cd16  1  0.199195  0.800805  0.558789  1
  Cd  Cd17  1  0.558789  0.199195  0.800805  1
  Cd  Cd18  1  0.441211  0.558789  0.800805  1
  Cd  Cd19  1  0.300805  0.699195  0.058789  1
  Cd  Cd20  1  0.058789  0.300805  0.699195  1
  Cd  Cd21  1  0.300805  0.941211  0.699195  1
  Cd  Cd22  1  0.699195  0.058789  0.300805  1
  Cd  Cd23  1  0.300805  0.058789  0.941211  1
  Cd  Cd24  1  0.941211  0.058789  0.699195  1
  Cd  Cd25  1  0.441211  0.199195  0.558789  1
  Cd  Cd26  1  0.558789  0.800805  0.441211  1
  Cd  Cd27  1  0.800805  0.558789  0.199195  1
