# generated using pymatgen
data_EuZn(BO2)5
_symmetry_space_group_name_H-M   'P 1'
_cell_length_a   8.78295510
_cell_length_b   7.67388636
_cell_length_c   12.65449849
_cell_angle_alpha   90.00000000
_cell_angle_beta   131.33891539
_cell_angle_gamma   90.00000000
_symmetry_Int_Tables_number   1
_chemical_formula_structural   EuZn(BO2)5
_chemical_formula_sum   'Eu4 Zn4 B20 O40'
_cell_volume   640.37490109
_cell_formula_units_Z   4
loop_
 _symmetry_equiv_pos_site_id
 _symmetry_equiv_pos_as_xyz
  1  'x, y, z'
loop_
 _atom_site_type_symbol
 _atom_site_label
 _atom_site_symmetry_multiplicity
 _atom_site_fract_x
 _atom_site_fract_y
 _atom_site_fract_z
 _atom_site_occupancy
  Eu  Eu0  1  0.049520  0.683507  0.738840  1
  Eu  Eu1  1  0.049520  0.816493  0.238840  1
  Eu  Eu2  1  0.950480  0.316493  0.261160  1
  Eu  Eu3  1  0.950480  0.183507  0.761160  1
  Zn  Zn4  1  0.517407  0.588995  0.124873  1
  Zn  Zn5  1  0.517407  0.911005  0.624873  1
  Zn  Zn6  1  0.482593  0.411005  0.875127  1
  Zn  Zn7  1  0.482593  0.088995  0.375127  1
  B  B8  1  0.909945  0.825174  0.894935  1
  B  B9  1  0.909945  0.674826  0.394935  1
  B  B10  1  0.090055  0.174826  0.105065  1
  B  B11  1  0.090055  0.325174  0.605065  1
  B  B12  1  0.847084  0.600125  0.001835  1
  B  B13  1  0.847084  0.899875  0.501835  1
  B  B14  1  0.152916  0.399875  0.998165  1
  B  B15  1  0.152916  0.100125  0.498165  1
  B  B16  1  0.653904  0.576607  0.740566  1
  B  B17  1  0.653904  0.923393  0.240566  1
  B  B18  1  0.346096  0.423393  0.259434  1
  B  B19  1  0.346096  0.076607  0.759434  1
  B  B20  1  0.518129  0.314311  0.586713  1
  B  B21  1  0.518129  0.185689  0.086713  1
  B  B22  1  0.481871  0.685689  0.413287  1
  B  B23  1  0.481871  0.814311  0.913287  1
  B  B24  1  0.274583  0.531216  0.554767  1
  B  B25  1  0.274583  0.968784  0.054767  1
  B  B26  1  0.725417  0.468784  0.445233  1
  B  B27  1  0.725417  0.031216  0.945233  1
  O  O28  1  0.089149  0.893516  0.919761  1
  O  O29  1  0.089149  0.606484  0.419761  1
  O  O30  1  0.910851  0.106484  0.080239  1
  O  O31  1  0.910851  0.393516  0.580239  1
  O  O32  1  0.765501  0.970061  0.852933  1
  O  O33  1  0.765501  0.529939  0.352933  1
  O  O34  1  0.234499  0.029939  0.147067  1
  O  O35  1  0.234499  0.470061  0.647067  1
  O  O36  1  0.973993  0.726230  0.017365  1
  O  O37  1  0.973993  0.773770  0.517365  1
  O  O38  1  0.026007  0.273770  0.982635  1
  O  O39  1  0.026007  0.226230  0.482635  1
  O  O40  1  0.883736  0.549560  0.119369  1
  O  O41  1  0.883736  0.950440  0.619369  1
  O  O42  1  0.116264  0.450440  0.880631  1
  O  O43  1  0.116264  0.049560  0.380631  1
  O  O44  1  0.687503  0.534135  0.870954  1
  O  O45  1  0.687503  0.965865  0.370954  1
  O  O46  1  0.312497  0.465865  0.129046  1
  O  O47  1  0.312497  0.034135  0.629046  1
  O  O48  1  0.798806  0.710241  0.769279  1
  O  O49  1  0.798806  0.789759  0.269279  1
  O  O50  1  0.201194  0.289759  0.230721  1
  O  O51  1  0.201194  0.210241  0.730721  1
  O  O52  1  0.680798  0.413018  0.694121  1
  O  O53  1  0.680798  0.086982  0.194121  1
  O  O54  1  0.319202  0.586982  0.305879  1
  O  O55  1  0.319202  0.913018  0.805879  1
  O  O56  1  0.569235  0.153661  0.567522  1
  O  O57  1  0.569235  0.346339  0.067522  1
  O  O58  1  0.430765  0.846339  0.432478  1
  O  O59  1  0.430765  0.653661  0.932478  1
  O  O60  1  0.323487  0.374625  0.509415  1
  O  O61  1  0.323487  0.125375  0.009415  1
  O  O62  1  0.676513  0.625375  0.490585  1
  O  O63  1  0.676513  0.874625  0.990585  1
  O  O64  1  0.449033  0.649726  0.634519  1
  O  O65  1  0.449033  0.850274  0.134519  1
  O  O66  1  0.550967  0.350274  0.365481  1
  O  O67  1  0.550967  0.149726  0.865481  1
