# generated using pymatgen
data_Al10V
_symmetry_space_group_name_H-M   'P 1'
_cell_length_a   10.21984326
_cell_length_b   10.21984326
_cell_length_c   10.21984326
_cell_angle_alpha   60.00000000
_cell_angle_beta   60.00000000
_cell_angle_gamma   60.00000000
_symmetry_Int_Tables_number   1
_chemical_formula_structural   Al10V
_chemical_formula_sum   'Al40 V4'
_cell_volume   754.77534935
_cell_formula_units_Z   4
loop_
 _symmetry_equiv_pos_site_id
 _symmetry_equiv_pos_as_xyz
  1  'x, y, z'
loop_
 _atom_site_type_symbol
 _atom_site_label
 _atom_site_symmetry_multiplicity
 _atom_site_fract_x
 _atom_site_fract_y
 _atom_site_fract_z
 _atom_site_occupancy
  Al  Al0  1  0.125000  0.625000  0.125000  1
  Al  Al1  1  0.125000  0.125000  0.125000  1
  Al  Al2  1  0.125000  0.125000  0.625000  1
  Al  Al3  1  0.625000  0.125000  0.125000  1
  Al  Al4  1  0.609804  0.890196  0.890196  1
  Al  Al5  1  0.640196  0.359804  0.640196  1
  Al  Al6  1  0.359804  0.640196  0.359804  1
  Al  Al7  1  0.359804  0.640196  0.640196  1
  Al  Al8  1  0.359804  0.359804  0.640196  1
  Al  Al9  1  0.640196  0.640196  0.359804  1
  Al  Al10  1  0.890196  0.890196  0.609804  1
  Al  Al11  1  0.609804  0.890196  0.609804  1
  Al  Al12  1  0.890196  0.609804  0.890196  1
  Al  Al13  1  0.609804  0.609804  0.890196  1
  Al  Al14  1  0.640196  0.359804  0.359804  1
  Al  Al15  1  0.890196  0.609804  0.609804  1
  Al  Al16  1  0.447611  0.182403  0.447611  1
  Al  Al17  1  0.327624  0.802389  0.802389  1
  Al  Al18  1  0.802389  0.327624  0.067597  1
  Al  Al19  1  0.067597  0.327624  0.802389  1
  Al  Al20  1  0.802389  0.802389  0.327624  1
  Al  Al21  1  0.067597  0.802389  0.327624  1
  Al  Al22  1  0.327624  0.802389  0.067597  1
  Al  Al23  1  0.447611  0.182403  0.922376  1
  Al  Al24  1  0.922376  0.182403  0.447611  1
  Al  Al25  1  0.447611  0.447611  0.182403  1
  Al  Al26  1  0.182403  0.447611  0.447611  1
  Al  Al27  1  0.447611  0.922376  0.182403  1
  Al  Al28  1  0.447611  0.447611  0.922376  1
  Al  Al29  1  0.922376  0.447611  0.447611  1
  Al  Al30  1  0.182403  0.922376  0.447611  1
  Al  Al31  1  0.802389  0.802389  0.067597  1
  Al  Al32  1  0.067597  0.802389  0.802389  1
  Al  Al33  1  0.802389  0.327624  0.802389  1
  Al  Al34  1  0.802389  0.067597  0.802389  1
  Al  Al35  1  0.802389  0.067597  0.327624  1
  Al  Al36  1  0.327624  0.067597  0.802389  1
  Al  Al37  1  0.182403  0.447611  0.922376  1
  Al  Al38  1  0.922376  0.447611  0.182403  1
  Al  Al39  1  0.447611  0.922376  0.447611  1
  V  V40  1  0.625000  0.125000  0.625000  1
  V  V41  1  0.625000  0.625000  0.625000  1
  V  V42  1  0.625000  0.625000  0.125000  1
  V  V43  1  0.125000  0.625000  0.625000  1
