# generated using pymatgen
data_V3P
_symmetry_space_group_name_H-M   'P 1'
_cell_length_a   9.33978632
_cell_length_b   9.33978632
_cell_length_c   4.74355876
_cell_angle_alpha   90.00000000
_cell_angle_beta   90.00000000
_cell_angle_gamma   90.00000000
_symmetry_Int_Tables_number   1
_chemical_formula_structural   V3P
_chemical_formula_sum   'V24 P8'
_cell_volume   413.78826066
_cell_formula_units_Z   8
loop_
 _symmetry_equiv_pos_site_id
 _symmetry_equiv_pos_as_xyz
  1  'x, y, z'
loop_
 _atom_site_type_symbol
 _atom_site_label
 _atom_site_symmetry_multiplicity
 _atom_site_fract_x
 _atom_site_fract_y
 _atom_site_fract_z
 _atom_site_occupancy
  V  V0  1  0.011057  0.852273  0.263877  1
  V  V1  1  0.352273  0.488943  0.763877  1
  V  V2  1  0.647727  0.511057  0.763877  1
  V  V3  1  0.988943  0.147727  0.263877  1
  V  V4  1  0.488943  0.647727  0.236123  1
  V  V5  1  0.147727  0.011057  0.736123  1
  V  V6  1  0.852273  0.988943  0.736123  1
  V  V7  1  0.511057  0.352273  0.236123  1
  V  V8  1  0.284072  0.805193  0.990878  1
  V  V9  1  0.305193  0.215928  0.490878  1
  V  V10  1  0.694807  0.784072  0.490878  1
  V  V11  1  0.715928  0.194807  0.990878  1
  V  V12  1  0.215928  0.694807  0.509122  1
  V  V13  1  0.194807  0.284072  0.009122  1
  V  V14  1  0.805193  0.715928  0.009122  1
  V  V15  1  0.784072  0.305193  0.509122  1
  V  V16  1  0.907931  0.417294  0.019055  1
  V  V17  1  0.917294  0.592069  0.519055  1
  V  V18  1  0.082706  0.407931  0.519055  1
  V  V19  1  0.092069  0.582706  0.019055  1
  V  V20  1  0.592069  0.082706  0.480945  1
  V  V21  1  0.582706  0.907931  0.980945  1
  V  V22  1  0.417294  0.092069  0.980945  1
  V  V23  1  0.407931  0.917294  0.480945  1
  P  P24  1  0.521501  0.291850  0.733675  1
  P  P25  1  0.791850  0.978499  0.233675  1
  P  P26  1  0.208150  0.021501  0.233675  1
  P  P27  1  0.478499  0.708150  0.733675  1
  P  P28  1  0.978499  0.208150  0.766325  1
  P  P29  1  0.708150  0.521501  0.266325  1
  P  P30  1  0.291850  0.478499  0.266325  1
  P  P31  1  0.021501  0.791850  0.766325  1
