# generated using pymatgen
data_YbAlAu
_symmetry_space_group_name_H-M   'P 1'
_cell_length_a   4.48866244
_cell_length_b   7.17360427
_cell_length_c   7.92197494
_cell_angle_alpha   90.00000000
_cell_angle_beta   90.00000000
_cell_angle_gamma   90.00000000
_symmetry_Int_Tables_number   1
_chemical_formula_structural   YbAlAu
_chemical_formula_sum   'Yb4 Al4 Au4'
_cell_volume   255.08670617
_cell_formula_units_Z   4
loop_
 _symmetry_equiv_pos_site_id
 _symmetry_equiv_pos_as_xyz
  1  'x, y, z'
loop_
 _atom_site_type_symbol
 _atom_site_label
 _atom_site_symmetry_multiplicity
 _atom_site_fract_x
 _atom_site_fract_y
 _atom_site_fract_z
 _atom_site_occupancy
  Yb  Yb0  1  0.750000  0.472578  0.824435  1
  Yb  Yb1  1  0.250000  0.027422  0.324435  1
  Yb  Yb2  1  0.750000  0.972578  0.675565  1
  Yb  Yb3  1  0.250000  0.527422  0.175565  1
  Al  Al4  1  0.250000  0.641346  0.558832  1
  Al  Al5  1  0.250000  0.141346  0.941168  1
  Al  Al6  1  0.750000  0.358654  0.441168  1
  Al  Al7  1  0.750000  0.858654  0.058832  1
  Au  Au8  1  0.250000  0.779000  0.871788  1
  Au  Au9  1  0.250000  0.279000  0.628212  1
  Au  Au10  1  0.750000  0.721000  0.371788  1
  Au  Au11  1  0.750000  0.221000  0.128212  1
