# generated using pymatgen
data_Li5FeO4
_symmetry_space_group_name_H-M   'P 1'
_cell_length_a   9.25785939
_cell_length_b   9.30098730
_cell_length_c   9.31027055
_cell_angle_alpha   90.00000000
_cell_angle_beta   90.00000000
_cell_angle_gamma   90.00000000
_symmetry_Int_Tables_number   1
_chemical_formula_structural   Li5FeO4
_chemical_formula_sum   'Li40 Fe8 O32'
_cell_volume   801.68163193
_cell_formula_units_Z   8
loop_
 _symmetry_equiv_pos_site_id
 _symmetry_equiv_pos_as_xyz
  1  'x, y, z'
loop_
 _atom_site_type_symbol
 _atom_site_label
 _atom_site_symmetry_multiplicity
 _atom_site_fract_x
 _atom_site_fract_y
 _atom_site_fract_z
 _atom_site_occupancy
  Li  Li0  1  0.103523  0.617826  0.156188  1
  Li  Li1  1  0.603523  0.382174  0.343812  1
  Li  Li2  1  0.396477  0.117826  0.843812  1
  Li  Li3  1  0.896477  0.882174  0.656188  1
  Li  Li4  1  0.896477  0.382174  0.843812  1
  Li  Li5  1  0.396477  0.617826  0.656188  1
  Li  Li6  1  0.603523  0.882174  0.156188  1
  Li  Li7  1  0.103523  0.117826  0.343812  1
  Li  Li8  1  0.162276  0.390232  0.381487  1
  Li  Li9  1  0.662276  0.609768  0.118513  1
  Li  Li10  1  0.337724  0.890232  0.618513  1
  Li  Li11  1  0.837724  0.109768  0.881487  1
  Li  Li12  1  0.837724  0.609768  0.618513  1
  Li  Li13  1  0.337724  0.390232  0.881487  1
  Li  Li14  1  0.662276  0.109768  0.381487  1
  Li  Li15  1  0.162276  0.890232  0.118513  1
  Li  Li16  1  0.893183  0.627453  0.353068  1
  Li  Li17  1  0.393183  0.372547  0.146932  1
  Li  Li18  1  0.606817  0.127453  0.646932  1
  Li  Li19  1  0.875284  0.646496  0.879684  1
  Li  Li20  1  0.106817  0.372547  0.646932  1
  Li  Li21  1  0.606817  0.627453  0.853068  1
  Li  Li22  1  0.393183  0.872547  0.353068  1
  Li  Li23  1  0.893183  0.127453  0.146932  1
  Li  Li24  1  0.857544  0.388710  0.107036  1
  Li  Li25  1  0.357544  0.611290  0.392964  1
  Li  Li26  1  0.642456  0.888710  0.892964  1
  Li  Li27  1  0.142456  0.111290  0.607036  1
  Li  Li28  1  0.142456  0.611290  0.892964  1
  Li  Li29  1  0.642456  0.388710  0.607036  1
  Li  Li30  1  0.357544  0.111290  0.107036  1
  Li  Li31  1  0.857544  0.888710  0.392964  1
  Li  Li32  1  0.875284  0.146496  0.620316  1
  Li  Li33  1  0.375284  0.853504  0.879684  1
  Li  Li34  1  0.624716  0.646496  0.379684  1
  Li  Li35  1  0.124716  0.353504  0.120316  1
  Li  Li36  1  0.124716  0.853504  0.379684  1
  Li  Li37  1  0.624716  0.146496  0.120316  1
  Li  Li38  1  0.375284  0.353504  0.620316  1
  Li  Li39  1  0.106817  0.872547  0.853068  1
  Fe  Fe40  1  0.881965  0.354167  0.383727  1
  Fe  Fe41  1  0.381965  0.645833  0.116273  1
  Fe  Fe42  1  0.618035  0.854167  0.616273  1
  Fe  Fe43  1  0.118035  0.145833  0.883727  1
  Fe  Fe44  1  0.118035  0.645833  0.616273  1
  Fe  Fe45  1  0.618035  0.354167  0.883727  1
  Fe  Fe46  1  0.381965  0.145833  0.383727  1
  Fe  Fe47  1  0.881965  0.854167  0.116273  1
  O  O48  1  0.754263  0.494047  0.465886  1
  O  O49  1  0.254263  0.505953  0.034114  1
  O  O50  1  0.745737  0.994047  0.534114  1
  O  O51  1  0.245737  0.005953  0.965886  1
  O  O52  1  0.245737  0.505953  0.534114  1
  O  O53  1  0.745737  0.494047  0.965886  1
  O  O54  1  0.254263  0.005953  0.465886  1
  O  O55  1  0.754263  0.994047  0.034114  1
  O  O56  1  0.999107  0.467528  0.256630  1
  O  O57  1  0.499107  0.532472  0.243370  1
  O  O58  1  0.500893  0.967528  0.743370  1
  O  O59  1  0.000893  0.032472  0.756630  1
  O  O60  1  0.000893  0.532472  0.743370  1
  O  O61  1  0.500893  0.467528  0.756630  1
  O  O62  1  0.499107  0.032472  0.256630  1
  O  O63  1  0.999107  0.967528  0.243370  1
  O  O64  1  0.759064  0.252018  0.254027  1
  O  O65  1  0.259064  0.747982  0.245973  1
  O  O66  1  0.740936  0.752018  0.745973  1
  O  O67  1  0.240936  0.247982  0.754027  1
  O  O68  1  0.016683  0.749021  0.004193  1
  O  O69  1  0.740936  0.252018  0.754027  1
  O  O70  1  0.259064  0.247982  0.254027  1
  O  O71  1  0.759064  0.752018  0.245973  1
  O  O72  1  0.016683  0.249021  0.495807  1
  O  O73  1  0.516683  0.750979  0.004193  1
  O  O74  1  0.483317  0.749021  0.504193  1
  O  O75  1  0.983317  0.250979  0.995807  1
  O  O76  1  0.983317  0.750979  0.504193  1
  O  O77  1  0.483317  0.249021  0.995807  1
  O  O78  1  0.516683  0.250979  0.495807  1
  O  O79  1  0.240936  0.747982  0.745973  1
