# generated using pymatgen
data_SrIn2
_symmetry_space_group_name_H-M   'P 1'
_cell_length_a   5.09665176
_cell_length_b   5.09665176
_cell_length_c   8.12729755
_cell_angle_alpha   90.00000000
_cell_angle_beta   90.00000000
_cell_angle_gamma   120.00000000
_symmetry_Int_Tables_number   1
_chemical_formula_structural   SrIn2
_chemical_formula_sum   'Sr2 In4'
_cell_volume   182.82968577
_cell_formula_units_Z   2
loop_
 _symmetry_equiv_pos_site_id
 _symmetry_equiv_pos_as_xyz
  1  'x, y, z'
loop_
 _atom_site_type_symbol
 _atom_site_label
 _atom_site_symmetry_multiplicity
 _atom_site_fract_x
 _atom_site_fract_y
 _atom_site_fract_z
 _atom_site_occupancy
  Sr  Sr0  1  0.000000  0.000000  0.750000  1
  Sr  Sr1  1  0.000000  0.000000  0.250000  1
  In  In2  1  0.333333  0.666667  0.954584  1
  In  In3  1  0.666667  0.333333  0.454584  1
  In  In4  1  0.333333  0.666667  0.545416  1
  In  In5  1  0.666667  0.333333  0.045416  1
