# generated using pymatgen
data_AlP(H2O3)2
_symmetry_space_group_name_H-M   'P 1'
_cell_length_a   5.21059712
_cell_length_b   9.60963992
_cell_length_c   9.98736848
_cell_angle_alpha   90.00000000
_cell_angle_beta   121.11411221
_cell_angle_gamma   90.00000000
_symmetry_Int_Tables_number   1
_chemical_formula_structural   AlP(H2O3)2
_chemical_formula_sum   'Al4 P4 H16 O24'
_cell_volume   428.14451741
_cell_formula_units_Z   4
loop_
 _symmetry_equiv_pos_site_id
 _symmetry_equiv_pos_as_xyz
  1  'x, y, z'
loop_
 _atom_site_type_symbol
 _atom_site_label
 _atom_site_symmetry_multiplicity
 _atom_site_fract_x
 _atom_site_fract_y
 _atom_site_fract_z
 _atom_site_occupancy
  Al  Al0  1  0.095719  0.325400  0.692714  1
  Al  Al1  1  0.904281  0.825400  0.807286  1
  Al  Al2  1  0.904281  0.674600  0.307286  1
  Al  Al3  1  0.095719  0.174600  0.192714  1
  P  P4  1  0.725227  0.147286  0.815925  1
  P  P5  1  0.274773  0.647286  0.684075  1
  P  P6  1  0.274773  0.852714  0.184075  1
  P  P7  1  0.725227  0.352714  0.315925  1
  H  H8  1  0.537938  0.146586  0.480314  1
  H  H9  1  0.462062  0.646586  0.019686  1
  H  H10  1  0.462062  0.853414  0.519686  1
  H  H11  1  0.537938  0.353414  0.980314  1
  H  H12  1  0.244567  0.172313  0.486032  1
  H  H13  1  0.755433  0.672313  0.013968  1
  H  H14  1  0.755433  0.827687  0.513968  1
  H  H15  1  0.244567  0.327687  0.986032  1
  H  H16  1  0.404202  0.940357  0.831348  1
  H  H17  1  0.595798  0.440357  0.668652  1
  H  H18  1  0.876813  0.957496  0.218046  1
  H  H19  1  0.123187  0.457496  0.281954  1
  H  H20  1  0.123187  0.042504  0.781954  1
  H  H21  1  0.876813  0.542504  0.718046  1
  H  H22  1  0.595798  0.059643  0.168652  1
  H  H23  1  0.404202  0.559643  0.331348  1
  O  O24  1  0.890996  0.282771  0.478440  1
  O  O25  1  0.594820  0.706461  0.781312  1
  O  O26  1  0.594820  0.793539  0.281312  1
  O  O27  1  0.405180  0.206461  0.718688  1
  O  O28  1  0.708854  0.986386  0.827397  1
  O  O29  1  0.291146  0.486386  0.672603  1
  O  O30  1  0.291146  0.013614  0.172603  1
  O  O31  1  0.708854  0.513614  0.327397  1
  O  O32  1  0.792825  0.448348  0.674717  1
  O  O33  1  0.207175  0.948348  0.825283  1
  O  O34  1  0.207175  0.551652  0.325283  1
  O  O35  1  0.792825  0.051652  0.174717  1
  O  O36  1  0.319050  0.364497  0.919929  1
  O  O37  1  0.680950  0.864497  0.580071  1
  O  O38  1  0.680950  0.635503  0.080071  1
  O  O39  1  0.319050  0.135503  0.419929  1
  O  O40  1  0.109004  0.717229  0.521560  1
  O  O41  1  0.890996  0.217229  0.978440  1
  O  O42  1  0.896123  0.323230  0.228466  1
  O  O43  1  0.103877  0.823230  0.271534  1
  O  O44  1  0.103877  0.676770  0.771534  1
  O  O45  1  0.896123  0.176770  0.728466  1
  O  O46  1  0.405180  0.293539  0.218688  1
  O  O47  1  0.109004  0.782771  0.021560  1
