# generated using pymatgen
data_Na2Te4O9
_symmetry_space_group_name_H-M   'P 1'
_cell_length_a   7.00735357
_cell_length_b   7.49488740
_cell_length_c   10.77485352
_cell_angle_alpha   109.56126854
_cell_angle_beta   91.05942390
_cell_angle_gamma   109.51584493
_symmetry_Int_Tables_number   1
_chemical_formula_structural   Na2Te4O9
_chemical_formula_sum   'Na4 Te8 O18'
_cell_volume   497.15126733
_cell_formula_units_Z   2
loop_
 _symmetry_equiv_pos_site_id
 _symmetry_equiv_pos_as_xyz
  1  'x, y, z'
loop_
 _atom_site_type_symbol
 _atom_site_label
 _atom_site_symmetry_multiplicity
 _atom_site_fract_x
 _atom_site_fract_y
 _atom_site_fract_z
 _atom_site_occupancy
  Na  Na0  1  0.982783  0.544852  0.634153  1
  Na  Na1  1  0.017217  0.455148  0.365847  1
  Na  Na2  1  0.479596  0.733386  0.485657  1
  Na  Na3  1  0.520404  0.266614  0.514343  1
  Te  Te4  1  0.023156  0.994045  0.328893  1
  Te  Te5  1  0.976844  0.005955  0.671107  1
  Te  Te6  1  0.524839  0.409154  0.801330  1
  Te  Te7  1  0.475161  0.590846  0.198670  1
  Te  Te8  1  0.459469  0.848250  0.781497  1
  Te  Te9  1  0.540531  0.151750  0.218503  1
  Te  Te10  1  0.007960  0.292658  0.994238  1
  Te  Te11  1  0.992040  0.707342  0.005762  1
  O  O12  1  0.959539  0.015819  0.140396  1
  O  O13  1  0.040461  0.984181  0.859604  1
  O  O14  1  0.035029  0.277867  0.597424  1
  O  O15  1  0.964971  0.722133  0.402576  1
  O  O16  1  0.718164  0.236618  0.907732  1
  O  O17  1  0.281836  0.763382  0.092268  1
  O  O18  1  0.339868  0.997274  0.335062  1
  O  O19  1  0.660132  0.002726  0.664938  1
  O  O20  1  0.060833  0.609077  0.884529  1
  O  O21  1  0.939167  0.390923  0.115471  1
  O  O22  1  0.640425  0.497716  0.646249  1
  O  O23  1  0.359575  0.502284  0.353751  1
  O  O24  1  0.666841  0.619498  0.883605  1
  O  O25  1  0.333159  0.380502  0.116395  1
  O  O26  1  0.659763  0.357611  0.302023  1
  O  O27  1  0.340237  0.642389  0.697977  1
  O  O28  1  0.282202  0.018106  0.664527  1
  O  O29  1  0.717798  0.981894  0.335473  1
