# generated using pymatgen
data_Te7Pd20
_symmetry_space_group_name_H-M   'P 1'
_cell_length_a   7.91418413
_cell_length_b   7.91418413
_cell_length_c   7.91418413
_cell_angle_alpha   98.97805265
_cell_angle_beta   98.97805265
_cell_angle_gamma   98.97805265
_symmetry_Int_Tables_number   1
_chemical_formula_structural   Te7Pd20
_chemical_formula_sum   'Te7 Pd20'
_cell_volume   475.28724491
_cell_formula_units_Z   1
loop_
 _symmetry_equiv_pos_site_id
 _symmetry_equiv_pos_as_xyz
  1  'x, y, z'
loop_
 _atom_site_type_symbol
 _atom_site_label
 _atom_site_symmetry_multiplicity
 _atom_site_fract_x
 _atom_site_fract_y
 _atom_site_fract_z
 _atom_site_occupancy
  Te  Te0  1  0.000000  0.000000  0.000000  1
  Te  Te1  1  0.724310  0.454343  0.878843  1
  Te  Te2  1  0.454343  0.878843  0.724310  1
  Te  Te3  1  0.878843  0.724310  0.454343  1
  Te  Te4  1  0.275690  0.545657  0.121157  1
  Te  Te5  1  0.545657  0.121157  0.275690  1
  Te  Te6  1  0.121157  0.275690  0.545657  1
  Pd  Pd7  1  0.379824  0.379824  0.379824  1
  Pd  Pd8  1  0.620176  0.620176  0.620176  1
  Pd  Pd9  1  0.222980  0.008665  0.334201  1
  Pd  Pd10  1  0.008665  0.334201  0.222980  1
  Pd  Pd11  1  0.334201  0.222980  0.008665  1
  Pd  Pd12  1  0.777020  0.991335  0.665799  1
  Pd  Pd13  1  0.991335  0.665799  0.777020  1
  Pd  Pd14  1  0.665799  0.777020  0.991335  1
  Pd  Pd15  1  0.987753  0.686722  0.144693  1
  Pd  Pd16  1  0.686722  0.144693  0.987753  1
  Pd  Pd17  1  0.144693  0.987753  0.686722  1
  Pd  Pd18  1  0.012247  0.313278  0.855307  1
  Pd  Pd19  1  0.313278  0.855307  0.012247  1
  Pd  Pd20  1  0.855307  0.012247  0.313278  1
  Pd  Pd21  1  0.463691  0.217770  0.677681  1
  Pd  Pd22  1  0.217770  0.677681  0.463691  1
  Pd  Pd23  1  0.677681  0.463691  0.217770  1
  Pd  Pd24  1  0.536309  0.782230  0.322319  1
  Pd  Pd25  1  0.782230  0.322319  0.536309  1
  Pd  Pd26  1  0.322319  0.536309  0.782230  1
