# generated using pymatgen
data_Pt2PbO4
_symmetry_space_group_name_H-M   'P 1'
_cell_length_a   5.74331616
_cell_length_b   6.22796700
_cell_length_c   6.77100860
_cell_angle_alpha   115.82981056
_cell_angle_beta   96.63217521
_cell_angle_gamma   109.58396754
_symmetry_Int_Tables_number   1
_chemical_formula_structural   Pt2PbO4
_chemical_formula_sum   'Pt4 Pb2 O8'
_cell_volume   195.37399975
_cell_formula_units_Z   2
loop_
 _symmetry_equiv_pos_site_id
 _symmetry_equiv_pos_as_xyz
  1  'x, y, z'
loop_
 _atom_site_type_symbol
 _atom_site_label
 _atom_site_symmetry_multiplicity
 _atom_site_fract_x
 _atom_site_fract_y
 _atom_site_fract_z
 _atom_site_occupancy
  Pt  Pt0  1  0.500000  0.000000  0.500000  1
  Pt  Pt1  1  0.000000  0.500000  0.500000  1
  Pt  Pt2  1  0.500000  0.500000  0.000000  1
  Pt  Pt3  1  0.500000  0.500000  0.500000  1
  Pb  Pb4  1  0.857200  0.103984  0.144104  1
  Pb  Pb5  1  0.142800  0.896016  0.855896  1
  O  O6  1  0.518498  0.138713  0.723317  1
  O  O7  1  0.481502  0.861287  0.276683  1
  O  O8  1  0.834561  0.673260  0.158580  1
  O  O9  1  0.165439  0.326740  0.841420  1
  O  O10  1  0.870216  0.160089  0.495135  1
  O  O11  1  0.129784  0.839911  0.504865  1
  O  O12  1  0.367770  0.328624  0.275085  1
  O  O13  1  0.632230  0.671376  0.724915  1
