# generated using pymatgen
data_RbGdH2S2O9
_symmetry_space_group_name_H-M   'P 1'
_cell_length_a   10.36662482
_cell_length_b   8.41444734
_cell_length_c   10.77969149
_cell_angle_alpha   90.00000000
_cell_angle_beta   117.76503873
_cell_angle_gamma   90.00000000
_symmetry_Int_Tables_number   1
_chemical_formula_structural   RbGdH2S2O9
_chemical_formula_sum   'Rb4 Gd4 H8 S8 O36'
_cell_volume   832.04443602
_cell_formula_units_Z   4
loop_
 _symmetry_equiv_pos_site_id
 _symmetry_equiv_pos_as_xyz
  1  'x, y, z'
loop_
 _atom_site_type_symbol
 _atom_site_label
 _atom_site_symmetry_multiplicity
 _atom_site_fract_x
 _atom_site_fract_y
 _atom_site_fract_z
 _atom_site_occupancy
  Rb  Rb0  1  0.232517  0.187994  0.717255  1
  Rb  Rb1  1  0.767483  0.687994  0.782745  1
  Rb  Rb2  1  0.767483  0.812006  0.282745  1
  Rb  Rb3  1  0.232517  0.312006  0.217255  1
  Gd  Gd4  1  0.250334  0.649687  0.524182  1
  Gd  Gd5  1  0.749666  0.149687  0.975818  1
  Gd  Gd6  1  0.749666  0.350313  0.475818  1
  Gd  Gd7  1  0.250334  0.850313  0.024182  1
  H  H8  1  0.197348  0.969906  0.423436  1
  H  H9  1  0.802652  0.469906  0.076564  1
  H  H10  1  0.802652  0.030094  0.576564  1
  H  H11  1  0.197348  0.530094  0.923436  1
  H  H12  1  0.358866  0.006006  0.526687  1
  H  H13  1  0.641134  0.506006  0.973313  1
  H  H14  1  0.641134  0.993994  0.473313  1
  H  H15  1  0.358866  0.493994  0.026687  1
  S  S16  1  0.493544  0.798867  0.877130  1
  S  S17  1  0.506456  0.298867  0.622870  1
  S  S18  1  0.506456  0.201133  0.122870  1
  S  S19  1  0.493544  0.701133  0.377130  1
  S  S20  1  0.047466  0.648247  0.663874  1
  S  S21  1  0.952534  0.148247  0.836126  1
  S  S22  1  0.952534  0.351753  0.336126  1
  S  S23  1  0.047466  0.851753  0.163874  1
  O  O24  1  0.273769  0.941707  0.516834  1
  O  O25  1  0.726231  0.441707  0.983166  1
  O  O26  1  0.726231  0.058293  0.483166  1
  O  O27  1  0.273769  0.558293  0.016834  1
  O  O28  1  0.556497  0.679957  0.990318  1
  O  O29  1  0.443503  0.179957  0.509682  1
  O  O30  1  0.365992  0.878439  0.880849  1
  O  O31  1  0.443503  0.320043  0.009682  1
  O  O32  1  0.170381  0.964785  0.195710  1
  O  O33  1  0.829619  0.464785  0.304290  1
  O  O34  1  0.829619  0.035215  0.804290  1
  O  O35  1  0.170381  0.535215  0.695710  1
  O  O36  1  0.905268  0.936803  0.105918  1
  O  O37  1  0.094732  0.436803  0.394082  1
  O  O38  1  0.094732  0.063197  0.894082  1
  O  O39  1  0.905268  0.563197  0.605918  1
  O  O40  1  0.066713  0.767317  0.292185  1
  O  O41  1  0.933287  0.267317  0.207815  1
  O  O42  1  0.933287  0.232683  0.707815  1
  O  O43  1  0.066713  0.732683  0.792185  1
  O  O44  1  0.048553  0.738762  0.056887  1
  O  O45  1  0.951447  0.238762  0.443113  1
  O  O46  1  0.951447  0.261238  0.943113  1
  O  O47  1  0.048553  0.761238  0.556887  1
  O  O48  1  0.605004  0.581123  0.391802  1
  O  O49  1  0.394996  0.081123  0.108198  1
  O  O50  1  0.394996  0.418877  0.608198  1
  O  O51  1  0.605004  0.918877  0.891802  1
  O  O52  1  0.443870  0.777860  0.237264  1
  O  O53  1  0.556130  0.277860  0.262736  1
  O  O54  1  0.556130  0.222140  0.762736  1
  O  O55  1  0.443870  0.722140  0.737264  1
  O  O56  1  0.365992  0.621561  0.380849  1
  O  O57  1  0.634008  0.121561  0.119151  1
  O  O58  1  0.634008  0.378439  0.619151  1
  O  O59  1  0.556497  0.820043  0.490318  1
