# generated using pymatgen
data_Hg7(PO5)2
_symmetry_space_group_name_H-M   'P 1'
_cell_length_a   6.38375346
_cell_length_b   10.21306912
_cell_length_c   9.99412576
_cell_angle_alpha   90.00000000
_cell_angle_beta   95.78043884
_cell_angle_gamma   90.00000000
_symmetry_Int_Tables_number   1
_chemical_formula_structural   Hg7(PO5)2
_chemical_formula_sum   'Hg14 P4 O20'
_cell_volume   648.28090914
_cell_formula_units_Z   2
loop_
 _symmetry_equiv_pos_site_id
 _symmetry_equiv_pos_as_xyz
  1  'x, y, z'
loop_
 _atom_site_type_symbol
 _atom_site_label
 _atom_site_symmetry_multiplicity
 _atom_site_fract_x
 _atom_site_fract_y
 _atom_site_fract_z
 _atom_site_occupancy
  Hg  Hg0  1  0.500000  0.000000  0.500000  1
  Hg  Hg1  1  0.500000  0.500000  0.000000  1
  Hg  Hg2  1  0.809157  0.616792  0.309287  1
  Hg  Hg3  1  0.190843  0.116792  0.190713  1
  Hg  Hg4  1  0.190843  0.383208  0.690713  1
  Hg  Hg5  1  0.809157  0.883208  0.809287  1
  Hg  Hg6  1  0.984330  0.849447  0.411832  1
  Hg  Hg7  1  0.015670  0.349447  0.088168  1
  Hg  Hg8  1  0.015670  0.150553  0.588168  1
  Hg  Hg9  1  0.984330  0.650553  0.911832  1
  Hg  Hg10  1  0.238842  0.639418  0.351659  1
  Hg  Hg11  1  0.761158  0.139418  0.148341  1
  Hg  Hg12  1  0.761158  0.360582  0.648341  1
  Hg  Hg13  1  0.238842  0.860582  0.851659  1
  P  P14  1  0.500431  0.851180  0.147399  1
  P  P15  1  0.499569  0.351180  0.352601  1
  P  P16  1  0.499569  0.148820  0.852601  1
  P  P17  1  0.500431  0.648820  0.647399  1
  O  O18  1  0.320276  0.432887  0.273139  1
  O  O19  1  0.679724  0.932887  0.226861  1
  O  O20  1  0.679724  0.567113  0.726861  1
  O  O21  1  0.320276  0.067113  0.773139  1
  O  O22  1  0.276988  0.906407  0.162219  1
  O  O23  1  0.723012  0.406407  0.337781  1
  O  O24  1  0.723012  0.093593  0.837781  1
  O  O25  1  0.276988  0.593593  0.662219  1
  O  O26  1  0.539351  0.657532  0.496271  1
  O  O27  1  0.460649  0.157532  0.003729  1
  O  O28  1  0.460649  0.342468  0.503729  1
  O  O29  1  0.539351  0.842468  0.996271  1
  O  O30  1  0.186974  0.033184  0.436798  1
  O  O31  1  0.813026  0.533184  0.063202  1
  O  O32  1  0.813026  0.966816  0.563202  1
  O  O33  1  0.186974  0.466816  0.936798  1
  O  O34  1  0.501629  0.708486  0.207285  1
  O  O35  1  0.498371  0.208486  0.292715  1
  O  O36  1  0.501629  0.791514  0.707285  1
  O  O37  1  0.498371  0.291514  0.792715  1
