# generated using pymatgen
data_MnH6(SO4)4
_symmetry_space_group_name_H-M   'P 1'
_cell_length_a   5.27710441
_cell_length_b   15.47389249
_cell_length_c   8.38263392
_cell_angle_alpha   90.00000000
_cell_angle_beta   103.94205713
_cell_angle_gamma   90.00000000
_symmetry_Int_Tables_number   1
_chemical_formula_structural   MnH6(SO4)4
_chemical_formula_sum   'Mn2 H12 S8 O32'
_cell_volume   664.33808367
_cell_formula_units_Z   2
loop_
 _symmetry_equiv_pos_site_id
 _symmetry_equiv_pos_as_xyz
  1  'x, y, z'
loop_
 _atom_site_type_symbol
 _atom_site_label
 _atom_site_symmetry_multiplicity
 _atom_site_fract_x
 _atom_site_fract_y
 _atom_site_fract_z
 _atom_site_occupancy
  Mn  Mn0  1  0.000000  0.000000  0.500000  1
  Mn  Mn1  1  0.000000  0.500000  0.000000  1
  H  H2  1  0.824506  0.732401  0.202013  1
  H  H3  1  0.175494  0.232401  0.297987  1
  H  H4  1  0.175494  0.267599  0.797987  1
  H  H5  1  0.824506  0.767599  0.702013  1
  H  H6  1  0.430928  0.737329  0.340129  1
  H  H7  1  0.569072  0.237329  0.159871  1
  H  H8  1  0.569072  0.262671  0.659871  1
  H  H9  1  0.430928  0.762671  0.840129  1
  H  H10  1  0.717099  0.023222  0.888502  1
  H  H11  1  0.282901  0.523222  0.611498  1
  H  H12  1  0.282901  0.976778  0.111498  1
  H  H13  1  0.717099  0.476778  0.388502  1
  S  S14  1  0.126323  0.831939  0.250735  1
  S  S15  1  0.873677  0.331939  0.249265  1
  S  S16  1  0.873677  0.168061  0.749265  1
  S  S17  1  0.126323  0.668061  0.750735  1
  S  S18  1  0.578930  0.913941  0.733781  1
  S  S19  1  0.421070  0.413941  0.766219  1
  S  S20  1  0.421070  0.086059  0.266219  1
  S  S21  1  0.578930  0.586059  0.233781  1
  O  O22  1  0.379073  0.179502  0.227294  1
  O  O23  1  0.620927  0.820498  0.772706  1
  O  O24  1  0.712042  0.559510  0.107899  1
  O  O25  1  0.287958  0.059510  0.392101  1
  O  O26  1  0.287958  0.440490  0.892101  1
  O  O27  1  0.712042  0.940490  0.607899  1
  O  O28  1  0.301459  0.563676  0.192837  1
  O  O29  1  0.698541  0.063676  0.307163  1
  O  O30  1  0.698541  0.436324  0.807163  1
  O  O31  1  0.379073  0.320498  0.727294  1
  O  O32  1  0.712908  0.541893  0.400940  1
  O  O33  1  0.287092  0.041893  0.099060  1
  O  O34  1  0.287092  0.458107  0.599060  1
  O  O35  1  0.712908  0.958107  0.900940  1
  O  O36  1  0.979717  0.613367  0.836719  1
  O  O37  1  0.020283  0.113367  0.663281  1
  O  O38  1  0.020283  0.386633  0.163281  1
  O  O39  1  0.979717  0.886633  0.336719  1
  O  O40  1  0.268161  0.626824  0.644050  1
  O  O41  1  0.731839  0.126824  0.855950  1
  O  O42  1  0.731839  0.373176  0.355950  1
  O  O43  1  0.268161  0.873176  0.144050  1
  O  O44  1  0.313238  0.721209  0.886320  1
  O  O45  1  0.686762  0.221209  0.613680  1
  O  O46  1  0.686762  0.278791  0.113680  1
  O  O47  1  0.313238  0.778791  0.386320  1
  O  O48  1  0.941851  0.733997  0.642094  1
  O  O49  1  0.058149  0.233997  0.857906  1
  O  O50  1  0.058149  0.266003  0.357906  1
  O  O51  1  0.941851  0.766003  0.142094  1
  O  O52  1  0.301459  0.936324  0.692837  1
  O  O53  1  0.620927  0.679502  0.272706  1
