# generated using pymatgen
data_KFeCl3
_symmetry_space_group_name_H-M   'P 1'
_cell_length_a   3.89084667
_cell_length_b   8.86234639
_cell_length_c   14.29641371
_cell_angle_alpha   90.00000000
_cell_angle_beta   90.00000000
_cell_angle_gamma   90.00000000
_symmetry_Int_Tables_number   1
_chemical_formula_structural   KFeCl3
_chemical_formula_sum   'K4 Fe4 Cl12'
_cell_volume   492.96937988
_cell_formula_units_Z   4
loop_
 _symmetry_equiv_pos_site_id
 _symmetry_equiv_pos_as_xyz
  1  'x, y, z'
loop_
 _atom_site_type_symbol
 _atom_site_label
 _atom_site_symmetry_multiplicity
 _atom_site_fract_x
 _atom_site_fract_y
 _atom_site_fract_z
 _atom_site_occupancy
  K  K0  1  0.750000  0.557429  0.827912  1
  K  K1  1  0.250000  0.442571  0.172088  1
  K  K2  1  0.750000  0.057429  0.672088  1
  K  K3  1  0.250000  0.942571  0.327912  1
  Fe  Fe4  1  0.750000  0.838291  0.051900  1
  Fe  Fe5  1  0.250000  0.161709  0.948100  1
  Fe  Fe6  1  0.750000  0.338291  0.448100  1
  Fe  Fe7  1  0.250000  0.661709  0.551900  1
  Cl  Cl8  1  0.250000  0.520421  0.403796  1
  Cl  Cl9  1  0.750000  0.479579  0.596204  1
  Cl  Cl10  1  0.250000  0.020421  0.096204  1
  Cl  Cl11  1  0.750000  0.979579  0.903796  1
  Cl  Cl12  1  0.250000  0.682611  0.994193  1
  Cl  Cl13  1  0.750000  0.317389  0.005807  1
  Cl  Cl14  1  0.250000  0.182611  0.505807  1
  Cl  Cl15  1  0.750000  0.817389  0.494193  1
  Cl  Cl16  1  0.750000  0.732359  0.202643  1
  Cl  Cl17  1  0.250000  0.267641  0.797357  1
  Cl  Cl18  1  0.750000  0.232359  0.297357  1
  Cl  Cl19  1  0.250000  0.767641  0.702643  1
