# generated using pymatgen
data_S2I2O11
_symmetry_space_group_name_H-M   'P 1'
_cell_length_a   9.32091499
_cell_length_b   10.66138438
_cell_length_c   9.35935187
_cell_angle_alpha   90.00000000
_cell_angle_beta   94.54715873
_cell_angle_gamma   90.00000000
_symmetry_Int_Tables_number   1
_chemical_formula_structural   S2I2O11
_chemical_formula_sum   'S8 I8 O44'
_cell_volume   927.14741185
_cell_formula_units_Z   4
loop_
 _symmetry_equiv_pos_site_id
 _symmetry_equiv_pos_as_xyz
  1  'x, y, z'
loop_
 _atom_site_type_symbol
 _atom_site_label
 _atom_site_symmetry_multiplicity
 _atom_site_fract_x
 _atom_site_fract_y
 _atom_site_fract_z
 _atom_site_occupancy
  S  S0  1  0.280314  0.153731  0.313564  1
  S  S1  1  0.219686  0.653731  0.686436  1
  S  S2  1  0.719686  0.846269  0.686436  1
  S  S3  1  0.780314  0.346269  0.313564  1
  S  S4  1  0.277643  0.404800  0.194931  1
  S  S5  1  0.222357  0.904800  0.805069  1
  S  S6  1  0.722357  0.595200  0.805069  1
  S  S7  1  0.777643  0.095200  0.194931  1
  I  I8  1  0.367143  0.221960  0.917483  1
  I  I9  1  0.132857  0.721960  0.082517  1
  I  I10  1  0.632857  0.778040  0.082517  1
  I  I11  1  0.867143  0.278040  0.917483  1
  I  I12  1  0.367187  0.332888  0.611592  1
  I  I13  1  0.132813  0.832888  0.388408  1
  I  I14  1  0.632813  0.667112  0.388408  1
  I  I15  1  0.867187  0.167112  0.611592  1
  O  O16  1  0.178398  0.339386  0.580198  1
  O  O17  1  0.321602  0.839386  0.419802  1
  O  O18  1  0.821602  0.660614  0.419802  1
  O  O19  1  0.678398  0.160614  0.580198  1
  O  O20  1  0.387038  0.171658  0.708277  1
  O  O21  1  0.112962  0.671658  0.291723  1
  O  O22  1  0.612962  0.828342  0.291723  1
  O  O23  1  0.887038  0.328342  0.708277  1
  O  O24  1  0.177409  0.212936  0.916678  1
  O  O25  1  0.322591  0.712936  0.083322  1
  O  O26  1  0.822591  0.787064  0.083322  1
  O  O27  1  0.677409  0.287064  0.916678  1
  O  O28  1  0.382875  0.383444  0.824226  1
  O  O29  1  0.117125  0.883444  0.175774  1
  O  O30  1  0.344789  0.095800  0.195509  1
  O  O31  1  0.617125  0.616556  0.175774  1
  O  O32  1  0.893933  0.147053  0.108315  1
  O  O33  1  0.606067  0.647053  0.891685  1
  O  O34  1  0.106067  0.852947  0.891685  1
  O  O35  1  0.393933  0.352947  0.108315  1
  O  O36  1  0.663612  0.031895  0.108633  1
  O  O37  1  0.836388  0.531895  0.891367  1
  O  O38  1  0.336388  0.968105  0.891367  1
  O  O39  1  0.163612  0.468105  0.108633  1
  O  O40  1  0.894330  0.294716  0.420340  1
  O  O41  1  0.605670  0.794716  0.579660  1
  O  O42  1  0.105670  0.705284  0.579660  1
  O  O43  1  0.394330  0.205284  0.420340  1
  O  O44  1  0.691533  0.219793  0.248832  1
  O  O45  1  0.808467  0.719793  0.751168  1
  O  O46  1  0.308467  0.780207  0.751168  1
  O  O47  1  0.191533  0.280207  0.248832  1
  O  O48  1  0.666591  0.412817  0.378455  1
  O  O49  1  0.833409  0.912817  0.621545  1
  O  O50  1  0.333409  0.587183  0.621545  1
  O  O51  1  0.166591  0.087183  0.378455  1
  O  O52  1  0.841739  0.032468  0.320544  1
  O  O53  1  0.658261  0.532468  0.679456  1
  O  O54  1  0.158261  0.967532  0.679456  1
  O  O55  1  0.341739  0.467532  0.320544  1
  O  O56  1  0.844789  0.404200  0.195509  1
  O  O57  1  0.655211  0.904200  0.804491  1
  O  O58  1  0.155211  0.595800  0.804491  1
  O  O59  1  0.882875  0.116556  0.824226  1
