# generated using pymatgen
data_EuSnF7
_symmetry_space_group_name_H-M   'P 1'
_cell_length_a   6.17322968
_cell_length_b   5.82896698
_cell_length_c   8.37916051
_cell_angle_alpha   90.00000000
_cell_angle_beta   102.66590692
_cell_angle_gamma   90.00000000
_symmetry_Int_Tables_number   1
_chemical_formula_structural   EuSnF7
_chemical_formula_sum   'Eu2 Sn2 F14'
_cell_volume   294.17472059
_cell_formula_units_Z   2
loop_
 _symmetry_equiv_pos_site_id
 _symmetry_equiv_pos_as_xyz
  1  'x, y, z'
loop_
 _atom_site_type_symbol
 _atom_site_label
 _atom_site_symmetry_multiplicity
 _atom_site_fract_x
 _atom_site_fract_y
 _atom_site_fract_z
 _atom_site_occupancy
  Eu  Eu0  1  0.157630  0.749452  0.186491  1
  Eu  Eu1  1  0.842370  0.249452  0.813509  1
  Sn  Sn2  1  0.686825  0.261934  0.275267  1
  Sn  Sn3  1  0.313175  0.761934  0.724733  1
  F  F4  1  0.452736  0.501212  0.272022  1
  F  F5  1  0.944056  0.933831  0.974695  1
  F  F6  1  0.443854  0.027439  0.256568  1
  F  F7  1  0.055944  0.433831  0.025305  1
  F  F8  1  0.262712  0.752858  0.482415  1
  F  F9  1  0.069981  0.531968  0.713154  1
  F  F10  1  0.899042  0.526953  0.289963  1
  F  F11  1  0.547264  0.001212  0.727978  1
  F  F12  1  0.100958  0.026953  0.710037  1
  F  F13  1  0.635234  0.268552  0.031276  1
  F  F14  1  0.737288  0.252858  0.517585  1
  F  F15  1  0.930019  0.031968  0.286846  1
  F  F16  1  0.556146  0.527439  0.743432  1
  F  F17  1  0.364766  0.768552  0.968724  1
