# generated using pymatgen
data_Li3Cu(PO4)2
_symmetry_space_group_name_H-M   'P 1'
_cell_length_a   8.29671663
_cell_length_b   10.25587376
_cell_length_c   8.30384692
_cell_angle_alpha   90.00000000
_cell_angle_beta   106.95583898
_cell_angle_gamma   90.00000000
_symmetry_Int_Tables_number   1
_chemical_formula_structural   Li3Cu(PO4)2
_chemical_formula_sum   'Li12 Cu4 P8 O32'
_cell_volume   675.86004220
_cell_formula_units_Z   4
loop_
 _symmetry_equiv_pos_site_id
 _symmetry_equiv_pos_as_xyz
  1  'x, y, z'
loop_
 _atom_site_type_symbol
 _atom_site_label
 _atom_site_symmetry_multiplicity
 _atom_site_fract_x
 _atom_site_fract_y
 _atom_site_fract_z
 _atom_site_occupancy
  Li  Li0  1  0.348681  0.334859  0.599825  1
  Li  Li1  1  0.417186  0.842502  0.646644  1
  Li  Li2  1  0.651319  0.834859  0.400175  1
  Li  Li3  1  0.595851  0.149804  0.839572  1
  Li  Li4  1  0.160391  0.665775  0.399228  1
  Li  Li5  1  0.839609  0.165775  0.600772  1
  Li  Li6  1  0.909958  0.660198  0.653945  1
  Li  Li7  1  0.582814  0.342502  0.353356  1
  Li  Li8  1  0.027091  0.421442  0.536212  1
  Li  Li9  1  0.972909  0.921442  0.463788  1
  Li  Li10  1  0.404149  0.649804  0.160428  1
  Li  Li11  1  0.090042  0.160198  0.346055  1
  Cu  Cu12  1  0.838592  0.348264  0.097389  1
  Cu  Cu13  1  0.161408  0.848264  0.902611  1
  Cu  Cu14  1  0.665704  0.652160  0.903622  1
  Cu  Cu15  1  0.334296  0.152160  0.096378  1
  P  P16  1  0.221141  0.088229  0.711846  1
  P  P17  1  0.794921  0.908253  0.769736  1
  P  P18  1  0.778859  0.588229  0.288154  1
  P  P19  1  0.722297  0.409525  0.706298  1
  P  P20  1  0.277703  0.909525  0.293702  1
  P  P21  1  0.708419  0.094932  0.230911  1
  P  P22  1  0.291581  0.594933  0.769089  1
  P  P23  1  0.205079  0.408253  0.230264  1
  O  O24  1  0.743110  0.050720  0.740511  1
  O  O25  1  0.667581  0.168265  0.374397  1
  O  O26  1  0.191361  0.149589  0.872920  1
  O  O27  1  0.144364  0.667191  0.817867  1
  O  O28  1  0.855636  0.167191  0.182133  1
  O  O29  1  0.763074  0.955039  0.279304  1
  O  O30  1  0.256890  0.550720  0.259489  1
  O  O31  1  0.704336  0.334127  0.865404  1
  O  O32  1  0.867998  0.356556  0.648305  1
  O  O33  1  0.254284  0.937302  0.745312  1
  O  O34  1  0.157836  0.345432  0.380244  1
  O  O35  1  0.351467  0.329302  0.193004  1
  O  O36  1  0.046604  0.399668  0.070207  1
  O  O37  1  0.627620  0.651413  0.325802  1
  O  O38  1  0.808639  0.649589  0.127080  1
  O  O39  1  0.242729  0.058544  0.248225  1
  O  O40  1  0.057432  0.102299  0.564533  1
  O  O41  1  0.132002  0.856556  0.351695  1
  O  O42  1  0.372380  0.151413  0.674198  1
  O  O43  1  0.757271  0.558544  0.751775  1
  O  O44  1  0.332419  0.668265  0.625603  1
  O  O45  1  0.445689  0.893707  0.429809  1
  O  O46  1  0.551638  0.101816  0.066930  1
  O  O47  1  0.842164  0.845432  0.619756  1
  O  O48  1  0.554311  0.393707  0.570191  1
  O  O49  1  0.236926  0.455039  0.720696  1
  O  O50  1  0.295664  0.834127  0.134596  1
  O  O51  1  0.745716  0.437302  0.254688  1
  O  O52  1  0.942568  0.602299  0.435467  1
  O  O53  1  0.648533  0.829302  0.806996  1
  O  O54  1  0.448362  0.601816  0.933070  1
  O  O55  1  0.953396  0.899668  0.929793  1
