# generated using pymatgen
data_Al2CuCl8
_symmetry_space_group_name_H-M   'P 1'
_cell_length_a   6.95171013
_cell_length_b   7.63845875
_cell_length_c   12.66479497
_cell_angle_alpha   90.00000000
_cell_angle_beta   95.92827771
_cell_angle_gamma   90.00000000
_symmetry_Int_Tables_number   1
_chemical_formula_structural   Al2CuCl8
_chemical_formula_sum   'Al4 Cu2 Cl16'
_cell_volume   668.90847807
_cell_formula_units_Z   2
loop_
 _symmetry_equiv_pos_site_id
 _symmetry_equiv_pos_as_xyz
  1  'x, y, z'
loop_
 _atom_site_type_symbol
 _atom_site_label
 _atom_site_symmetry_multiplicity
 _atom_site_fract_x
 _atom_site_fract_y
 _atom_site_fract_z
 _atom_site_occupancy
  Al  Al0  1  0.810694  0.739075  0.820252  1
  Al  Al1  1  0.810694  0.760925  0.320252  1
  Al  Al2  1  0.189306  0.260925  0.179748  1
  Al  Al3  1  0.189306  0.239075  0.679748  1
  Cu  Cu4  1  0.000000  0.500000  0.500000  1
  Cu  Cu5  1  0.000000  0.000000  0.000000  1
  Cl  Cl6  1  0.102753  0.740538  0.410485  1
  Cl  Cl7  1  0.897247  0.240538  0.089515  1
  Cl  Cl8  1  0.710298  0.984814  0.892594  1
  Cl  Cl9  1  0.289702  0.484814  0.607406  1
  Cl  Cl10  1  0.289702  0.015186  0.107406  1
  Cl  Cl11  1  0.710298  0.515186  0.392594  1
  Cl  Cl12  1  0.165668  0.270844  0.844396  1
  Cl  Cl13  1  0.834332  0.770844  0.655604  1
  Cl  Cl14  1  0.834332  0.729156  0.155604  1
  Cl  Cl15  1  0.165668  0.229156  0.344396  1
  Cl  Cl16  1  0.649751  0.522192  0.862333  1
  Cl  Cl17  1  0.350249  0.022192  0.637667  1
  Cl  Cl18  1  0.350249  0.477808  0.137667  1
  Cl  Cl19  1  0.649751  0.977808  0.362333  1
  Cl  Cl20  1  0.102753  0.759462  0.910485  1
  Cl  Cl21  1  0.897247  0.259462  0.589515  1
