# generated using pymatgen
data_CoP2(H4O5)2
_symmetry_space_group_name_H-M   'P 1'
_cell_length_a   5.37037289
_cell_length_b   9.99482386
_cell_length_c   8.70312524
_cell_angle_alpha   90.00000000
_cell_angle_beta   123.81093641
_cell_angle_gamma   90.00000000
_symmetry_Int_Tables_number   1
_chemical_formula_structural   CoP2(H4O5)2
_chemical_formula_sum   'Co2 P4 H16 O20'
_cell_volume   388.14341408
_cell_formula_units_Z   2
loop_
 _symmetry_equiv_pos_site_id
 _symmetry_equiv_pos_as_xyz
  1  'x, y, z'
loop_
 _atom_site_type_symbol
 _atom_site_label
 _atom_site_symmetry_multiplicity
 _atom_site_fract_x
 _atom_site_fract_y
 _atom_site_fract_z
 _atom_site_occupancy
  Co  Co0  1  0.000000  0.000000  0.000000  1
  Co  Co1  1  0.000000  0.500000  0.500000  1
  P  P2  1  0.087093  0.783446  0.335913  1
  P  P3  1  0.912907  0.283446  0.164087  1
  P  P4  1  0.912907  0.216554  0.664087  1
  P  P5  1  0.087093  0.716554  0.835913  1
  H  H6  1  0.873806  0.776712  0.487885  1
  H  H7  1  0.126194  0.276712  0.012115  1
  H  H8  1  0.126194  0.223288  0.512115  1
  H  H9  1  0.873806  0.723288  0.987885  1
  H  H10  1  0.440807  0.890313  0.594732  1
  H  H11  1  0.559193  0.390313  0.905268  1
  H  H12  1  0.421476  0.048489  0.734297  1
  H  H13  1  0.578524  0.548489  0.765703  1
  H  H14  1  0.578524  0.951511  0.265703  1
  H  H15  1  0.421476  0.451511  0.234297  1
  H  H16  1  0.411823  0.922757  0.838102  1
  H  H17  1  0.588177  0.422757  0.661898  1
  H  H18  1  0.588177  0.077243  0.161898  1
  H  H19  1  0.411823  0.577243  0.338102  1
  H  H20  1  0.559193  0.109687  0.405268  1
  H  H21  1  0.440807  0.609687  0.094732  1
  O  O22  1  0.611523  0.361376  0.030863  1
  O  O23  1  0.611523  0.138624  0.530863  1
  O  O24  1  0.847768  0.669915  0.878289  1
  O  O25  1  0.152232  0.169915  0.621711  1
  O  O26  1  0.152232  0.330085  0.121711  1
  O  O27  1  0.388477  0.638624  0.969137  1
  O  O28  1  0.531438  0.536547  0.293100  1
  O  O29  1  0.468562  0.036547  0.206900  1
  O  O30  1  0.468562  0.463453  0.706900  1
  O  O31  1  0.531438  0.963453  0.793100  1
  O  O32  1  0.135690  0.632156  0.367437  1
  O  O33  1  0.864310  0.132156  0.132563  1
  O  O34  1  0.864310  0.367844  0.632563  1
  O  O35  1  0.135690  0.867844  0.867437  1
  O  O36  1  0.977580  0.827867  0.140125  1
  O  O37  1  0.022420  0.327867  0.359875  1
  O  O38  1  0.022420  0.172133  0.859875  1
  O  O39  1  0.977580  0.672133  0.640125  1
  O  O40  1  0.388477  0.861376  0.469137  1
  O  O41  1  0.847768  0.830085  0.378289  1
