# generated using pymatgen
data_NdTa3O9
_symmetry_space_group_name_H-M   'P 1'
_cell_length_a   5.43975120
_cell_length_b   7.61296502
_cell_length_c   8.30865127
_cell_angle_alpha   90.00000000
_cell_angle_beta   92.42348419
_cell_angle_gamma   90.00000000
_symmetry_Int_Tables_number   1
_chemical_formula_structural   NdTa3O9
_chemical_formula_sum   'Nd2 Ta6 O18'
_cell_volume   343.77539356
_cell_formula_units_Z   2
loop_
 _symmetry_equiv_pos_site_id
 _symmetry_equiv_pos_as_xyz
  1  'x, y, z'
loop_
 _atom_site_type_symbol
 _atom_site_label
 _atom_site_symmetry_multiplicity
 _atom_site_fract_x
 _atom_site_fract_y
 _atom_site_fract_z
 _atom_site_occupancy
  Nd  Nd0  1  0.034529  0.750000  0.434534  1
  Nd  Nd1  1  0.965471  0.250000  0.565466  1
  Ta  Ta2  1  0.526751  0.493249  0.301748  1
  Ta  Ta3  1  0.473249  0.993249  0.698252  1
  Ta  Ta4  1  0.000000  0.500000  0.000000  1
  Ta  Ta5  1  0.000000  0.000000  0.000000  1
  Ta  Ta6  1  0.526751  0.006751  0.301748  1
  Ta  Ta7  1  0.473249  0.506751  0.698252  1
  O  O8  1  0.439396  0.750000  0.313251  1
  O  O9  1  0.560604  0.250000  0.686749  1
  O  O10  1  0.083521  0.750000  0.982368  1
  O  O11  1  0.916479  0.250000  0.017632  1
  O  O12  1  0.647946  0.250000  0.338994  1
  O  O13  1  0.352054  0.750000  0.661006  1
  O  O14  1  0.264781  0.037899  0.467329  1
  O  O15  1  0.735219  0.537899  0.532671  1
  O  O16  1  0.845083  0.557024  0.212620  1
  O  O17  1  0.154917  0.057024  0.787380  1
  O  O18  1  0.154917  0.442976  0.787380  1
  O  O19  1  0.845083  0.942976  0.212620  1
  O  O20  1  0.318053  0.046986  0.122498  1
  O  O21  1  0.681947  0.546986  0.877502  1
  O  O22  1  0.681947  0.953014  0.877502  1
  O  O23  1  0.318053  0.453014  0.122498  1
  O  O24  1  0.264781  0.462101  0.467329  1
  O  O25  1  0.735219  0.962101  0.532671  1
