# generated using pymatgen
data_UCoGe
_symmetry_space_group_name_H-M   'P 1'
_cell_length_a   4.28721999
_cell_length_b   6.69300707
_cell_length_c   7.09945150
_cell_angle_alpha   90.00000000
_cell_angle_beta   90.00000000
_cell_angle_gamma   90.00000000
_symmetry_Int_Tables_number   1
_chemical_formula_structural   UCoGe
_chemical_formula_sum   'U4 Co4 Ge4'
_cell_volume   203.71445642
_cell_formula_units_Z   4
loop_
 _symmetry_equiv_pos_site_id
 _symmetry_equiv_pos_as_xyz
  1  'x, y, z'
loop_
 _atom_site_type_symbol
 _atom_site_label
 _atom_site_symmetry_multiplicity
 _atom_site_fract_x
 _atom_site_fract_y
 _atom_site_fract_z
 _atom_site_occupancy
  U  U0  1  0.750000  0.482786  0.296478  1
  U  U1  1  0.750000  0.982786  0.203522  1
  U  U2  1  0.250000  0.517214  0.703522  1
  U  U3  1  0.250000  0.017214  0.796478  1
  Co  Co4  1  0.750000  0.216271  0.572013  1
  Co  Co5  1  0.750000  0.716271  0.927987  1
  Co  Co6  1  0.250000  0.783729  0.427987  1
  Co  Co7  1  0.250000  0.283729  0.072013  1
  Ge  Ge8  1  0.750000  0.809883  0.592014  1
  Ge  Ge9  1  0.750000  0.309883  0.907986  1
  Ge  Ge10  1  0.250000  0.190117  0.407986  1
  Ge  Ge11  1  0.250000  0.690117  0.092014  1
