# generated using pymatgen
data_In2Cu2O5
_symmetry_space_group_name_H-M   'P 1'
_cell_length_a   3.34853328
_cell_length_b   10.73283668
_cell_length_c   12.46229894
_cell_angle_alpha   90.00000000
_cell_angle_beta   90.00000000
_cell_angle_gamma   90.00000000
_symmetry_Int_Tables_number   1
_chemical_formula_structural   In2Cu2O5
_chemical_formula_sum   'In8 Cu8 O20'
_cell_volume   447.88581192
_cell_formula_units_Z   4
loop_
 _symmetry_equiv_pos_site_id
 _symmetry_equiv_pos_as_xyz
  1  'x, y, z'
loop_
 _atom_site_type_symbol
 _atom_site_label
 _atom_site_symmetry_multiplicity
 _atom_site_fract_x
 _atom_site_fract_y
 _atom_site_fract_z
 _atom_site_occupancy
  In  In0  1  0.281502  0.537993  0.829499  1
  In  In1  1  0.718498  0.462007  0.329499  1
  In  In2  1  0.218498  0.037993  0.829499  1
  In  In3  1  0.781502  0.962007  0.329499  1
  In  In4  1  0.284252  0.712857  0.500197  1
  In  In5  1  0.715748  0.287143  0.000197  1
  In  In6  1  0.215748  0.212857  0.500197  1
  In  In7  1  0.784252  0.787143  0.000197  1
  Cu  Cu8  1  0.841265  0.760323  0.717953  1
  Cu  Cu9  1  0.158735  0.239677  0.217953  1
  Cu  Cu10  1  0.658735  0.260323  0.717953  1
  Cu  Cu11  1  0.341265  0.739677  0.217953  1
  Cu  Cu12  1  0.828512  0.491797  0.611133  1
  Cu  Cu13  1  0.171488  0.508203  0.111133  1
  Cu  Cu14  1  0.671488  0.991797  0.611133  1
  Cu  Cu15  1  0.328512  0.008203  0.111133  1
  O  O16  1  0.271624  0.920661  0.970611  1
  O  O17  1  0.728376  0.079339  0.470611  1
  O  O18  1  0.228376  0.420661  0.970611  1
  O  O19  1  0.771624  0.579339  0.470611  1
  O  O20  1  0.721063  0.930107  0.761577  1
  O  O21  1  0.278937  0.069893  0.261577  1
  O  O22  1  0.778937  0.430107  0.761577  1
  O  O23  1  0.221063  0.569893  0.261577  1
  O  O24  1  0.175661  0.624933  0.664160  1
  O  O25  1  0.824339  0.375067  0.164160  1
  O  O26  1  0.324339  0.124933  0.664160  1
  O  O27  1  0.675661  0.875067  0.164160  1
  O  O28  1  0.790344  0.821749  0.567276  1
  O  O29  1  0.209656  0.178251  0.067276  1
  O  O30  1  0.709656  0.321749  0.567276  1
  O  O31  1  0.290344  0.678251  0.067276  1
  O  O32  1  0.282986  0.828520  0.358093  1
  O  O33  1  0.717014  0.171480  0.858093  1
  O  O34  1  0.217014  0.328520  0.358093  1
  O  O35  1  0.782986  0.671480  0.858093  1
