# generated using pymatgen
data_LiCu4(PO4)3
_symmetry_space_group_name_H-M   'P 1'
_cell_length_a   8.53499634
_cell_length_b   8.53499634
_cell_length_c   7.24084470
_cell_angle_alpha   69.50520942
_cell_angle_beta   110.49479058
_cell_angle_gamma   89.08532487
_symmetry_Int_Tables_number   1
_chemical_formula_structural   LiCu4(PO4)3
_chemical_formula_sum   'Li2 Cu8 P6 O24'
_cell_volume   457.00150059
_cell_formula_units_Z   2
loop_
 _symmetry_equiv_pos_site_id
 _symmetry_equiv_pos_as_xyz
  1  'x, y, z'
loop_
 _atom_site_type_symbol
 _atom_site_label
 _atom_site_symmetry_multiplicity
 _atom_site_fract_x
 _atom_site_fract_y
 _atom_site_fract_z
 _atom_site_occupancy
  Li  Li0  1  0.995945  0.995945  0.250000  1
  Li  Li1  1  0.004055  0.004055  0.750000  1
  Cu  Cu2  1  0.938694  0.380967  0.354632  1
  Cu  Cu3  1  0.619033  0.061306  0.854632  1
  Cu  Cu4  1  0.506535  0.506535  0.250000  1
  Cu  Cu5  1  0.733908  0.733908  0.750000  1
  Cu  Cu6  1  0.493465  0.493465  0.750000  1
  Cu  Cu7  1  0.061306  0.619033  0.645368  1
  Cu  Cu8  1  0.266092  0.266092  0.250000  1
  Cu  Cu9  1  0.380967  0.938694  0.145368  1
  P  P10  1  0.722028  0.722028  0.250000  1
  P  P11  1  0.887820  0.340735  0.883569  1
  P  P12  1  0.112180  0.659265  0.116431  1
  P  P13  1  0.277972  0.277972  0.750000  1
  P  P14  1  0.340735  0.887820  0.616431  1
  P  P15  1  0.659265  0.112180  0.383569  1
  O  O16  1  0.410198  0.960027  0.791502  1
  O  O17  1  0.468160  0.269383  0.757676  1
  O  O18  1  0.168243  0.830450  0.610503  1
  O  O19  1  0.264086  0.520510  0.166927  1
  O  O20  1  0.479490  0.735914  0.666927  1
  O  O21  1  0.039973  0.589802  0.291502  1
  O  O22  1  0.269383  0.468160  0.742324  1
  O  O23  1  0.830450  0.168243  0.889497  1
  O  O24  1  0.983000  0.693526  0.887219  1
  O  O25  1  0.730617  0.531840  0.257676  1
  O  O26  1  0.169550  0.831757  0.110503  1
  O  O27  1  0.747921  0.835971  0.050331  1
  O  O28  1  0.589802  0.039973  0.208498  1
  O  O29  1  0.252079  0.164029  0.949669  1
  O  O30  1  0.835971  0.747921  0.449669  1
  O  O31  1  0.693526  0.983000  0.612781  1
  O  O32  1  0.306474  0.017000  0.387219  1
  O  O33  1  0.531840  0.730617  0.242324  1
  O  O34  1  0.960027  0.410198  0.708498  1
  O  O35  1  0.735914  0.479490  0.833073  1
  O  O36  1  0.164029  0.252079  0.550331  1
  O  O37  1  0.520510  0.264086  0.333073  1
  O  O38  1  0.017000  0.306474  0.112781  1
  O  O39  1  0.831757  0.169550  0.389497  1
