# generated using pymatgen
data_Fe(SeO3)2
_symmetry_space_group_name_H-M   'P 1'
_cell_length_a   9.25235128
_cell_length_b   9.25235128
_cell_length_c   9.25235128
_cell_angle_alpha   107.93856354
_cell_angle_beta   107.93856354
_cell_angle_gamma   112.58204179
_symmetry_Int_Tables_number   1
_chemical_formula_structural   Fe(SeO3)2
_chemical_formula_sum   'Fe4 Se8 O24'
_cell_volume   608.36967524
_cell_formula_units_Z   4
loop_
 _symmetry_equiv_pos_site_id
 _symmetry_equiv_pos_as_xyz
  1  'x, y, z'
loop_
 _atom_site_type_symbol
 _atom_site_label
 _atom_site_symmetry_multiplicity
 _atom_site_fract_x
 _atom_site_fract_y
 _atom_site_fract_z
 _atom_site_occupancy
  Fe  Fe0  1  0.334405  0.375000  0.459405  1
  Fe  Fe1  1  0.915595  0.875000  0.540595  1
  Fe  Fe2  1  0.125000  0.665595  0.040595  1
  Fe  Fe3  1  0.625000  0.084405  0.959405  1
  Se  Se4  1  0.831531  0.538574  0.179173  1
  Se  Se5  1  0.890598  0.211426  0.792957  1
  Se  Se6  1  0.902358  0.109402  0.320827  1
  Se  Se7  1  0.418469  0.097642  0.207043  1
  Se  Se8  1  0.347642  0.168469  0.707043  1
  Se  Se9  1  0.788574  0.581531  0.679173  1
  Se  Se10  1  0.461426  0.640598  0.292957  1
  Se  Se11  1  0.359402  0.652358  0.820827  1
  O  O12  1  0.067712  0.410160  0.969406  1
  O  O13  1  0.447358  0.823558  0.778117  1
  O  O14  1  0.182288  0.651695  0.842448  1
  O  O15  1  0.874515  0.584373  0.874494  1
  O  O16  1  0.809247  0.339840  0.157552  1
  O  O17  1  0.709879  0.000021  0.125506  1
  O  O18  1  0.073558  0.197358  0.278117  1
  O  O19  1  0.540121  0.165627  0.790142  1
  O  O20  1  0.660160  0.817712  0.469406  1
  O  O21  1  0.901695  0.932288  0.342448  1
  O  O22  1  0.440753  0.098305  0.030594  1
  O  O23  1  0.204559  0.926442  0.123800  1
  O  O24  1  0.415627  0.290121  0.290142  1
  O  O25  1  0.250021  0.459879  0.625506  1
  O  O26  1  0.834373  0.624515  0.374494  1
  O  O27  1  0.999979  0.125485  0.709858  1
  O  O28  1  0.802642  0.080759  0.876200  1
  O  O29  1  0.045441  0.669241  0.221883  1
  O  O30  1  0.330759  0.552642  0.376200  1
  O  O31  1  0.348305  0.190753  0.530594  1
  O  O32  1  0.589840  0.559247  0.657552  1
  O  O33  1  0.375485  0.749979  0.209858  1
  O  O34  1  0.176442  0.954559  0.623800  1
  O  O35  1  0.919241  0.795441  0.721883  1
