# generated using pymatgen
data_NaNp2F9
_symmetry_space_group_name_H-M   'P 1'
_cell_length_a   6.95439854
_cell_length_b   8.68530742
_cell_length_c   11.10494050
_cell_angle_alpha   90.00000000
_cell_angle_beta   90.00000000
_cell_angle_gamma   90.00000000
_symmetry_Int_Tables_number   1
_chemical_formula_structural   NaNp2F9
_chemical_formula_sum   'Na4 Np8 F36'
_cell_volume   670.75050216
_cell_formula_units_Z   4
loop_
 _symmetry_equiv_pos_site_id
 _symmetry_equiv_pos_as_xyz
  1  'x, y, z'
loop_
 _atom_site_type_symbol
 _atom_site_label
 _atom_site_symmetry_multiplicity
 _atom_site_fract_x
 _atom_site_fract_y
 _atom_site_fract_z
 _atom_site_occupancy
  Na  Na0  1  0.349645  0.035360  0.750000  1
  Na  Na1  1  0.849645  0.464640  0.250000  1
  Na  Na2  1  0.650355  0.964640  0.250000  1
  Na  Na3  1  0.150355  0.535360  0.750000  1
  Np  Np4  1  0.661026  0.671848  0.951911  1
  Np  Np5  1  0.838974  0.171848  0.951911  1
  Np  Np6  1  0.338974  0.328152  0.451911  1
  Np  Np7  1  0.161026  0.828152  0.451911  1
  Np  Np8  1  0.161026  0.828152  0.048089  1
  Np  Np9  1  0.838974  0.171848  0.548089  1
  Np  Np10  1  0.338974  0.328152  0.048089  1
  Np  Np11  1  0.661026  0.671848  0.548089  1
  F  F12  1  0.579881  0.501322  0.104600  1
  F  F13  1  0.479103  0.798298  0.103200  1
  F  F14  1  0.141749  0.291452  0.612014  1
  F  F15  1  0.520897  0.201702  0.896800  1
  F  F16  1  0.801178  0.431575  0.919083  1
  F  F17  1  0.079881  0.998678  0.604600  1
  F  F18  1  0.420119  0.498678  0.604600  1
  F  F19  1  0.858251  0.708548  0.387986  1
  F  F20  1  0.979103  0.701702  0.603200  1
  F  F21  1  0.198822  0.568425  0.080917  1
  F  F22  1  0.641749  0.208548  0.387986  1
  F  F23  1  0.020897  0.298298  0.396800  1
  F  F24  1  0.698822  0.931575  0.580917  1
  F  F25  1  0.161165  0.828007  0.250000  1
  F  F26  1  0.579881  0.501322  0.395400  1
  F  F27  1  0.338835  0.328007  0.250000  1
  F  F28  1  0.858251  0.708548  0.112014  1
  F  F29  1  0.020897  0.298298  0.103200  1
  F  F30  1  0.661165  0.671993  0.750000  1
  F  F31  1  0.358251  0.791452  0.612014  1
  F  F32  1  0.920119  0.001322  0.104600  1
  F  F33  1  0.479103  0.798298  0.396800  1
  F  F34  1  0.301178  0.068425  0.419083  1
  F  F35  1  0.301178  0.068425  0.080917  1
  F  F36  1  0.698822  0.931575  0.919083  1
  F  F37  1  0.979103  0.701702  0.896800  1
  F  F38  1  0.198822  0.568425  0.419083  1
  F  F39  1  0.358251  0.791452  0.887986  1
  F  F40  1  0.838835  0.171993  0.750000  1
  F  F41  1  0.641749  0.208548  0.112014  1
  F  F42  1  0.420119  0.498678  0.895400  1
  F  F43  1  0.079881  0.998678  0.895400  1
  F  F44  1  0.801178  0.431575  0.580917  1
  F  F45  1  0.520897  0.201702  0.603200  1
  F  F46  1  0.141749  0.291452  0.887986  1
  F  F47  1  0.920119  0.001322  0.395400  1
