# generated using pymatgen
data_Na3CrP8O23
_symmetry_space_group_name_H-M   'P 1'
_cell_length_a   12.14451207
_cell_length_b   12.14451207
_cell_length_c   12.14451207
_cell_angle_alpha   90.00000000
_cell_angle_beta   90.00000000
_cell_angle_gamma   90.00000000
_symmetry_Int_Tables_number   1
_chemical_formula_structural   Na3CrP8O23
_chemical_formula_sum   'Na12 Cr4 P32 O92'
_cell_volume   1791.18404677
_cell_formula_units_Z   4
loop_
 _symmetry_equiv_pos_site_id
 _symmetry_equiv_pos_as_xyz
  1  'x, y, z'
loop_
 _atom_site_type_symbol
 _atom_site_label
 _atom_site_symmetry_multiplicity
 _atom_site_fract_x
 _atom_site_fract_y
 _atom_site_fract_z
 _atom_site_occupancy
  Na  Na0  1  0.375000  0.955717  0.794283  1
  Na  Na1  1  0.875000  0.544283  0.205717  1
  Na  Na2  1  0.044283  0.294283  0.125000  1
  Na  Na3  1  0.955717  0.794283  0.375000  1
  Na  Na4  1  0.205717  0.875000  0.544283  1
  Na  Na5  1  0.294283  0.125000  0.044283  1
  Na  Na6  1  0.455717  0.705717  0.625000  1
  Na  Na7  1  0.794283  0.375000  0.955717  1
  Na  Na8  1  0.705717  0.625000  0.455717  1
  Na  Na9  1  0.544283  0.205717  0.875000  1
  Na  Na10  1  0.625000  0.455717  0.705717  1
  Na  Na11  1  0.125000  0.044283  0.294283  1
  Cr  Cr12  1  0.875000  0.125000  0.625000  1
  Cr  Cr13  1  0.125000  0.625000  0.875000  1
  Cr  Cr14  1  0.625000  0.875000  0.125000  1
  Cr  Cr15  1  0.375000  0.375000  0.375000  1
  P  P16  1  0.068815  0.360553  0.854194  1
  P  P17  1  0.895806  0.389447  0.681185  1
  P  P18  1  0.360553  0.854194  0.068815  1
  P  P19  1  0.860553  0.645806  0.931185  1
  P  P20  1  0.639447  0.354194  0.431185  1
  P  P21  1  0.645806  0.931185  0.860553  1
  P  P22  1  0.431185  0.639447  0.354194  1
  P  P23  1  0.931185  0.860553  0.645806  1
  P  P24  1  0.854194  0.068815  0.360553  1
  P  P25  1  0.604194  0.610553  0.181185  1
  P  P26  1  0.354194  0.431185  0.639447  1
  P  P27  1  0.145806  0.568815  0.139447  1
  P  P28  1  0.818815  0.104194  0.889447  1
  P  P29  1  0.395806  0.110553  0.318815  1
  P  P30  1  0.104194  0.889447  0.818815  1
  P  P31  1  0.681185  0.895806  0.389447  1
  P  P32  1  0.318815  0.395806  0.110553  1
  P  P33  1  0.889447  0.818815  0.104194  1
  P  P34  1  0.389447  0.681185  0.895806  1
  P  P35  1  0.139447  0.145806  0.568815  1
  P  P36  1  0.181185  0.604194  0.610553  1
  P  P37  1  0.110553  0.318815  0.395806  1
  P  P38  1  0.610553  0.181185  0.604194  1
  P  P39  1  0.017563  0.017563  0.017563  1
  P  P40  1  0.267563  0.232437  0.767563  1
  P  P41  1  0.767563  0.267563  0.232437  1
  P  P42  1  0.232437  0.767563  0.267563  1
  P  P43  1  0.482437  0.982437  0.517563  1
  P  P44  1  0.517563  0.482437  0.982437  1
  P  P45  1  0.982437  0.517563  0.482437  1
  P  P46  1  0.732437  0.732437  0.732437  1
  P  P47  1  0.568815  0.139447  0.145806  1
  O  O48  1  0.661951  0.661951  0.661951  1
  O  O49  1  0.911951  0.588049  0.411951  1
  O  O50  1  0.588049  0.411951  0.911951  1
  O  O51  1  0.411951  0.911951  0.588049  1
  O  O52  1  0.161951  0.838049  0.338049  1
  O  O53  1  0.838049  0.338049  0.161951  1
  O  O54  1  0.338049  0.161951  0.838049  1
  O  O55  1  0.088049  0.088049  0.088049  1
  O  O56  1  0.437004  0.511329  0.680467  1
  O  O57  1  0.937004  0.988671  0.319533  1
  O  O58  1  0.511329  0.680467  0.437004  1
  O  O59  1  0.488671  0.180467  0.062996  1
  O  O60  1  0.680467  0.437004  0.511329  1
  O  O61  1  0.819533  0.562996  0.011329  1
  O  O62  1  0.187004  0.930467  0.738671  1
  O  O63  1  0.687004  0.569533  0.261329  1
  O  O64  1  0.812996  0.430467  0.761329  1
  O  O65  1  0.569533  0.261329  0.687004  1
  O  O66  1  0.761329  0.812996  0.430467  1
  O  O67  1  0.261329  0.687004  0.569533  1
  O  O68  1  0.930467  0.738671  0.187004  1
  O  O69  1  0.738671  0.187004  0.930467  1
  O  O70  1  0.430467  0.761329  0.812996  1
  O  O71  1  0.069533  0.238671  0.312996  1
  O  O72  1  0.238671  0.312996  0.069533  1
  O  O73  1  0.319533  0.937004  0.988671  1
  O  O74  1  0.180467  0.062996  0.488671  1
  O  O75  1  0.011329  0.819533  0.562996  1
  O  O76  1  0.988671  0.319533  0.937004  1
  O  O77  1  0.062996  0.488671  0.180467  1
  O  O78  1  0.562996  0.011329  0.819533  1
  O  O79  1  0.312996  0.069533  0.238671  1
  O  O80  1  0.625000  0.233489  0.483489  1
  O  O81  1  0.766511  0.983489  0.875000  1
  O  O82  1  0.739091  0.326697  0.344611  1
  O  O83  1  0.483489  0.625000  0.233489  1
  O  O84  1  0.233489  0.483489  0.625000  1
  O  O85  1  0.516511  0.125000  0.266511  1
  O  O86  1  0.983489  0.875000  0.766511  1
  O  O87  1  0.733489  0.016511  0.375000  1
  O  O88  1  0.266511  0.516511  0.125000  1
  O  O89  1  0.875000  0.766511  0.983489  1
  O  O90  1  0.375000  0.733489  0.016511  1
  O  O91  1  0.125000  0.266511  0.516511  1
  O  O92  1  0.326697  0.344611  0.739091  1
  O  O93  1  0.826697  0.155389  0.260909  1
  O  O94  1  0.344611  0.739091  0.326697  1
  O  O95  1  0.655389  0.239091  0.173303  1
  O  O96  1  0.038959  0.121243  0.636721  1
  O  O97  1  0.288959  0.613279  0.871243  1
  O  O98  1  0.788959  0.886721  0.128757  1
  O  O99  1  0.386721  0.371243  0.211041  1
  O  O100  1  0.613279  0.871243  0.288959  1
  O  O101  1  0.128757  0.788959  0.886721  1
  O  O102  1  0.371243  0.211041  0.386721  1
  O  O103  1  0.636721  0.038959  0.121243  1
  O  O104  1  0.121243  0.636721  0.038959  1
  O  O105  1  0.378757  0.363279  0.538959  1
  O  O106  1  0.136721  0.461041  0.878757  1
  O  O107  1  0.878757  0.136721  0.461041  1
  O  O108  1  0.863279  0.961041  0.621243  1
  O  O109  1  0.363279  0.538959  0.378757  1
  O  O110  1  0.621243  0.863279  0.961041  1
  O  O111  1  0.538959  0.378757  0.363279  1
  O  O112  1  0.961041  0.621243  0.863279  1
  O  O113  1  0.461041  0.878757  0.136721  1
  O  O114  1  0.871243  0.288959  0.613279  1
  O  O115  1  0.628757  0.711041  0.113279  1
  O  O116  1  0.886721  0.128757  0.788959  1
  O  O117  1  0.113279  0.628757  0.711041  1
  O  O118  1  0.211041  0.386721  0.371243  1
  O  O119  1  0.711041  0.113279  0.628757  1
  O  O120  1  0.423303  0.010909  0.405389  1
  O  O121  1  0.673303  0.844611  0.760909  1
  O  O122  1  0.173303  0.655389  0.239091  1
  O  O123  1  0.155389  0.260909  0.826697  1
  O  O124  1  0.844611  0.760909  0.673303  1
  O  O125  1  0.239091  0.173303  0.655389  1
  O  O126  1  0.260909  0.826697  0.155389  1
  O  O127  1  0.405389  0.423303  0.010909  1
  O  O128  1  0.010909  0.405389  0.423303  1
  O  O129  1  0.489091  0.594611  0.923303  1
  O  O130  1  0.905389  0.076697  0.989091  1
  O  O131  1  0.989091  0.905389  0.076697  1
  O  O132  1  0.094611  0.576697  0.510909  1
  O  O133  1  0.594611  0.923303  0.489091  1
  O  O134  1  0.510909  0.094611  0.576697  1
  O  O135  1  0.923303  0.489091  0.594611  1
  O  O136  1  0.576697  0.510909  0.094611  1
  O  O137  1  0.076697  0.989091  0.905389  1
  O  O138  1  0.760909  0.673303  0.844611  1
  O  O139  1  0.016511  0.375000  0.733489  1
