# generated using pymatgen
data_UCr2O6
_symmetry_space_group_name_H-M   'P 1'
_cell_length_a   5.10194980
_cell_length_b   5.10194980
_cell_length_c   4.63301562
_cell_angle_alpha   90.00000000
_cell_angle_beta   90.00000000
_cell_angle_gamma   120.00000000
_symmetry_Int_Tables_number   1
_chemical_formula_structural   UCr2O6
_chemical_formula_sum   'U1 Cr2 O6'
_cell_volume   104.43997487
_cell_formula_units_Z   1
loop_
 _symmetry_equiv_pos_site_id
 _symmetry_equiv_pos_as_xyz
  1  'x, y, z'
loop_
 _atom_site_type_symbol
 _atom_site_label
 _atom_site_symmetry_multiplicity
 _atom_site_fract_x
 _atom_site_fract_y
 _atom_site_fract_z
 _atom_site_occupancy
  U  U0  1  0.000000  0.000000  0.000000  1
  Cr  Cr1  1  0.666667  0.333333  0.500000  1
  Cr  Cr2  1  0.333333  0.666667  0.500000  1
  O  O3  1  0.337735  0.337735  0.736193  1
  O  O4  1  0.662265  0.000000  0.736193  1
  O  O5  1  0.000000  0.662265  0.736193  1
  O  O6  1  0.337735  0.000000  0.263807  1
  O  O7  1  0.000000  0.337735  0.263807  1
  O  O8  1  0.662265  0.662265  0.263807  1
