# generated using pymatgen
data_Ca2Se3O8
_symmetry_space_group_name_H-M   'P 1'
_cell_length_a   5.60354871
_cell_length_b   8.40021083
_cell_length_c   8.87552449
_cell_angle_alpha   92.78612567
_cell_angle_beta   95.82077385
_cell_angle_gamma   97.37169869
_symmetry_Int_Tables_number   1
_chemical_formula_structural   Ca2Se3O8
_chemical_formula_sum   'Ca4 Se6 O16'
_cell_volume   411.38566277
_cell_formula_units_Z   2
loop_
 _symmetry_equiv_pos_site_id
 _symmetry_equiv_pos_as_xyz
  1  'x, y, z'
loop_
 _atom_site_type_symbol
 _atom_site_label
 _atom_site_symmetry_multiplicity
 _atom_site_fract_x
 _atom_site_fract_y
 _atom_site_fract_z
 _atom_site_occupancy
  Ca  Ca0  1  0.291600  0.161786  0.961491  1
  Ca  Ca1  1  0.708400  0.838214  0.038509  1
  Ca  Ca2  1  0.241693  0.955716  0.348234  1
  Ca  Ca3  1  0.758307  0.044284  0.651766  1
  Se  Se4  1  0.824916  0.188781  0.238204  1
  Se  Se5  1  0.175084  0.811219  0.761796  1
  Se  Se6  1  0.229364  0.556637  0.182647  1
  Se  Se7  1  0.770636  0.443363  0.817353  1
  Se  Se8  1  0.274761  0.319921  0.578801  1
  Se  Se9  1  0.725240  0.680079  0.421199  1
  O  O10  1  0.550112  0.819287  0.476550  1
  O  O11  1  0.449888  0.180713  0.523450  1
  O  O12  1  0.871436  0.765203  0.279079  1
  O  O13  1  0.128564  0.234797  0.720921  1
  O  O14  1  0.494531  0.477204  0.685506  1
  O  O15  1  0.505469  0.522796  0.314494  1
  O  O16  1  0.677746  0.255161  0.870368  1
  O  O17  1  0.322254  0.744839  0.129632  1
  O  O18  1  0.746565  0.574693  0.960842  1
  O  O19  1  0.253435  0.425307  0.039158  1
  O  O20  1  0.086337  0.870472  0.584292  1
  O  O21  1  0.913663  0.129528  0.415708  1
  O  O22  1  0.452228  0.926887  0.821872  1
  O  O23  1  0.547772  0.073113  0.178128  1
  O  O24  1  0.989615  0.920366  0.860059  1
  O  O25  1  0.010385  0.079634  0.139941  1
