# generated using pymatgen
data_Yb(Mo3S4)2
_symmetry_space_group_name_H-M   'P 1'
_cell_length_a   6.53371480
_cell_length_b   6.53371480
_cell_length_c   6.53371480
_cell_angle_alpha   89.42893981
_cell_angle_beta   89.42893981
_cell_angle_gamma   89.42893981
_symmetry_Int_Tables_number   1
_chemical_formula_structural   Yb(Mo3S4)2
_chemical_formula_sum   'Yb1 Mo6 S8'
_cell_volume   278.87926764
_cell_formula_units_Z   1
loop_
 _symmetry_equiv_pos_site_id
 _symmetry_equiv_pos_as_xyz
  1  'x, y, z'
loop_
 _atom_site_type_symbol
 _atom_site_label
 _atom_site_symmetry_multiplicity
 _atom_site_fract_x
 _atom_site_fract_y
 _atom_site_fract_z
 _atom_site_occupancy
  Yb  Yb0  1  0.000000  0.000000  0.000000  1
  Mo  Mo1  1  0.440459  0.776575  0.581821  1
  Mo  Mo2  1  0.223425  0.418179  0.559541  1
  Mo  Mo3  1  0.418179  0.559541  0.223425  1
  Mo  Mo4  1  0.581821  0.440459  0.776575  1
  Mo  Mo5  1  0.776575  0.581821  0.440459  1
  Mo  Mo6  1  0.559541  0.223425  0.418179  1
  S  S7  1  0.238960  0.238960  0.238960  1
  S  S8  1  0.376614  0.127691  0.745926  1
  S  S9  1  0.127691  0.745926  0.376614  1
  S  S10  1  0.745926  0.376614  0.127691  1
  S  S11  1  0.623386  0.872309  0.254074  1
  S  S12  1  0.872309  0.254074  0.623386  1
  S  S13  1  0.761040  0.761040  0.761040  1
  S  S14  1  0.254074  0.623386  0.872309  1
