# generated using pymatgen
data_K2VH2OF5
_symmetry_space_group_name_H-M   'P 1'
_cell_length_a   6.36781452
_cell_length_b   6.36781452
_cell_length_c   8.03733416
_cell_angle_alpha   85.66695735
_cell_angle_beta   94.33304265
_cell_angle_gamma   102.41745185
_symmetry_Int_Tables_number   1
_chemical_formula_structural   K2VH2OF5
_chemical_formula_sum   'K4 V2 H4 O2 F10'
_cell_volume   316.78351569
_cell_formula_units_Z   2
loop_
 _symmetry_equiv_pos_site_id
 _symmetry_equiv_pos_as_xyz
  1  'x, y, z'
loop_
 _atom_site_type_symbol
 _atom_site_label
 _atom_site_symmetry_multiplicity
 _atom_site_fract_x
 _atom_site_fract_y
 _atom_site_fract_z
 _atom_site_occupancy
  K  K0  1  0.702165  0.297922  0.032900  1
  K  K1  1  0.297922  0.702165  0.467100  1
  K  K2  1  0.297835  0.702078  0.967100  1
  K  K3  1  0.702078  0.297835  0.532900  1
  V  V4  1  0.200898  0.200898  0.250000  1
  V  V5  1  0.799102  0.799102  0.750000  1
  H  H6  1  0.900887  0.851031  0.152118  1
  H  H7  1  0.851031  0.900887  0.347882  1
  H  H8  1  0.099113  0.148969  0.847882  1
  H  H9  1  0.148969  0.099113  0.652118  1
  O  O10  1  0.945075  0.945075  0.250000  1
  O  O11  1  0.054925  0.054925  0.750000  1
  F  F12  1  0.554493  0.554493  0.750000  1
  F  F13  1  0.445507  0.445507  0.250000  1
  F  F14  1  0.615412  0.990036  0.807267  1
  F  F15  1  0.990036  0.615412  0.692733  1
  F  F16  1  0.384588  0.009964  0.192733  1
  F  F17  1  0.009964  0.384588  0.307267  1
  F  F18  1  0.725794  0.866683  0.505308  1
  F  F19  1  0.866683  0.725794  0.994692  1
  F  F20  1  0.274206  0.133317  0.494692  1
  F  F21  1  0.133317  0.274206  0.005308  1
