# generated using pymatgen
data_U(MnAl2)4
_symmetry_space_group_name_H-M   'P 1'
_cell_length_a   6.71225145
_cell_length_b   6.71225145
_cell_length_c   6.71225145
_cell_angle_alpha   98.33919098
_cell_angle_beta   98.33919098
_cell_angle_gamma   135.22954331
_symmetry_Int_Tables_number   1
_chemical_formula_structural   U(MnAl2)4
_chemical_formula_sum   'U1 Mn4 Al8'
_cell_volume   196.93251558
_cell_formula_units_Z   1
loop_
 _symmetry_equiv_pos_site_id
 _symmetry_equiv_pos_as_xyz
  1  'x, y, z'
loop_
 _atom_site_type_symbol
 _atom_site_label
 _atom_site_symmetry_multiplicity
 _atom_site_fract_x
 _atom_site_fract_y
 _atom_site_fract_z
 _atom_site_occupancy
  U  U0  1  0.000000  0.000000  0.000000  1
  Mn  Mn1  1  0.500000  0.000000  0.000000  1
  Mn  Mn2  1  0.000000  0.500000  0.000000  1
  Mn  Mn3  1  0.500000  0.500000  0.500000  1
  Mn  Mn4  1  0.000000  0.000000  0.500000  1
  Al  Al5  1  0.280925  0.500000  0.780925  1
  Al  Al6  1  0.341045  0.000000  0.341045  1
  Al  Al7  1  0.500000  0.280925  0.780925  1
  Al  Al8  1  0.000000  0.341045  0.341045  1
  Al  Al9  1  0.000000  0.658955  0.658955  1
  Al  Al10  1  0.719075  0.500000  0.219075  1
  Al  Al11  1  0.658955  0.000000  0.658955  1
  Al  Al12  1  0.500000  0.719075  0.219075  1
