# generated using pymatgen
data_KTh6F25
_symmetry_space_group_name_H-M   'P 1'
_cell_length_a   9.78572606
_cell_length_b   9.78572606
_cell_length_c   9.78572606
_cell_angle_alpha   50.66213802
_cell_angle_beta   50.66213802
_cell_angle_gamma   50.66213802
_symmetry_Int_Tables_number   1
_chemical_formula_structural   KTh6F25
_chemical_formula_sum   'K1 Th6 F25'
_cell_volume   516.64130458
_cell_formula_units_Z   1
loop_
 _symmetry_equiv_pos_site_id
 _symmetry_equiv_pos_as_xyz
  1  'x, y, z'
loop_
 _atom_site_type_symbol
 _atom_site_label
 _atom_site_symmetry_multiplicity
 _atom_site_fract_x
 _atom_site_fract_y
 _atom_site_fract_z
 _atom_site_occupancy
  K  K0  1  0.000000  0.000000  0.000000  1
  Th  Th1  1  0.091222  0.591747  0.591747  1
  Th  Th2  1  0.591747  0.591747  0.091222  1
  Th  Th3  1  0.408253  0.408253  0.908778  1
  Th  Th4  1  0.408253  0.908778  0.408253  1
  Th  Th5  1  0.908778  0.408253  0.408253  1
  Th  Th6  1  0.591747  0.091222  0.591747  1
  F  F7  1  0.747339  0.311333  0.747339  1
  F  F8  1  0.311333  0.747339  0.747339  1
  F  F9  1  0.747339  0.747339  0.311333  1
  F  F10  1  0.252661  0.252661  0.688667  1
  F  F11  1  0.252661  0.688667  0.252661  1
  F  F12  1  0.688667  0.252661  0.252661  1
  F  F13  1  0.450041  0.450041  0.450041  1
  F  F14  1  0.500000  0.000000  0.500000  1
  F  F15  1  0.500000  0.500000  0.000000  1
  F  F16  1  0.000000  0.500000  0.500000  1
  F  F17  1  0.448339  0.873213  0.873213  1
  F  F18  1  0.873213  0.448339  0.873213  1
  F  F19  1  0.873213  0.873213  0.448339  1
  F  F20  1  0.126787  0.126787  0.551661  1
  F  F21  1  0.551661  0.126787  0.126787  1
  F  F22  1  0.126787  0.551661  0.126787  1
  F  F23  1  0.821914  0.500000  0.178086  1
  F  F24  1  0.178086  0.821914  0.500000  1
  F  F25  1  0.500000  0.178086  0.821914  1
  F  F26  1  0.178086  0.500000  0.821914  1
  F  F27  1  0.821914  0.178086  0.500000  1
  F  F28  1  0.500000  0.821914  0.178086  1
  F  F29  1  0.789999  0.789999  0.789999  1
  F  F30  1  0.210001  0.210001  0.210001  1
  F  F31  1  0.549959  0.549959  0.549959  1
