# generated using pymatgen
data_AlH18Ru(NF)6
_symmetry_space_group_name_H-M   'P 1'
_cell_length_a   10.07421491
_cell_length_b   10.07421491
_cell_length_c   10.07421491
_cell_angle_alpha   90.00000000
_cell_angle_beta   90.00000000
_cell_angle_gamma   90.00000000
_symmetry_Int_Tables_number   1
_chemical_formula_structural   AlH18Ru(NF)6
_chemical_formula_sum   'Al4 H72 Ru4 N24 F24'
_cell_volume   1022.43011735
_cell_formula_units_Z   4
loop_
 _symmetry_equiv_pos_site_id
 _symmetry_equiv_pos_as_xyz
  1  'x, y, z'
loop_
 _atom_site_type_symbol
 _atom_site_label
 _atom_site_symmetry_multiplicity
 _atom_site_fract_x
 _atom_site_fract_y
 _atom_site_fract_z
 _atom_site_occupancy
  Al  Al0  1  0.000000  0.500000  0.500000  1
  Al  Al1  1  0.500000  0.500000  0.000000  1
  Al  Al2  1  0.500000  0.000000  0.500000  1
  Al  Al3  1  0.000000  0.000000  0.000000  1
  H  H4  1  0.896052  0.242377  0.448109  1
  H  H5  1  0.396052  0.257623  0.551891  1
  H  H6  1  0.103948  0.742377  0.051891  1
  H  H7  1  0.257623  0.551891  0.396052  1
  H  H8  1  0.051891  0.103948  0.742377  1
  H  H9  1  0.551891  0.396052  0.257623  1
  H  H10  1  0.242377  0.448109  0.896052  1
  H  H11  1  0.448109  0.896052  0.242377  1
  H  H12  1  0.742377  0.051891  0.103948  1
  H  H13  1  0.757623  0.948109  0.603948  1
  H  H14  1  0.948109  0.603948  0.757623  1
  H  H15  1  0.603948  0.757623  0.948109  1
  H  H16  1  0.103948  0.757623  0.551891  1
  H  H17  1  0.603948  0.742377  0.448109  1
  H  H18  1  0.896052  0.257623  0.948109  1
  H  H19  1  0.742377  0.448109  0.603948  1
  H  H20  1  0.948109  0.896052  0.257623  1
  H  H21  1  0.448109  0.603948  0.742377  1
  H  H22  1  0.757623  0.551891  0.103948  1
  H  H23  1  0.551891  0.103948  0.757623  1
  H  H24  1  0.257623  0.948109  0.896052  1
  H  H25  1  0.242377  0.051891  0.396052  1
  H  H26  1  0.051891  0.396052  0.242377  1
  H  H27  1  0.396052  0.242377  0.051891  1
  H  H28  1  0.773800  0.132936  0.457264  1
  H  H29  1  0.273800  0.367064  0.542736  1
  H  H30  1  0.226200  0.632936  0.042736  1
  H  H31  1  0.367064  0.542736  0.273800  1
  H  H32  1  0.042736  0.226200  0.632936  1
  H  H33  1  0.542736  0.273800  0.367064  1
  H  H34  1  0.132936  0.457264  0.773800  1
  H  H35  1  0.642420  0.178640  0.129451  1
  H  H36  1  0.457264  0.773800  0.132936  1
  H  H37  1  0.867064  0.957264  0.726200  1
  H  H38  1  0.957264  0.726200  0.867064  1
  H  H39  1  0.726200  0.867064  0.957264  1
  H  H40  1  0.226200  0.867064  0.542736  1
  H  H41  1  0.726200  0.632936  0.457264  1
  H  H42  1  0.773800  0.367064  0.957264  1
  H  H43  1  0.632936  0.457264  0.726200  1
  H  H44  1  0.957264  0.773800  0.367064  1
  H  H45  1  0.457264  0.726200  0.632936  1
  H  H46  1  0.867064  0.542736  0.226200  1
  H  H47  1  0.542736  0.226200  0.867064  1
  H  H48  1  0.367064  0.957264  0.773800  1
  H  H49  1  0.132936  0.042736  0.273800  1
  H  H50  1  0.042736  0.273800  0.132936  1
  H  H51  1  0.273800  0.132936  0.042736  1
  H  H52  1  0.870549  0.142420  0.321360  1
  H  H53  1  0.370549  0.357580  0.678640  1
  H  H54  1  0.129451  0.642420  0.178640  1
  H  H55  1  0.357580  0.678640  0.370549  1
  H  H56  1  0.178640  0.129451  0.642420  1
  H  H57  1  0.678640  0.370549  0.357580  1
  H  H58  1  0.142420  0.321360  0.870549  1
  H  H59  1  0.321360  0.870549  0.142420  1
  H  H60  1  0.370549  0.142420  0.178640  1
  H  H61  1  0.178640  0.370549  0.142420  1
  H  H62  1  0.142420  0.178640  0.370549  1
  H  H63  1  0.357580  0.821360  0.870549  1
  H  H64  1  0.678640  0.129451  0.857580  1
  H  H65  1  0.857580  0.678640  0.129451  1
  H  H66  1  0.321360  0.629451  0.642420  1
  H  H67  1  0.821360  0.870549  0.357580  1
  H  H68  1  0.642420  0.321360  0.629451  1
  H  H69  1  0.870549  0.357580  0.821360  1
  H  H70  1  0.629451  0.642420  0.321360  1
  H  H71  1  0.129451  0.857580  0.678640  1
  H  H72  1  0.629451  0.857580  0.821360  1
  H  H73  1  0.821360  0.629451  0.857580  1
  H  H74  1  0.857580  0.821360  0.629451  1
  H  H75  1  0.632936  0.042736  0.226200  1
  Ru  Ru76  1  0.500000  0.000000  0.000000  1
  Ru  Ru77  1  0.000000  0.000000  0.500000  1
  Ru  Ru78  1  0.000000  0.500000  0.000000  1
  Ru  Ru79  1  0.500000  0.500000  0.500000  1
  N  N80  1  0.869655  0.146820  0.423447  1
  N  N81  1  0.369655  0.353180  0.576553  1
  N  N82  1  0.130345  0.646820  0.076553  1
  N  N83  1  0.353180  0.576553  0.369655  1
  N  N84  1  0.076553  0.130345  0.646820  1
  N  N85  1  0.576553  0.369655  0.353180  1
  N  N86  1  0.146820  0.423447  0.869655  1
  N  N87  1  0.423447  0.869655  0.146820  1
  N  N88  1  0.646820  0.076553  0.130345  1
  N  N89  1  0.853180  0.923447  0.630345  1
  N  N90  1  0.923447  0.630345  0.853180  1
  N  N91  1  0.630345  0.853180  0.923447  1
  N  N92  1  0.130345  0.853180  0.576553  1
  N  N93  1  0.630345  0.646820  0.423447  1
  N  N94  1  0.869655  0.353180  0.923447  1
  N  N95  1  0.646820  0.423447  0.630345  1
  N  N96  1  0.923447  0.869655  0.353180  1
  N  N97  1  0.423447  0.630345  0.646820  1
  N  N98  1  0.853180  0.576553  0.130345  1
  N  N99  1  0.576553  0.130345  0.853180  1
  N  N100  1  0.353180  0.923447  0.869655  1
  N  N101  1  0.146820  0.076553  0.369655  1
  N  N102  1  0.076553  0.369655  0.146820  1
  N  N103  1  0.369655  0.146820  0.076553  1
  F  F104  1  0.613880  0.130179  0.560097  1
  F  F105  1  0.113880  0.369821  0.439903  1
  F  F106  1  0.386120  0.630179  0.939903  1
  F  F107  1  0.369821  0.439903  0.113880  1
  F  F108  1  0.939903  0.386120  0.630179  1
  F  F109  1  0.439903  0.113880  0.369821  1
  F  F110  1  0.130179  0.560097  0.613880  1
  F  F111  1  0.560097  0.613880  0.130179  1
  F  F112  1  0.630179  0.939903  0.386120  1
  F  F113  1  0.869821  0.060097  0.886120  1
  F  F114  1  0.060097  0.886120  0.869821  1
  F  F115  1  0.886120  0.869821  0.060097  1
  F  F116  1  0.386120  0.869821  0.439903  1
  F  F117  1  0.886120  0.630179  0.560097  1
  F  F118  1  0.613880  0.369821  0.060097  1
  F  F119  1  0.630179  0.560097  0.886120  1
  F  F120  1  0.060097  0.613880  0.369821  1
  F  F121  1  0.560097  0.886120  0.630179  1
  F  F122  1  0.869821  0.439903  0.386120  1
  F  F123  1  0.439903  0.386120  0.869821  1
  F  F124  1  0.369821  0.060097  0.613880  1
  F  F125  1  0.130179  0.939903  0.113880  1
  F  F126  1  0.939903  0.113880  0.130179  1
  F  F127  1  0.113880  0.130179  0.939903  1
