# generated using pymatgen
data_Cs3Sb5O14
_symmetry_space_group_name_H-M   'P 1'
_cell_length_a   7.46196685
_cell_length_b   7.47213029
_cell_length_c   25.90694408
_cell_angle_alpha   90.00000000
_cell_angle_beta   90.00000000
_cell_angle_gamma   90.00000000
_symmetry_Int_Tables_number   1
_chemical_formula_structural   Cs3Sb5O14
_chemical_formula_sum   'Cs12 Sb20 O56'
_cell_volume   1444.48800234
_cell_formula_units_Z   4
loop_
 _symmetry_equiv_pos_site_id
 _symmetry_equiv_pos_as_xyz
  1  'x, y, z'
loop_
 _atom_site_type_symbol
 _atom_site_label
 _atom_site_symmetry_multiplicity
 _atom_site_fract_x
 _atom_site_fract_y
 _atom_site_fract_z
 _atom_site_occupancy
  Cs  Cs0  1  0.500000  0.133440  0.881126  1
  Cs  Cs1  1  0.500000  0.866560  0.118874  1
  Cs  Cs2  1  0.500000  0.633440  0.618874  1
  Cs  Cs3  1  0.500000  0.366560  0.381126  1
  Cs  Cs4  1  0.000000  0.140725  0.788820  1
  Cs  Cs5  1  0.000000  0.859275  0.211180  1
  Cs  Cs6  1  0.000000  0.640725  0.711180  1
  Cs  Cs7  1  0.000000  0.359275  0.288820  1
  Cs  Cs8  1  0.500000  0.237243  0.516937  1
  Cs  Cs9  1  0.500000  0.762757  0.483063  1
  Cs  Cs10  1  0.500000  0.737243  0.983063  1
  Cs  Cs11  1  0.500000  0.262757  0.016936  1
  Sb  Sb12  1  0.257190  0.859532  0.350129  1
  Sb  Sb13  1  0.257190  0.140468  0.649871  1
  Sb  Sb14  1  0.742810  0.359532  0.149871  1
  Sb  Sb15  1  0.742810  0.640468  0.850129  1
  Sb  Sb16  1  0.742810  0.140468  0.649871  1
  Sb  Sb17  1  0.742810  0.859532  0.350129  1
  Sb  Sb18  1  0.257190  0.640468  0.850129  1
  Sb  Sb19  1  0.257190  0.359532  0.149871  1
  Sb  Sb20  1  0.500000  0.380356  0.752221  1
  Sb  Sb21  1  0.500000  0.619644  0.247779  1
  Sb  Sb22  1  0.500000  0.880356  0.747779  1
  Sb  Sb23  1  0.500000  0.119644  0.252221  1
  Sb  Sb24  1  0.000000  0.403517  0.940511  1
  Sb  Sb25  1  0.000000  0.596483  0.059489  1
  Sb  Sb26  1  0.000000  0.903517  0.559489  1
  Sb  Sb27  1  0.000000  0.096483  0.440511  1
  Sb  Sb28  1  0.000000  0.420152  0.555286  1
  Sb  Sb29  1  0.000000  0.579848  0.444714  1
  Sb  Sb30  1  0.000000  0.920152  0.944714  1
  Sb  Sb31  1  0.000000  0.079848  0.055286  1
  O  O32  1  0.000000  0.088679  0.663856  1
  O  O33  1  0.000000  0.911321  0.336144  1
  O  O34  1  0.000000  0.588679  0.836144  1
  O  O35  1  0.000000  0.411321  0.163856  1
  O  O36  1  0.233527  0.534573  0.084691  1
  O  O37  1  0.233527  0.465427  0.915309  1
  O  O38  1  0.766473  0.034573  0.415309  1
  O  O39  1  0.766473  0.965427  0.584691  1
  O  O40  1  0.766473  0.465427  0.915309  1
  O  O41  1  0.766473  0.534573  0.084691  1
  O  O42  1  0.233527  0.965427  0.584691  1
  O  O43  1  0.233527  0.034573  0.415309  1
  O  O44  1  0.000000  0.162136  0.911577  1
  O  O45  1  0.000000  0.837864  0.088423  1
  O  O46  1  0.000000  0.662136  0.588423  1
  O  O47  1  0.000000  0.337864  0.411577  1
  O  O48  1  0.500000  0.161336  0.620615  1
  O  O49  1  0.500000  0.838664  0.379385  1
  O  O50  1  0.500000  0.661336  0.879385  1
  O  O51  1  0.500000  0.338664  0.120615  1
  O  O52  1  0.308909  0.571519  0.193754  1
  O  O53  1  0.294048  0.671235  0.297434  1
  O  O54  1  0.308909  0.428481  0.806246  1
  O  O55  1  0.691091  0.928481  0.693754  1
  O  O56  1  0.691091  0.428481  0.806246  1
  O  O57  1  0.691091  0.571519  0.193754  1
  O  O58  1  0.308909  0.928481  0.693754  1
  O  O59  1  0.308909  0.071519  0.306246  1
  O  O60  1  0.175847  0.500000  0.500000  1
  O  O61  1  0.824153  0.000000  0.000000  1
  O  O62  1  0.824153  0.500000  0.500000  1
  O  O63  1  0.175847  0.000000  0.000000  1
  O  O64  1  0.500000  0.372655  0.275585  1
  O  O65  1  0.500000  0.627345  0.724415  1
  O  O66  1  0.500000  0.872655  0.224415  1
  O  O67  1  0.500000  0.127345  0.775585  1
  O  O68  1  0.000000  0.341642  0.015731  1
  O  O69  1  0.000000  0.658358  0.984269  1
  O  O70  1  0.000000  0.841642  0.484269  1
  O  O71  1  0.000000  0.158358  0.515731  1
  O  O72  1  0.200764  0.160742  0.097875  1
  O  O73  1  0.200764  0.839258  0.902125  1
  O  O74  1  0.799236  0.660742  0.402125  1
  O  O75  1  0.799236  0.339258  0.597875  1
  O  O76  1  0.799236  0.839258  0.902125  1
  O  O77  1  0.799236  0.160742  0.097875  1
  O  O78  1  0.200764  0.339258  0.597875  1
  O  O79  1  0.200764  0.660742  0.402125  1
  O  O80  1  0.294048  0.171235  0.202566  1
  O  O81  1  0.294048  0.828765  0.797434  1
  O  O82  1  0.705952  0.671235  0.297434  1
  O  O83  1  0.705952  0.328765  0.702566  1
  O  O84  1  0.705952  0.828765  0.797434  1
  O  O85  1  0.705952  0.171235  0.202566  1
  O  O86  1  0.294048  0.328765  0.702566  1
  O  O87  1  0.691091  0.071519  0.306246  1
