# generated using pymatgen
data_Si2NiP3
_symmetry_space_group_name_H-M   'P 1'
_cell_length_a   6.42586244
_cell_length_b   6.42586244
_cell_length_c   6.42586244
_cell_angle_alpha   148.23367020
_cell_angle_beta   131.01940538
_cell_angle_gamma   59.56790607
_symmetry_Int_Tables_number   1
_chemical_formula_structural   Si2NiP3
_chemical_formula_sum   'Si2 Ni1 P3'
_cell_volume   104.50317820
_cell_formula_units_Z   1
loop_
 _symmetry_equiv_pos_site_id
 _symmetry_equiv_pos_as_xyz
  1  'x, y, z'
loop_
 _atom_site_type_symbol
 _atom_site_label
 _atom_site_symmetry_multiplicity
 _atom_site_fract_x
 _atom_site_fract_y
 _atom_site_fract_z
 _atom_site_occupancy
  Si  Si0  1  0.592368  0.834793  0.757574  1
  Si  Si1  1  0.922781  0.165207  0.757574  1
  Ni  Ni2  1  0.247648  0.500000  0.747648  1
  P  P3  1  0.003820  0.000000  0.003820  1
  P  P4  1  0.326296  0.337905  0.988392  1
  P  P5  1  0.650487  0.662095  0.988392  1
