# generated using pymatgen
data_Li2CuP2O7
_symmetry_space_group_name_H-M   'P 1'
_cell_length_a   5.01269906
_cell_length_b   13.31921126
_cell_length_c   9.20769992
_cell_angle_alpha   90.00000000
_cell_angle_beta   118.80979936
_cell_angle_gamma   90.00000000
_symmetry_Int_Tables_number   1
_chemical_formula_structural   Li2CuP2O7
_chemical_formula_sum   'Li8 Cu4 P8 O28'
_cell_volume   538.66229351
_cell_formula_units_Z   4
loop_
 _symmetry_equiv_pos_site_id
 _symmetry_equiv_pos_as_xyz
  1  'x, y, z'
loop_
 _atom_site_type_symbol
 _atom_site_label
 _atom_site_symmetry_multiplicity
 _atom_site_fract_x
 _atom_site_fract_y
 _atom_site_fract_z
 _atom_site_occupancy
  Li  Li0  1  0.952425  0.112008  0.135286  1
  Li  Li1  1  0.047575  0.887992  0.864714  1
  Li  Li2  1  0.568868  0.295933  0.826748  1
  Li  Li3  1  0.431132  0.795933  0.673252  1
  Li  Li4  1  0.952425  0.387992  0.635286  1
  Li  Li5  1  0.431132  0.704067  0.173252  1
  Li  Li6  1  0.568868  0.204067  0.326748  1
  Li  Li7  1  0.047575  0.612008  0.364714  1
  Cu  Cu8  1  0.949572  0.149369  0.744873  1
  Cu  Cu9  1  0.050428  0.649369  0.755127  1
  Cu  Cu10  1  0.949572  0.350631  0.244873  1
  Cu  Cu11  1  0.050428  0.850631  0.255127  1
  P  P12  1  0.745985  0.829735  0.472416  1
  P  P13  1  0.254015  0.170265  0.527584  1
  P  P14  1  0.516442  0.524596  0.721759  1
  P  P15  1  0.483558  0.024596  0.778241  1
  P  P16  1  0.254015  0.329735  0.027584  1
  P  P17  1  0.516442  0.975404  0.221759  1
  P  P18  1  0.745985  0.670265  0.972416  1
  P  P19  1  0.483558  0.475404  0.278241  1
  O  O20  1  0.689512  0.947156  0.420446  1
  O  O21  1  0.731011  0.107598  0.864987  1
  O  O22  1  0.689512  0.552844  0.920446  1
  O  O23  1  0.441182  0.709423  0.953874  1
  O  O24  1  0.558818  0.290577  0.046126  1
  O  O25  1  0.310488  0.447156  0.079554  1
  O  O26  1  0.268989  0.892402  0.135013  1
  O  O27  1  0.182794  0.278837  0.156856  1
  O  O28  1  0.010443  0.678244  0.147250  1
  O  O29  1  0.765969  0.968163  0.169203  1
  O  O30  1  0.385315  0.078540  0.209315  1
  O  O31  1  0.614685  0.578540  0.290685  1
  O  O32  1  0.234031  0.468163  0.330797  1
  O  O33  1  0.989557  0.321756  0.852750  1
  O  O34  1  0.989557  0.178244  0.352750  1
  O  O35  1  0.731011  0.392402  0.364987  1
  O  O36  1  0.817206  0.778837  0.343144  1
  O  O37  1  0.441182  0.790577  0.453874  1
  O  O38  1  0.558818  0.209423  0.546126  1
  O  O39  1  0.310488  0.052844  0.579554  1
  O  O40  1  0.268989  0.607598  0.635013  1
  O  O41  1  0.010443  0.821756  0.647250  1
  O  O42  1  0.182794  0.221163  0.656856  1
  O  O43  1  0.765969  0.531837  0.669203  1
  O  O44  1  0.385315  0.421460  0.709315  1
  O  O45  1  0.614685  0.921460  0.790685  1
  O  O46  1  0.234031  0.031837  0.830797  1
  O  O47  1  0.817206  0.721163  0.843144  1
