# generated using pymatgen
data_Sn5(BIr3)2
_symmetry_space_group_name_H-M   'P 1'
_cell_length_a   6.71464015
_cell_length_b   6.71464015
_cell_length_c   5.65222225
_cell_angle_alpha   90.00000000
_cell_angle_beta   90.00000000
_cell_angle_gamma   120.00000000
_symmetry_Int_Tables_number   1
_chemical_formula_structural   Sn5(BIr3)2
_chemical_formula_sum   'Sn5 B2 Ir6'
_cell_volume   220.69645030
_cell_formula_units_Z   1
loop_
 _symmetry_equiv_pos_site_id
 _symmetry_equiv_pos_as_xyz
  1  'x, y, z'
loop_
 _atom_site_type_symbol
 _atom_site_label
 _atom_site_symmetry_multiplicity
 _atom_site_fract_x
 _atom_site_fract_y
 _atom_site_fract_z
 _atom_site_occupancy
  Sn  Sn0  1  0.666667  0.333333  0.500000  1
  Sn  Sn1  1  0.000000  0.595921  0.000000  1
  Sn  Sn2  1  0.404079  0.404079  0.000000  1
  Sn  Sn3  1  0.595921  0.000000  0.000000  1
  Sn  Sn4  1  0.333333  0.666667  0.500000  1
  B  B5  1  0.000000  0.000000  0.500000  1
  B  B6  1  0.000000  0.000000  0.000000  1
  Ir  Ir7  1  0.000000  0.252241  0.745497  1
  Ir  Ir8  1  0.000000  0.252241  0.254503  1
  Ir  Ir9  1  0.747759  0.747759  0.254503  1
  Ir  Ir10  1  0.252241  0.000000  0.745497  1
  Ir  Ir11  1  0.252241  0.000000  0.254503  1
  Ir  Ir12  1  0.747759  0.747759  0.745497  1
