# generated using pymatgen
data_U2Si5Tc3
_symmetry_space_group_name_H-M   'P 1'
_cell_length_a   10.94031236
_cell_length_b   10.94031236
_cell_length_c   5.48139110
_cell_angle_alpha   90.00000000
_cell_angle_beta   90.00000000
_cell_angle_gamma   90.00000000
_symmetry_Int_Tables_number   1
_chemical_formula_structural   U2Si5Tc3
_chemical_formula_sum   'U8 Si20 Tc12'
_cell_volume   656.07008261
_cell_formula_units_Z   4
loop_
 _symmetry_equiv_pos_site_id
 _symmetry_equiv_pos_as_xyz
  1  'x, y, z'
loop_
 _atom_site_type_symbol
 _atom_site_label
 _atom_site_symmetry_multiplicity
 _atom_site_fract_x
 _atom_site_fract_y
 _atom_site_fract_z
 _atom_site_occupancy
  U  U0  1  0.235582  0.073688  0.500000  1
  U  U1  1  0.764418  0.926312  0.500000  1
  U  U2  1  0.926312  0.235582  0.500000  1
  U  U3  1  0.073688  0.764418  0.500000  1
  U  U4  1  0.573688  0.735582  0.000000  1
  U  U5  1  0.735582  0.426312  0.000000  1
  U  U6  1  0.264418  0.573688  0.000000  1
  U  U7  1  0.426312  0.264418  0.000000  1
  Si  Si8  1  0.500000  0.500000  0.765286  1
  Si  Si9  1  0.000000  0.000000  0.734714  1
  Si  Si10  1  0.500000  0.500000  0.234714  1
  Si  Si11  1  0.000000  0.000000  0.265286  1
  Si  Si12  1  0.674177  0.174177  0.750000  1
  Si  Si13  1  0.174177  0.325823  0.750000  1
  Si  Si14  1  0.825823  0.674177  0.750000  1
  Si  Si15  1  0.325823  0.825823  0.750000  1
  Si  Si16  1  0.325823  0.825823  0.250000  1
  Si  Si17  1  0.825823  0.674177  0.250000  1
  Si  Si18  1  0.174177  0.325823  0.250000  1
  Si  Si19  1  0.674177  0.174177  0.250000  1
  Si  Si20  1  0.475434  0.184250  0.500000  1
  Si  Si21  1  0.524566  0.815750  0.500000  1
  Si  Si22  1  0.815750  0.475434  0.500000  1
  Si  Si23  1  0.315750  0.024566  0.000000  1
  Si  Si24  1  0.684250  0.975434  0.000000  1
  Si  Si25  1  0.975434  0.315750  0.000000  1
  Si  Si26  1  0.024566  0.684250  0.000000  1
  Si  Si27  1  0.184250  0.524566  0.500000  1
  Tc  Tc28  1  0.141975  0.875611  0.000000  1
  Tc  Tc29  1  0.500000  0.000000  0.750000  1
  Tc  Tc30  1  0.000000  0.500000  0.250000  1
  Tc  Tc31  1  0.500000  0.000000  0.250000  1
  Tc  Tc32  1  0.358025  0.375611  0.500000  1
  Tc  Tc33  1  0.641975  0.624389  0.500000  1
  Tc  Tc34  1  0.624389  0.358025  0.500000  1
  Tc  Tc35  1  0.375611  0.641975  0.500000  1
  Tc  Tc36  1  0.875611  0.858025  0.000000  1
  Tc  Tc37  1  0.858025  0.124389  0.000000  1
  Tc  Tc38  1  0.124389  0.141975  0.000000  1
  Tc  Tc39  1  0.000000  0.500000  0.750000  1
