# generated using pymatgen
data_Ce7O12
_symmetry_space_group_name_H-M   'P 1'
_cell_length_a   6.78871561
_cell_length_b   6.78871561
_cell_length_c   6.78871561
_cell_angle_alpha   99.59758651
_cell_angle_beta   99.59758651
_cell_angle_gamma   99.59758651
_symmetry_Int_Tables_number   1
_chemical_formula_structural   Ce7O12
_chemical_formula_sum   'Ce7 O12'
_cell_volume   298.02115863
_cell_formula_units_Z   1
loop_
 _symmetry_equiv_pos_site_id
 _symmetry_equiv_pos_as_xyz
  1  'x, y, z'
loop_
 _atom_site_type_symbol
 _atom_site_label
 _atom_site_symmetry_multiplicity
 _atom_site_fract_x
 _atom_site_fract_y
 _atom_site_fract_z
 _atom_site_occupancy
  Ce  Ce0  1  0.399096  0.861757  0.700143  1
  Ce  Ce1  1  0.700143  0.399096  0.861757  1
  Ce  Ce2  1  0.861757  0.700143  0.399096  1
  Ce  Ce3  1  0.600904  0.138243  0.299857  1
  Ce  Ce4  1  0.299857  0.600904  0.138243  1
  Ce  Ce5  1  0.138243  0.299857  0.600904  1
  Ce  Ce6  1  0.000000  1.000000  0.000000  1
  O  O7  1  0.679029  0.071768  0.930285  1
  O  O8  1  0.930285  0.679029  0.071768  1
  O  O9  1  0.071768  0.930285  0.679029  1
  O  O10  1  0.320971  0.928232  0.069715  1
  O  O11  1  0.069715  0.320971  0.928232  1
  O  O12  1  0.928232  0.069715  0.320971  1
  O  O13  1  0.417445  0.567554  0.822312  1
  O  O14  1  0.432446  0.177688  0.582555  1
  O  O15  1  0.177688  0.582555  0.432446  1
  O  O16  1  0.582555  0.432446  0.177688  1
  O  O17  1  0.567554  0.822312  0.417445  1
  O  O18  1  0.822312  0.417445  0.567554  1
