# generated using pymatgen
data_Fe2P4PbO14
_symmetry_space_group_name_H-M   'P 1'
_cell_length_a   4.87612038
_cell_length_b   7.20441068
_cell_length_c   8.01715667
_cell_angle_alpha   89.48247945
_cell_angle_beta   92.62282855
_cell_angle_gamma   106.69236453
_symmetry_Int_Tables_number   1
_chemical_formula_structural   Fe2P4PbO14
_chemical_formula_sum   'Fe2 P4 Pb1 O14'
_cell_volume   269.48614053
_cell_formula_units_Z   1
loop_
 _symmetry_equiv_pos_site_id
 _symmetry_equiv_pos_as_xyz
  1  'x, y, z'
loop_
 _atom_site_type_symbol
 _atom_site_label
 _atom_site_symmetry_multiplicity
 _atom_site_fract_x
 _atom_site_fract_y
 _atom_site_fract_z
 _atom_site_occupancy
  Fe  Fe0  1  0.000000  0.000000  0.500000  1
  Fe  Fe1  1  0.500000  0.500000  0.000000  1
  P  P2  1  0.384720  0.770984  0.296607  1
  P  P3  1  0.615280  0.229016  0.703393  1
  P  P4  1  0.970687  0.381741  0.246844  1
  P  P5  1  0.029313  0.618259  0.753156  1
  Pb  Pb6  1  0.000000  0.000000  0.000000  1
  O  O7  1  0.485937  0.757500  0.116534  1
  O  O8  1  0.514063  0.242500  0.883466  1
  O  O9  1  0.185872  0.904170  0.293080  1
  O  O10  1  0.814128  0.095830  0.706920  1
  O  O11  1  0.624061  0.821618  0.429092  1
  O  O12  1  0.302550  0.563575  0.795809  1
  O  O13  1  0.697450  0.436425  0.204191  1
  O  O14  1  0.877975  0.648798  0.913282  1
  O  O15  1  0.122025  0.351202  0.086718  1
  O  O16  1  0.085207  0.799694  0.647995  1
  O  O17  1  0.914793  0.200306  0.352005  1
  O  O18  1  0.806057  0.444149  0.651571  1
  O  O19  1  0.193943  0.555851  0.348429  1
  O  O20  1  0.375939  0.178382  0.570908  1
