# generated using pymatgen
data_MgNi2
_symmetry_space_group_name_H-M   'P 1'
_cell_length_a   4.79256736
_cell_length_b   4.79256736
_cell_length_c   15.68498001
_cell_angle_alpha   90.00000000
_cell_angle_beta   90.00000000
_cell_angle_gamma   120.00000000
_symmetry_Int_Tables_number   1
_chemical_formula_structural   MgNi2
_chemical_formula_sum   'Mg8 Ni16'
_cell_volume   311.99745623
_cell_formula_units_Z   8
loop_
 _symmetry_equiv_pos_site_id
 _symmetry_equiv_pos_as_xyz
  1  'x, y, z'
loop_
 _atom_site_type_symbol
 _atom_site_label
 _atom_site_symmetry_multiplicity
 _atom_site_fract_x
 _atom_site_fract_y
 _atom_site_fract_z
 _atom_site_occupancy
  Mg  Mg0  1  0.000000  0.000000  0.593727  1
  Mg  Mg1  1  0.000000  0.000000  0.406273  1
  Mg  Mg2  1  0.000000  0.000000  0.093727  1
  Mg  Mg3  1  0.000000  0.000000  0.906273  1
  Mg  Mg4  1  0.666667  0.333333  0.344013  1
  Mg  Mg5  1  0.333333  0.666667  0.655987  1
  Mg  Mg6  1  0.333333  0.666667  0.844013  1
  Mg  Mg7  1  0.666667  0.333333  0.155987  1
  Ni  Ni8  1  0.666667  0.333333  0.625011  1
  Ni  Ni9  1  0.333333  0.666667  0.374989  1
  Ni  Ni10  1  0.333333  0.666667  0.125011  1
  Ni  Ni11  1  0.666667  0.333333  0.874989  1
  Ni  Ni12  1  0.500000  0.000000  0.500000  1
  Ni  Ni13  1  0.500000  0.500000  0.500000  1
  Ni  Ni14  1  0.000000  0.500000  0.500000  1
  Ni  Ni15  1  0.500000  0.000000  0.000000  1
  Ni  Ni16  1  0.500000  0.500000  0.000000  1
  Ni  Ni17  1  0.000000  0.500000  0.000000  1
  Ni  Ni18  1  0.835390  0.670781  0.750000  1
  Ni  Ni19  1  0.835390  0.164610  0.750000  1
  Ni  Ni20  1  0.329219  0.164610  0.750000  1
  Ni  Ni21  1  0.164610  0.329219  0.250000  1
  Ni  Ni22  1  0.164610  0.835390  0.250000  1
  Ni  Ni23  1  0.670781  0.835390  0.250000  1
