# generated using pymatgen
data_Zr6CI14
_symmetry_space_group_name_H-M   'P 1'
_cell_length_a   11.01913165
_cell_length_b   11.01913165
_cell_length_c   13.14205270
_cell_angle_alpha   90.00000000
_cell_angle_beta   90.00000000
_cell_angle_gamma   92.95075571
_symmetry_Int_Tables_number   1
_chemical_formula_structural   Zr6CI14
_chemical_formula_sum   'Zr12 C2 I28'
_cell_volume   1593.60893144
_cell_formula_units_Z   2
loop_
 _symmetry_equiv_pos_site_id
 _symmetry_equiv_pos_as_xyz
  1  'x, y, z'
loop_
 _atom_site_type_symbol
 _atom_site_label
 _atom_site_symmetry_multiplicity
 _atom_site_fract_x
 _atom_site_fract_y
 _atom_site_fract_z
 _atom_site_occupancy
  Zr  Zr0  1  0.626652  0.626652  0.092419  1
  Zr  Zr1  1  0.873348  0.873348  0.592419  1
  Zr  Zr2  1  0.126652  0.126652  0.407581  1
  Zr  Zr3  1  0.373348  0.373348  0.907581  1
  Zr  Zr4  1  0.453592  0.665016  0.891426  1
  Zr  Zr5  1  0.046408  0.834984  0.391426  1
  Zr  Zr6  1  0.165016  0.953592  0.608574  1
  Zr  Zr7  1  0.334984  0.546408  0.108574  1
  Zr  Zr8  1  0.546408  0.334984  0.108574  1
  Zr  Zr9  1  0.953592  0.165016  0.608574  1
  Zr  Zr10  1  0.834984  0.046408  0.391426  1
  Zr  Zr11  1  0.665016  0.453592  0.891426  1
  C  C12  1  0.500000  0.500000  1.000000  1
  C  C13  1  0.000000  0.000000  0.500000  1
  I  I14  1  0.106366  0.354534  0.511043  1
  I  I15  1  0.393634  0.145466  0.011043  1
  I  I16  1  0.107469  0.607469  0.250000  1
  I  I17  1  0.392531  0.892531  0.750000  1
  I  I18  1  0.892531  0.392531  0.750000  1
  I  I19  1  0.607469  0.107469  0.250000  1
  I  I20  1  0.143547  0.143547  0.761537  1
  I  I21  1  0.356453  0.356453  0.261537  1
  I  I22  1  0.643547  0.643547  0.738463  1
  I  I23  1  0.856453  0.856453  0.238463  1
  I  I24  1  0.751481  0.248519  0.000000  1
  I  I25  1  0.748519  0.251481  0.500000  1
  I  I26  1  0.248519  0.751481  0.000000  1
  I  I27  1  0.251481  0.748519  0.500000  1
  I  I28  1  0.645466  0.893634  0.488957  1
  I  I29  1  0.854534  0.606366  0.988957  1
  I  I30  1  0.606366  0.854534  0.988957  1
  I  I31  1  0.893634  0.645466  0.488957  1
  I  I32  1  0.354534  0.106366  0.511043  1
  I  I33  1  0.145466  0.393634  0.011043  1
  I  I34  1  0.212884  0.966236  0.254762  1
  I  I35  1  0.287116  0.533764  0.754762  1
  I  I36  1  0.466236  0.712884  0.245238  1
  I  I37  1  0.033764  0.787116  0.745238  1
  I  I38  1  0.787116  0.033764  0.745238  1
  I  I39  1  0.712884  0.466236  0.245238  1
  I  I40  1  0.533764  0.287116  0.754762  1
  I  I41  1  0.966236  0.212884  0.254762  1
