# generated using pymatgen
data_DySiPt
_symmetry_space_group_name_H-M   'P 1'
_cell_length_a   4.29229719
_cell_length_b   7.02332467
_cell_length_c   7.47899621
_cell_angle_alpha   90.00000000
_cell_angle_beta   90.00000000
_cell_angle_gamma   90.00000000
_symmetry_Int_Tables_number   1
_chemical_formula_structural   DySiPt
_chemical_formula_sum   'Dy4 Si4 Pt4'
_cell_volume   225.46329121
_cell_formula_units_Z   4
loop_
 _symmetry_equiv_pos_site_id
 _symmetry_equiv_pos_as_xyz
  1  'x, y, z'
loop_
 _atom_site_type_symbol
 _atom_site_label
 _atom_site_symmetry_multiplicity
 _atom_site_fract_x
 _atom_site_fract_y
 _atom_site_fract_z
 _atom_site_occupancy
  Dy  Dy0  1  0.750000  0.503253  0.799805  1
  Dy  Dy1  1  0.250000  0.996747  0.299805  1
  Dy  Dy2  1  0.750000  0.003253  0.700195  1
  Dy  Dy3  1  0.250000  0.496747  0.200195  1
  Si  Si4  1  0.250000  0.813454  0.911525  1
  Si  Si5  1  0.250000  0.313454  0.588475  1
  Si  Si6  1  0.750000  0.186546  0.088475  1
  Si  Si7  1  0.750000  0.686546  0.411525  1
  Pt  Pt8  1  0.250000  0.699328  0.585400  1
  Pt  Pt9  1  0.250000  0.199328  0.914600  1
  Pt  Pt10  1  0.750000  0.800672  0.085400  1
  Pt  Pt11  1  0.750000  0.300672  0.414600  1
