# generated using pymatgen
data_Tb4Sb3
_symmetry_space_group_name_H-M   'P 1'
_cell_length_a   7.98596510
_cell_length_b   7.98596510
_cell_length_c   7.98596510
_cell_angle_alpha   109.47122063
_cell_angle_beta   109.47122063
_cell_angle_gamma   109.47122063
_symmetry_Int_Tables_number   1
_chemical_formula_structural   Tb4Sb3
_chemical_formula_sum   'Tb8 Sb6'
_cell_volume   392.06703890
_cell_formula_units_Z   2
loop_
 _symmetry_equiv_pos_site_id
 _symmetry_equiv_pos_as_xyz
  1  'x, y, z'
loop_
 _atom_site_type_symbol
 _atom_site_label
 _atom_site_symmetry_multiplicity
 _atom_site_fract_x
 _atom_site_fract_y
 _atom_site_fract_z
 _atom_site_occupancy
  Tb  Tb0  1  0.354100  0.500000  1.000000  1
  Tb  Tb1  1  0.854100  0.500000  1.000000  1
  Tb  Tb2  1  0.645900  0.645900  0.645900  1
  Tb  Tb3  1  0.500000  1.000000  0.354100  1
  Tb  Tb4  1  0.145900  0.145900  0.145900  1
  Tb  Tb5  1  1.000000  0.854100  0.500000  1
  Tb  Tb6  1  0.500000  1.000000  0.854100  1
  Tb  Tb7  1  1.000000  0.354100  0.500000  1
  Sb  Sb8  1  0.875000  0.125000  0.750000  1
  Sb  Sb9  1  0.750000  0.875000  0.125000  1
  Sb  Sb10  1  0.250000  0.625000  0.375000  1
  Sb  Sb11  1  0.625000  0.375000  0.250000  1
  Sb  Sb12  1  0.125000  0.750000  0.875000  1
  Sb  Sb13  1  0.375000  0.250000  0.625000  1
