# generated using pymatgen
data_Li3FeN2
_symmetry_space_group_name_H-M   'P 1'
_cell_length_a   5.81705687
_cell_length_b   5.81705687
_cell_length_c   5.81705687
_cell_angle_alpha   132.72070234
_cell_angle_beta   131.24547088
_cell_angle_gamma   70.26248951
_symmetry_Int_Tables_number   1
_chemical_formula_structural   Li3FeN2
_chemical_formula_sum   'Li6 Fe2 N4'
_cell_volume   106.57171062
_cell_formula_units_Z   2
loop_
 _symmetry_equiv_pos_site_id
 _symmetry_equiv_pos_as_xyz
  1  'x, y, z'
loop_
 _atom_site_type_symbol
 _atom_site_label
 _atom_site_symmetry_multiplicity
 _atom_site_fract_x
 _atom_site_fract_y
 _atom_site_fract_z
 _atom_site_occupancy
  Li  Li0  1  0.500000  0.250000  0.750000  1
  Li  Li1  1  0.500000  0.750000  0.250000  1
  Li  Li2  1  0.742551  0.992551  0.250000  1
  Li  Li3  1  0.257449  0.507449  0.250000  1
  Li  Li4  1  0.742551  0.492551  0.750000  1
  Li  Li5  1  0.257449  0.007449  0.750000  1
  Fe  Fe6  1  0.000000  0.250000  0.250000  1
  Fe  Fe7  1  0.000000  0.750000  0.750000  1
  N  N8  1  0.666264  0.886243  0.780021  1
  N  N9  1  0.893779  0.613757  0.280021  1
  N  N10  1  0.333736  0.113757  0.219979  1
  N  N11  1  0.106221  0.386243  0.719979  1
