# generated using pymatgen
data_K2LiAlH6
_symmetry_space_group_name_H-M   'P 1'
_cell_length_a   9.67600743
_cell_length_b   9.67600743
_cell_length_c   9.67600743
_cell_angle_alpha   33.75245523
_cell_angle_beta   33.75245523
_cell_angle_gamma   33.75245523
_symmetry_Int_Tables_number   1
_chemical_formula_structural   K2LiAlH6
_chemical_formula_sum   'K4 Li2 Al2 H12'
_cell_volume   249.17524367
_cell_formula_units_Z   2
loop_
 _symmetry_equiv_pos_site_id
 _symmetry_equiv_pos_as_xyz
  1  'x, y, z'
loop_
 _atom_site_type_symbol
 _atom_site_label
 _atom_site_symmetry_multiplicity
 _atom_site_fract_x
 _atom_site_fract_y
 _atom_site_fract_z
 _atom_site_occupancy
  K  K0  1  0.872886  0.872886  0.872886  1
  K  K1  1  0.127114  0.127114  0.127114  1
  K  K2  1  0.713407  0.713407  0.713407  1
  K  K3  1  0.286593  0.286593  0.286593  1
  Li  Li4  1  0.592260  0.592260  0.592260  1
  Li  Li5  1  0.407740  0.407740  0.407740  1
  Al  Al6  1  0.000000  0.000000  0.000000  1
  Al  Al7  1  0.500000  0.500000  0.500000  1
  H  H8  1  0.811802  0.264596  0.811802  1
  H  H9  1  0.264596  0.811802  0.811802  1
  H  H10  1  0.811802  0.811802  0.264596  1
  H  H11  1  0.188198  0.188198  0.735404  1
  H  H12  1  0.188198  0.735404  0.188198  1
  H  H13  1  0.735404  0.188198  0.188198  1
  H  H14  1  0.604642  0.172848  0.604642  1
  H  H15  1  0.172848  0.604642  0.604642  1
  H  H16  1  0.827152  0.395358  0.395358  1
  H  H17  1  0.395358  0.827152  0.395358  1
  H  H18  1  0.395358  0.395358  0.827152  1
  H  H19  1  0.604642  0.604642  0.172848  1
