# generated using pymatgen
data_Ho5(Ge5Rh2)2
_symmetry_space_group_name_H-M   'P 1'
_cell_length_a   13.05410367
_cell_length_b   13.05410367
_cell_length_c   4.30077863
_cell_angle_alpha   90.00000000
_cell_angle_beta   90.00000000
_cell_angle_gamma   90.00000000
_symmetry_Int_Tables_number   1
_chemical_formula_structural   Ho5(Ge5Rh2)2
_chemical_formula_sum   'Ho10 Ge20 Rh8'
_cell_volume   732.89406334
_cell_formula_units_Z   2
loop_
 _symmetry_equiv_pos_site_id
 _symmetry_equiv_pos_as_xyz
  1  'x, y, z'
loop_
 _atom_site_type_symbol
 _atom_site_label
 _atom_site_symmetry_multiplicity
 _atom_site_fract_x
 _atom_site_fract_y
 _atom_site_fract_z
 _atom_site_occupancy
  Ho  Ho0  1  0.500000  0.500000  0.000000  1
  Ho  Ho1  1  0.000000  0.000000  0.000000  1
  Ho  Ho2  1  0.887077  0.387077  0.500000  1
  Ho  Ho3  1  0.387077  0.112923  0.500000  1
  Ho  Ho4  1  0.612923  0.887077  0.500000  1
  Ho  Ho5  1  0.112923  0.612923  0.500000  1
  Ho  Ho6  1  0.325492  0.825492  0.500000  1
  Ho  Ho7  1  0.825492  0.674508  0.500000  1
  Ho  Ho8  1  0.174508  0.325492  0.500000  1
  Ho  Ho9  1  0.674508  0.174508  0.500000  1
  Ge  Ge10  1  0.432987  0.932987  0.000000  1
  Ge  Ge11  1  0.932987  0.567013  0.000000  1
  Ge  Ge12  1  0.067013  0.432987  0.000000  1
  Ge  Ge13  1  0.567013  0.067013  0.000000  1
  Ge  Ge14  1  0.337979  0.299810  0.000000  1
  Ge  Ge15  1  0.662021  0.700190  0.000000  1
  Ge  Ge16  1  0.700190  0.337979  0.000000  1
  Ge  Ge17  1  0.299810  0.662021  0.000000  1
  Ge  Ge18  1  0.799810  0.837979  0.000000  1
  Ge  Ge19  1  0.837979  0.200190  0.000000  1
  Ge  Ge20  1  0.162021  0.799810  0.000000  1
  Ge  Ge21  1  0.200190  0.162021  0.000000  1
  Ge  Ge22  1  0.342256  0.497402  0.500000  1
  Ge  Ge23  1  0.657744  0.502598  0.500000  1
  Ge  Ge24  1  0.502598  0.342256  0.500000  1
  Ge  Ge25  1  0.497402  0.657744  0.500000  1
  Ge  Ge26  1  0.997402  0.842256  0.500000  1
  Ge  Ge27  1  0.842256  0.002598  0.500000  1
  Ge  Ge28  1  0.002598  0.157744  0.500000  1
  Ge  Ge29  1  0.157744  0.997402  0.500000  1
  Rh  Rh30  1  0.254236  0.478858  0.000000  1
  Rh  Rh31  1  0.745764  0.521142  0.000000  1
  Rh  Rh32  1  0.521142  0.254236  0.000000  1
  Rh  Rh33  1  0.478858  0.745764  0.000000  1
  Rh  Rh34  1  0.978858  0.754236  0.000000  1
  Rh  Rh35  1  0.754236  0.021142  0.000000  1
  Rh  Rh36  1  0.245764  0.978858  0.000000  1
  Rh  Rh37  1  0.021142  0.245764  0.000000  1
