# generated using pymatgen
data_HfGaPd
_symmetry_space_group_name_H-M   'P 1'
_cell_length_a   7.20419777
_cell_length_b   7.20419777
_cell_length_c   6.94632026
_cell_angle_alpha   90.00000000
_cell_angle_beta   90.00000000
_cell_angle_gamma   120.00000000
_symmetry_Int_Tables_number   1
_chemical_formula_structural   HfGaPd
_chemical_formula_sum   'Hf6 Ga6 Pd6'
_cell_volume   312.21710169
_cell_formula_units_Z   6
loop_
 _symmetry_equiv_pos_site_id
 _symmetry_equiv_pos_as_xyz
  1  'x, y, z'
loop_
 _atom_site_type_symbol
 _atom_site_label
 _atom_site_symmetry_multiplicity
 _atom_site_fract_x
 _atom_site_fract_y
 _atom_site_fract_z
 _atom_site_occupancy
  Hf  Hf0  1  0.612010  0.591446  0.250000  1
  Hf  Hf1  1  0.020564  0.408554  0.750000  1
  Hf  Hf2  1  0.408554  0.020564  0.250000  1
  Hf  Hf3  1  0.979436  0.387990  0.250000  1
  Hf  Hf4  1  0.387990  0.979436  0.750000  1
  Hf  Hf5  1  0.591446  0.612010  0.750000  1
  Ga  Ga6  1  0.268373  0.268373  0.500000  1
  Ga  Ga7  1  0.731627  0.000000  0.500000  1
  Ga  Ga8  1  0.000000  0.731627  0.500000  1
  Ga  Ga9  1  0.731627  0.000000  0.000000  1
  Ga  Ga10  1  0.268373  0.268373  0.000000  1
  Ga  Ga11  1  0.000000  0.731627  0.000000  1
  Pd  Pd12  1  0.333333  0.666667  0.469362  1
  Pd  Pd13  1  0.000000  0.000000  0.750000  1
  Pd  Pd14  1  0.000000  0.000000  0.250000  1
  Pd  Pd15  1  0.333333  0.666667  0.030638  1
  Pd  Pd16  1  0.666667  0.333333  0.530638  1
  Pd  Pd17  1  0.666667  0.333333  0.969362  1
