# generated using pymatgen
data_BaS3
_symmetry_space_group_name_H-M   'P 1'
_cell_length_a   6.98366013
_cell_length_b   6.98366013
_cell_length_c   4.23423884
_cell_angle_alpha   90.00000000
_cell_angle_beta   90.00000000
_cell_angle_gamma   90.00000000
_symmetry_Int_Tables_number   1
_chemical_formula_structural   BaS3
_chemical_formula_sum   'Ba2 S6'
_cell_volume   206.51021689
_cell_formula_units_Z   2
loop_
 _symmetry_equiv_pos_site_id
 _symmetry_equiv_pos_as_xyz
  1  'x, y, z'
loop_
 _atom_site_type_symbol
 _atom_site_label
 _atom_site_symmetry_multiplicity
 _atom_site_fract_x
 _atom_site_fract_y
 _atom_site_fract_z
 _atom_site_occupancy
  Ba  Ba0  1  0.500000  0.500000  0.000000  1
  Ba  Ba1  1  0.000000  0.000000  0.000000  1
  S  S2  1  0.821567  0.678433  0.474238  1
  S  S3  1  0.321567  0.821567  0.525762  1
  S  S4  1  0.000000  0.500000  0.210461  1
  S  S5  1  0.500000  0.000000  0.789539  1
  S  S6  1  0.178433  0.321567  0.474238  1
  S  S7  1  0.678433  0.178433  0.525762  1
