# generated using pymatgen
data_ThSi2
_symmetry_space_group_name_H-M   'P 1'
_cell_length_a   7.81395560
_cell_length_b   7.81395560
_cell_length_c   7.81395560
_cell_angle_alpha   149.40372654
_cell_angle_beta   149.40372654
_cell_angle_gamma   43.81737789
_symmetry_Int_Tables_number   1
_chemical_formula_structural   ThSi2
_chemical_formula_sum   'Th2 Si4'
_cell_volume   123.25498111
_cell_formula_units_Z   2
loop_
 _symmetry_equiv_pos_site_id
 _symmetry_equiv_pos_as_xyz
  1  'x, y, z'
loop_
 _atom_site_type_symbol
 _atom_site_label
 _atom_site_symmetry_multiplicity
 _atom_site_fract_x
 _atom_site_fract_y
 _atom_site_fract_z
 _atom_site_occupancy
  Th  Th0  1  0.750000  0.250000  0.500000  1
  Th  Th1  1  1.000000  1.000000  0.000000  1
  Si  Si2  1  0.583076  0.583076  0.000000  1
  Si  Si3  1  0.333076  0.833076  0.500000  1
  Si  Si4  1  0.166924  0.666924  0.500000  1
  Si  Si5  1  0.416924  0.416924  0.000000  1
