# generated using pymatgen
data_Rb2P3
_symmetry_space_group_name_H-M   'P 1'
_cell_length_a   8.90882768
_cell_length_b   8.72124354
_cell_length_c   6.68255810
_cell_angle_alpha   69.22206226
_cell_angle_beta   66.24492337
_cell_angle_gamma   44.53301436
_symmetry_Int_Tables_number   1
_chemical_formula_structural   Rb2P3
_chemical_formula_sum   'Rb4 P6'
_cell_volume   331.42767521
_cell_formula_units_Z   2
loop_
 _symmetry_equiv_pos_site_id
 _symmetry_equiv_pos_as_xyz
  1  'x, y, z'
loop_
 _atom_site_type_symbol
 _atom_site_label
 _atom_site_symmetry_multiplicity
 _atom_site_fract_x
 _atom_site_fract_y
 _atom_site_fract_z
 _atom_site_occupancy
  Rb  Rb0  1  0.250000  0.250000  0.250000  1
  Rb  Rb1  1  0.750000  0.750000  0.750000  1
  Rb  Rb2  1  0.723132  0.276868  0.723132  1
  Rb  Rb3  1  0.276868  0.723132  0.276868  1
  P  P4  1  0.853421  0.853421  0.146579  1
  P  P5  1  0.146579  0.146579  0.853421  1
  P  P6  1  0.720819  0.133394  0.279181  1
  P  P7  1  0.866606  0.279181  0.133394  1
  P  P8  1  0.279181  0.866606  0.720819  1
  P  P9  1  0.133394  0.720819  0.866606  1
