# generated using pymatgen
data_K2NaInP2
_symmetry_space_group_name_H-M   'P 1'
_cell_length_a   8.88468079
_cell_length_b   8.88468079
_cell_length_c   8.88468079
_cell_angle_alpha   135.82086418
_cell_angle_beta   135.74664888
_cell_angle_gamma   64.31484784
_symmetry_Int_Tables_number   1
_chemical_formula_structural   K2NaInP2
_chemical_formula_sum   'K4 Na2 In2 P4'
_cell_volume   336.39883720
_cell_formula_units_Z   2
loop_
 _symmetry_equiv_pos_site_id
 _symmetry_equiv_pos_as_xyz
  1  'x, y, z'
loop_
 _atom_site_type_symbol
 _atom_site_label
 _atom_site_symmetry_multiplicity
 _atom_site_fract_x
 _atom_site_fract_y
 _atom_site_fract_z
 _atom_site_occupancy
  K  K0  1  0.677309  0.939067  0.261758  1
  K  K1  1  0.322691  0.060933  0.738242  1
  K  K2  1  0.822691  0.584449  0.761758  1
  K  K3  1  0.177309  0.415551  0.238242  1
  Na  Na4  1  0.250000  1.000000  0.250000  1
  Na  Na5  1  0.750000  1.000000  0.750000  1
  In  In6  1  0.750000  0.500000  0.250000  1
  In  In7  1  0.250000  0.500000  0.750000  1
  P  P8  1  0.900775  0.185573  0.284798  1
  P  P9  1  0.099225  0.814427  0.715202  1
  P  P10  1  0.599225  0.384022  0.784798  1
  P  P11  1  0.400775  0.615978  0.215202  1
