# generated using pymatgen
data_Sm3InSe6
_symmetry_space_group_name_H-M   'P 1'
_cell_length_a   4.10094863
_cell_length_b   14.32219997
_cell_length_c   17.58624714
_cell_angle_alpha   90.00000000
_cell_angle_beta   90.00000000
_cell_angle_gamma   90.00000000
_symmetry_Int_Tables_number   1
_chemical_formula_structural   Sm3InSe6
_chemical_formula_sum   'Sm12 In4 Se24'
_cell_volume   1032.92130286
_cell_formula_units_Z   4
loop_
 _symmetry_equiv_pos_site_id
 _symmetry_equiv_pos_as_xyz
  1  'x, y, z'
loop_
 _atom_site_type_symbol
 _atom_site_label
 _atom_site_symmetry_multiplicity
 _atom_site_fract_x
 _atom_site_fract_y
 _atom_site_fract_z
 _atom_site_occupancy
  Sm  Sm0  1  0.500000  0.748960  0.605934  1
  Sm  Sm1  1  0.500000  0.251040  0.394066  1
  Sm  Sm2  1  0.000000  0.248960  0.894066  1
  Sm  Sm3  1  0.000000  0.751040  0.105934  1
  Sm  Sm4  1  0.500000  0.959330  0.775752  1
  Sm  Sm5  1  0.500000  0.040670  0.224248  1
  Sm  Sm6  1  0.000000  0.459330  0.724248  1
  Sm  Sm7  1  0.000000  0.540670  0.275752  1
  Sm  Sm8  1  0.500000  0.186819  0.645675  1
  Sm  Sm9  1  0.500000  0.813181  0.354325  1
  Sm  Sm10  1  0.000000  0.686819  0.854325  1
  Sm  Sm11  1  0.000000  0.313181  0.145675  1
  In  In12  1  0.500000  0.500000  0.500000  1
  In  In13  1  0.000000  0.000000  0.000000  1
  In  In14  1  0.500000  0.500000  0.000000  1
  In  In15  1  0.000000  0.000000  0.500000  1
  Se  Se16  1  0.500000  0.977210  0.604369  1
  Se  Se17  1  0.500000  0.022790  0.395631  1
  Se  Se18  1  0.000000  0.477210  0.895631  1
  Se  Se19  1  0.000000  0.522790  0.104369  1
  Se  Se20  1  0.500000  0.095165  0.912704  1
  Se  Se21  1  0.500000  0.904835  0.087296  1
  Se  Se22  1  0.000000  0.595165  0.587296  1
  Se  Se23  1  0.000000  0.404835  0.412704  1
  Se  Se24  1  0.500000  0.308549  0.019890  1
  Se  Se25  1  0.500000  0.691451  0.980110  1
  Se  Se26  1  0.000000  0.808549  0.480110  1
  Se  Se27  1  0.000000  0.191451  0.519890  1
  Se  Se28  1  0.500000  0.317383  0.785153  1
  Se  Se29  1  0.500000  0.682617  0.214847  1
  Se  Se30  1  0.000000  0.817383  0.714847  1
  Se  Se31  1  0.000000  0.182617  0.285153  1
  Se  Se32  1  0.000000  0.112449  0.748340  1
  Se  Se33  1  0.000000  0.887551  0.251660  1
  Se  Se34  1  0.500000  0.612449  0.751660  1
  Se  Se35  1  0.500000  0.387551  0.248340  1
  Se  Se36  1  0.000000  0.112094  0.116975  1
  Se  Se37  1  0.000000  0.887906  0.883025  1
  Se  Se38  1  0.500000  0.612094  0.383025  1
  Se  Se39  1  0.500000  0.387906  0.616975  1
