# generated using pymatgen
data_Mo3O8
_symmetry_space_group_name_H-M   'P 1'
_cell_length_a   6.01467023
_cell_length_b   6.01467023
_cell_length_c   6.01467023
_cell_angle_alpha   61.65257511
_cell_angle_beta   61.65257511
_cell_angle_gamma   61.65257511
_symmetry_Int_Tables_number   1
_chemical_formula_structural   Mo3O8
_chemical_formula_sum   'Mo3 O8'
_cell_volume   159.55953670
_cell_formula_units_Z   1
loop_
 _symmetry_equiv_pos_site_id
 _symmetry_equiv_pos_as_xyz
  1  'x, y, z'
loop_
 _atom_site_type_symbol
 _atom_site_label
 _atom_site_symmetry_multiplicity
 _atom_site_fract_x
 _atom_site_fract_y
 _atom_site_fract_z
 _atom_site_occupancy
  Mo  Mo0  1  0.000000  0.500000  0.000000  1
  Mo  Mo1  1  0.500000  1.000000  1.000000  1
  Mo  Mo2  1  0.000000  0.000000  0.500000  1
  O  O3  1  0.753932  0.195079  0.753932  1
  O  O4  1  0.804921  0.246068  0.246068  1
  O  O5  1  0.195079  0.753932  0.753932  1
  O  O6  1  0.246068  0.804921  0.246068  1
  O  O7  1  0.246068  0.246068  0.804921  1
  O  O8  1  0.753932  0.753932  0.195079  1
  O  O9  1  0.242129  0.242129  0.242129  1
  O  O10  1  0.757871  0.757871  0.757871  1
