# generated using pymatgen
data_KGaBr4
_symmetry_space_group_name_H-M   'P 1'
_cell_length_a   13.62097004
_cell_length_b   13.62097004
_cell_length_c   13.62097004
_cell_angle_alpha   115.19848576
_cell_angle_beta   115.19848576
_cell_angle_gamma   115.19848576
_symmetry_Int_Tables_number   1
_chemical_formula_structural   KGaBr4
_chemical_formula_sum   'K6 Ga6 Br24'
_cell_volume   1388.40647183
_cell_formula_units_Z   6
loop_
 _symmetry_equiv_pos_site_id
 _symmetry_equiv_pos_as_xyz
  1  'x, y, z'
loop_
 _atom_site_type_symbol
 _atom_site_label
 _atom_site_symmetry_multiplicity
 _atom_site_fract_x
 _atom_site_fract_y
 _atom_site_fract_z
 _atom_site_occupancy
  K  K0  1  0.117167  0.902349  0.306629  1
  K  K1  1  0.902349  0.306629  0.117167  1
  K  K2  1  0.306629  0.117167  0.902349  1
  K  K3  1  0.806629  0.402349  0.617167  1
  K  K4  1  0.402349  0.617167  0.806629  1
  K  K5  1  0.617167  0.806629  0.402349  1
  Ga  Ga6  1  0.127958  0.312672  0.916104  1
  Ga  Ga7  1  0.312672  0.916104  0.127958  1
  Ga  Ga8  1  0.916104  0.127958  0.312672  1
  Ga  Ga9  1  0.416104  0.812672  0.627958  1
  Ga  Ga10  1  0.812672  0.627958  0.416104  1
  Ga  Ga11  1  0.627958  0.416104  0.812672  1
  Br  Br12  1  0.036019  0.095538  0.877994  1
  Br  Br13  1  0.095538  0.877994  0.036019  1
  Br  Br14  1  0.877994  0.036019  0.095538  1
  Br  Br15  1  0.377994  0.595538  0.536019  1
  Br  Br16  1  0.595538  0.536019  0.377994  1
  Br  Br17  1  0.536019  0.377994  0.595538  1
  Br  Br18  1  0.923325  0.215287  0.675502  1
  Br  Br19  1  0.215287  0.675502  0.923325  1
  Br  Br20  1  0.675502  0.923325  0.215287  1
  Br  Br21  1  0.175502  0.715287  0.423325  1
  Br  Br22  1  0.715287  0.423325  0.175502  1
  Br  Br23  1  0.423325  0.175502  0.715287  1
  Br  Br24  1  0.361604  0.436389  0.977849  1
  Br  Br25  1  0.436389  0.977849  0.361604  1
  Br  Br26  1  0.977849  0.361604  0.436389  1
  Br  Br27  1  0.477849  0.936389  0.861604  1
  Br  Br28  1  0.936389  0.861604  0.477849  1
  Br  Br29  1  0.861604  0.477849  0.936389  1
  Br  Br30  1  0.196632  0.507612  0.135571  1
  Br  Br31  1  0.507612  0.135571  0.196632  1
  Br  Br32  1  0.135571  0.196632  0.507612  1
  Br  Br33  1  0.635571  0.007612  0.696632  1
  Br  Br34  1  0.007612  0.696632  0.635571  1
  Br  Br35  1  0.696632  0.635571  0.007612  1
