# generated using pymatgen
data_Nb2P5
_symmetry_space_group_name_H-M   'P 1'
_cell_length_a   3.35763472
_cell_length_b   7.94821274
_cell_length_c   16.87381957
_cell_angle_alpha   90.00000000
_cell_angle_beta   90.00000000
_cell_angle_gamma   90.00000000
_symmetry_Int_Tables_number   1
_chemical_formula_structural   Nb2P5
_chemical_formula_sum   'Nb8 P20'
_cell_volume   450.31491423
_cell_formula_units_Z   4
loop_
 _symmetry_equiv_pos_site_id
 _symmetry_equiv_pos_as_xyz
  1  'x, y, z'
loop_
 _atom_site_type_symbol
 _atom_site_label
 _atom_site_symmetry_multiplicity
 _atom_site_fract_x
 _atom_site_fract_y
 _atom_site_fract_z
 _atom_site_occupancy
  Nb  Nb0  1  0.250000  0.327832  0.774264  1
  Nb  Nb1  1  0.750000  0.672168  0.225736  1
  Nb  Nb2  1  0.750000  0.827832  0.725736  1
  Nb  Nb3  1  0.250000  0.172168  0.274264  1
  Nb  Nb4  1  0.250000  0.335715  0.595283  1
  Nb  Nb5  1  0.750000  0.664285  0.404717  1
  Nb  Nb6  1  0.750000  0.835715  0.904717  1
  Nb  Nb7  1  0.250000  0.164285  0.095283  1
  P  P8  1  0.750000  0.152165  0.686002  1
  P  P9  1  0.250000  0.847835  0.313998  1
  P  P10  1  0.250000  0.652165  0.813998  1
  P  P11  1  0.750000  0.347835  0.186002  1
  P  P12  1  0.250000  0.005993  0.815714  1
  P  P13  1  0.750000  0.994007  0.184286  1
  P  P14  1  0.750000  0.505993  0.684286  1
  P  P15  1  0.250000  0.494007  0.315714  1
  P  P16  1  0.250000  0.461944  0.040453  1
  P  P17  1  0.750000  0.538056  0.959547  1
  P  P18  1  0.750000  0.961944  0.459547  1
  P  P19  1  0.250000  0.038056  0.540453  1
  P  P20  1  0.750000  0.184047  0.384515  1
  P  P21  1  0.250000  0.815953  0.615485  1
  P  P22  1  0.250000  0.684047  0.115485  1
  P  P23  1  0.750000  0.315953  0.884515  1
  P  P24  1  0.750000  0.119592  0.978401  1
  P  P25  1  0.250000  0.880408  0.021599  1
  P  P26  1  0.250000  0.619592  0.521599  1
  P  P27  1  0.750000  0.380408  0.478401  1
