# generated using pymatgen
data_Ce(Ni2B)6
_symmetry_space_group_name_H-M   'P 1'
_cell_length_a   6.03855491
_cell_length_b   6.03855491
_cell_length_c   10.98364245
_cell_angle_alpha   90.00000000
_cell_angle_beta   90.00000000
_cell_angle_gamma   104.80672768
_symmetry_Int_Tables_number   1
_chemical_formula_structural   Ce(Ni2B)6
_chemical_formula_sum   'Ce2 Ni24 B12'
_cell_volume   387.20958405
_cell_formula_units_Z   2
loop_
 _symmetry_equiv_pos_site_id
 _symmetry_equiv_pos_as_xyz
  1  'x, y, z'
loop_
 _atom_site_type_symbol
 _atom_site_label
 _atom_site_symmetry_multiplicity
 _atom_site_fract_x
 _atom_site_fract_y
 _atom_site_fract_z
 _atom_site_occupancy
  Ce  Ce0  1  0.168043  0.168043  0.502959  1
  Ce  Ce1  1  0.831957  0.831957  0.002959  1
  Ni  Ni2  1  0.120429  0.854115  0.244732  1
  Ni  Ni3  1  0.145885  0.879571  0.744732  1
  Ni  Ni4  1  0.269436  0.657717  0.932141  1
  Ni  Ni5  1  0.730564  0.342283  0.432141  1
  Ni  Ni6  1  0.342283  0.730564  0.432141  1
  Ni  Ni7  1  0.854115  0.120429  0.244732  1
  Ni  Ni8  1  0.005257  0.369788  0.062835  1
  Ni  Ni9  1  0.994743  0.630212  0.562835  1
  Ni  Ni10  1  0.630212  0.994743  0.562835  1
  Ni  Ni11  1  0.369788  0.005257  0.062835  1
  Ni  Ni12  1  0.211304  0.471731  0.723369  1
  Ni  Ni13  1  0.788696  0.528269  0.223369  1
  Ni  Ni14  1  0.528269  0.788696  0.223369  1
  Ni  Ni15  1  0.471731  0.211304  0.723369  1
  Ni  Ni16  1  0.542169  0.803791  0.766073  1
  Ni  Ni17  1  0.457831  0.196209  0.266073  1
  Ni  Ni18  1  0.196209  0.457831  0.266073  1
  Ni  Ni19  1  0.803791  0.542169  0.766073  1
  Ni  Ni20  1  0.781183  0.781183  0.402136  1
  Ni  Ni21  1  0.218817  0.218817  0.902136  1
  Ni  Ni22  1  0.563911  0.563911  0.581276  1
  Ni  Ni23  1  0.436089  0.436089  0.081276  1
  Ni  Ni24  1  0.657717  0.269436  0.932141  1
  Ni  Ni25  1  0.879571  0.145885  0.744732  1
  B  B26  1  0.399022  0.986657  0.877484  1
  B  B27  1  0.600978  0.013343  0.377484  1
  B  B28  1  0.324670  0.755126  0.614346  1
  B  B29  1  0.675330  0.244874  0.114346  1
  B  B30  1  0.244874  0.675330  0.114346  1
  B  B31  1  0.755126  0.324670  0.614346  1
  B  B32  1  0.512844  0.512844  0.344459  1
  B  B33  1  0.487156  0.487156  0.844459  1
  B  B34  1  0.163362  0.163362  0.164206  1
  B  B35  1  0.836638  0.836638  0.664206  1
  B  B36  1  0.013343  0.600978  0.377484  1
  B  B37  1  0.986657  0.399022  0.877484  1
