# generated using pymatgen
data_Li4Cu(PO4)2
_symmetry_space_group_name_H-M   'P 1'
_cell_length_a   8.17534937
_cell_length_b   10.37230105
_cell_length_c   8.27297570
_cell_angle_alpha   90.00000000
_cell_angle_beta   106.42160833
_cell_angle_gamma   90.00000000
_symmetry_Int_Tables_number   1
_chemical_formula_structural   Li4Cu(PO4)2
_chemical_formula_sum   'Li16 Cu4 P8 O32'
_cell_volume   672.90803699
_cell_formula_units_Z   4
loop_
 _symmetry_equiv_pos_site_id
 _symmetry_equiv_pos_as_xyz
  1  'x, y, z'
loop_
 _atom_site_type_symbol
 _atom_site_label
 _atom_site_symmetry_multiplicity
 _atom_site_fract_x
 _atom_site_fract_y
 _atom_site_fract_z
 _atom_site_occupancy
  Li  Li0  1  0.095199  0.664037  0.595927  1
  Li  Li1  1  0.904801  0.335963  0.404073  1
  Li  Li2  1  0.830093  0.835543  0.332473  1
  Li  Li3  1  0.769086  0.574219  0.517464  1
  Li  Li4  1  0.852752  0.648077  0.853844  1
  Li  Li5  1  0.169907  0.164457  0.667527  1
  Li  Li6  1  0.230914  0.425781  0.482536  1
  Li  Li7  1  0.147248  0.351923  0.146156  1
  Li  Li8  1  0.352752  0.851923  0.853844  1
  Li  Li9  1  0.269086  0.925781  0.517464  1
  Li  Li10  1  0.330093  0.664457  0.332473  1
  Li  Li11  1  0.404801  0.164037  0.404073  1
  Li  Li12  1  0.595199  0.835963  0.595927  1
  Li  Li13  1  0.669907  0.335543  0.667527  1
  Li  Li14  1  0.730914  0.074219  0.482536  1
  Li  Li15  1  0.647248  0.148077  0.146156  1
  Cu  Cu16  1  0.926731  0.143338  0.913865  1
  Cu  Cu17  1  0.573269  0.643338  0.086135  1
  Cu  Cu18  1  0.426731  0.356662  0.913865  1
  Cu  Cu19  1  0.073269  0.856662  0.086135  1
  P  P20  1  0.545880  0.090359  0.773530  1
  P  P21  1  0.454120  0.909641  0.226470  1
  P  P22  1  0.527384  0.405642  0.298027  1
  P  P23  1  0.972616  0.905642  0.701973  1
  P  P24  1  0.045880  0.409641  0.773530  1
  P  P25  1  0.027384  0.094358  0.298027  1
  P  P26  1  0.954120  0.590359  0.226470  1
  P  P27  1  0.472616  0.594358  0.701973  1
  O  O28  1  0.904573  0.328645  0.818670  1
  O  O29  1  0.797716  0.589980  0.064490  1
  O  O30  1  0.902813  0.653930  0.375488  1
  O  O31  1  0.997621  0.947061  0.257331  1
  O  O32  1  0.002379  0.052939  0.742669  1
  O  O33  1  0.097187  0.346070  0.624512  1
  O  O34  1  0.202284  0.410020  0.935510  1
  O  O35  1  0.021057  0.452172  0.276729  1
  O  O36  1  0.129753  0.850334  0.657353  1
  O  O37  1  0.055726  0.171521  0.145730  1
  O  O38  1  0.095427  0.671355  0.181330  1
  O  O39  1  0.870247  0.149666  0.342647  1
  O  O40  1  0.308022  0.606462  0.553682  1
  O  O41  1  0.404573  0.171355  0.818670  1
  O  O42  1  0.444274  0.671521  0.854270  1
  O  O43  1  0.370247  0.350334  0.342647  1
  O  O44  1  0.478943  0.952172  0.723271  1
  O  O45  1  0.297716  0.910020  0.064490  1
  O  O46  1  0.502379  0.447061  0.742669  1
  O  O47  1  0.402813  0.846070  0.375488  1
  O  O48  1  0.597187  0.153930  0.624512  1
  O  O49  1  0.497621  0.552939  0.257331  1
  O  O50  1  0.702284  0.089980  0.935510  1
  O  O51  1  0.521057  0.047828  0.276729  1
  O  O52  1  0.629753  0.649666  0.657353  1
  O  O53  1  0.555726  0.328479  0.145730  1
  O  O54  1  0.595427  0.828645  0.181330  1
  O  O55  1  0.691978  0.393538  0.446318  1
  O  O56  1  0.808022  0.893538  0.553682  1
  O  O57  1  0.191978  0.106462  0.446318  1
  O  O58  1  0.944274  0.828479  0.854270  1
  O  O59  1  0.978943  0.547828  0.723271  1
