# generated using pymatgen
data_La2InRh2
_symmetry_space_group_name_H-M   'P 1'
_cell_length_a   7.72113518
_cell_length_b   7.72113518
_cell_length_c   3.99844729
_cell_angle_alpha   90.00000000
_cell_angle_beta   90.00000000
_cell_angle_gamma   90.00000000
_symmetry_Int_Tables_number   1
_chemical_formula_structural   La2InRh2
_chemical_formula_sum   'La4 In2 Rh4'
_cell_volume   238.37114762
_cell_formula_units_Z   2
loop_
 _symmetry_equiv_pos_site_id
 _symmetry_equiv_pos_as_xyz
  1  'x, y, z'
loop_
 _atom_site_type_symbol
 _atom_site_label
 _atom_site_symmetry_multiplicity
 _atom_site_fract_x
 _atom_site_fract_y
 _atom_site_fract_z
 _atom_site_occupancy
  La  La0  1  0.171620  0.328380  0.500000  1
  La  La1  1  0.671620  0.171620  0.500000  1
  La  La2  1  0.828380  0.671620  0.500000  1
  La  La3  1  0.328380  0.828380  0.500000  1
  In  In4  1  0.000000  0.000000  0.000000  1
  In  In5  1  0.500000  0.500000  0.000000  1
  Rh  Rh6  1  0.133321  0.633321  0.000000  1
  Rh  Rh7  1  0.633321  0.866679  0.000000  1
  Rh  Rh8  1  0.366679  0.133321  0.000000  1
  Rh  Rh9  1  0.866679  0.366679  0.000000  1
