# generated using pymatgen
data_Nd4In5S13
_symmetry_space_group_name_H-M   'P 1'
_cell_length_a   3.97330004
_cell_length_b   12.00425948
_cell_length_c   21.70219881
_cell_angle_alpha   90.00000000
_cell_angle_beta   90.00000000
_cell_angle_gamma   90.00000000
_symmetry_Int_Tables_number   1
_chemical_formula_structural   Nd4In5S13
_chemical_formula_sum   'Nd8 In10 S26'
_cell_volume   1035.11946098
_cell_formula_units_Z   2
loop_
 _symmetry_equiv_pos_site_id
 _symmetry_equiv_pos_as_xyz
  1  'x, y, z'
loop_
 _atom_site_type_symbol
 _atom_site_label
 _atom_site_symmetry_multiplicity
 _atom_site_fract_x
 _atom_site_fract_y
 _atom_site_fract_z
 _atom_site_occupancy
  Nd  Nd0  1  0.000000  0.482068  0.830572  1
  Nd  Nd1  1  0.000000  0.517932  0.169428  1
  Nd  Nd2  1  0.000000  0.982068  0.669428  1
  Nd  Nd3  1  0.000000  0.017932  0.330572  1
  Nd  Nd4  1  0.000000  0.669076  0.342249  1
  Nd  Nd5  1  0.000000  0.330924  0.657751  1
  Nd  Nd6  1  0.000000  0.169076  0.157751  1
  Nd  Nd7  1  0.000000  0.830924  0.842249  1
  In  In8  1  0.500000  0.654028  0.670031  1
  In  In9  1  0.500000  0.345972  0.329969  1
  In  In10  1  0.500000  0.154028  0.829969  1
  In  In11  1  0.500000  0.845972  0.170031  1
  In  In12  1  0.500000  0.844864  0.492749  1
  In  In13  1  0.500000  0.155136  0.507251  1
  In  In14  1  0.500000  0.344864  0.007251  1
  In  In15  1  0.500000  0.655136  0.992749  1
  In  In16  1  0.000000  0.500000  0.500000  1
  In  In17  1  0.000000  0.000000  0.000000  1
  S  S18  1  0.000000  0.000000  0.500000  1
  S  S19  1  0.000000  0.500000  0.000000  1
  S  S20  1  0.500000  0.838492  0.613359  1
  S  S21  1  0.500000  0.161508  0.386641  1
  S  S22  1  0.500000  0.338492  0.886641  1
  S  S23  1  0.500000  0.661508  0.113359  1
  S  S24  1  0.000000  0.668688  0.739072  1
  S  S25  1  0.000000  0.331312  0.260928  1
  S  S26  1  0.000000  0.168688  0.760928  1
  S  S27  1  0.000000  0.831312  0.239072  1
  S  S28  1  0.000000  0.702542  0.476825  1
  S  S29  1  0.000000  0.297458  0.523175  1
  S  S30  1  0.000000  0.202542  0.023175  1
  S  S31  1  0.000000  0.797458  0.976825  1
  S  S32  1  0.500000  0.498222  0.591737  1
  S  S33  1  0.500000  0.501778  0.408263  1
  S  S34  1  0.500000  0.998222  0.908263  1
  S  S35  1  0.500000  0.001778  0.091737  1
  S  S36  1  0.500000  0.652256  0.867024  1
  S  S37  1  0.500000  0.347744  0.132976  1
  S  S38  1  0.500000  0.152256  0.632976  1
  S  S39  1  0.500000  0.847744  0.367024  1
  S  S40  1  0.500000  0.078703  0.238920  1
  S  S41  1  0.500000  0.921297  0.761080  1
  S  S42  1  0.500000  0.578703  0.261080  1
  S  S43  1  0.500000  0.421297  0.738920  1
