# generated using pymatgen
data_Dy3(CuGe)4
_symmetry_space_group_name_H-M   'P 1'
_cell_length_a   7.98515287
_cell_length_b   7.98515287
_cell_length_c   7.98515287
_cell_angle_alpha   149.58254548
_cell_angle_beta   130.81150921
_cell_angle_gamma   58.94022026
_symmetry_Int_Tables_number   1
_chemical_formula_structural   Dy3(CuGe)4
_chemical_formula_sum   'Dy3 Cu4 Ge4'
_cell_volume   193.59040615
_cell_formula_units_Z   1
loop_
 _symmetry_equiv_pos_site_id
 _symmetry_equiv_pos_as_xyz
  1  'x, y, z'
loop_
 _atom_site_type_symbol
 _atom_site_label
 _atom_site_symmetry_multiplicity
 _atom_site_fract_x
 _atom_site_fract_y
 _atom_site_fract_z
 _atom_site_occupancy
  Dy  Dy0  1  0.869903  0.369903  0.500000  1
  Dy  Dy1  1  0.130097  0.630097  0.500000  1
  Dy  Dy2  1  0.500000  0.500000  0.000000  1
  Cu  Cu3  1  0.858603  0.168945  0.689658  1
  Cu  Cu4  1  0.141397  0.831055  0.310342  1
  Cu  Cu5  1  0.479287  0.168945  0.310342  1
  Cu  Cu6  1  0.520713  0.831055  0.689658  1
  Ge  Ge7  1  0.283182  0.283182  0.000000  1
  Ge  Ge8  1  0.808400  0.000000  0.808400  1
  Ge  Ge9  1  0.191600  0.000000  0.191600  1
  Ge  Ge10  1  0.716818  0.716818  0.000000  1
