# generated using pymatgen
data_Ta5Sb4
_symmetry_space_group_name_H-M   'P 1'
_cell_length_a   7.53220345
_cell_length_b   7.53220345
_cell_length_c   7.53220345
_cell_angle_alpha   93.24683467
_cell_angle_beta   93.24683467
_cell_angle_gamma   152.46452120
_symmetry_Int_Tables_number   1
_chemical_formula_structural   Ta5Sb4
_chemical_formula_sum   'Ta5 Sb4'
_cell_volume   191.87889503
_cell_formula_units_Z   1
loop_
 _symmetry_equiv_pos_site_id
 _symmetry_equiv_pos_as_xyz
  1  'x, y, z'
loop_
 _atom_site_type_symbol
 _atom_site_label
 _atom_site_symmetry_multiplicity
 _atom_site_fract_x
 _atom_site_fract_y
 _atom_site_fract_z
 _atom_site_occupancy
  Ta  Ta0  1  0.313376  0.628048  0.941424  1
  Ta  Ta1  1  0.371952  0.313376  0.685328  1
  Ta  Ta2  1  0.628048  0.686624  0.314672  1
  Ta  Ta3  1  0.686624  0.371952  0.058576  1
  Ta  Ta4  1  0.000000  0.000000  0.000000  1
  Sb  Sb5  1  0.052178  0.703813  0.755991  1
  Sb  Sb6  1  0.296187  0.052178  0.348365  1
  Sb  Sb7  1  0.703813  0.947822  0.651635  1
  Sb  Sb8  1  0.947822  0.296187  0.244009  1
