# generated using pymatgen
data_Gd3S4
_symmetry_space_group_name_H-M   'P 1'
_cell_length_a   7.29084720
_cell_length_b   7.29084720
_cell_length_c   7.29084720
_cell_angle_alpha   109.47122063
_cell_angle_beta   109.47122063
_cell_angle_gamma   109.47122063
_symmetry_Int_Tables_number   1
_chemical_formula_structural   Gd3S4
_chemical_formula_sum   'Gd6 S8'
_cell_volume   298.34042122
_cell_formula_units_Z   2
loop_
 _symmetry_equiv_pos_site_id
 _symmetry_equiv_pos_as_xyz
  1  'x, y, z'
loop_
 _atom_site_type_symbol
 _atom_site_label
 _atom_site_symmetry_multiplicity
 _atom_site_fract_x
 _atom_site_fract_y
 _atom_site_fract_z
 _atom_site_occupancy
  Gd  Gd0  1  0.750000  0.875000  0.125000  1
  Gd  Gd1  1  0.625000  0.375000  0.250000  1
  Gd  Gd2  1  0.875000  0.125000  0.750000  1
  Gd  Gd3  1  0.125000  0.750000  0.875000  1
  Gd  Gd4  1  0.375000  0.250000  0.625000  1
  Gd  Gd5  1  0.250000  0.625000  0.375000  1
  S  S6  1  0.644497  0.644497  0.644497  1
  S  S7  1  0.355503  0.500000  0.000000  1
  S  S8  1  0.500000  1.000000  0.355503  1
  S  S9  1  1.000000  0.355503  0.500000  1
  S  S10  1  0.500000  1.000000  0.855503  1
  S  S11  1  1.000000  0.855503  0.500000  1
  S  S12  1  0.144497  0.144497  0.144497  1
  S  S13  1  0.855503  0.500000  0.000000  1
