# generated using pymatgen
data_CeSnPd
_symmetry_space_group_name_H-M   'P 1'
_cell_length_a   4.72787233
_cell_length_b   7.46090339
_cell_length_c   7.99922326
_cell_angle_alpha   90.00000000
_cell_angle_beta   90.00000000
_cell_angle_gamma   90.00000000
_symmetry_Int_Tables_number   1
_chemical_formula_structural   CeSnPd
_chemical_formula_sum   'Ce4 Sn4 Pd4'
_cell_volume   282.16619067
_cell_formula_units_Z   4
loop_
 _symmetry_equiv_pos_site_id
 _symmetry_equiv_pos_as_xyz
  1  'x, y, z'
loop_
 _atom_site_type_symbol
 _atom_site_label
 _atom_site_symmetry_multiplicity
 _atom_site_fract_x
 _atom_site_fract_y
 _atom_site_fract_z
 _atom_site_occupancy
  Ce  Ce0  1  0.250000  0.512666  0.205208  1
  Ce  Ce1  1  0.750000  0.487334  0.794792  1
  Ce  Ce2  1  0.250000  0.012666  0.294792  1
  Ce  Ce3  1  0.750000  0.987334  0.705208  1
  Sn  Sn4  1  0.250000  0.189231  0.911833  1
  Sn  Sn5  1  0.750000  0.310769  0.411833  1
  Sn  Sn6  1  0.250000  0.689231  0.588167  1
  Sn  Sn7  1  0.750000  0.810769  0.088167  1
  Pd  Pd8  1  0.750000  0.206761  0.082663  1
  Pd  Pd9  1  0.250000  0.293239  0.582663  1
  Pd  Pd10  1  0.750000  0.706761  0.417337  1
  Pd  Pd11  1  0.250000  0.793239  0.917337  1
