# generated using pymatgen
data_AgIO3
_symmetry_space_group_name_H-M   'P 1'
_cell_length_a   5.89721606
_cell_length_b   7.26060505
_cell_length_c   15.51162123
_cell_angle_alpha   90.00000000
_cell_angle_beta   90.00000000
_cell_angle_gamma   90.00000000
_symmetry_Int_Tables_number   1
_chemical_formula_structural   AgIO3
_chemical_formula_sum   'Ag8 I8 O24'
_cell_volume   664.16661930
_cell_formula_units_Z   8
loop_
 _symmetry_equiv_pos_site_id
 _symmetry_equiv_pos_as_xyz
  1  'x, y, z'
loop_
 _atom_site_type_symbol
 _atom_site_label
 _atom_site_symmetry_multiplicity
 _atom_site_fract_x
 _atom_site_fract_y
 _atom_site_fract_z
 _atom_site_occupancy
  Ag  Ag0  1  0.001043  0.605781  0.702631  1
  Ag  Ag1  1  0.501043  0.394219  0.297369  1
  Ag  Ag2  1  0.001043  0.394219  0.202631  1
  Ag  Ag3  1  0.501043  0.605781  0.797369  1
  Ag  Ag4  1  0.993593  0.130951  0.705865  1
  Ag  Ag5  1  0.493593  0.869049  0.294135  1
  Ag  Ag6  1  0.993593  0.869049  0.205865  1
  Ag  Ag7  1  0.493593  0.130951  0.794135  1
  I  I8  1  0.600104  0.869434  0.589253  1
  I  I9  1  0.100104  0.130566  0.410747  1
  I  I10  1  0.600104  0.130566  0.089253  1
  I  I11  1  0.100104  0.869434  0.910747  1
  I  I12  1  0.514715  0.364115  0.590243  1
  I  I13  1  0.014715  0.635885  0.409757  1
  I  I14  1  0.514715  0.635885  0.090243  1
  I  I15  1  0.014715  0.364115  0.909757  1
  O  O16  1  0.169008  0.373906  0.804903  1
  O  O17  1  0.669008  0.626094  0.195097  1
  O  O18  1  0.169008  0.626094  0.304903  1
  O  O19  1  0.669008  0.373906  0.695097  1
  O  O20  1  0.144103  0.864428  0.792919  1
  O  O21  1  0.644103  0.135572  0.207081  1
  O  O22  1  0.144103  0.135572  0.292919  1
  O  O23  1  0.644103  0.864428  0.707081  1
  O  O24  1  0.294663  0.063087  0.933206  1
  O  O25  1  0.794663  0.936913  0.066794  1
  O  O26  1  0.294663  0.936913  0.433206  1
  O  O27  1  0.794663  0.063087  0.566794  1
  O  O28  1  0.829629  0.167758  0.880517  1
  O  O29  1  0.329629  0.832242  0.119483  1
  O  O30  1  0.829629  0.832242  0.380517  1
  O  O31  1  0.329629  0.167758  0.619483  1
  O  O32  1  0.320862  0.560157  0.608140  1
  O  O33  1  0.820862  0.439843  0.391860  1
  O  O34  1  0.320862  0.439843  0.108140  1
  O  O35  1  0.820862  0.560157  0.891860  1
  O  O36  1  0.795881  0.675695  0.564562  1
  O  O37  1  0.295881  0.324305  0.435438  1
  O  O38  1  0.795881  0.324305  0.064562  1
  O  O39  1  0.295881  0.675695  0.935438  1
