# generated using pymatgen
data_Ta3(Se4Br3)2
_symmetry_space_group_name_H-M   'P 1'
_cell_length_a   7.73034443
_cell_length_b   11.54809833
_cell_length_c   13.04010263
_cell_angle_alpha   71.44410472
_cell_angle_beta   79.71795722
_cell_angle_gamma   82.75816747
_symmetry_Int_Tables_number   1
_chemical_formula_structural   Ta3(Se4Br3)2
_chemical_formula_sum   'Ta6 Se16 Br12'
_cell_volume   1082.86339740
_cell_formula_units_Z   2
loop_
 _symmetry_equiv_pos_site_id
 _symmetry_equiv_pos_as_xyz
  1  'x, y, z'
loop_
 _atom_site_type_symbol
 _atom_site_label
 _atom_site_symmetry_multiplicity
 _atom_site_fract_x
 _atom_site_fract_y
 _atom_site_fract_z
 _atom_site_occupancy
  Ta  Ta0  1  0.399353  0.500256  0.245524  1
  Ta  Ta1  1  0.600647  0.499744  0.754476  1
  Ta  Ta2  1  0.997600  0.002314  0.123621  1
  Ta  Ta3  1  0.002400  0.997686  0.876379  1
  Ta  Ta4  1  0.998583  0.001552  0.374887  1
  Ta  Ta5  1  0.001417  0.998448  0.625113  1
  Se  Se6  1  0.786493  0.887495  0.311534  1
  Se  Se7  1  0.213507  0.112505  0.688466  1
  Se  Se8  1  0.240390  0.896066  0.245993  1
  Se  Se9  1  0.759610  0.103934  0.754007  1
  Se  Se10  1  0.212122  0.116206  0.203106  1
  Se  Se11  1  0.787878  0.883794  0.796894  1
  Se  Se12  1  0.998098  0.804740  0.058057  1
  Se  Se13  1  0.001902  0.195260  0.941943  1
  Se  Se14  1  0.741582  0.942465  0.042823  1
  Se  Se15  1  0.258418  0.057535  0.957177  1
  Se  Se16  1  0.273416  0.953721  0.482704  1
  Se  Se17  1  0.726584  0.046279  0.517296  1
  Se  Se18  1  0.060177  0.806347  0.546617  1
  Se  Se19  1  0.251463  0.894188  0.760709  1
  Se  Se20  1  0.939823  0.193653  0.453383  1
  Se  Se21  1  0.748537  0.105812  0.239291  1
  Br  Br22  1  0.808487  0.577056  0.844983  1
  Br  Br23  1  0.191513  0.422944  0.155017  1
  Br  Br24  1  0.332520  0.597430  0.845731  1
  Br  Br25  1  0.639061  0.695625  0.594661  1
  Br  Br26  1  0.596770  0.577214  0.337770  1
  Br  Br27  1  0.403230  0.422786  0.662230  1
  Br  Br28  1  0.135274  0.606221  0.337692  1
  Br  Br29  1  0.864726  0.393779  0.662308  1
  Br  Br30  1  0.419913  0.691925  0.079924  1
  Br  Br31  1  0.580087  0.308075  0.920076  1
  Br  Br32  1  0.360939  0.304375  0.405339  1
  Br  Br33  1  0.667480  0.402570  0.154269  1
