# generated using pymatgen
data_AlCu
_symmetry_space_group_name_H-M   'P 1'
_cell_length_a   6.37770316
_cell_length_b   6.37770316
_cell_length_c   6.92031365
_cell_angle_alpha   57.13799463
_cell_angle_beta   122.86200537
_cell_angle_gamma   142.54099360
_symmetry_Int_Tables_number   1
_chemical_formula_structural   AlCu
_chemical_formula_sum   'Al5 Cu5'
_cell_volume   140.31041953
_cell_formula_units_Z   5
loop_
 _symmetry_equiv_pos_site_id
 _symmetry_equiv_pos_as_xyz
  1  'x, y, z'
loop_
 _atom_site_type_symbol
 _atom_site_label
 _atom_site_symmetry_multiplicity
 _atom_site_fract_x
 _atom_site_fract_y
 _atom_site_fract_z
 _atom_site_occupancy
  Al  Al0  1  0.500000  0.500000  0.500000  1
  Al  Al1  1  0.156220  0.843780  0.851008  1
  Al  Al2  1  0.843780  0.156220  0.148992  1
  Al  Al3  1  0.378231  0.621769  0.760737  1
  Al  Al4  1  0.621769  0.378231  0.239263  1
  Cu  Cu5  1  0.000000  0.000000  0.000000  1
  Cu  Cu6  1  0.257947  0.742053  0.275310  1
  Cu  Cu7  1  0.742053  0.257947  0.724690  1
  Cu  Cu8  1  0.108952  0.891048  0.446041  1
  Cu  Cu9  1  0.891048  0.108952  0.553959  1
