# generated using pymatgen
data_Pd17Se15
_symmetry_space_group_name_H-M   'P 1'
_cell_length_a   10.77829878
_cell_length_b   10.77829878
_cell_length_c   10.77829878
_cell_angle_alpha   90.00000000
_cell_angle_beta   90.00000000
_cell_angle_gamma   90.00000000
_symmetry_Int_Tables_number   1
_chemical_formula_structural   Pd17Se15
_chemical_formula_sum   'Pd34 Se30'
_cell_volume   1252.13355743
_cell_formula_units_Z   2
loop_
 _symmetry_equiv_pos_site_id
 _symmetry_equiv_pos_as_xyz
  1  'x, y, z'
loop_
 _atom_site_type_symbol
 _atom_site_label
 _atom_site_symmetry_multiplicity
 _atom_site_fract_x
 _atom_site_fract_y
 _atom_site_fract_z
 _atom_site_occupancy
  Pd  Pd0  1  0.149970  0.352427  0.647573  1
  Pd  Pd1  1  0.352427  0.352427  0.850030  1
  Pd  Pd2  1  0.352427  0.149970  0.647573  1
  Pd  Pd3  1  0.149970  0.647573  0.352427  1
  Pd  Pd4  1  0.352427  0.647573  0.149970  1
  Pd  Pd5  1  0.352427  0.850030  0.352427  1
  Pd  Pd6  1  0.850030  0.352427  0.352427  1
  Pd  Pd7  1  0.647573  0.352427  0.149970  1
  Pd  Pd8  1  0.647573  0.149970  0.352427  1
  Pd  Pd9  1  0.850030  0.647573  0.647573  1
  Pd  Pd10  1  0.647573  0.647573  0.850030  1
  Pd  Pd11  1  0.647573  0.850030  0.647573  1
  Pd  Pd12  1  0.850030  0.647573  0.352427  1
  Pd  Pd13  1  0.647573  0.647573  0.149970  1
  Pd  Pd14  1  0.647573  0.850030  0.352427  1
  Pd  Pd15  1  0.850030  0.352427  0.647573  1
  Pd  Pd16  1  0.647573  0.352427  0.850030  1
  Pd  Pd17  1  0.647573  0.149970  0.647573  1
  Pd  Pd18  1  0.149970  0.647573  0.647573  1
  Pd  Pd19  1  0.352427  0.647573  0.850030  1
  Pd  Pd20  1  0.352427  0.850030  0.647573  1
  Pd  Pd21  1  0.149970  0.352427  0.352427  1
  Pd  Pd22  1  0.352427  0.352427  0.149970  1
  Pd  Pd23  1  0.352427  0.149970  0.352427  1
  Pd  Pd24  1  0.239877  0.000000  0.000000  1
  Pd  Pd25  1  0.000000  0.000000  0.760123  1
  Pd  Pd26  1  0.000000  0.239877  0.000000  1
  Pd  Pd27  1  0.000000  0.000000  0.239877  1
  Pd  Pd28  1  0.000000  0.760123  0.000000  1
  Pd  Pd29  1  0.760123  0.000000  0.000000  1
  Pd  Pd30  1  0.500000  0.000000  0.000000  1
  Pd  Pd31  1  0.000000  0.000000  0.500000  1
  Pd  Pd32  1  0.000000  0.500000  0.000000  1
  Pd  Pd33  1  0.500000  0.500000  0.500000  1
  Se  Se34  1  0.500000  0.169140  0.830860  1
  Se  Se35  1  0.169140  0.169140  0.500000  1
  Se  Se36  1  0.169140  0.500000  0.830860  1
  Se  Se37  1  0.500000  0.830860  0.169140  1
  Se  Se38  1  0.169140  0.830860  0.500000  1
  Se  Se39  1  0.169140  0.500000  0.169140  1
  Se  Se40  1  0.500000  0.169140  0.169140  1
  Se  Se41  1  0.830860  0.169140  0.500000  1
  Se  Se42  1  0.830860  0.500000  0.169140  1
  Se  Se43  1  0.500000  0.830860  0.830860  1
  Se  Se44  1  0.830860  0.830860  0.500000  1
  Se  Se45  1  0.830860  0.500000  0.830860  1
  Se  Se46  1  0.000000  0.230355  0.769645  1
  Se  Se47  1  0.230355  0.230355  0.000000  1
  Se  Se48  1  0.230355  0.000000  0.769645  1
  Se  Se49  1  0.000000  0.769645  0.230355  1
  Se  Se50  1  0.230355  0.769645  0.000000  1
  Se  Se51  1  0.230355  0.000000  0.230355  1
  Se  Se52  1  0.000000  0.230355  0.230355  1
  Se  Se53  1  0.769645  0.230355  0.000000  1
  Se  Se54  1  0.769645  0.000000  0.230355  1
  Se  Se55  1  0.000000  0.769645  0.769645  1
  Se  Se56  1  0.769645  0.769645  0.000000  1
  Se  Se57  1  0.769645  0.000000  0.769645  1
  Se  Se58  1  0.259698  0.500000  0.500000  1
  Se  Se59  1  0.500000  0.500000  0.740302  1
  Se  Se60  1  0.500000  0.259698  0.500000  1
  Se  Se61  1  0.500000  0.500000  0.259698  1
  Se  Se62  1  0.500000  0.740302  0.500000  1
  Se  Se63  1  0.740302  0.500000  0.500000  1
