# generated using pymatgen
data_CeCoC2
_symmetry_space_group_name_H-M   'P 1'
_cell_length_a   3.73217021
_cell_length_b   3.73217021
_cell_length_c   7.39957551
_cell_angle_alpha   82.60388406
_cell_angle_beta   97.39611594
_cell_angle_gamma   90.00102817
_symmetry_Int_Tables_number   1
_chemical_formula_structural   CeCoC2
_chemical_formula_sum   'Ce2 Co2 C4'
_cell_volume   101.34706466
_cell_formula_units_Z   2
loop_
 _symmetry_equiv_pos_site_id
 _symmetry_equiv_pos_as_xyz
  1  'x, y, z'
loop_
 _atom_site_type_symbol
 _atom_site_label
 _atom_site_symmetry_multiplicity
 _atom_site_fract_x
 _atom_site_fract_y
 _atom_site_fract_z
 _atom_site_occupancy
  Ce  Ce0  1  0.068529  0.063405  0.999461  1
  Ce  Ce1  1  0.936595  0.931471  0.499461  1
  Co  Co2  1  0.490208  0.375164  0.694737  1
  Co  Co3  1  0.624836  0.509792  0.194737  1
  C  C4  1  0.406044  0.443471  0.428088  1
  C  C5  1  0.556529  0.593956  0.928088  1
  C  C6  1  0.141653  0.491393  0.274614  1
  C  C7  1  0.508607  0.858347  0.774614  1
