# generated using pymatgen
data_Sr2Al3Si3HO13
_symmetry_space_group_name_H-M   'P 1'
_cell_length_a   5.66788830
_cell_length_b   10.36862279
_cell_length_c   16.53873788
_cell_angle_alpha   90.00000000
_cell_angle_beta   90.00000000
_cell_angle_gamma   90.00000000
_symmetry_Int_Tables_number   1
_chemical_formula_structural   Sr2Al3Si3HO13
_chemical_formula_sum   'Sr8 Al12 Si12 H4 O52'
_cell_volume   971.95178599
_cell_formula_units_Z   4
loop_
 _symmetry_equiv_pos_site_id
 _symmetry_equiv_pos_as_xyz
  1  'x, y, z'
loop_
 _atom_site_type_symbol
 _atom_site_label
 _atom_site_symmetry_multiplicity
 _atom_site_fract_x
 _atom_site_fract_y
 _atom_site_fract_z
 _atom_site_occupancy
  Sr  Sr0  1  0.250000  0.387526  0.956949  1
  Sr  Sr1  1  0.750000  0.612474  0.043051  1
  Sr  Sr2  1  0.750000  0.887526  0.543051  1
  Sr  Sr3  1  0.250000  0.112474  0.456949  1
  Sr  Sr4  1  0.250000  0.059508  0.868515  1
  Sr  Sr5  1  0.750000  0.940492  0.131485  1
  Sr  Sr6  1  0.750000  0.559508  0.631485  1
  Sr  Sr7  1  0.250000  0.440492  0.368515  1
  Al  Al8  1  0.495631  0.688776  0.246689  1
  Al  Al9  1  0.995631  0.188776  0.253311  1
  Al  Al10  1  0.495631  0.811224  0.746689  1
  Al  Al11  1  0.004369  0.688776  0.246689  1
  Al  Al12  1  0.504369  0.311224  0.753311  1
  Al  Al13  1  0.004369  0.811224  0.746689  1
  Al  Al14  1  0.504369  0.188776  0.253311  1
  Al  Al15  1  0.995631  0.311224  0.753311  1
  Al  Al16  1  0.750000  0.296812  0.110113  1
  Al  Al17  1  0.250000  0.703188  0.889887  1
  Al  Al18  1  0.250000  0.796812  0.389887  1
  Al  Al19  1  0.750000  0.203188  0.610113  1
  Si  Si20  1  0.250000  0.071235  0.663232  1
  Si  Si21  1  0.750000  0.894177  0.912791  1
  Si  Si22  1  0.750000  0.605823  0.412791  1
  Si  Si23  1  0.250000  0.394177  0.587209  1
  Si  Si24  1  0.250000  0.105823  0.087209  1
  Si  Si25  1  0.750000  0.284042  0.412517  1
  Si  Si26  1  0.250000  0.715958  0.587483  1
  Si  Si27  1  0.250000  0.784042  0.087483  1
  Si  Si28  1  0.750000  0.215958  0.912517  1
  Si  Si29  1  0.250000  0.428765  0.163232  1
  Si  Si30  1  0.750000  0.928765  0.336768  1
  Si  Si31  1  0.750000  0.571235  0.836768  1
  H  H32  1  0.250000  0.517190  0.771401  1
  H  H33  1  0.750000  0.482810  0.228599  1
  H  H34  1  0.750000  0.017190  0.728599  1
  H  H35  1  0.250000  0.982810  0.271401  1
  O  O36  1  0.250000  0.310292  0.232169  1
  O  O37  1  0.750000  0.577972  0.227773  1
  O  O38  1  0.750000  0.922028  0.727773  1
  O  O39  1  0.250000  0.077972  0.272227  1
  O  O40  1  0.750000  0.055543  0.913852  1
  O  O41  1  0.250000  0.944457  0.086148  1
  O  O42  1  0.250000  0.555543  0.586148  1
  O  O43  1  0.750000  0.444457  0.413852  1
  O  O44  1  0.750000  0.217141  0.500920  1
  O  O45  1  0.250000  0.782859  0.499080  1
  O  O46  1  0.250000  0.717141  0.999080  1
  O  O47  1  0.750000  0.282859  0.000920  1
  O  O48  1  0.250000  0.340299  0.497616  1
  O  O49  1  0.750000  0.659701  0.502384  1
  O  O50  1  0.750000  0.840299  0.002384  1
  O  O51  1  0.250000  0.159701  0.997616  1
  O  O52  1  0.750000  0.441903  0.775182  1
  O  O53  1  0.485459  0.740746  0.138043  1
  O  O54  1  0.250000  0.941903  0.724818  1
  O  O55  1  0.750000  0.058097  0.275182  1
  O  O56  1  0.250000  0.189708  0.732169  1
  O  O57  1  0.750000  0.810292  0.267831  1
  O  O58  1  0.750000  0.689708  0.767831  1
  O  O59  1  0.250000  0.422028  0.772227  1
  O  O60  1  0.750000  0.204228  0.721782  1
  O  O61  1  0.250000  0.795772  0.278218  1
  O  O62  1  0.250000  0.704228  0.778218  1
  O  O63  1  0.750000  0.295772  0.221782  1
  O  O64  1  0.002777  0.147391  0.135741  1
  O  O65  1  0.502777  0.852609  0.864259  1
  O  O66  1  0.997223  0.647391  0.364259  1
  O  O67  1  0.497223  0.352609  0.635741  1
  O  O68  1  0.997223  0.852609  0.864259  1
  O  O69  1  0.497223  0.147391  0.135741  1
  O  O70  1  0.002777  0.352609  0.635741  1
  O  O71  1  0.502777  0.647391  0.364259  1
  O  O72  1  0.013968  0.420616  0.105155  1
  O  O73  1  0.513968  0.579384  0.894845  1
  O  O74  1  0.986032  0.920616  0.394845  1
  O  O75  1  0.486032  0.079384  0.605155  1
  O  O76  1  0.986032  0.579384  0.894845  1
  O  O77  1  0.486032  0.420616  0.105155  1
  O  O78  1  0.013968  0.079384  0.605155  1
  O  O79  1  0.513968  0.920616  0.394845  1
  O  O80  1  0.985459  0.240746  0.361957  1
  O  O81  1  0.485459  0.759254  0.638043  1
  O  O82  1  0.014541  0.740746  0.138043  1
  O  O83  1  0.514541  0.259254  0.861957  1
  O  O84  1  0.014541  0.759254  0.638043  1
  O  O85  1  0.514541  0.240746  0.361957  1
  O  O86  1  0.985459  0.259254  0.861957  1
  O  O87  1  0.250000  0.558097  0.224818  1
