# generated using pymatgen
data_TmSiRu
_symmetry_space_group_name_H-M   'P 1'
_cell_length_a   4.30933344
_cell_length_b   6.90849011
_cell_length_c   7.08271474
_cell_angle_alpha   90.00000000
_cell_angle_beta   90.00000000
_cell_angle_gamma   90.00000000
_symmetry_Int_Tables_number   1
_chemical_formula_structural   TmSiRu
_chemical_formula_sum   'Tm4 Si4 Ru4'
_cell_volume   210.85941164
_cell_formula_units_Z   4
loop_
 _symmetry_equiv_pos_site_id
 _symmetry_equiv_pos_as_xyz
  1  'x, y, z'
loop_
 _atom_site_type_symbol
 _atom_site_label
 _atom_site_symmetry_multiplicity
 _atom_site_fract_x
 _atom_site_fract_y
 _atom_site_fract_z
 _atom_site_occupancy
  Tm  Tm0  1  0.250000  0.986709  0.811840  1
  Tm  Tm1  1  0.750000  0.013291  0.188160  1
  Tm  Tm2  1  0.250000  0.486709  0.688160  1
  Tm  Tm3  1  0.750000  0.513291  0.311840  1
  Si  Si4  1  0.250000  0.301648  0.106156  1
  Si  Si5  1  0.750000  0.698352  0.893844  1
  Si  Si6  1  0.250000  0.801648  0.393844  1
  Si  Si7  1  0.750000  0.198352  0.606156  1
  Ru  Ru8  1  0.750000  0.845183  0.566478  1
  Ru  Ru9  1  0.250000  0.154817  0.433522  1
  Ru  Ru10  1  0.750000  0.345183  0.933522  1
  Ru  Ru11  1  0.250000  0.654817  0.066478  1
