# generated using pymatgen
data_PbSO3
_symmetry_space_group_name_H-M   'P 1'
_cell_length_a   5.57030164
_cell_length_b   6.90710160
_cell_length_c   8.05401781
_cell_angle_alpha   90.00000000
_cell_angle_beta   90.00000000
_cell_angle_gamma   90.00000000
_symmetry_Int_Tables_number   1
_chemical_formula_structural   PbSO3
_chemical_formula_sum   'Pb4 S4 O12'
_cell_volume   309.87543072
_cell_formula_units_Z   4
loop_
 _symmetry_equiv_pos_site_id
 _symmetry_equiv_pos_as_xyz
  1  'x, y, z'
loop_
 _atom_site_type_symbol
 _atom_site_label
 _atom_site_symmetry_multiplicity
 _atom_site_fract_x
 _atom_site_fract_y
 _atom_site_fract_z
 _atom_site_occupancy
  Pb  Pb0  1  0.250000  0.858363  0.683508  1
  Pb  Pb1  1  0.750000  0.141637  0.316492  1
  Pb  Pb2  1  0.750000  0.358363  0.816492  1
  Pb  Pb3  1  0.250000  0.641637  0.183508  1
  S  S4  1  0.750000  0.851179  0.965108  1
  S  S5  1  0.250000  0.148821  0.034892  1
  S  S6  1  0.250000  0.351179  0.534892  1
  S  S7  1  0.750000  0.648821  0.465108  1
  O  O8  1  0.030345  0.284173  0.062278  1
  O  O9  1  0.530345  0.715827  0.937722  1
  O  O10  1  0.969655  0.784173  0.437722  1
  O  O11  1  0.469655  0.215827  0.562278  1
  O  O12  1  0.969655  0.715827  0.937722  1
  O  O13  1  0.469655  0.284173  0.062278  1
  O  O14  1  0.030345  0.215827  0.562278  1
  O  O15  1  0.530345  0.784173  0.437722  1
  O  O16  1  0.750000  0.516004  0.312227  1
  O  O17  1  0.250000  0.483996  0.687773  1
  O  O18  1  0.250000  0.016004  0.187773  1
  O  O19  1  0.750000  0.983996  0.812227  1
