# generated using pymatgen
data_Cu3TeO6
_symmetry_space_group_name_H-M   'P 1'
_cell_length_a   8.37871848
_cell_length_b   8.37871848
_cell_length_c   8.37871848
_cell_angle_alpha   109.47122063
_cell_angle_beta   109.47122063
_cell_angle_gamma   109.47122063
_symmetry_Int_Tables_number   1
_chemical_formula_structural   Cu3TeO6
_chemical_formula_sum   'Cu12 Te4 O24'
_cell_volume   452.80467808
_cell_formula_units_Z   4
loop_
 _symmetry_equiv_pos_site_id
 _symmetry_equiv_pos_as_xyz
  1  'x, y, z'
loop_
 _atom_site_type_symbol
 _atom_site_label
 _atom_site_symmetry_multiplicity
 _atom_site_fract_x
 _atom_site_fract_y
 _atom_site_fract_z
 _atom_site_occupancy
  Cu  Cu0  1  0.250000  0.720551  0.470551  1
  Cu  Cu1  1  0.029449  0.750000  0.779449  1
  Cu  Cu2  1  0.779449  0.029449  0.750000  1
  Cu  Cu3  1  0.470551  0.250000  0.720551  1
  Cu  Cu4  1  0.720551  0.470551  0.250000  1
  Cu  Cu5  1  0.750000  0.779449  0.029449  1
  Cu  Cu6  1  0.750000  0.279449  0.529449  1
  Cu  Cu7  1  0.970551  0.250000  0.220551  1
  Cu  Cu8  1  0.220551  0.970551  0.250000  1
  Cu  Cu9  1  0.529449  0.750000  0.279449  1
  Cu  Cu10  1  0.279449  0.529449  0.750000  1
  Cu  Cu11  1  0.250000  0.220551  0.970551  1
  Te  Te12  1  1.000000  0.500000  0.000000  1
  Te  Te13  1  0.500000  1.000000  0.000000  1
  Te  Te14  1  1.000000  1.000000  0.500000  1
  Te  Te15  1  0.500000  0.500000  0.500000  1
  O  O16  1  0.071470  0.531860  0.804146  1
  O  O17  1  0.227714  0.267324  0.695854  1
  O  O18  1  0.272286  0.968140  0.039610  1
  O  O19  1  0.232676  0.460390  0.428530  1
  O  O20  1  0.460390  0.428530  0.232676  1
  O  O21  1  0.804146  0.071470  0.531860  1
  O  O22  1  0.267324  0.695854  0.227714  1
  O  O23  1  0.039610  0.272286  0.968140  1
  O  O24  1  0.531860  0.804146  0.071470  1
  O  O25  1  0.695854  0.227714  0.267324  1
  O  O26  1  0.968140  0.039610  0.272286  1
  O  O27  1  0.428530  0.232676  0.460390  1
  O  O28  1  0.928530  0.468140  0.195854  1
  O  O29  1  0.772286  0.732676  0.304146  1
  O  O30  1  0.727714  0.031860  0.960390  1
  O  O31  1  0.767324  0.539610  0.571470  1
  O  O32  1  0.571470  0.767324  0.539610  1
  O  O33  1  0.031860  0.960390  0.727714  1
  O  O34  1  0.304146  0.772286  0.732676  1
  O  O35  1  0.468140  0.195854  0.928530  1
  O  O36  1  0.960390  0.727714  0.031860  1
  O  O37  1  0.732676  0.304146  0.772286  1
  O  O38  1  0.195854  0.928530  0.468140  1
  O  O39  1  0.539610  0.571470  0.767324  1
