# generated using pymatgen
data_HoSiIr
_symmetry_space_group_name_H-M   'P 1'
_cell_length_a   4.23134665
_cell_length_b   6.83890464
_cell_length_c   7.43566527
_cell_angle_alpha   90.00000000
_cell_angle_beta   90.00000000
_cell_angle_gamma   90.00000000
_symmetry_Int_Tables_number   1
_chemical_formula_structural   HoSiIr
_chemical_formula_sum   'Ho4 Si4 Ir4'
_cell_volume   215.17161776
_cell_formula_units_Z   4
loop_
 _symmetry_equiv_pos_site_id
 _symmetry_equiv_pos_as_xyz
  1  'x, y, z'
loop_
 _atom_site_type_symbol
 _atom_site_label
 _atom_site_symmetry_multiplicity
 _atom_site_fract_x
 _atom_site_fract_y
 _atom_site_fract_z
 _atom_site_occupancy
  Ho  Ho0  1  0.750000  0.499080  0.812034  1
  Ho  Ho1  1  0.250000  0.000920  0.312034  1
  Ho  Ho2  1  0.750000  0.999080  0.687966  1
  Ho  Ho3  1  0.250000  0.500920  0.187966  1
  Si  Si4  1  0.250000  0.798206  0.890830  1
  Si  Si5  1  0.250000  0.298206  0.609170  1
  Si  Si6  1  0.750000  0.201794  0.109170  1
  Si  Si7  1  0.750000  0.701794  0.390830  1
  Ir  Ir8  1  0.250000  0.657518  0.567762  1
  Ir  Ir9  1  0.250000  0.157518  0.932238  1
  Ir  Ir10  1  0.750000  0.842482  0.067762  1
  Ir  Ir11  1  0.750000  0.342482  0.432238  1
