# generated using pymatgen
data_NaSn2Cl5
_symmetry_space_group_name_H-M   'P 1'
_cell_length_a   8.63993222
_cell_length_b   8.82967446
_cell_length_c   12.17429480
_cell_angle_alpha   90.00000000
_cell_angle_beta   90.00000000
_cell_angle_gamma   90.00000000
_symmetry_Int_Tables_number   1
_chemical_formula_structural   NaSn2Cl5
_chemical_formula_sum   'Na4 Sn8 Cl20'
_cell_volume   928.75003121
_cell_formula_units_Z   4
loop_
 _symmetry_equiv_pos_site_id
 _symmetry_equiv_pos_as_xyz
  1  'x, y, z'
loop_
 _atom_site_type_symbol
 _atom_site_label
 _atom_site_symmetry_multiplicity
 _atom_site_fract_x
 _atom_site_fract_y
 _atom_site_fract_z
 _atom_site_occupancy
  Na  Na0  1  0.000000  0.251523  0.500000  1
  Na  Na1  1  0.500000  0.248477  0.000000  1
  Na  Na2  1  0.000000  0.748477  0.500000  1
  Na  Na3  1  0.500000  0.751523  0.000000  1
  Sn  Sn4  1  0.945526  0.000000  0.833345  1
  Sn  Sn5  1  0.053865  0.500000  0.173346  1
  Sn  Sn6  1  0.553865  0.000000  0.326654  1
  Sn  Sn7  1  0.946135  0.500000  0.826654  1
  Sn  Sn8  1  0.446135  0.000000  0.673346  1
  Sn  Sn9  1  0.554474  0.500000  0.333345  1
  Sn  Sn10  1  0.054474  0.000000  0.166655  1
  Sn  Sn11  1  0.445526  0.500000  0.666655  1
  Cl  Cl12  1  0.161196  0.500000  0.603443  1
  Cl  Cl13  1  0.500000  0.702530  0.500000  1
  Cl  Cl14  1  0.000000  0.797470  0.000000  1
  Cl  Cl15  1  0.500000  0.297470  0.500000  1
  Cl  Cl16  1  0.000000  0.202530  0.000000  1
  Cl  Cl17  1  0.838804  0.500000  0.396557  1
  Cl  Cl18  1  0.338804  0.000000  0.103443  1
  Cl  Cl19  1  0.165120  0.720535  0.293156  1
  Cl  Cl20  1  0.834880  0.279465  0.706844  1
  Cl  Cl21  1  0.334880  0.220535  0.793156  1
  Cl  Cl22  1  0.165120  0.279465  0.293156  1
  Cl  Cl23  1  0.665120  0.220535  0.206844  1
  Cl  Cl24  1  0.834880  0.720535  0.706844  1
  Cl  Cl25  1  0.665120  0.779465  0.206844  1
  Cl  Cl26  1  0.685155  0.500000  0.933670  1
  Cl  Cl27  1  0.334880  0.779465  0.793156  1
  Cl  Cl28  1  0.814845  0.000000  0.433670  1
  Cl  Cl29  1  0.314845  0.500000  0.066330  1
  Cl  Cl30  1  0.185155  0.000000  0.566330  1
  Cl  Cl31  1  0.661196  0.000000  0.896557  1
