# generated using pymatgen
data_SbAsF8
_symmetry_space_group_name_H-M   'P 1'
_cell_length_a   5.73666512
_cell_length_b   8.35854140
_cell_length_c   7.00908663
_cell_angle_alpha   90.00000000
_cell_angle_beta   95.35804395
_cell_angle_gamma   90.00000000
_symmetry_Int_Tables_number   1
_chemical_formula_structural   SbAsF8
_chemical_formula_sum   'Sb2 As2 F16'
_cell_volume   334.61828169
_cell_formula_units_Z   2
loop_
 _symmetry_equiv_pos_site_id
 _symmetry_equiv_pos_as_xyz
  1  'x, y, z'
loop_
 _atom_site_type_symbol
 _atom_site_label
 _atom_site_symmetry_multiplicity
 _atom_site_fract_x
 _atom_site_fract_y
 _atom_site_fract_z
 _atom_site_occupancy
  Sb  Sb0  1  0.796511  0.250000  0.217416  1
  Sb  Sb1  1  0.203489  0.750000  0.782584  1
  As  As2  1  0.499468  0.250000  0.701774  1
  As  As3  1  0.500532  0.750000  0.298226  1
  F  F4  1  0.769922  0.477237  0.213726  1
  F  F5  1  0.230078  0.977237  0.786274  1
  F  F6  1  0.230078  0.522763  0.786274  1
  F  F7  1  0.769922  0.022763  0.213726  1
  F  F8  1  0.017767  0.250000  0.034486  1
  F  F9  1  0.982233  0.750000  0.965514  1
  F  F10  1  0.702215  0.093973  0.708327  1
  F  F11  1  0.297785  0.593973  0.291673  1
  F  F12  1  0.297785  0.906027  0.291673  1
  F  F13  1  0.702215  0.406027  0.708327  1
  F  F14  1  0.536393  0.250000  0.001261  1
  F  F15  1  0.463607  0.750000  0.998739  1
  F  F16  1  0.536267  0.250000  0.383648  1
  F  F17  1  0.463733  0.750000  0.616352  1
  F  F18  1  0.021715  0.250000  0.432833  1
  F  F19  1  0.978285  0.750000  0.567167  1
