# generated using pymatgen
data_SrInPt
_symmetry_space_group_name_H-M   'P 1'
_cell_length_a   4.56854611
_cell_length_b   7.66153596
_cell_length_c   8.62549222
_cell_angle_alpha   90.00000000
_cell_angle_beta   90.00000000
_cell_angle_gamma   90.00000000
_symmetry_Int_Tables_number   1
_chemical_formula_structural   SrInPt
_chemical_formula_sum   'Sr4 In4 Pt4'
_cell_volume   301.91017137
_cell_formula_units_Z   4
loop_
 _symmetry_equiv_pos_site_id
 _symmetry_equiv_pos_as_xyz
  1  'x, y, z'
loop_
 _atom_site_type_symbol
 _atom_site_label
 _atom_site_symmetry_multiplicity
 _atom_site_fract_x
 _atom_site_fract_y
 _atom_site_fract_z
 _atom_site_occupancy
  Sr  Sr0  1  0.750000  0.969652  0.678628  1
  Sr  Sr1  1  0.250000  0.030348  0.321372  1
  Sr  Sr2  1  0.750000  0.469652  0.821372  1
  Sr  Sr3  1  0.250000  0.530348  0.178628  1
  In  In4  1  0.750000  0.352586  0.435291  1
  In  In5  1  0.250000  0.147414  0.935291  1
  In  In6  1  0.250000  0.647414  0.564709  1
  In  In7  1  0.750000  0.852586  0.064709  1
  Pt  Pt8  1  0.250000  0.777694  0.879465  1
  Pt  Pt9  1  0.250000  0.277694  0.620535  1
  Pt  Pt10  1  0.750000  0.722306  0.379465  1
  Pt  Pt11  1  0.750000  0.222306  0.120535  1
