# generated using pymatgen
data_Pd(PbCl3)2
_symmetry_space_group_name_H-M   'P 1'
_cell_length_a   8.17664301
_cell_length_b   6.53112453
_cell_length_c   9.20434469
_cell_angle_alpha   90.00000000
_cell_angle_beta   91.21586326
_cell_angle_gamma   90.00000000
_symmetry_Int_Tables_number   1
_chemical_formula_structural   Pd(PbCl3)2
_chemical_formula_sum   'Pd2 Pb4 Cl12'
_cell_volume   491.42594558
_cell_formula_units_Z   2
loop_
 _symmetry_equiv_pos_site_id
 _symmetry_equiv_pos_as_xyz
  1  'x, y, z'
loop_
 _atom_site_type_symbol
 _atom_site_label
 _atom_site_symmetry_multiplicity
 _atom_site_fract_x
 _atom_site_fract_y
 _atom_site_fract_z
 _atom_site_occupancy
  Pd  Pd0  1  0.000000  0.500000  0.000000  1
  Pd  Pd1  1  0.500000  0.000000  0.000000  1
  Pb  Pb2  1  0.875936  0.957363  0.717085  1
  Pb  Pb3  1  0.624064  0.457363  0.282915  1
  Pb  Pb4  1  0.124064  0.042637  0.282915  1
  Pb  Pb5  1  0.375936  0.542637  0.717085  1
  Cl  Cl6  1  0.666797  0.648098  0.560422  1
  Cl  Cl7  1  0.833203  0.148098  0.439578  1
  Cl  Cl8  1  0.333203  0.351902  0.439578  1
  Cl  Cl9  1  0.166797  0.851902  0.560422  1
  Cl  Cl10  1  0.641500  0.703452  0.940398  1
  Cl  Cl11  1  0.858500  0.203452  0.059602  1
  Cl  Cl12  1  0.029973  0.377402  0.763315  1
  Cl  Cl13  1  0.470027  0.877402  0.236685  1
  Cl  Cl14  1  0.970027  0.622598  0.236685  1
  Cl  Cl15  1  0.529973  0.122598  0.763315  1
  Cl  Cl16  1  0.141500  0.796548  0.940398  1
  Cl  Cl17  1  0.358500  0.296548  0.059602  1
