# generated using pymatgen
data_CaP2(HO2)4
_symmetry_space_group_name_H-M   'P 1'
_cell_length_a   5.57982915
_cell_length_b   7.81037962
_cell_length_c   8.38143146
_cell_angle_alpha   111.19954760
_cell_angle_beta   108.54335744
_cell_angle_gamma   93.67031874
_symmetry_Int_Tables_number   1
_chemical_formula_structural   CaP2(HO2)4
_chemical_formula_sum   'Ca2 P4 H8 O16'
_cell_volume   316.17775416
_cell_formula_units_Z   2
loop_
 _symmetry_equiv_pos_site_id
 _symmetry_equiv_pos_as_xyz
  1  'x, y, z'
loop_
 _atom_site_type_symbol
 _atom_site_label
 _atom_site_symmetry_multiplicity
 _atom_site_fract_x
 _atom_site_fract_y
 _atom_site_fract_z
 _atom_site_occupancy
  Ca  Ca0  1  0.808463  0.682352  0.580150  1
  Ca  Ca1  1  0.191537  0.317648  0.419850  1
  P  P2  1  0.172560  0.732146  0.313203  1
  P  P3  1  0.827440  0.267854  0.686797  1
  P  P4  1  0.477537  0.744624  0.842939  1
  P  P5  1  0.522463  0.255376  0.157061  1
  H  H6  1  0.000000  0.500000  0.000000  1
  H  H7  1  0.500000  0.000000  0.500000  1
  H  H8  1  0.150791  0.143821  0.780838  1
  H  H9  1  0.849209  0.856179  0.219162  1
  H  H10  1  0.755982  0.017619  0.998571  1
  H  H11  1  0.244018  0.982381  0.001429  1
  H  H12  1  0.594934  0.322449  0.937674  1
  H  H13  1  0.405066  0.677551  0.062326  1
  O  O14  1  0.557434  0.713973  0.030030  1
  O  O15  1  0.224279  0.814730  0.815796  1
  O  O16  1  0.442566  0.286027  0.969970  1
  O  O17  1  0.775721  0.185270  0.184204  1
  O  O18  1  0.286385  0.101306  0.118601  1
  O  O19  1  0.713615  0.898694  0.881399  1
  O  O20  1  0.485208  0.578441  0.681151  1
  O  O21  1  0.955667  0.396203  0.624657  1
  O  O22  1  0.829900  0.370202  0.884720  1
  O  O23  1  0.170100  0.629798  0.115280  1
  O  O24  1  0.044333  0.603797  0.375343  1
  O  O25  1  0.545115  0.168722  0.555668  1
  O  O26  1  0.025813  0.902946  0.315783  1
  O  O27  1  0.974187  0.097054  0.684217  1
  O  O28  1  0.454885  0.831278  0.444332  1
  O  O29  1  0.514792  0.421559  0.318849  1
