# generated using pymatgen
data_MgBHO3
_symmetry_space_group_name_H-M   'P 1'
_cell_length_a   3.17566077
_cell_length_b   10.49283709
_cell_length_c   12.68830026
_cell_angle_alpha   90.00000000
_cell_angle_beta   95.81732493
_cell_angle_gamma   90.00000000
_symmetry_Int_Tables_number   1
_chemical_formula_structural   MgBHO3
_chemical_formula_sum   'Mg8 B8 H8 O24'
_cell_volume   420.61826919
_cell_formula_units_Z   8
loop_
 _symmetry_equiv_pos_site_id
 _symmetry_equiv_pos_as_xyz
  1  'x, y, z'
loop_
 _atom_site_type_symbol
 _atom_site_label
 _atom_site_symmetry_multiplicity
 _atom_site_fract_x
 _atom_site_fract_y
 _atom_site_fract_z
 _atom_site_occupancy
  Mg  Mg0  1  0.706982  0.079302  0.411838  1
  Mg  Mg1  1  0.293018  0.579302  0.088162  1
  Mg  Mg2  1  0.293018  0.920698  0.588162  1
  Mg  Mg3  1  0.706982  0.420698  0.911838  1
  Mg  Mg4  1  0.232722  0.362429  0.504898  1
  Mg  Mg5  1  0.767278  0.862429  0.995102  1
  Mg  Mg6  1  0.767278  0.637571  0.495102  1
  Mg  Mg7  1  0.232722  0.137571  0.004898  1
  B  B8  1  0.759483  0.167990  0.638288  1
  B  B9  1  0.240517  0.667990  0.861712  1
  B  B10  1  0.240517  0.832010  0.361712  1
  B  B11  1  0.759483  0.332010  0.138288  1
  B  B12  1  0.627394  0.048086  0.807031  1
  B  B13  1  0.372606  0.548086  0.692969  1
  B  B14  1  0.372606  0.951914  0.192969  1
  B  B15  1  0.627394  0.451914  0.307031  1
  H  H16  1  0.137789  0.243500  0.338166  1
  H  H17  1  0.862211  0.743500  0.161834  1
  H  H18  1  0.862211  0.756500  0.661834  1
  H  H19  1  0.137789  0.256500  0.838166  1
  H  H20  1  0.683269  0.118209  0.193285  1
  H  H21  1  0.316731  0.618209  0.306715  1
  H  H22  1  0.316731  0.881791  0.806715  1
  H  H23  1  0.683269  0.381791  0.693285  1
  O  O24  1  0.777526  0.062508  0.576057  1
  O  O25  1  0.222474  0.562508  0.923943  1
  O  O26  1  0.222474  0.937492  0.423943  1
  O  O27  1  0.777526  0.437492  0.076057  1
  O  O28  1  0.769027  0.291542  0.601625  1
  O  O29  1  0.230973  0.791542  0.898375  1
  O  O30  1  0.230973  0.708458  0.398375  1
  O  O31  1  0.769027  0.208458  0.101625  1
  O  O32  1  0.731469  0.153989  0.748535  1
  O  O33  1  0.268531  0.653989  0.751465  1
  O  O34  1  0.268531  0.846011  0.251465  1
  O  O35  1  0.731469  0.346011  0.248535  1
  O  O36  1  0.601533  0.450137  0.746329  1
  O  O37  1  0.398467  0.950137  0.753671  1
  O  O38  1  0.398467  0.549863  0.253671  1
  O  O39  1  0.601533  0.049863  0.246329  1
  O  O40  1  0.720155  0.043759  0.914593  1
  O  O41  1  0.279845  0.543759  0.585407  1
  O  O42  1  0.279845  0.956241  0.085407  1
  O  O43  1  0.720155  0.456241  0.414593  1
  O  O44  1  0.203959  0.294727  0.908276  1
  O  O45  1  0.796041  0.794727  0.591724  1
  O  O46  1  0.796041  0.705273  0.091724  1
  O  O47  1  0.203959  0.205273  0.408276  1
