# generated using pymatgen
data_Si2H2O3
_symmetry_space_group_name_H-M   'P 1'
_cell_length_a   7.52216180
_cell_length_b   7.52216180
_cell_length_c   7.52216180
_cell_angle_alpha   77.96467459
_cell_angle_beta   77.96467459
_cell_angle_gamma   77.96467459
_symmetry_Int_Tables_number   1
_chemical_formula_structural   Si2H2O3
_chemical_formula_sum   'Si8 H8 O12'
_cell_volume   401.01469791
_cell_formula_units_Z   4
loop_
 _symmetry_equiv_pos_site_id
 _symmetry_equiv_pos_as_xyz
  1  'x, y, z'
loop_
 _atom_site_type_symbol
 _atom_site_label
 _atom_site_symmetry_multiplicity
 _atom_site_fract_x
 _atom_site_fract_y
 _atom_site_fract_z
 _atom_site_occupancy
  Si  Si0  1  0.748470  0.341819  0.233840  1
  Si  Si1  1  0.341819  0.233840  0.748470  1
  Si  Si2  1  0.233840  0.748470  0.341819  1
  Si  Si3  1  0.251530  0.658181  0.766160  1
  Si  Si4  1  0.658181  0.766160  0.251530  1
  Si  Si5  1  0.766160  0.251530  0.658181  1
  Si  Si6  1  0.324061  0.324061  0.324061  1
  Si  Si7  1  0.675939  0.675939  0.675939  1
  H  H8  1  0.883085  0.256274  0.090651  1
  H  H9  1  0.256274  0.090651  0.883085  1
  H  H10  1  0.090651  0.883085  0.256274  1
  H  H11  1  0.116915  0.743726  0.909349  1
  H  H12  1  0.743726  0.909349  0.116915  1
  H  H13  1  0.909349  0.116915  0.743726  1
  H  H14  1  0.229315  0.229315  0.229315  1
  H  H15  1  0.770685  0.770685  0.770685  1
  O  O16  1  0.768841  0.456758  0.698682  1
  O  O17  1  0.698682  0.768841  0.456758  1
  O  O18  1  0.456758  0.698682  0.768841  1
  O  O19  1  0.231159  0.543242  0.301318  1
  O  O20  1  0.301318  0.231159  0.543242  1
  O  O21  1  0.543242  0.301318  0.231159  1
  O  O22  1  0.564671  0.191616  0.746904  1
  O  O23  1  0.746904  0.564671  0.191616  1
  O  O24  1  0.191616  0.746904  0.564671  1
  O  O25  1  0.435329  0.808384  0.253096  1
  O  O26  1  0.253096  0.435329  0.808384  1
  O  O27  1  0.808384  0.253096  0.435329  1
