# generated using pymatgen
data_Th2AlH4
_symmetry_space_group_name_H-M   'P 1'
_cell_length_a   6.30588173
_cell_length_b   6.30588173
_cell_length_c   6.30588173
_cell_angle_alpha   105.47396250
_cell_angle_beta   105.47396250
_cell_angle_gamma   117.80080883
_symmetry_Int_Tables_number   1
_chemical_formula_structural   Th2AlH4
_chemical_formula_sum   'Th4 Al2 H8'
_cell_volume   189.92534557
_cell_formula_units_Z   2
loop_
 _symmetry_equiv_pos_site_id
 _symmetry_equiv_pos_as_xyz
  1  'x, y, z'
loop_
 _atom_site_type_symbol
 _atom_site_label
 _atom_site_symmetry_multiplicity
 _atom_site_fract_x
 _atom_site_fract_y
 _atom_site_fract_z
 _atom_site_occupancy
  Th  Th0  1  0.835589  0.664411  0.500000  1
  Th  Th1  1  0.335589  0.835589  0.171177  1
  Th  Th2  1  0.164411  0.335589  0.500000  1
  Th  Th3  1  0.664411  0.164411  0.828823  1
  Al  Al4  1  0.750000  0.750000  0.000000  1
  Al  Al5  1  0.250000  0.250000  0.000000  1
  H  H6  1  0.519019  0.278609  0.500000  1
  H  H7  1  0.778609  0.019019  0.500000  1
  H  H8  1  0.278609  0.778609  0.759589  1
  H  H9  1  0.019019  0.519019  0.240411  1
  H  H10  1  0.721391  0.221391  0.240411  1
  H  H11  1  0.221391  0.980981  0.500000  1
  H  H12  1  0.980981  0.480981  0.759589  1
  H  H13  1  0.480981  0.721391  0.500000  1
