# generated using pymatgen
data_Tl2Te2O5
_symmetry_space_group_name_H-M   'P 1'
_cell_length_a   7.49402473
_cell_length_b   12.26095016
_cell_length_c   8.79193612
_cell_angle_alpha   90.00000000
_cell_angle_beta   114.04307093
_cell_angle_gamma   90.00000000
_symmetry_Int_Tables_number   1
_chemical_formula_structural   Tl2Te2O5
_chemical_formula_sum   'Tl8 Te8 O20'
_cell_volume   737.74866748
_cell_formula_units_Z   4
loop_
 _symmetry_equiv_pos_site_id
 _symmetry_equiv_pos_as_xyz
  1  'x, y, z'
loop_
 _atom_site_type_symbol
 _atom_site_label
 _atom_site_symmetry_multiplicity
 _atom_site_fract_x
 _atom_site_fract_y
 _atom_site_fract_z
 _atom_site_occupancy
  Tl  Tl0  1  0.207602  0.559327  0.978043  1
  Tl  Tl1  1  0.792398  0.059327  0.521957  1
  Tl  Tl2  1  0.792398  0.440673  0.021957  1
  Tl  Tl3  1  0.207602  0.940673  0.478043  1
  Tl  Tl4  1  0.524789  0.713801  0.786860  1
  Tl  Tl5  1  0.475211  0.213801  0.713140  1
  Tl  Tl6  1  0.475211  0.286199  0.213140  1
  Tl  Tl7  1  0.524789  0.786199  0.286860  1
  Te  Te8  1  0.927053  0.701728  0.204123  1
  Te  Te9  1  0.072947  0.201728  0.295877  1
  Te  Te10  1  0.072947  0.298272  0.795877  1
  Te  Te11  1  0.927053  0.798272  0.704123  1
  Te  Te12  1  0.199692  0.470834  0.481835  1
  Te  Te13  1  0.800308  0.970834  0.018165  1
  Te  Te14  1  0.800308  0.529166  0.518165  1
  Te  Te15  1  0.199692  0.029166  0.981835  1
  O  O16  1  0.871930  0.648976  0.986258  1
  O  O17  1  0.128070  0.148976  0.513742  1
  O  O18  1  0.128070  0.351024  0.013742  1
  O  O19  1  0.871930  0.851024  0.486258  1
  O  O20  1  0.724513  0.627370  0.239737  1
  O  O21  1  0.275487  0.127370  0.260263  1
  O  O22  1  0.275487  0.372630  0.760263  1
  O  O23  1  0.724513  0.872630  0.739737  1
  O  O24  1  0.948241  0.404340  0.432899  1
  O  O25  1  0.051759  0.904340  0.067101  1
  O  O26  1  0.051759  0.595660  0.567101  1
  O  O27  1  0.948241  0.095660  0.932899  1
  O  O28  1  0.272490  0.327910  0.398904  1
  O  O29  1  0.727510  0.827910  0.101096  1
  O  O30  1  0.727510  0.672090  0.601096  1
  O  O31  1  0.272490  0.172090  0.898904  1
  O  O32  1  0.111697  0.955695  0.767460  1
  O  O33  1  0.888303  0.455695  0.732540  1
  O  O34  1  0.888303  0.044305  0.232540  1
  O  O35  1  0.111697  0.544305  0.267460  1
