# generated using pymatgen
data_GdH12(ClO2)3
_symmetry_space_group_name_H-M   'P 1'
_cell_length_a   7.91967397
_cell_length_b   6.59862425
_cell_length_c   12.18124817
_cell_angle_alpha   90.00000000
_cell_angle_beta   127.44552751
_cell_angle_gamma   90.00000000
_symmetry_Int_Tables_number   1
_chemical_formula_structural   GdH12(ClO2)3
_chemical_formula_sum   'Gd2 H24 Cl6 O12'
_cell_volume   505.40049284
_cell_formula_units_Z   2
loop_
 _symmetry_equiv_pos_site_id
 _symmetry_equiv_pos_as_xyz
  1  'x, y, z'
loop_
 _atom_site_type_symbol
 _atom_site_label
 _atom_site_symmetry_multiplicity
 _atom_site_fract_x
 _atom_site_fract_y
 _atom_site_fract_z
 _atom_site_occupancy
  Gd  Gd0  1  0.000000  0.153344  0.750000  1
  Gd  Gd1  1  0.000000  0.846656  0.250000  1
  H  H2  1  0.473103  0.248243  0.964672  1
  H  H3  1  0.526897  0.248243  0.535328  1
  H  H4  1  0.526897  0.751757  0.035328  1
  H  H5  1  0.473103  0.751757  0.464672  1
  H  H6  1  0.371413  0.328645  0.033421  1
  H  H7  1  0.628587  0.328645  0.466579  1
  H  H8  1  0.628587  0.671355  0.966579  1
  H  H9  1  0.371413  0.671355  0.533421  1
  H  H10  1  0.967928  0.552163  0.615090  1
  H  H11  1  0.032072  0.552163  0.884910  1
  H  H12  1  0.032072  0.447837  0.384910  1
  H  H13  1  0.967928  0.447837  0.115090  1
  H  H14  1  0.199840  0.474910  0.681601  1
  H  H15  1  0.800160  0.474910  0.818399  1
  H  H16  1  0.800160  0.525090  0.318399  1
  H  H17  1  0.199840  0.525090  0.181601  1
  H  H18  1  0.759913  0.094870  0.870330  1
  H  H19  1  0.240087  0.094870  0.629670  1
  H  H20  1  0.240087  0.905130  0.129670  1
  H  H21  1  0.759913  0.905130  0.370330  1
  H  H22  1  0.676649  0.084861  0.264687  1
  H  H23  1  0.323351  0.084861  0.235313  1
  H  H24  1  0.323351  0.915139  0.735313  1
  H  H25  1  0.676649  0.915139  0.764687  1
  Cl  Cl26  1  0.798997  0.832011  0.557282  1
  Cl  Cl27  1  0.201003  0.832011  0.942718  1
  Cl  Cl28  1  0.201003  0.167989  0.442718  1
  Cl  Cl29  1  0.798997  0.167989  0.057282  1
  Cl  Cl30  1  0.500000  0.365805  0.250000  1
  Cl  Cl31  1  0.500000  0.634195  0.750000  1
  O  O32  1  0.336487  0.293846  0.942768  1
  O  O33  1  0.663513  0.293846  0.557232  1
  O  O34  1  0.663513  0.706154  0.057232  1
  O  O35  1  0.336487  0.706154  0.442768  1
  O  O36  1  0.056331  0.427669  0.645751  1
  O  O37  1  0.943669  0.427669  0.854249  1
  O  O38  1  0.943669  0.572331  0.354249  1
  O  O39  1  0.056331  0.572331  0.145751  1
  O  O40  1  0.742030  0.050816  0.785842  1
  O  O41  1  0.257970  0.050816  0.714158  1
  O  O42  1  0.257970  0.949184  0.214158  1
  O  O43  1  0.742030  0.949184  0.285842  1
