# generated using pymatgen
data_ZnGeN2
_symmetry_space_group_name_H-M   'P 1'
_cell_length_a   5.24963017
_cell_length_b   5.51051000
_cell_length_c   6.49692539
_cell_angle_alpha   90.00000000
_cell_angle_beta   90.00000000
_cell_angle_gamma   90.00000000
_symmetry_Int_Tables_number   1
_chemical_formula_structural   ZnGeN2
_chemical_formula_sum   'Zn4 Ge4 N8'
_cell_volume   187.94396432
_cell_formula_units_Z   4
loop_
 _symmetry_equiv_pos_site_id
 _symmetry_equiv_pos_as_xyz
  1  'x, y, z'
loop_
 _atom_site_type_symbol
 _atom_site_label
 _atom_site_symmetry_multiplicity
 _atom_site_fract_x
 _atom_site_fract_y
 _atom_site_fract_z
 _atom_site_occupancy
  Zn  Zn0  1  0.999565  0.584255  0.875334  1
  Zn  Zn1  1  0.499565  0.915745  0.375334  1
  Zn  Zn2  1  0.499565  0.415745  0.124666  1
  Zn  Zn3  1  0.999565  0.084255  0.624666  1
  Ge  Ge4  1  0.000169  0.076357  0.125477  1
  Ge  Ge5  1  0.500169  0.923643  0.874523  1
  Ge  Ge6  1  0.500169  0.423643  0.625477  1
  Ge  Ge7  1  0.000169  0.576357  0.374523  1
  N  N8  1  0.392587  0.598271  0.859648  1
  N  N9  1  0.892587  0.401729  0.140352  1
  N  N10  1  0.892587  0.901729  0.359648  1
  N  N11  1  0.392587  0.098271  0.640352  1
  N  N12  1  0.358679  0.565792  0.390078  1
  N  N13  1  0.358679  0.065792  0.109922  1
  N  N14  1  0.858679  0.934208  0.890078  1
  N  N15  1  0.858679  0.434208  0.609922  1
