# generated using pymatgen
data_GeO2
_symmetry_space_group_name_H-M   'P 1'
_cell_length_a   5.08372319
_cell_length_b   5.08372319
_cell_length_c   5.75978398
_cell_angle_alpha   90.00000000
_cell_angle_beta   90.00000000
_cell_angle_gamma   120.00000000
_symmetry_Int_Tables_number   1
_chemical_formula_structural   GeO2
_chemical_formula_sum   'Ge3 O6'
_cell_volume   128.91415829
_cell_formula_units_Z   3
loop_
 _symmetry_equiv_pos_site_id
 _symmetry_equiv_pos_as_xyz
  1  'x, y, z'
loop_
 _atom_site_type_symbol
 _atom_site_label
 _atom_site_symmetry_multiplicity
 _atom_site_fract_x
 _atom_site_fract_y
 _atom_site_fract_z
 _atom_site_occupancy
  Ge  Ge0  1  0.544952  0.544952  0.000000  1
  Ge  Ge1  1  0.000000  0.455048  0.333333  1
  Ge  Ge2  1  0.455048  0.000000  0.666667  1
  O  O3  1  0.298548  0.397682  0.241687  1
  O  O4  1  0.602318  0.900865  0.908353  1
  O  O5  1  0.099135  0.701452  0.575020  1
  O  O6  1  0.397682  0.298548  0.758313  1
  O  O7  1  0.701452  0.099135  0.424980  1
  O  O8  1  0.900865  0.602318  0.091647  1
