# generated using pymatgen
data_Mg5In2
_symmetry_space_group_name_H-M   'P 1'
_cell_length_a   8.63056221
_cell_length_b   8.63056221
_cell_length_c   8.63056221
_cell_angle_alpha   137.79971228
_cell_angle_beta   129.09653619
_cell_angle_gamma   68.19615684
_symmetry_Int_Tables_number   1
_chemical_formula_structural   Mg5In2
_chemical_formula_sum   'Mg10 In4'
_cell_volume   329.43295105
_cell_formula_units_Z   2
loop_
 _symmetry_equiv_pos_site_id
 _symmetry_equiv_pos_as_xyz
  1  'x, y, z'
loop_
 _atom_site_type_symbol
 _atom_site_label
 _atom_site_symmetry_multiplicity
 _atom_site_fract_x
 _atom_site_fract_y
 _atom_site_fract_z
 _atom_site_occupancy
  Mg  Mg0  1  0.075028  0.413949  0.661079  1
  Mg  Mg1  1  0.924972  0.586051  0.338921  1
  Mg  Mg2  1  0.247130  0.086051  0.161079  1
  Mg  Mg3  1  0.752870  0.913949  0.838921  1
  Mg  Mg4  1  0.500000  0.250000  0.750000  1
  Mg  Mg5  1  0.500000  0.750000  0.250000  1
  Mg  Mg6  1  0.733449  0.483449  0.750000  1
  Mg  Mg7  1  0.266551  0.016551  0.750000  1
  Mg  Mg8  1  0.266551  0.516551  0.250000  1
  Mg  Mg9  1  0.733449  0.983449  0.250000  1
  In  In10  1  0.643825  0.377312  0.266512  1
  In  In11  1  0.356175  0.622688  0.733488  1
  In  In12  1  0.889200  0.122688  0.766512  1
  In  In13  1  0.110800  0.877312  0.233488  1
