# generated using pymatgen
data_Ni8Ge2B3
_symmetry_space_group_name_H-M   'P 1'
_cell_length_a   2.93299331
_cell_length_b   6.08446372
_cell_length_c   14.67955565
_cell_angle_alpha   90.00000000
_cell_angle_beta   90.00000000
_cell_angle_gamma   90.00000000
_symmetry_Int_Tables_number   1
_chemical_formula_structural   Ni8Ge2B3
_chemical_formula_sum   'Ni16 Ge4 B6'
_cell_volume   261.96681981
_cell_formula_units_Z   2
loop_
 _symmetry_equiv_pos_site_id
 _symmetry_equiv_pos_as_xyz
  1  'x, y, z'
loop_
 _atom_site_type_symbol
 _atom_site_label
 _atom_site_symmetry_multiplicity
 _atom_site_fract_x
 _atom_site_fract_y
 _atom_site_fract_z
 _atom_site_occupancy
  Ni  Ni0  1  0.000000  0.924323  0.000000  1
  Ni  Ni1  1  0.500000  0.633519  0.645351  1
  Ni  Ni2  1  0.000000  0.366481  0.854649  1
  Ni  Ni3  1  0.500000  0.633519  0.354649  1
  Ni  Ni4  1  0.000000  0.702575  0.500000  1
  Ni  Ni5  1  0.500000  0.075677  0.500000  1
  Ni  Ni6  1  0.500000  0.297425  0.000000  1
  Ni  Ni7  1  0.000000  0.799752  0.226424  1
  Ni  Ni8  1  0.000000  0.799752  0.773576  1
  Ni  Ni9  1  0.500000  0.200248  0.726424  1
  Ni  Ni10  1  0.500000  0.659110  0.086733  1
  Ni  Ni11  1  0.500000  0.200248  0.273576  1
  Ni  Ni12  1  0.000000  0.340890  0.586733  1
  Ni  Ni13  1  0.500000  0.659110  0.913267  1
  Ni  Ni14  1  0.000000  0.340890  0.413267  1
  Ni  Ni15  1  0.000000  0.366481  0.145351  1
  Ge  Ge16  1  0.000000  0.962490  0.624530  1
  Ge  Ge17  1  0.500000  0.037510  0.124530  1
  Ge  Ge18  1  0.000000  0.962490  0.375470  1
  Ge  Ge19  1  0.500000  0.037510  0.875470  1
  B  B20  1  0.000000  0.542920  0.000000  1
  B  B21  1  0.500000  0.457080  0.500000  1
  B  B22  1  0.000000  0.460582  0.282407  1
  B  B23  1  0.500000  0.539418  0.217593  1
  B  B24  1  0.000000  0.460582  0.717593  1
  B  B25  1  0.500000  0.539418  0.782407  1
