# generated using pymatgen
data_NaSn2(PO4)3
_symmetry_space_group_name_H-M   'P 1'
_cell_length_a   9.05838689
_cell_length_b   9.05838689
_cell_length_c   9.05838689
_cell_angle_alpha   57.79778472
_cell_angle_beta   57.79778472
_cell_angle_gamma   57.79778472
_symmetry_Int_Tables_number   1
_chemical_formula_structural   NaSn2(PO4)3
_chemical_formula_sum   'Na2 Sn4 P6 O24'
_cell_volume   498.99952207
_cell_formula_units_Z   2
loop_
 _symmetry_equiv_pos_site_id
 _symmetry_equiv_pos_as_xyz
  1  'x, y, z'
loop_
 _atom_site_type_symbol
 _atom_site_label
 _atom_site_symmetry_multiplicity
 _atom_site_fract_x
 _atom_site_fract_y
 _atom_site_fract_z
 _atom_site_occupancy
  Na  Na0  1  0.000000  0.000000  0.000000  1
  Na  Na1  1  0.500000  0.500000  0.500000  1
  Sn  Sn2  1  0.645800  0.645800  0.645800  1
  Sn  Sn3  1  0.854200  0.854200  0.854200  1
  Sn  Sn4  1  0.145800  0.145800  0.145800  1
  Sn  Sn5  1  0.354200  0.354200  0.354200  1
  P  P6  1  0.542823  0.957177  0.250000  1
  P  P7  1  0.957177  0.250000  0.542823  1
  P  P8  1  0.457177  0.042823  0.750000  1
  P  P9  1  0.042823  0.750000  0.457177  1
  P  P10  1  0.250000  0.542823  0.957177  1
  P  P11  1  0.750000  0.457177  0.042823  1
  O  O12  1  0.580997  0.436185  0.225981  1
  O  O13  1  0.436185  0.225981  0.580997  1
  O  O14  1  0.225981  0.580997  0.436185  1
  O  O15  1  0.919003  0.274019  0.063815  1
  O  O16  1  0.274019  0.063815  0.919003  1
  O  O17  1  0.063815  0.919003  0.274019  1
  O  O18  1  0.419003  0.563815  0.774019  1
  O  O19  1  0.563815  0.774019  0.419003  1
  O  O20  1  0.774019  0.419003  0.563815  1
  O  O21  1  0.080997  0.725981  0.936185  1
  O  O22  1  0.725981  0.936185  0.080997  1
  O  O23  1  0.936185  0.080997  0.725981  1
  O  O24  1  0.014011  0.787310  0.619299  1
  O  O25  1  0.619299  0.014011  0.787310  1
  O  O26  1  0.787310  0.619299  0.014011  1
  O  O27  1  0.880701  0.712690  0.485989  1
  O  O28  1  0.485989  0.880701  0.712690  1
  O  O29  1  0.712690  0.485989  0.880701  1
  O  O30  1  0.985989  0.212690  0.380701  1
  O  O31  1  0.380701  0.985989  0.212690  1
  O  O32  1  0.212690  0.380701  0.985989  1
  O  O33  1  0.119299  0.287310  0.514011  1
  O  O34  1  0.514011  0.119299  0.287310  1
  O  O35  1  0.287310  0.514011  0.119299  1
