# generated using pymatgen
data_Cd4P2Br3
_symmetry_space_group_name_H-M   'P 1'
_cell_length_a   12.66163068
_cell_length_b   12.66163068
_cell_length_c   12.66163068
_cell_angle_alpha   90.00000000
_cell_angle_beta   90.00000000
_cell_angle_gamma   90.00000000
_symmetry_Int_Tables_number   1
_chemical_formula_structural   Cd4P2Br3
_chemical_formula_sum   'Cd32 P16 Br24'
_cell_volume   2029.87327164
_cell_formula_units_Z   8
loop_
 _symmetry_equiv_pos_site_id
 _symmetry_equiv_pos_as_xyz
  1  'x, y, z'
loop_
 _atom_site_type_symbol
 _atom_site_label
 _atom_site_symmetry_multiplicity
 _atom_site_fract_x
 _atom_site_fract_y
 _atom_site_fract_z
 _atom_site_occupancy
  Cd  Cd0  1  0.036124  0.995502  0.254507  1
  Cd  Cd1  1  0.254507  0.036124  0.995502  1
  Cd  Cd2  1  0.995502  0.254507  0.036124  1
  Cd  Cd3  1  0.504498  0.745493  0.536124  1
  Cd  Cd4  1  0.754507  0.463876  0.004498  1
  Cd  Cd5  1  0.004498  0.754507  0.463876  1
  Cd  Cd6  1  0.245493  0.963876  0.495502  1
  Cd  Cd7  1  0.745493  0.536124  0.504498  1
  Cd  Cd8  1  0.495502  0.245493  0.963876  1
  Cd  Cd9  1  0.536124  0.504498  0.745493  1
  Cd  Cd10  1  0.963876  0.495502  0.245493  1
  Cd  Cd11  1  0.463876  0.004498  0.754507  1
  Cd  Cd12  1  0.963876  0.004498  0.745493  1
  Cd  Cd13  1  0.745493  0.963876  0.004498  1
  Cd  Cd14  1  0.004498  0.745493  0.963876  1
  Cd  Cd15  1  0.495502  0.254507  0.463876  1
  Cd  Cd16  1  0.245493  0.536124  0.995502  1
  Cd  Cd17  1  0.995502  0.245493  0.536124  1
  Cd  Cd18  1  0.754507  0.036124  0.504498  1
  Cd  Cd19  1  0.254507  0.463876  0.495502  1
  Cd  Cd20  1  0.504498  0.754507  0.036124  1
  Cd  Cd21  1  0.463876  0.495502  0.254507  1
  Cd  Cd22  1  0.036124  0.504498  0.754507  1
  Cd  Cd23  1  0.536124  0.995502  0.245493  1
  Cd  Cd24  1  0.223494  0.223494  0.223494  1
  Cd  Cd25  1  0.276506  0.776506  0.723494  1
  Cd  Cd26  1  0.723494  0.276506  0.776506  1
  Cd  Cd27  1  0.776506  0.723494  0.276506  1
  Cd  Cd28  1  0.776506  0.776506  0.776506  1
  Cd  Cd29  1  0.723494  0.223494  0.276506  1
  Cd  Cd30  1  0.276506  0.723494  0.223494  1
  Cd  Cd31  1  0.223494  0.276506  0.723494  1
  P  P32  1  0.109331  0.109331  0.109331  1
  P  P33  1  0.390669  0.890669  0.609331  1
  P  P34  1  0.609331  0.390669  0.890669  1
  P  P35  1  0.890669  0.609331  0.390669  1
  P  P36  1  0.890669  0.890669  0.890669  1
  P  P37  1  0.609331  0.109331  0.390669  1
  P  P38  1  0.390669  0.609331  0.109331  1
  P  P39  1  0.109331  0.390669  0.609331  1
  P  P40  1  0.449785  0.449785  0.449785  1
  P  P41  1  0.050215  0.550215  0.949785  1
  P  P42  1  0.949785  0.050215  0.550215  1
  P  P43  1  0.550215  0.949785  0.050215  1
  P  P44  1  0.550215  0.550215  0.550215  1
  P  P45  1  0.949785  0.449785  0.050215  1
  P  P46  1  0.050215  0.949785  0.449785  1
  P  P47  1  0.449785  0.050215  0.949785  1
  Br  Br48  1  0.183889  0.434269  0.269086  1
  Br  Br49  1  0.269086  0.183889  0.434269  1
  Br  Br50  1  0.434269  0.269086  0.183889  1
  Br  Br51  1  0.065731  0.730914  0.683889  1
  Br  Br52  1  0.769086  0.316111  0.565731  1
  Br  Br53  1  0.565731  0.769086  0.316111  1
  Br  Br54  1  0.230914  0.816111  0.934269  1
  Br  Br55  1  0.730914  0.683889  0.065731  1
  Br  Br56  1  0.934269  0.230914  0.816111  1
  Br  Br57  1  0.683889  0.065731  0.730914  1
  Br  Br58  1  0.816111  0.934269  0.230914  1
  Br  Br59  1  0.316111  0.565731  0.769086  1
  Br  Br60  1  0.816111  0.565731  0.730914  1
  Br  Br61  1  0.730914  0.816111  0.565731  1
  Br  Br62  1  0.565731  0.730914  0.816111  1
  Br  Br63  1  0.934269  0.269086  0.316111  1
  Br  Br64  1  0.230914  0.683889  0.434269  1
  Br  Br65  1  0.434269  0.230914  0.683889  1
  Br  Br66  1  0.769086  0.183889  0.065731  1
  Br  Br67  1  0.269086  0.316111  0.934269  1
  Br  Br68  1  0.065731  0.769086  0.183889  1
  Br  Br69  1  0.316111  0.934269  0.269086  1
  Br  Br70  1  0.183889  0.065731  0.769086  1
  Br  Br71  1  0.683889  0.434269  0.230914  1
