# generated using pymatgen
data_KPb2
_symmetry_space_group_name_H-M   'P 1'
_cell_length_a   6.75345672
_cell_length_b   6.75345672
_cell_length_c   11.13687999
_cell_angle_alpha   90.00000000
_cell_angle_beta   90.00000000
_cell_angle_gamma   120.00000000
_symmetry_Int_Tables_number   1
_chemical_formula_structural   KPb2
_chemical_formula_sum   'K4 Pb8'
_cell_volume   439.89235397
_cell_formula_units_Z   4
loop_
 _symmetry_equiv_pos_site_id
 _symmetry_equiv_pos_as_xyz
  1  'x, y, z'
loop_
 _atom_site_type_symbol
 _atom_site_label
 _atom_site_symmetry_multiplicity
 _atom_site_fract_x
 _atom_site_fract_y
 _atom_site_fract_z
 _atom_site_occupancy
  K  K0  1  0.333333  0.666667  0.063462  1
  K  K1  1  0.666667  0.333333  0.563462  1
  K  K2  1  0.666667  0.333333  0.936538  1
  K  K3  1  0.333333  0.666667  0.436538  1
  Pb  Pb4  1  0.000000  0.000000  0.000000  1
  Pb  Pb5  1  0.000000  0.000000  0.500000  1
  Pb  Pb6  1  0.834455  0.668910  0.250000  1
  Pb  Pb7  1  0.165545  0.834455  0.750000  1
  Pb  Pb8  1  0.668910  0.834455  0.750000  1
  Pb  Pb9  1  0.331090  0.165545  0.250000  1
  Pb  Pb10  1  0.834455  0.165545  0.250000  1
  Pb  Pb11  1  0.165545  0.331090  0.750000  1
