# generated using pymatgen
data_Ta11(FeSe4)2
_symmetry_space_group_name_H-M   'P 1'
_cell_length_a   3.41179117
_cell_length_b   12.22819987
_cell_length_c   19.71028306
_cell_angle_alpha   90.00000000
_cell_angle_beta   90.00000000
_cell_angle_gamma   90.00000000
_symmetry_Int_Tables_number   1
_chemical_formula_structural   Ta11(FeSe4)2
_chemical_formula_sum   'Ta22 Fe4 Se16'
_cell_volume   822.31427745
_cell_formula_units_Z   2
loop_
 _symmetry_equiv_pos_site_id
 _symmetry_equiv_pos_as_xyz
  1  'x, y, z'
loop_
 _atom_site_type_symbol
 _atom_site_label
 _atom_site_symmetry_multiplicity
 _atom_site_fract_x
 _atom_site_fract_y
 _atom_site_fract_z
 _atom_site_occupancy
  Ta  Ta0  1  0.500000  0.819777  0.053586  1
  Ta  Ta1  1  0.500000  0.180223  0.946414  1
  Ta  Ta2  1  0.000000  0.680223  0.553586  1
  Ta  Ta3  1  0.000000  0.319777  0.446414  1
  Ta  Ta4  1  0.500000  0.447573  0.743865  1
  Ta  Ta5  1  0.500000  0.552427  0.256135  1
  Ta  Ta6  1  0.000000  0.947573  0.756135  1
  Ta  Ta7  1  0.000000  0.052427  0.243865  1
  Ta  Ta8  1  0.500000  0.061981  0.116190  1
  Ta  Ta9  1  0.500000  0.938019  0.883810  1
  Ta  Ta10  1  0.000000  0.561981  0.383810  1
  Ta  Ta11  1  0.000000  0.438019  0.616190  1
  Ta  Ta12  1  0.500000  0.171509  0.352735  1
  Ta  Ta13  1  0.500000  0.828491  0.647265  1
  Ta  Ta14  1  0.000000  0.671509  0.147265  1
  Ta  Ta15  1  0.000000  0.328491  0.852735  1
  Ta  Ta16  1  0.500000  0.152823  0.787762  1
  Ta  Ta17  1  0.500000  0.847177  0.212238  1
  Ta  Ta18  1  0.000000  0.652823  0.712238  1
  Ta  Ta19  1  0.000000  0.347177  0.287762  1
  Ta  Ta20  1  0.500000  0.500000  0.500000  1
  Ta  Ta21  1  0.000000  0.000000  0.000000  1
  Fe  Fe22  1  0.000000  0.093929  0.873310  1
  Fe  Fe23  1  0.000000  0.906071  0.126690  1
  Fe  Fe24  1  0.500000  0.593929  0.626690  1
  Fe  Fe25  1  0.500000  0.406071  0.373310  1
  Se  Se26  1  0.500000  0.295698  0.556225  1
  Se  Se27  1  0.500000  0.704302  0.443775  1
  Se  Se28  1  0.000000  0.795698  0.943775  1
  Se  Se29  1  0.000000  0.204302  0.056225  1
  Se  Se30  1  0.500000  0.042206  0.673187  1
  Se  Se31  1  0.500000  0.957794  0.326813  1
  Se  Se32  1  0.000000  0.542206  0.826813  1
  Se  Se33  1  0.000000  0.457794  0.173187  1
  Se  Se34  1  0.500000  0.389899  0.946479  1
  Se  Se35  1  0.500000  0.610101  0.053521  1
  Se  Se36  1  0.000000  0.889899  0.553521  1
  Se  Se37  1  0.000000  0.110101  0.446479  1
  Se  Se38  1  0.000000  0.284587  0.715880  1
  Se  Se39  1  0.000000  0.715413  0.284120  1
  Se  Se40  1  0.500000  0.784587  0.784120  1
  Se  Se41  1  0.500000  0.215413  0.215880  1
