# generated using pymatgen
data_BiP2O7
_symmetry_space_group_name_H-M   'P 1'
_cell_length_a   6.81200174
_cell_length_b   6.81200174
_cell_length_c   14.05520709
_cell_angle_alpha   73.96968107
_cell_angle_beta   106.03031893
_cell_angle_gamma   99.71335267
_symmetry_Int_Tables_number   1
_chemical_formula_structural   BiP2O7
_chemical_formula_sum   'Bi4 P8 O28'
_cell_volume   599.44798547
_cell_formula_units_Z   4
loop_
 _symmetry_equiv_pos_site_id
 _symmetry_equiv_pos_as_xyz
  1  'x, y, z'
loop_
 _atom_site_type_symbol
 _atom_site_label
 _atom_site_symmetry_multiplicity
 _atom_site_fract_x
 _atom_site_fract_y
 _atom_site_fract_z
 _atom_site_occupancy
  Bi  Bi0  1  0.384933  0.118201  0.138762  1
  Bi  Bi1  1  0.881799  0.615067  0.638762  1
  Bi  Bi2  1  0.118201  0.384933  0.361238  1
  Bi  Bi3  1  0.615067  0.881799  0.861238  1
  P  P4  1  0.894760  0.242735  0.130881  1
  P  P5  1  0.105240  0.757265  0.869119  1
  P  P6  1  0.757265  0.105240  0.630881  1
  P  P7  1  0.668306  0.406501  0.429204  1
  P  P8  1  0.593499  0.331694  0.929204  1
  P  P9  1  0.331694  0.593499  0.570796  1
  P  P10  1  0.406501  0.668306  0.070796  1
  P  P11  1  0.242735  0.894760  0.369119  1
  O  O12  1  0.789968  0.326272  0.372999  1
  O  O13  1  0.326272  0.789968  0.127001  1
  O  O14  1  0.458530  0.459461  0.359744  1
  O  O15  1  0.400737  0.015589  0.309576  1
  O  O16  1  0.673728  0.210032  0.872999  1
  O  O17  1  0.541470  0.540539  0.640256  1
  O  O18  1  0.599263  0.984411  0.690424  1
  O  O19  1  0.382586  0.780702  0.477619  1
  O  O20  1  0.540539  0.541470  0.859744  1
  O  O21  1  0.034603  0.113703  0.109110  1
  O  O22  1  0.113703  0.034603  0.390890  1
  O  O23  1  0.213756  0.412487  0.526940  1
  O  O24  1  0.015589  0.400737  0.190424  1
  O  O25  1  0.412487  0.213756  0.973060  1
  O  O26  1  0.098945  0.729807  0.321206  1
  O  O27  1  0.210032  0.673728  0.627001  1
  O  O28  1  0.780702  0.382586  0.022381  1
  O  O29  1  0.459461  0.458530  0.140256  1
  O  O30  1  0.729807  0.098945  0.178794  1
  O  O31  1  0.219298  0.617414  0.977619  1
  O  O32  1  0.270193  0.901055  0.821206  1
  O  O33  1  0.901055  0.270193  0.678794  1
  O  O34  1  0.587513  0.786244  0.026940  1
  O  O35  1  0.984411  0.599263  0.809576  1
  O  O36  1  0.786244  0.587513  0.473060  1
  O  O37  1  0.886297  0.965397  0.609110  1
  O  O38  1  0.965397  0.886297  0.890890  1
  O  O39  1  0.617414  0.219298  0.522381  1
