# generated using pymatgen
data_Tb3(CoGe2)2
_symmetry_space_group_name_H-M   'P 1'
_cell_length_a   5.76522924
_cell_length_b   5.76522924
_cell_length_c   8.06449590
_cell_angle_alpha   73.62302444
_cell_angle_beta   106.37697556
_cell_angle_gamma   137.65998772
_symmetry_Int_Tables_number   1
_chemical_formula_structural   Tb3(CoGe2)2
_chemical_formula_sum   'Tb3 Co2 Ge4'
_cell_volume   172.08682019
_cell_formula_units_Z   1
loop_
 _symmetry_equiv_pos_site_id
 _symmetry_equiv_pos_as_xyz
  1  'x, y, z'
loop_
 _atom_site_type_symbol
 _atom_site_label
 _atom_site_symmetry_multiplicity
 _atom_site_fract_x
 _atom_site_fract_y
 _atom_site_fract_z
 _atom_site_occupancy
  Tb  Tb0  1  0.000000  0.000000  0.000000  1
  Tb  Tb1  1  0.377121  0.622879  0.307558  1
  Tb  Tb2  1  0.622879  0.377121  0.692442  1
  Co  Co3  1  0.692612  0.307388  0.372462  1
  Co  Co4  1  0.307388  0.692612  0.627538  1
  Ge  Ge5  1  0.099251  0.900749  0.399288  1
  Ge  Ge6  1  0.290851  0.709149  0.918820  1
  Ge  Ge7  1  0.709149  0.290851  0.081180  1
  Ge  Ge8  1  0.900749  0.099251  0.600712  1
