# generated using pymatgen
data_NaTe
_symmetry_space_group_name_H-M   'P 1'
_cell_length_a   9.22361416
_cell_length_b   10.02884662
_cell_length_c   16.02680429
_cell_angle_alpha   90.00000000
_cell_angle_beta   90.00000000
_cell_angle_gamma   90.00000000
_symmetry_Int_Tables_number   1
_chemical_formula_structural   NaTe
_chemical_formula_sum   'Na24 Te24'
_cell_volume   1482.51484319
_cell_formula_units_Z   24
loop_
 _symmetry_equiv_pos_site_id
 _symmetry_equiv_pos_as_xyz
  1  'x, y, z'
loop_
 _atom_site_type_symbol
 _atom_site_label
 _atom_site_symmetry_multiplicity
 _atom_site_fract_x
 _atom_site_fract_y
 _atom_site_fract_z
 _atom_site_occupancy
  Na  Na0  1  0.440840  0.819462  0.028823  1
  Na  Na1  1  0.274030  0.988433  0.810630  1
  Na  Na2  1  0.225970  0.488433  0.310630  1
  Na  Na3  1  0.242133  0.330000  0.886923  1
  Na  Na4  1  0.940840  0.680538  0.471177  1
  Na  Na5  1  0.774030  0.511567  0.689370  1
  Na  Na6  1  0.742133  0.170000  0.613077  1
  Na  Na7  1  0.559160  0.180538  0.971177  1
  Na  Na8  1  0.059160  0.819462  0.971177  1
  Na  Na9  1  0.257867  0.830000  0.386923  1
  Na  Na10  1  0.757867  0.170000  0.386923  1
  Na  Na11  1  0.774030  0.011567  0.810630  1
  Na  Na12  1  0.225970  0.988433  0.189370  1
  Na  Na13  1  0.257867  0.330000  0.113077  1
  Na  Na14  1  0.242133  0.830000  0.613077  1
  Na  Na15  1  0.559160  0.680538  0.528823  1
  Na  Na16  1  0.757867  0.670000  0.113077  1
  Na  Na17  1  0.725970  0.511567  0.310630  1
  Na  Na18  1  0.725970  0.011567  0.189370  1
  Na  Na19  1  0.059160  0.319462  0.528823  1
  Na  Na20  1  0.742133  0.670000  0.886923  1
  Na  Na21  1  0.440840  0.319462  0.471177  1
  Na  Na22  1  0.274030  0.488433  0.689370  1
  Na  Na23  1  0.940840  0.180538  0.028823  1
  Te  Te24  1  0.510945  0.247100  0.752765  1
  Te  Te25  1  0.989055  0.247100  0.247235  1
  Te  Te26  1  0.989055  0.747100  0.252765  1
  Te  Te27  1  0.500000  0.000000  0.500000  1
  Te  Te28  1  0.691351  0.859076  0.367392  1
  Te  Te29  1  0.250000  0.072584  0.000000  1
  Te  Te30  1  0.250000  0.572584  0.500000  1
  Te  Te31  1  0.750000  0.427416  0.500000  1
  Te  Te32  1  0.489055  0.252900  0.252765  1
  Te  Te33  1  0.808649  0.859076  0.632608  1
  Te  Te34  1  0.010945  0.752900  0.752765  1
  Te  Te35  1  0.191351  0.640924  0.132608  1
  Te  Te36  1  0.510945  0.747100  0.747235  1
  Te  Te37  1  0.000000  0.000000  0.500000  1
  Te  Te38  1  0.808649  0.359076  0.867392  1
  Te  Te39  1  0.691351  0.359076  0.132608  1
  Te  Te40  1  0.191351  0.140924  0.367392  1
  Te  Te41  1  0.489055  0.752900  0.247235  1
  Te  Te42  1  0.000000  0.500000  0.000000  1
  Te  Te43  1  0.750000  0.927416  0.000000  1
  Te  Te44  1  0.308649  0.640924  0.867392  1
  Te  Te45  1  0.010945  0.252900  0.747235  1
  Te  Te46  1  0.500000  0.500000  0.000000  1
  Te  Te47  1  0.308649  0.140924  0.632608  1
