# generated using pymatgen
data_HfReSi2
_symmetry_space_group_name_H-M   'P 1'
_cell_length_a   8.09209745
_cell_length_b   9.18641764
_cell_length_c   10.08302697
_cell_angle_alpha   90.00000000
_cell_angle_beta   90.00000000
_cell_angle_gamma   90.00000000
_symmetry_Int_Tables_number   1
_chemical_formula_structural   HfReSi2
_chemical_formula_sum   'Hf12 Re12 Si24'
_cell_volume   749.54587557
_cell_formula_units_Z   12
loop_
 _symmetry_equiv_pos_site_id
 _symmetry_equiv_pos_as_xyz
  1  'x, y, z'
loop_
 _atom_site_type_symbol
 _atom_site_label
 _atom_site_symmetry_multiplicity
 _atom_site_fract_x
 _atom_site_fract_y
 _atom_site_fract_z
 _atom_site_occupancy
  Hf  Hf0  1  0.000000  0.169824  0.821209  1
  Hf  Hf1  1  0.247809  0.674920  0.950881  1
  Hf  Hf2  1  0.752191  0.825080  0.450881  1
  Hf  Hf3  1  0.752191  0.174920  0.549119  1
  Hf  Hf4  1  0.752191  0.674920  0.950881  1
  Hf  Hf5  1  0.752191  0.325080  0.049119  1
  Hf  Hf6  1  0.247809  0.174920  0.549119  1
  Hf  Hf7  1  0.247809  0.825080  0.450881  1
  Hf  Hf8  1  0.000000  0.330176  0.321209  1
  Hf  Hf9  1  0.000000  0.669824  0.678791  1
  Hf  Hf10  1  0.000000  0.830176  0.178791  1
  Hf  Hf11  1  0.247809  0.325080  0.049119  1
  Re  Re12  1  0.249214  0.085174  0.262127  1
  Re  Re13  1  0.249214  0.914826  0.737873  1
  Re  Re14  1  0.750786  0.585174  0.237873  1
  Re  Re15  1  0.750786  0.414826  0.762127  1
  Re  Re16  1  0.750786  0.914826  0.737873  1
  Re  Re17  1  0.750786  0.085174  0.262127  1
  Re  Re18  1  0.249214  0.414826  0.762127  1
  Re  Re19  1  0.249214  0.585174  0.237873  1
  Re  Re20  1  0.244414  0.000000  0.000000  1
  Re  Re21  1  0.755586  0.500000  0.500000  1
  Re  Re22  1  0.755586  0.000000  0.000000  1
  Re  Re23  1  0.244414  0.500000  0.500000  1
  Si  Si24  1  0.000000  0.368179  0.601628  1
  Si  Si25  1  0.000000  0.631821  0.398372  1
  Si  Si26  1  0.000000  0.868179  0.898372  1
  Si  Si27  1  0.000000  0.131821  0.101628  1
  Si  Si28  1  0.000000  0.465572  0.886366  1
  Si  Si29  1  0.000000  0.534428  0.113634  1
  Si  Si30  1  0.000000  0.965572  0.613634  1
  Si  Si31  1  0.000000  0.034428  0.386366  1
  Si  Si32  1  0.500000  0.375477  0.596092  1
  Si  Si33  1  0.500000  0.624523  0.403908  1
  Si  Si34  1  0.500000  0.875477  0.903908  1
  Si  Si35  1  0.500000  0.124523  0.096092  1
  Si  Si36  1  0.500000  0.461998  0.886308  1
  Si  Si37  1  0.500000  0.538002  0.113692  1
  Si  Si38  1  0.500000  0.961998  0.613692  1
  Si  Si39  1  0.500000  0.038002  0.386308  1
  Si  Si40  1  0.353983  0.833868  0.180825  1
  Si  Si41  1  0.353983  0.333868  0.319175  1
  Si  Si42  1  0.646017  0.333868  0.319175  1
  Si  Si43  1  0.646017  0.666132  0.680825  1
  Si  Si44  1  0.646017  0.166132  0.819175  1
  Si  Si45  1  0.646017  0.833868  0.180825  1
  Si  Si46  1  0.353983  0.666132  0.680825  1
  Si  Si47  1  0.353983  0.166132  0.819175  1
