# generated using pymatgen
data_LuSiIr
_symmetry_space_group_name_H-M   'P 1'
_cell_length_a   4.17505101
_cell_length_b   6.71123663
_cell_length_c   7.42335919
_cell_angle_alpha   90.00000000
_cell_angle_beta   90.00000000
_cell_angle_gamma   90.00000000
_symmetry_Int_Tables_number   1
_chemical_formula_structural   LuSiIr
_chemical_formula_sum   'Lu4 Si4 Ir4'
_cell_volume   208.00070779
_cell_formula_units_Z   4
loop_
 _symmetry_equiv_pos_site_id
 _symmetry_equiv_pos_as_xyz
  1  'x, y, z'
loop_
 _atom_site_type_symbol
 _atom_site_label
 _atom_site_symmetry_multiplicity
 _atom_site_fract_x
 _atom_site_fract_y
 _atom_site_fract_z
 _atom_site_occupancy
  Lu  Lu0  1  0.750000  0.505767  0.812569  1
  Lu  Lu1  1  0.250000  0.994233  0.312569  1
  Lu  Lu2  1  0.750000  0.005767  0.687431  1
  Lu  Lu3  1  0.250000  0.494233  0.187431  1
  Si  Si4  1  0.250000  0.706058  0.613715  1
  Si  Si5  1  0.250000  0.206058  0.886285  1
  Si  Si6  1  0.750000  0.293942  0.386285  1
  Si  Si7  1  0.750000  0.793942  0.113715  1
  Ir  Ir8  1  0.250000  0.841101  0.935179  1
  Ir  Ir9  1  0.250000  0.341101  0.564821  1
  Ir  Ir10  1  0.750000  0.658899  0.435179  1
  Ir  Ir11  1  0.750000  0.158899  0.064821  1
