# generated using pymatgen
data_K5As3O10
_symmetry_space_group_name_H-M   'P 1'
_cell_length_a   8.13689283
_cell_length_b   8.14210649
_cell_length_c   19.65770919
_cell_angle_alpha   90.00000000
_cell_angle_beta   90.00000000
_cell_angle_gamma   90.00000000
_symmetry_Int_Tables_number   1
_chemical_formula_structural   K5As3O10
_chemical_formula_sum   'K20 As12 O40'
_cell_volume   1302.35169662
_cell_formula_units_Z   4
loop_
 _symmetry_equiv_pos_site_id
 _symmetry_equiv_pos_as_xyz
  1  'x, y, z'
loop_
 _atom_site_type_symbol
 _atom_site_label
 _atom_site_symmetry_multiplicity
 _atom_site_fract_x
 _atom_site_fract_y
 _atom_site_fract_z
 _atom_site_occupancy
  K  K0  1  0.274112  0.474510  0.983645  1
  K  K1  1  0.774112  0.025490  0.016355  1
  K  K2  1  0.725888  0.974510  0.516355  1
  K  K3  1  0.225888  0.525490  0.483645  1
  K  K4  1  0.207563  0.498845  0.279636  1
  K  K5  1  0.707563  0.001155  0.720364  1
  K  K6  1  0.792437  0.998845  0.220364  1
  K  K7  1  0.292437  0.501155  0.779636  1
  K  K8  1  0.750568  0.497344  0.998741  1
  K  K9  1  0.250568  0.002656  0.001259  1
  K  K10  1  0.249432  0.997344  0.501259  1
  K  K11  1  0.749432  0.502656  0.498741  1
  K  K12  1  0.757349  0.514617  0.244279  1
  K  K13  1  0.257349  0.985383  0.755721  1
  K  K14  1  0.242651  0.014617  0.255721  1
  K  K15  1  0.742651  0.485383  0.744279  1
  K  K16  1  0.990365  0.742040  0.873033  1
  K  K17  1  0.490365  0.757960  0.126967  1
  K  K18  1  0.009635  0.242040  0.626967  1
  K  K19  1  0.509635  0.257960  0.373033  1
  As  As20  1  0.480579  0.267498  0.144412  1
  As  As21  1  0.980579  0.232502  0.855588  1
  As  As22  1  0.519421  0.767498  0.355588  1
  As  As23  1  0.019421  0.732502  0.644412  1
  As  As24  1  0.027986  0.723534  0.102528  1
  As  As25  1  0.527986  0.776466  0.897472  1
  As  As26  1  0.972014  0.223534  0.397472  1
  As  As27  1  0.472014  0.276466  0.602528  1
  As  As28  1  0.075748  0.320666  0.125852  1
  As  As29  1  0.575748  0.179334  0.874148  1
  As  As30  1  0.924252  0.820666  0.374148  1
  As  As31  1  0.424252  0.679334  0.625852  1
  O  O32  1  0.834052  0.724841  0.134291  1
  O  O33  1  0.334052  0.775159  0.865709  1
  O  O34  1  0.165948  0.224841  0.365709  1
  O  O35  1  0.665948  0.275159  0.634291  1
  O  O36  1  0.030581  0.714608  0.015724  1
  O  O37  1  0.530581  0.785392  0.984276  1
  O  O38  1  0.969419  0.214608  0.484276  1
  O  O39  1  0.469419  0.285392  0.515724  1
  O  O40  1  0.659238  0.634224  0.865968  1
  O  O41  1  0.159238  0.865776  0.134032  1
  O  O42  1  0.340762  0.134224  0.634032  1
  O  O43  1  0.840762  0.365776  0.365968  1
  O  O44  1  0.135290  0.533356  0.132810  1
  O  O45  1  0.635290  0.966644  0.867190  1
  O  O46  1  0.864710  0.033356  0.367190  1
  O  O47  1  0.364710  0.466644  0.632810  1
  O  O48  1  0.544355  0.438662  0.103566  1
  O  O49  1  0.971039  0.282610  0.054071  1
  O  O50  1  0.044355  0.061338  0.896434  1
  O  O51  1  0.955645  0.561338  0.603566  1
  O  O52  1  0.072748  0.412028  0.877431  1
  O  O53  1  0.572748  0.087972  0.122569  1
  O  O54  1  0.927252  0.912028  0.622569  1
  O  O55  1  0.427252  0.587972  0.377431  1
  O  O56  1  0.770762  0.271503  0.890136  1
  O  O57  1  0.270762  0.228497  0.109864  1
  O  O58  1  0.229238  0.771503  0.609864  1
  O  O59  1  0.729238  0.728497  0.390136  1
  O  O60  1  0.461918  0.290825  0.230460  1
  O  O61  1  0.961918  0.209175  0.769540  1
  O  O62  1  0.538082  0.790825  0.269540  1
  O  O63  1  0.038082  0.709175  0.730460  1
  O  O64  1  0.498799  0.733205  0.702621  1
  O  O65  1  0.998799  0.766795  0.297379  1
  O  O66  1  0.501201  0.233205  0.797379  1
  O  O67  1  0.001201  0.266795  0.202621  1
  O  O68  1  0.528961  0.717390  0.554071  1
  O  O69  1  0.028961  0.782610  0.445929  1
  O  O70  1  0.471039  0.217390  0.945929  1
  O  O71  1  0.455645  0.938662  0.396434  1
