# generated using pymatgen
data_FeSn2
_symmetry_space_group_name_H-M   'P 1'
_cell_length_a   5.38041375
_cell_length_b   5.38041375
_cell_length_c   5.38041375
_cell_angle_alpha   104.20439914
_cell_angle_beta   104.20439914
_cell_angle_gamma   120.61297763
_symmetry_Int_Tables_number   1
_chemical_formula_structural   FeSn2
_chemical_formula_sum   'Fe2 Sn4'
_cell_volume   116.44624070
_cell_formula_units_Z   2
loop_
 _symmetry_equiv_pos_site_id
 _symmetry_equiv_pos_as_xyz
  1  'x, y, z'
loop_
 _atom_site_type_symbol
 _atom_site_label
 _atom_site_symmetry_multiplicity
 _atom_site_fract_x
 _atom_site_fract_y
 _atom_site_fract_z
 _atom_site_occupancy
  Fe  Fe0  1  0.750000  0.750000  0.000000  1
  Fe  Fe1  1  0.250000  0.250000  0.000000  1
  Sn  Sn2  1  0.161414  0.338586  0.500000  1
  Sn  Sn3  1  0.838586  0.661414  0.500000  1
  Sn  Sn4  1  0.338586  0.838586  0.177172  1
  Sn  Sn5  1  0.661414  0.161414  0.822828  1
