# generated using pymatgen
data_Nd2ScSi2
_symmetry_space_group_name_H-M   'P 1'
_cell_length_a   7.39105296
_cell_length_b   7.39105296
_cell_length_c   4.41918883
_cell_angle_alpha   90.00000000
_cell_angle_beta   90.00000000
_cell_angle_gamma   90.00000000
_symmetry_Int_Tables_number   1
_chemical_formula_structural   Nd2ScSi2
_chemical_formula_sum   'Nd4 Sc2 Si4'
_cell_volume   241.40996193
_cell_formula_units_Z   2
loop_
 _symmetry_equiv_pos_site_id
 _symmetry_equiv_pos_as_xyz
  1  'x, y, z'
loop_
 _atom_site_type_symbol
 _atom_site_label
 _atom_site_symmetry_multiplicity
 _atom_site_fract_x
 _atom_site_fract_y
 _atom_site_fract_z
 _atom_site_occupancy
  Nd  Nd0  1  0.677685  0.177685  0.500000  1
  Nd  Nd1  1  0.822315  0.677685  0.500000  1
  Nd  Nd2  1  0.177685  0.322315  0.500000  1
  Nd  Nd3  1  0.322315  0.822315  0.500000  1
  Sc  Sc4  1  0.500000  0.500000  0.000000  1
  Sc  Sc5  1  0.000000  0.000000  0.000000  1
  Si  Si6  1  0.618069  0.881931  0.000000  1
  Si  Si7  1  0.881931  0.381931  0.000000  1
  Si  Si8  1  0.118069  0.618069  0.000000  1
  Si  Si9  1  0.381931  0.118069  0.000000  1
