# generated using pymatgen
data_P3RuO9
_symmetry_space_group_name_H-M   'P 1'
_cell_length_a   6.40187855
_cell_length_b   15.56266401
_cell_length_c   8.47358598
_cell_angle_alpha   90.00000000
_cell_angle_beta   106.58067342
_cell_angle_gamma   90.00000000
_symmetry_Int_Tables_number   1
_chemical_formula_structural   P3RuO9
_chemical_formula_sum   'P12 Ru4 O36'
_cell_volume   809.12193762
_cell_formula_units_Z   4
loop_
 _symmetry_equiv_pos_site_id
 _symmetry_equiv_pos_as_xyz
  1  'x, y, z'
loop_
 _atom_site_type_symbol
 _atom_site_label
 _atom_site_symmetry_multiplicity
 _atom_site_fract_x
 _atom_site_fract_y
 _atom_site_fract_z
 _atom_site_occupancy
  P  P0  1  0.848562  0.456193  0.777550  1
  P  P1  1  0.151438  0.956193  0.722450  1
  P  P2  1  0.151438  0.543807  0.222450  1
  P  P3  1  0.848562  0.043807  0.277550  1
  P  P4  1  0.591475  0.614090  0.795935  1
  P  P5  1  0.408525  0.114090  0.704065  1
  P  P6  1  0.408525  0.385910  0.204065  1
  P  P7  1  0.591475  0.885910  0.295935  1
  P  P8  1  0.210331  0.660007  0.516298  1
  P  P9  1  0.789669  0.160007  0.983702  1
  P  P10  1  0.789669  0.339993  0.483702  1
  P  P11  1  0.210331  0.839993  0.016298  1
  Ru  Ru12  1  0.119552  0.636175  0.875866  1
  Ru  Ru13  1  0.880448  0.136175  0.624134  1
  Ru  Ru14  1  0.880448  0.363825  0.124134  1
  Ru  Ru15  1  0.119552  0.863825  0.375866  1
  O  O16  1  0.817550  0.378542  0.875365  1
  O  O17  1  0.182450  0.878542  0.624635  1
  O  O18  1  0.182450  0.621458  0.124635  1
  O  O19  1  0.817550  0.121458  0.375365  1
  O  O20  1  0.057882  0.506286  0.840034  1
  O  O21  1  0.942118  0.006286  0.659966  1
  O  O22  1  0.942118  0.493714  0.159966  1
  O  O23  1  0.057882  0.993714  0.340034  1
  O  O24  1  0.445232  0.611230  0.905936  1
  O  O25  1  0.554768  0.111230  0.594064  1
  O  O26  1  0.554768  0.388770  0.094064  1
  O  O27  1  0.445232  0.888770  0.405936  1
  O  O28  1  0.800685  0.663436  0.859719  1
  O  O29  1  0.199315  0.163436  0.640281  1
  O  O30  1  0.199315  0.336564  0.140281  1
  O  O31  1  0.800685  0.836564  0.359719  1
  O  O32  1  0.464057  0.846598  0.118632  1
  O  O33  1  0.535943  0.346598  0.381368  1
  O  O34  1  0.535943  0.153402  0.881368  1
  O  O35  1  0.464057  0.653402  0.618632  1
  O  O36  1  0.174400  0.926349  0.907213  1
  O  O37  1  0.825600  0.426349  0.592787  1
  O  O38  1  0.825600  0.073651  0.092787  1
  O  O39  1  0.174400  0.573651  0.407213  1
  O  O40  1  0.638220  0.982755  0.246478  1
  O  O41  1  0.361780  0.482755  0.253522  1
  O  O42  1  0.361780  0.017245  0.753522  1
  O  O43  1  0.638220  0.517245  0.746478  1
  O  O44  1  0.185501  0.765039  0.902891  1
  O  O45  1  0.814499  0.265039  0.597109  1
  O  O46  1  0.814499  0.234961  0.097109  1
  O  O47  1  0.185501  0.734961  0.402891  1
  O  O48  1  0.064953  0.849776  0.127575  1
  O  O49  1  0.935047  0.349776  0.372425  1
  O  O50  1  0.935047  0.150224  0.872425  1
  O  O51  1  0.064953  0.650224  0.627575  1
