# generated using pymatgen
data_Si3Ru2
_symmetry_space_group_name_H-M   'P 1'
_cell_length_a   5.57428720
_cell_length_b   9.00923666
_cell_length_c   11.14845736
_cell_angle_alpha   90.00000000
_cell_angle_beta   90.00000000
_cell_angle_gamma   90.00000000
_symmetry_Int_Tables_number   1
_chemical_formula_structural   Si3Ru2
_chemical_formula_sum   'Si24 Ru16'
_cell_volume   559.87633795
_cell_formula_units_Z   8
loop_
 _symmetry_equiv_pos_site_id
 _symmetry_equiv_pos_as_xyz
  1  'x, y, z'
loop_
 _atom_site_type_symbol
 _atom_site_label
 _atom_site_symmetry_multiplicity
 _atom_site_fract_x
 _atom_site_fract_y
 _atom_site_fract_z
 _atom_site_occupancy
  Si  Si0  1  0.605064  0.105369  0.368498  1
  Si  Si1  1  0.105064  0.394631  0.131502  1
  Si  Si2  1  0.894936  0.105369  0.631502  1
  Si  Si3  1  0.394936  0.394631  0.868498  1
  Si  Si4  1  0.394936  0.894631  0.631502  1
  Si  Si5  1  0.894936  0.605369  0.868498  1
  Si  Si6  1  0.105064  0.894631  0.368498  1
  Si  Si7  1  0.605064  0.605369  0.131502  1
  Si  Si8  1  0.913132  0.063472  0.179497  1
  Si  Si9  1  0.413132  0.436528  0.320503  1
  Si  Si10  1  0.586868  0.063472  0.820503  1
  Si  Si11  1  0.086868  0.436528  0.679497  1
  Si  Si12  1  0.086868  0.936528  0.820503  1
  Si  Si13  1  0.586868  0.563472  0.679497  1
  Si  Si14  1  0.413132  0.936528  0.179497  1
  Si  Si15  1  0.913132  0.563472  0.320503  1
  Si  Si16  1  0.555523  0.707583  0.426573  1
  Si  Si17  1  0.055523  0.792417  0.073427  1
  Si  Si18  1  0.944477  0.707583  0.573427  1
  Si  Si19  1  0.444477  0.792417  0.926573  1
  Si  Si20  1  0.444477  0.292417  0.573427  1
  Si  Si21  1  0.944477  0.207583  0.926573  1
  Si  Si22  1  0.055523  0.292417  0.426573  1
  Si  Si23  1  0.555523  0.207583  0.073427  1
  Ru  Ru24  1  0.750000  0.924832  0.500000  1
  Ru  Ru25  1  0.250000  0.575168  0.000000  1
  Ru  Ru26  1  0.250000  0.075168  0.500000  1
  Ru  Ru27  1  0.750000  0.424832  0.000000  1
  Ru  Ru28  1  0.750000  0.459204  0.500000  1
  Ru  Ru29  1  0.250000  0.040796  0.000000  1
  Ru  Ru30  1  0.250000  0.540796  0.500000  1
  Ru  Ru31  1  0.750000  0.959204  0.000000  1
  Ru  Ru32  1  0.763783  0.312635  0.254125  1
  Ru  Ru33  1  0.263783  0.187365  0.245875  1
  Ru  Ru34  1  0.736217  0.312635  0.745875  1
  Ru  Ru35  1  0.236217  0.187365  0.754125  1
  Ru  Ru36  1  0.236217  0.687365  0.745875  1
  Ru  Ru37  1  0.736217  0.812635  0.754125  1
  Ru  Ru38  1  0.263783  0.687365  0.254125  1
  Ru  Ru39  1  0.763783  0.812635  0.245875  1
