# generated using pymatgen
data_In2Ir
_symmetry_space_group_name_H-M   'P 1'
_cell_length_a   10.33703183
_cell_length_b   9.47525479
_cell_length_c   5.66435279
_cell_angle_alpha   81.96121730
_cell_angle_beta   65.17916672
_cell_angle_gamma   32.85961598
_symmetry_Int_Tables_number   1
_chemical_formula_structural   In2Ir
_chemical_formula_sum   'In8 Ir4'
_cell_volume   246.39973799
_cell_formula_units_Z   4
loop_
 _symmetry_equiv_pos_site_id
 _symmetry_equiv_pos_as_xyz
  1  'x, y, z'
loop_
 _atom_site_type_symbol
 _atom_site_label
 _atom_site_symmetry_multiplicity
 _atom_site_fract_x
 _atom_site_fract_y
 _atom_site_fract_z
 _atom_site_occupancy
  In  In0  1  0.907046  0.592954  0.907046  1
  In  In1  1  0.592954  0.907046  0.592954  1
  In  In2  1  0.085493  0.085493  0.914507  1
  In  In3  1  0.657046  0.342954  0.657046  1
  In  In4  1  0.914507  0.914507  0.085493  1
  In  In5  1  0.335493  0.335493  0.164507  1
  In  In6  1  0.342954  0.657046  0.342954  1
  In  In7  1  0.164507  0.164507  0.335493  1
  Ir  Ir8  1  0.879840  0.879840  0.620160  1
  Ir  Ir9  1  0.629840  0.629840  0.370160  1
  Ir  Ir10  1  0.620160  0.620160  0.879840  1
  Ir  Ir11  1  0.370160  0.370160  0.629840  1
