# generated using pymatgen
data_UNb2O7
_symmetry_space_group_name_H-M   'P 1'
_cell_length_a   10.81807711
_cell_length_b   10.81807711
_cell_length_c   6.54308265
_cell_angle_alpha   90.00000000
_cell_angle_beta   90.00000000
_cell_angle_gamma   159.67398811
_symmetry_Int_Tables_number   1
_chemical_formula_structural   UNb2O7
_chemical_formula_sum   'U2 Nb4 O14'
_cell_volume   265.98927255
_cell_formula_units_Z   2
loop_
 _symmetry_equiv_pos_site_id
 _symmetry_equiv_pos_as_xyz
  1  'x, y, z'
loop_
 _atom_site_type_symbol
 _atom_site_label
 _atom_site_symmetry_multiplicity
 _atom_site_fract_x
 _atom_site_fract_y
 _atom_site_fract_z
 _atom_site_occupancy
  U  U0  1  0.856369  0.143631  0.750000  1
  U  U1  1  0.143631  0.856369  0.250000  1
  Nb  Nb2  1  0.335596  0.664404  0.250000  1
  Nb  Nb3  1  0.664404  0.335596  0.750000  1
  Nb  Nb4  1  0.976059  0.023941  0.250000  1
  Nb  Nb5  1  0.023941  0.976059  0.750000  1
  O  O6  1  0.347130  0.652870  0.944226  1
  O  O7  1  0.652870  0.347130  0.055774  1
  O  O8  1  0.652870  0.347130  0.444226  1
  O  O9  1  0.347130  0.652870  0.555774  1
  O  O10  1  0.248995  0.751005  0.250000  1
  O  O11  1  0.751005  0.248995  0.750000  1
  O  O12  1  0.549395  0.450605  0.750000  1
  O  O13  1  0.450605  0.549395  0.250000  1
  O  O14  1  0.136641  0.863359  0.750000  1
  O  O15  1  0.863359  0.136641  0.250000  1
  O  O16  1  0.948093  0.051907  0.565559  1
  O  O17  1  0.051907  0.948093  0.434441  1
  O  O18  1  0.051907  0.948093  0.065559  1
  O  O19  1  0.948093  0.051907  0.934441  1
