# generated using pymatgen
data_NaMoP2O7
_symmetry_space_group_name_H-M   'P 1'
_cell_length_a   7.56280490
_cell_length_b   8.32155913
_cell_length_c   9.93585385
_cell_angle_alpha   90.00000000
_cell_angle_beta   111.78943648
_cell_angle_gamma   90.00000000
_symmetry_Int_Tables_number   1
_chemical_formula_structural   NaMoP2O7
_chemical_formula_sum   'Na4 Mo4 P8 O28'
_cell_volume   580.63082852
_cell_formula_units_Z   4
loop_
 _symmetry_equiv_pos_site_id
 _symmetry_equiv_pos_as_xyz
  1  'x, y, z'
loop_
 _atom_site_type_symbol
 _atom_site_label
 _atom_site_symmetry_multiplicity
 _atom_site_fract_x
 _atom_site_fract_y
 _atom_site_fract_z
 _atom_site_occupancy
  Na  Na0  1  0.715198  0.980596  0.213882  1
  Na  Na1  1  0.284802  0.480596  0.286118  1
  Na  Na2  1  0.284802  0.019404  0.786118  1
  Na  Na3  1  0.715198  0.519404  0.713882  1
  Mo  Mo4  1  0.743435  0.504853  0.250261  1
  Mo  Mo5  1  0.256565  0.004853  0.249739  1
  Mo  Mo6  1  0.256565  0.495147  0.749739  1
  Mo  Mo7  1  0.743435  0.995147  0.750261  1
  P  P8  1  0.328071  0.716987  0.046211  1
  P  P9  1  0.671929  0.216987  0.453789  1
  P  P10  1  0.671929  0.283013  0.953789  1
  P  P11  1  0.328071  0.783013  0.546211  1
  P  P12  1  0.926785  0.753687  0.042008  1
  P  P13  1  0.073215  0.253687  0.457992  1
  P  P14  1  0.073215  0.246313  0.957992  1
  P  P15  1  0.926785  0.746313  0.542008  1
  O  O16  1  0.127435  0.666648  0.060893  1
  O  O17  1  0.872565  0.166648  0.439107  1
  O  O18  1  0.872565  0.333352  0.939107  1
  O  O19  1  0.127435  0.833352  0.560893  1
  O  O20  1  0.627239  0.390738  0.397681  1
  O  O21  1  0.372761  0.890738  0.102319  1
  O  O22  1  0.372761  0.609262  0.602319  1
  O  O23  1  0.627239  0.109262  0.897681  1
  O  O24  1  0.816891  0.719285  0.379985  1
  O  O25  1  0.183109  0.219285  0.120015  1
  O  O26  1  0.183109  0.280715  0.620015  1
  O  O27  1  0.816891  0.780715  0.879985  1
  O  O28  1  0.026232  0.409715  0.368162  1
  O  O29  1  0.973768  0.909715  0.131838  1
  O  O30  1  0.973768  0.590285  0.631838  1
  O  O31  1  0.026232  0.090285  0.868162  1
  O  O32  1  0.459168  0.908201  0.645895  1
  O  O33  1  0.540832  0.408201  0.854105  1
  O  O34  1  0.540832  0.091799  0.354105  1
  O  O35  1  0.459168  0.591799  0.145895  1
  O  O36  1  0.691794  0.208804  0.612493  1
  O  O37  1  0.308206  0.708804  0.887507  1
  O  O38  1  0.308206  0.791196  0.387507  1
  O  O39  1  0.691794  0.291196  0.112493  1
  O  O40  1  0.827509  0.869885  0.600074  1
  O  O41  1  0.172491  0.369885  0.899926  1
  O  O42  1  0.172491  0.130115  0.399926  1
  O  O43  1  0.827509  0.630115  0.100074  1
