# generated using pymatgen
data_FeBr3
_symmetry_space_group_name_H-M   'P 1'
_cell_length_a   7.38330560
_cell_length_b   7.38330560
_cell_length_c   7.38330560
_cell_angle_alpha   50.64565890
_cell_angle_beta   50.64565890
_cell_angle_gamma   50.64565890
_symmetry_Int_Tables_number   1
_chemical_formula_structural   FeBr3
_chemical_formula_sum   'Fe2 Br6'
_cell_volume   221.78959112
_cell_formula_units_Z   2
loop_
 _symmetry_equiv_pos_site_id
 _symmetry_equiv_pos_as_xyz
  1  'x, y, z'
loop_
 _atom_site_type_symbol
 _atom_site_label
 _atom_site_symmetry_multiplicity
 _atom_site_fract_x
 _atom_site_fract_y
 _atom_site_fract_z
 _atom_site_occupancy
  Fe  Fe0  1  0.666574  0.666574  0.666574  1
  Fe  Fe1  1  0.333426  0.333426  0.333426  1
  Br  Br2  1  0.558595  0.928656  0.298323  1
  Br  Br3  1  0.298323  0.558595  0.928656  1
  Br  Br4  1  0.928656  0.298323  0.558595  1
  Br  Br5  1  0.441405  0.071344  0.701677  1
  Br  Br6  1  0.701677  0.441405  0.071344  1
  Br  Br7  1  0.071344  0.701677  0.441405  1
