# generated using pymatgen
data_Y3RuI3
_symmetry_space_group_name_H-M   'P 1'
_cell_length_a   8.89334380
_cell_length_b   4.25448089
_cell_length_c   12.34491506
_cell_angle_alpha   90.00000000
_cell_angle_beta   93.78514889
_cell_angle_gamma   90.00000000
_symmetry_Int_Tables_number   1
_chemical_formula_structural   Y3RuI3
_chemical_formula_sum   'Y6 Ru2 I6'
_cell_volume   466.07023251
_cell_formula_units_Z   2
loop_
 _symmetry_equiv_pos_site_id
 _symmetry_equiv_pos_as_xyz
  1  'x, y, z'
loop_
 _atom_site_type_symbol
 _atom_site_label
 _atom_site_symmetry_multiplicity
 _atom_site_fract_x
 _atom_site_fract_y
 _atom_site_fract_z
 _atom_site_occupancy
  Y  Y0  1  0.132307  0.750000  0.873369  1
  Y  Y1  1  0.867693  0.250000  0.126631  1
  Y  Y2  1  0.099547  0.750000  0.315667  1
  Y  Y3  1  0.900453  0.250000  0.684333  1
  Y  Y4  1  0.258947  0.250000  0.103673  1
  Y  Y5  1  0.741053  0.750000  0.896327  1
  Ru  Ru6  1  0.053261  0.750000  0.092601  1
  Ru  Ru7  1  0.946739  0.250000  0.907399  1
  I  I8  1  0.352704  0.250000  0.363734  1
  I  I9  1  0.647296  0.750000  0.636266  1
  I  I10  1  0.140992  0.750000  0.607373  1
  I  I11  1  0.859008  0.250000  0.392627  1
  I  I12  1  0.425443  0.250000  0.867532  1
  I  I13  1  0.574557  0.750000  0.132468  1
