# generated using pymatgen
data_Na15Pb4
_symmetry_space_group_name_H-M   'P 1'
_cell_length_a   11.54592383
_cell_length_b   11.54592383
_cell_length_c   11.54592383
_cell_angle_alpha   109.47122063
_cell_angle_beta   109.47122063
_cell_angle_gamma   109.47122063
_symmetry_Int_Tables_number   1
_chemical_formula_structural   Na15Pb4
_chemical_formula_sum   'Na30 Pb8'
_cell_volume   1184.85218404
_cell_formula_units_Z   2
loop_
 _symmetry_equiv_pos_site_id
 _symmetry_equiv_pos_as_xyz
  1  'x, y, z'
loop_
 _atom_site_type_symbol
 _atom_site_label
 _atom_site_symmetry_multiplicity
 _atom_site_fract_x
 _atom_site_fract_y
 _atom_site_fract_z
 _atom_site_occupancy
  Na  Na0  1  0.250000  0.625000  0.375000  1
  Na  Na1  1  0.375000  0.250000  0.625000  1
  Na  Na2  1  0.125000  0.750000  0.875000  1
  Na  Na3  1  0.875000  0.125000  0.750000  1
  Na  Na4  1  0.625000  0.375000  0.250000  1
  Na  Na5  1  0.750000  0.875000  0.125000  1
  Na  Na6  1  0.116752  0.083748  0.276906  1
  Na  Na7  1  0.916252  0.693157  0.033003  1
  Na  Na8  1  0.160154  0.883248  0.466997  1
  Na  Na9  1  0.466997  0.160154  0.883248  1
  Na  Na10  1  0.723094  0.339846  0.806843  1
  Na  Na11  1  0.806843  0.723094  0.339846  1
  Na  Na12  1  0.693157  0.033003  0.916252  1
  Na  Na13  1  0.839846  0.223094  0.306843  1
  Na  Na14  1  0.533003  0.193157  0.416252  1
  Na  Na15  1  0.660154  0.966997  0.383248  1
  Na  Na16  1  0.223094  0.306843  0.839846  1
  Na  Na17  1  0.416252  0.533003  0.193157  1
  Na  Na18  1  0.966997  0.383248  0.660154  1
  Na  Na19  1  0.276906  0.116752  0.083748  1
  Na  Na20  1  0.083748  0.276906  0.116752  1
  Na  Na21  1  0.306843  0.839846  0.223094  1
  Na  Na22  1  0.193157  0.416252  0.533003  1
  Na  Na23  1  0.383248  0.660154  0.966997  1
  Na  Na24  1  0.583748  0.616752  0.776906  1
  Na  Na25  1  0.776906  0.583748  0.616752  1
  Na  Na26  1  0.616752  0.776906  0.583748  1
  Na  Na27  1  0.339846  0.806843  0.723094  1
  Na  Na28  1  0.033003  0.916252  0.693157  1
  Na  Na29  1  0.883248  0.466997  0.160154  1
  Pb  Pb30  1  0.417424  0.417424  0.417424  1
  Pb  Pb31  1  0.582576  0.500000  0.000000  1
  Pb  Pb32  1  0.000000  0.582576  0.500000  1
  Pb  Pb33  1  0.500000  0.000000  0.582576  1
  Pb  Pb34  1  0.000000  0.082576  0.500000  1
  Pb  Pb35  1  0.500000  0.000000  0.082576  1
  Pb  Pb36  1  0.082576  0.500000  0.000000  1
  Pb  Pb37  1  0.917424  0.917424  0.917424  1
