# generated using pymatgen
data_ThSi
_symmetry_space_group_name_H-M   'P 1'
_cell_length_a   4.11439065
_cell_length_b   5.90593323
_cell_length_c   7.99088182
_cell_angle_alpha   90.00000000
_cell_angle_beta   90.00000000
_cell_angle_gamma   90.00000000
_symmetry_Int_Tables_number   1
_chemical_formula_structural   ThSi
_chemical_formula_sum   'Th4 Si4'
_cell_volume   194.17296615
_cell_formula_units_Z   4
loop_
 _symmetry_equiv_pos_site_id
 _symmetry_equiv_pos_as_xyz
  1  'x, y, z'
loop_
 _atom_site_type_symbol
 _atom_site_label
 _atom_site_symmetry_multiplicity
 _atom_site_fract_x
 _atom_site_fract_y
 _atom_site_fract_z
 _atom_site_occupancy
  Th  Th0  1  0.250000  0.123044  0.179870  1
  Th  Th1  1  0.750000  0.876956  0.820130  1
  Th  Th2  1  0.750000  0.623044  0.320130  1
  Th  Th3  1  0.250000  0.376956  0.679870  1
  Si  Si4  1  0.250000  0.625747  0.037637  1
  Si  Si5  1  0.750000  0.374253  0.962363  1
  Si  Si6  1  0.750000  0.125747  0.462363  1
  Si  Si7  1  0.250000  0.874253  0.537637  1
