# generated using pymatgen
data_YbEuSi4N7
_symmetry_space_group_name_H-M   'P 1'
_cell_length_a   6.03530832
_cell_length_b   6.03530832
_cell_length_c   9.90045806
_cell_angle_alpha   90.00000000
_cell_angle_beta   90.00000000
_cell_angle_gamma   120.00000000
_symmetry_Int_Tables_number   1
_chemical_formula_structural   YbEuSi4N7
_chemical_formula_sum   'Yb2 Eu2 Si8 N14'
_cell_volume   312.30924659
_cell_formula_units_Z   2
loop_
 _symmetry_equiv_pos_site_id
 _symmetry_equiv_pos_as_xyz
  1  'x, y, z'
loop_
 _atom_site_type_symbol
 _atom_site_label
 _atom_site_symmetry_multiplicity
 _atom_site_fract_x
 _atom_site_fract_y
 _atom_site_fract_z
 _atom_site_occupancy
  Yb  Yb0  1  0.666667  0.333333  0.236611  1
  Yb  Yb1  1  0.333333  0.666667  0.736611  1
  Eu  Eu2  1  0.333333  0.666667  0.381277  1
  Eu  Eu3  1  0.666667  0.333333  0.881277  1
  Si  Si4  1  0.826377  0.652753  0.546102  1
  Si  Si5  1  0.173623  0.826377  0.046102  1
  Si  Si6  1  0.652753  0.826377  0.046102  1
  Si  Si7  1  0.347247  0.173623  0.546102  1
  Si  Si8  1  0.826377  0.173623  0.546102  1
  Si  Si9  1  0.173623  0.347247  0.046102  1
  Si  Si10  1  0.000000  0.000000  0.811869  1
  Si  Si11  1  0.000000  0.000000  0.311869  1
  N  N12  1  0.151589  0.303178  0.874098  1
  N  N13  1  0.848411  0.151589  0.374098  1
  N  N14  1  0.303178  0.151589  0.374098  1
  N  N15  1  0.696822  0.848411  0.874098  1
  N  N16  1  0.151589  0.848411  0.874098  1
  N  N17  1  0.848411  0.696822  0.374098  1
  N  N18  1  0.980814  0.490407  0.592896  1
  N  N19  1  0.490407  0.980814  0.092896  1
  N  N20  1  0.490407  0.509593  0.092896  1
  N  N21  1  0.509593  0.490407  0.592896  1
  N  N22  1  0.509593  0.019186  0.592896  1
  N  N23  1  0.019186  0.509593  0.092896  1
  N  N24  1  0.000000  0.000000  0.123460  1
  N  N25  1  0.000000  0.000000  0.623460  1
