# generated using pymatgen
data_H6OF4
_symmetry_space_group_name_H-M   'P 1'
_cell_length_a   5.55515114
_cell_length_b   6.62942008
_cell_length_c   6.98975614
_cell_angle_alpha   104.34795703
_cell_angle_beta   109.52260786
_cell_angle_gamma   110.09565573
_symmetry_Int_Tables_number   1
_chemical_formula_structural   H6OF4
_chemical_formula_sum   'H12 O2 F8'
_cell_volume   207.84621763
_cell_formula_units_Z   2
loop_
 _symmetry_equiv_pos_site_id
 _symmetry_equiv_pos_as_xyz
  1  'x, y, z'
loop_
 _atom_site_type_symbol
 _atom_site_label
 _atom_site_symmetry_multiplicity
 _atom_site_fract_x
 _atom_site_fract_y
 _atom_site_fract_z
 _atom_site_occupancy
  H  H0  1  0.552879  0.767258  0.995333  1
  H  H1  1  0.447121  0.232742  0.004667  1
  H  H2  1  0.397270  0.528065  0.759536  1
  H  H3  1  0.602730  0.471935  0.240464  1
  H  H4  1  0.719741  0.754903  0.833795  1
  H  H5  1  0.280259  0.245097  0.166205  1
  H  H6  1  0.620289  0.185073  0.762613  1
  H  H7  1  0.379711  0.814927  0.237387  1
  H  H8  1  0.890417  0.306940  0.614980  1
  H  H9  1  0.109583  0.693060  0.385020  1
  H  H10  1  0.908497  0.795687  0.611353  1
  H  H11  1  0.091503  0.204313  0.388647  1
  O  O12  1  0.590020  0.661902  0.888906  1
  O  O13  1  0.409980  0.338098  0.111094  1
  F  F14  1  0.542209  0.107228  0.849704  1
  F  F15  1  0.457791  0.892772  0.150296  1
  F  F16  1  0.713491  0.302583  0.639070  1
  F  F17  1  0.286509  0.697417  0.360930  1
  F  F18  1  0.116220  0.327425  0.587269  1
  F  F19  1  0.883780  0.672575  0.412731  1
  F  F20  1  0.080258  0.114375  0.242391  1
  F  F21  1  0.919742  0.885625  0.757609  1
