# generated using pymatgen
data_Pb2ClO2
_symmetry_space_group_name_H-M   'P 1'
_cell_length_a   7.00733549
_cell_length_b   7.00733549
_cell_length_c   7.00733549
_cell_angle_alpha   146.75022511
_cell_angle_beta   146.75022511
_cell_angle_gamma   47.73375759
_symmetry_Int_Tables_number   1
_chemical_formula_structural   Pb2ClO2
_chemical_formula_sum   'Pb2 Cl1 O2'
_cell_volume   103.02590343
_cell_formula_units_Z   1
loop_
 _symmetry_equiv_pos_site_id
 _symmetry_equiv_pos_as_xyz
  1  'x, y, z'
loop_
 _atom_site_type_symbol
 _atom_site_label
 _atom_site_symmetry_multiplicity
 _atom_site_fract_x
 _atom_site_fract_y
 _atom_site_fract_z
 _atom_site_occupancy
  Pb  Pb0  1  0.845277  0.845277  0.000000  1
  Pb  Pb1  1  0.154723  0.154723  0.000000  1
  Cl  Cl2  1  0.500000  0.500000  0.000000  1
  O  O3  1  0.250000  0.750000  0.500000  1
  O  O4  1  0.750000  0.250000  0.500000  1
