# generated using pymatgen
data_BaH2Cl2O7
_symmetry_space_group_name_H-M   'P 1'
_cell_length_a   7.58914364
_cell_length_b   7.58914364
_cell_length_c   9.05811587
_cell_angle_alpha   55.40308925
_cell_angle_beta   124.59691075
_cell_angle_gamma   116.10149161
_symmetry_Int_Tables_number   1
_chemical_formula_structural   BaH2Cl2O7
_chemical_formula_sum   'Ba2 H4 Cl4 O14'
_cell_volume   348.14649970
_cell_formula_units_Z   2
loop_
 _symmetry_equiv_pos_site_id
 _symmetry_equiv_pos_as_xyz
  1  'x, y, z'
loop_
 _atom_site_type_symbol
 _atom_site_label
 _atom_site_symmetry_multiplicity
 _atom_site_fract_x
 _atom_site_fract_y
 _atom_site_fract_z
 _atom_site_occupancy
  Ba  Ba0  1  0.144810  0.144810  0.750000  1
  Ba  Ba1  1  0.855190  0.855190  0.250000  1
  H  H2  1  0.693832  0.777820  0.634299  1
  H  H3  1  0.777820  0.693832  0.865701  1
  H  H4  1  0.306168  0.222180  0.365701  1
  H  H5  1  0.222180  0.306168  0.134299  1
  Cl  Cl6  1  0.323856  0.713068  0.810945  1
  Cl  Cl7  1  0.713068  0.323856  0.689055  1
  Cl  Cl8  1  0.676144  0.286932  0.189055  1
  Cl  Cl9  1  0.286932  0.676144  0.310945  1
  O  O10  1  0.807399  0.807399  0.750000  1
  O  O11  1  0.192601  0.192601  0.250000  1
  O  O12  1  0.222566  0.603305  0.470712  1
  O  O13  1  0.603305  0.222566  0.029288  1
  O  O14  1  0.777434  0.396695  0.529288  1
  O  O15  1  0.396694  0.777434  0.970712  1
  O  O16  1  0.528780  0.757428  0.388649  1
  O  O17  1  0.757428  0.528780  0.111351  1
  O  O18  1  0.471220  0.242572  0.611351  1
  O  O19  1  0.242572  0.471220  0.888649  1
  O  O20  1  0.177981  0.869335  0.139946  1
  O  O21  1  0.869335  0.177981  0.360054  1
  O  O22  1  0.822019  0.130665  0.860054  1
  O  O23  1  0.130665  0.822019  0.639946  1
