# generated using pymatgen
data_TaPCl10
_symmetry_space_group_name_H-M   'P 1'
_cell_length_a   7.35821015
_cell_length_b   7.61361108
_cell_length_c   14.18700965
_cell_angle_alpha   90.43230352
_cell_angle_beta   91.24302739
_cell_angle_gamma   106.41675122
_symmetry_Int_Tables_number   1
_chemical_formula_structural   TaPCl10
_chemical_formula_sum   'Ta2 P2 Cl20'
_cell_volume   762.13295836
_cell_formula_units_Z   2
loop_
 _symmetry_equiv_pos_site_id
 _symmetry_equiv_pos_as_xyz
  1  'x, y, z'
loop_
 _atom_site_type_symbol
 _atom_site_label
 _atom_site_symmetry_multiplicity
 _atom_site_fract_x
 _atom_site_fract_y
 _atom_site_fract_z
 _atom_site_occupancy
  Ta  Ta0  1  0.000000  0.000000  0.500000  1
  Ta  Ta1  1  0.000000  0.000000  0.000000  1
  P  P2  1  0.382465  0.591468  0.760602  1
  P  P3  1  0.617535  0.408532  0.239398  1
  Cl  Cl4  1  0.293008  0.077766  0.922028  1
  Cl  Cl5  1  0.706992  0.922234  0.077972  1
  Cl  Cl6  1  0.110347  0.267016  0.097195  1
  Cl  Cl7  1  0.889653  0.732984  0.902805  1
  Cl  Cl8  1  0.124106  0.828782  0.110393  1
  Cl  Cl9  1  0.875894  0.171218  0.889607  1
  Cl  Cl10  1  0.224971  0.288769  0.478824  1
  Cl  Cl11  1  0.775029  0.711231  0.521176  1
  Cl  Cl12  1  0.229931  0.848783  0.457954  1
  Cl  Cl13  1  0.770069  0.151217  0.542046  1
  Cl  Cl14  1  0.096174  0.004081  0.660396  1
  Cl  Cl15  1  0.903826  0.995919  0.339604  1
  Cl  Cl16  1  0.656967  0.410765  0.103718  1
  Cl  Cl17  1  0.343033  0.589235  0.896282  1
  Cl  Cl18  1  0.862417  0.479166  0.306388  1
  Cl  Cl19  1  0.137583  0.520834  0.693612  1
  Cl  Cl20  1  0.472654  0.164880  0.278159  1
  Cl  Cl21  1  0.527346  0.835120  0.721841  1
  Cl  Cl22  1  0.477263  0.583620  0.271718  1
  Cl  Cl23  1  0.522737  0.416380  0.728282  1
