# generated using pymatgen
data_Sc5(NiTe)2
_symmetry_space_group_name_H-M   'P 1'
_cell_length_a   3.97007149
_cell_length_b   10.66373569
_cell_length_c   17.91435150
_cell_angle_alpha   90.00000000
_cell_angle_beta   90.00000000
_cell_angle_gamma   90.00000000
_symmetry_Int_Tables_number   1
_chemical_formula_structural   Sc5(NiTe)2
_chemical_formula_sum   'Sc20 Ni8 Te8'
_cell_volume   758.41827755
_cell_formula_units_Z   4
loop_
 _symmetry_equiv_pos_site_id
 _symmetry_equiv_pos_as_xyz
  1  'x, y, z'
loop_
 _atom_site_type_symbol
 _atom_site_label
 _atom_site_symmetry_multiplicity
 _atom_site_fract_x
 _atom_site_fract_y
 _atom_site_fract_z
 _atom_site_occupancy
  Sc  Sc0  1  0.250000  0.173162  0.480854  1
  Sc  Sc1  1  0.750000  0.826838  0.519146  1
  Sc  Sc2  1  0.750000  0.673162  0.019146  1
  Sc  Sc3  1  0.250000  0.326838  0.980854  1
  Sc  Sc4  1  0.250000  0.059611  0.073208  1
  Sc  Sc5  1  0.750000  0.940389  0.926792  1
  Sc  Sc6  1  0.750000  0.559611  0.426792  1
  Sc  Sc7  1  0.250000  0.440389  0.573208  1
  Sc  Sc8  1  0.250000  0.803332  0.367325  1
  Sc  Sc9  1  0.750000  0.196668  0.632675  1
  Sc  Sc10  1  0.750000  0.303332  0.132675  1
  Sc  Sc11  1  0.250000  0.696668  0.867325  1
  Sc  Sc12  1  0.250000  0.020733  0.773759  1
  Sc  Sc13  1  0.750000  0.979267  0.226241  1
  Sc  Sc14  1  0.750000  0.520733  0.726241  1
  Sc  Sc15  1  0.250000  0.479267  0.273759  1
  Sc  Sc16  1  0.250000  0.782517  0.151402  1
  Sc  Sc17  1  0.750000  0.217483  0.848598  1
  Sc  Sc18  1  0.750000  0.282517  0.348598  1
  Sc  Sc19  1  0.250000  0.717483  0.651402  1
  Ni  Ni20  1  0.250000  0.674120  0.494645  1
  Ni  Ni21  1  0.750000  0.325880  0.505355  1
  Ni  Ni22  1  0.750000  0.174120  0.005355  1
  Ni  Ni23  1  0.250000  0.825880  0.994645  1
  Ni  Ni24  1  0.250000  0.396567  0.415843  1
  Ni  Ni25  1  0.750000  0.603433  0.584157  1
  Ni  Ni26  1  0.750000  0.896567  0.084157  1
  Ni  Ni27  1  0.250000  0.103433  0.915843  1
  Te  Te28  1  0.250000  0.190941  0.232800  1
  Te  Te29  1  0.750000  0.809059  0.767200  1
  Te  Te30  1  0.750000  0.690941  0.267200  1
  Te  Te31  1  0.250000  0.309059  0.732800  1
  Te  Te32  1  0.250000  0.990402  0.607679  1
  Te  Te33  1  0.750000  0.009598  0.392321  1
  Te  Te34  1  0.750000  0.490402  0.892321  1
  Te  Te35  1  0.250000  0.509598  0.107679  1
