# generated using pymatgen
data_Na6PbO4
_symmetry_space_group_name_H-M   'P 1'
_cell_length_a   9.78567035
_cell_length_b   9.78567035
_cell_length_c   9.78567035
_cell_angle_alpha   109.47122063
_cell_angle_beta   109.47122063
_cell_angle_gamma   109.47122063
_symmetry_Int_Tables_number   1
_chemical_formula_structural   Na6PbO4
_chemical_formula_sum   'Na24 Pb4 O16'
_cell_volume   721.35634113
_cell_formula_units_Z   4
loop_
 _symmetry_equiv_pos_site_id
 _symmetry_equiv_pos_as_xyz
  1  'x, y, z'
loop_
 _atom_site_type_symbol
 _atom_site_label
 _atom_site_symmetry_multiplicity
 _atom_site_fract_x
 _atom_site_fract_y
 _atom_site_fract_z
 _atom_site_occupancy
  Na  Na0  1  1.000000  0.724761  0.467519  1
  Na  Na1  1  0.532481  0.532481  0.257242  1
  Na  Na2  1  0.219734  1.000000  0.453574  1
  Na  Na3  1  0.467519  1.000000  0.724761  1
  Na  Na4  1  0.766160  0.546426  0.546426  1
  Na  Na5  1  0.742758  0.275239  0.275239  1
  Na  Na6  1  0.780266  0.780266  0.233840  1
  Na  Na7  1  0.453574  1.000000  0.219734  1
  Na  Na8  1  0.233840  0.780266  0.780266  1
  Na  Na9  1  1.000000  0.219734  0.453574  1
  Na  Na10  1  1.000000  0.467519  0.724761  1
  Na  Na11  1  0.546426  0.766160  0.546426  1
  Na  Na12  1  0.724761  0.000000  0.467519  1
  Na  Na13  1  0.275239  0.275239  0.742758  1
  Na  Na14  1  0.532481  0.257242  0.532481  1
  Na  Na15  1  0.467519  0.724761  0.000000  1
  Na  Na16  1  0.724761  0.467519  0.000000  1
  Na  Na17  1  0.453574  0.219734  0.000000  1
  Na  Na18  1  1.000000  0.453574  0.219734  1
  Na  Na19  1  0.257242  0.532481  0.532481  1
  Na  Na20  1  0.546426  0.546426  0.766160  1
  Na  Na21  1  0.780266  0.233840  0.780266  1
  Na  Na22  1  0.219734  0.453574  1.000000  1
  Na  Na23  1  0.275239  0.742758  0.275239  1
  Pb  Pb24  1  0.253929  0.253929  0.253929  1
  Pb  Pb25  1  1.000000  0.746071  0.000000  1
  Pb  Pb26  1  1.000000  1.000000  0.746071  1
  Pb  Pb27  1  0.746071  1.000000  0.000000  1
  O  O28  1  0.286469  0.517628  0.286469  1
  O  O29  1  0.500000  0.500000  0.000000  1
  O  O30  1  0.768841  0.482372  0.768841  1
  O  O31  1  0.286469  0.286469  0.517628  1
  O  O32  1  0.768841  0.768841  0.482372  1
  O  O33  1  0.231159  0.713531  0.000000  1
  O  O34  1  0.517628  0.286469  0.286469  1
  O  O35  1  1.000000  0.713531  0.231159  1
  O  O36  1  0.500000  1.000000  0.500000  1
  O  O37  1  0.713531  1.000000  0.231159  1
  O  O38  1  0.231159  1.000000  0.713531  1
  O  O39  1  0.713531  0.231159  0.000000  1
  O  O40  1  0.482372  0.768841  0.768841  1
  O  O41  1  0.000000  0.000000  0.000000  1
  O  O42  1  1.000000  0.231159  0.713531  1
  O  O43  1  1.000000  0.500000  0.500000  1
