# generated using pymatgen
data_Ca2Si3Ag
_symmetry_space_group_name_H-M   'P 1'
_cell_length_a   8.42100021
_cell_length_b   8.33683212
_cell_length_c   6.01914891
_cell_angle_alpha   69.69952699
_cell_angle_beta   68.20401965
_cell_angle_gamma   42.09645335
_symmetry_Int_Tables_number   1
_chemical_formula_structural   Ca2Si3Ag
_chemical_formula_sum   'Ca4 Si6 Ag2'
_cell_volume   261.29446336
_cell_formula_units_Z   2
loop_
 _symmetry_equiv_pos_site_id
 _symmetry_equiv_pos_as_xyz
  1  'x, y, z'
loop_
 _atom_site_type_symbol
 _atom_site_label
 _atom_site_symmetry_multiplicity
 _atom_site_fract_x
 _atom_site_fract_y
 _atom_site_fract_z
 _atom_site_occupancy
  Ca  Ca0  1  0.750000  0.750000  0.750000  1
  Ca  Ca1  1  0.752876  0.247124  0.752876  1
  Ca  Ca2  1  0.250000  0.250000  0.250000  1
  Ca  Ca3  1  0.247124  0.752876  0.247124  1
  Si  Si4  1  0.837241  0.324465  0.162759  1
  Si  Si5  1  0.675535  0.162759  0.324465  1
  Si  Si6  1  0.162759  0.675535  0.837241  1
  Si  Si7  1  0.324465  0.837241  0.675535  1
  Si  Si8  1  0.161582  0.161582  0.838418  1
  Si  Si9  1  0.838418  0.838418  0.161582  1
  Ag  Ag10  1  0.666619  0.666619  0.333381  1
  Ag  Ag11  1  0.333381  0.333381  0.666619  1
