# generated using pymatgen
data_V4GaSe8
_symmetry_space_group_name_H-M   'P 1'
_cell_length_a   7.24199030
_cell_length_b   7.24199030
_cell_length_c   7.24199030
_cell_angle_alpha   60.00000000
_cell_angle_beta   60.00000000
_cell_angle_gamma   60.00000000
_symmetry_Int_Tables_number   1
_chemical_formula_structural   V4GaSe8
_chemical_formula_sum   'V4 Ga1 Se8'
_cell_volume   268.57081578
_cell_formula_units_Z   1
loop_
 _symmetry_equiv_pos_site_id
 _symmetry_equiv_pos_as_xyz
  1  'x, y, z'
loop_
 _atom_site_type_symbol
 _atom_site_label
 _atom_site_symmetry_multiplicity
 _atom_site_fract_x
 _atom_site_fract_y
 _atom_site_fract_z
 _atom_site_occupancy
  V  V0  1  0.811694  0.396102  0.396102  1
  V  V1  1  0.396102  0.811694  0.396102  1
  V  V2  1  0.396102  0.396102  0.396102  1
  V  V3  1  0.396102  0.396102  0.811694  1
  Ga  Ga4  1  0.000000  0.000000  0.000000  1
  Se  Se5  1  0.137698  0.586906  0.137698  1
  Se  Se6  1  0.137698  0.137698  0.137698  1
  Se  Se7  1  0.137698  0.137698  0.586906  1
  Se  Se8  1  0.586906  0.137698  0.137698  1
  Se  Se9  1  0.631215  0.106355  0.631215  1
  Se  Se10  1  0.631215  0.631215  0.631215  1
  Se  Se11  1  0.631215  0.631215  0.106355  1
  Se  Se12  1  0.106355  0.631215  0.631215  1
