# generated using pymatgen
data_ZrAs2
_symmetry_space_group_name_H-M   'P 1'
_cell_length_a   3.72672304
_cell_length_b   6.86200803
_cell_length_c   9.14417372
_cell_angle_alpha   90.00000000
_cell_angle_beta   90.00000000
_cell_angle_gamma   90.00000000
_symmetry_Int_Tables_number   1
_chemical_formula_structural   ZrAs2
_chemical_formula_sum   'Zr4 As8'
_cell_volume   233.84215704
_cell_formula_units_Z   4
loop_
 _symmetry_equiv_pos_site_id
 _symmetry_equiv_pos_as_xyz
  1  'x, y, z'
loop_
 _atom_site_type_symbol
 _atom_site_label
 _atom_site_symmetry_multiplicity
 _atom_site_fract_x
 _atom_site_fract_y
 _atom_site_fract_z
 _atom_site_occupancy
  Zr  Zr0  1  0.250000  0.272677  0.338131  1
  Zr  Zr1  1  0.750000  0.727323  0.661869  1
  Zr  Zr2  1  0.250000  0.772677  0.161869  1
  Zr  Zr3  1  0.750000  0.227323  0.838131  1
  As  As4  1  0.250000  0.416993  0.647375  1
  As  As5  1  0.750000  0.583007  0.352625  1
  As  As6  1  0.250000  0.916993  0.852625  1
  As  As7  1  0.750000  0.083007  0.147375  1
  As  As8  1  0.750000  0.120326  0.542255  1
  As  As9  1  0.250000  0.879674  0.457745  1
  As  As10  1  0.750000  0.620326  0.957745  1
  As  As11  1  0.250000  0.379674  0.042255  1
