# generated using pymatgen
data_Sc3P2
_symmetry_space_group_name_H-M   'P 1'
_cell_length_a   3.78360079
_cell_length_b   6.92643603
_cell_length_c   14.43527448
_cell_angle_alpha   90.00000000
_cell_angle_beta   90.00000000
_cell_angle_gamma   90.00000000
_symmetry_Int_Tables_number   1
_chemical_formula_structural   Sc3P2
_chemical_formula_sum   'Sc12 P8'
_cell_volume   378.30334489
_cell_formula_units_Z   4
loop_
 _symmetry_equiv_pos_site_id
 _symmetry_equiv_pos_as_xyz
  1  'x, y, z'
loop_
 _atom_site_type_symbol
 _atom_site_label
 _atom_site_symmetry_multiplicity
 _atom_site_fract_x
 _atom_site_fract_y
 _atom_site_fract_z
 _atom_site_occupancy
  Sc  Sc0  1  0.750000  0.134196  0.932203  1
  Sc  Sc1  1  0.250000  0.865804  0.067797  1
  Sc  Sc2  1  0.750000  0.634196  0.567797  1
  Sc  Sc3  1  0.250000  0.365804  0.432203  1
  Sc  Sc4  1  0.250000  0.663681  0.277585  1
  Sc  Sc5  1  0.750000  0.336319  0.722415  1
  Sc  Sc6  1  0.250000  0.163681  0.222415  1
  Sc  Sc7  1  0.750000  0.836319  0.777585  1
  Sc  Sc8  1  0.250000  0.507673  0.895794  1
  Sc  Sc9  1  0.750000  0.492327  0.104206  1
  Sc  Sc10  1  0.250000  0.007673  0.604206  1
  Sc  Sc11  1  0.750000  0.992327  0.395794  1
  P  P12  1  0.250000  0.758984  0.458222  1
  P  P13  1  0.750000  0.241016  0.541778  1
  P  P14  1  0.250000  0.258984  0.041778  1
  P  P15  1  0.750000  0.741016  0.958222  1
  P  P16  1  0.250000  0.628113  0.704652  1
  P  P17  1  0.750000  0.371887  0.295348  1
  P  P18  1  0.250000  0.128113  0.795348  1
  P  P19  1  0.750000  0.871887  0.204652  1
