# generated using pymatgen
data_Ce2NiB10
_symmetry_space_group_name_H-M   'P 1'
_cell_length_a   4.16077594
_cell_length_b   5.60199191
_cell_length_c   11.14699313
_cell_angle_alpha   90.00000000
_cell_angle_beta   90.00000000
_cell_angle_gamma   90.00000000
_symmetry_Int_Tables_number   1
_chemical_formula_structural   Ce2NiB10
_chemical_formula_sum   'Ce4 Ni2 B20'
_cell_volume   259.82117365
_cell_formula_units_Z   2
loop_
 _symmetry_equiv_pos_site_id
 _symmetry_equiv_pos_as_xyz
  1  'x, y, z'
loop_
 _atom_site_type_symbol
 _atom_site_label
 _atom_site_symmetry_multiplicity
 _atom_site_fract_x
 _atom_site_fract_y
 _atom_site_fract_z
 _atom_site_occupancy
  Ce  Ce0  1  0.500000  0.311991  0.862114  1
  Ce  Ce1  1  0.500000  0.688009  0.137886  1
  Ce  Ce2  1  0.500000  0.811991  0.637886  1
  Ce  Ce3  1  0.500000  0.188009  0.362114  1
  Ni  Ni4  1  0.000000  0.500000  0.500000  1
  Ni  Ni5  1  0.000000  0.000000  0.000000  1
  B  B6  1  0.000000  0.125239  0.540723  1
  B  B7  1  0.000000  0.874761  0.459277  1
  B  B8  1  0.000000  0.625239  0.959277  1
  B  B9  1  0.000000  0.374761  0.040723  1
  B  B10  1  0.000000  0.155883  0.697754  1
  B  B11  1  0.000000  0.844117  0.302246  1
  B  B12  1  0.301262  0.200806  0.114004  1
  B  B13  1  0.301262  0.799194  0.885996  1
  B  B14  1  0.698738  0.700806  0.385996  1
  B  B15  1  0.698738  0.299194  0.614004  1
  B  B16  1  0.698738  0.799194  0.885996  1
  B  B17  1  0.698738  0.200806  0.114004  1
  B  B18  1  0.301262  0.299194  0.614004  1
  B  B19  1  0.301262  0.700806  0.385996  1
  B  B20  1  0.000000  0.032295  0.187596  1
  B  B21  1  0.000000  0.967705  0.812404  1
  B  B22  1  0.000000  0.532295  0.312404  1
  B  B23  1  0.000000  0.467705  0.687596  1
  B  B24  1  0.000000  0.344117  0.197754  1
  B  B25  1  0.000000  0.655883  0.802246  1
