# generated using pymatgen
data_B9H11
_symmetry_space_group_name_H-M   'P 1'
_cell_length_a   10.90446935
_cell_length_b   11.15666465
_cell_length_c   12.47187976
_cell_angle_alpha   90.00000000
_cell_angle_beta   90.00000000
_cell_angle_gamma   90.00000000
_symmetry_Int_Tables_number   1
_chemical_formula_structural   B9H11
_chemical_formula_sum   'B72 H88'
_cell_volume   1517.29780824
_cell_formula_units_Z   8
loop_
 _symmetry_equiv_pos_site_id
 _symmetry_equiv_pos_as_xyz
  1  'x, y, z'
loop_
 _atom_site_type_symbol
 _atom_site_label
 _atom_site_symmetry_multiplicity
 _atom_site_fract_x
 _atom_site_fract_y
 _atom_site_fract_z
 _atom_site_occupancy
  B  B0  1  0.493673  0.927140  0.468840  1
  B  B1  1  0.493673  0.572860  0.031160  1
  B  B2  1  0.006327  0.427140  0.531160  1
  B  B3  1  0.006327  0.072860  0.968840  1
  B  B4  1  0.506327  0.072860  0.531160  1
  B  B5  1  0.506327  0.427140  0.968840  1
  B  B6  1  0.993673  0.572860  0.468840  1
  B  B7  1  0.993673  0.927140  0.031160  1
  B  B8  1  0.602463  0.935901  0.359124  1
  B  B9  1  0.602463  0.564099  0.140876  1
  B  B10  1  0.897537  0.435901  0.640876  1
  B  B11  1  0.897537  0.064099  0.859124  1
  B  B12  1  0.397537  0.064099  0.640876  1
  B  B13  1  0.397537  0.435901  0.859124  1
  B  B14  1  0.102463  0.564099  0.359124  1
  B  B15  1  0.102463  0.935901  0.140876  1
  B  B16  1  0.764873  0.997183  0.396331  1
  B  B17  1  0.764873  0.502817  0.103669  1
  B  B18  1  0.735127  0.497183  0.603669  1
  B  B19  1  0.735127  0.002817  0.896331  1
  B  B20  1  0.235127  0.002817  0.603669  1
  B  B21  1  0.235127  0.497183  0.896331  1
  B  B22  1  0.264873  0.502817  0.396331  1
  B  B23  1  0.264873  0.997183  0.103669  1
  B  B24  1  0.793497  0.045218  0.530871  1
  B  B25  1  0.793497  0.454782  0.969129  1
  B  B26  1  0.706503  0.545218  0.469129  1
  B  B27  1  0.706503  0.954782  0.030871  1
  B  B28  1  0.206503  0.954782  0.469129  1
  B  B29  1  0.206503  0.545218  0.030871  1
  B  B30  1  0.293497  0.454782  0.530871  1
  B  B31  1  0.293497  0.045218  0.969129  1
  B  B32  1  0.669146  0.140747  0.563712  1
  B  B33  1  0.669146  0.359253  0.936288  1
  B  B34  1  0.830854  0.640747  0.436288  1
  B  B35  1  0.830854  0.859253  0.063712  1
  B  B36  1  0.330854  0.859253  0.436288  1
  B  B37  1  0.330854  0.640747  0.063712  1
  B  B38  1  0.169146  0.359253  0.563712  1
  B  B39  1  0.169146  0.140747  0.936288  1
  B  B40  1  0.498707  0.056076  0.387284  1
  B  B41  1  0.498707  0.443924  0.112716  1
  B  B42  1  0.001293  0.556076  0.612716  1
  B  B43  1  0.001293  0.943924  0.887284  1
  B  B44  1  0.501293  0.943924  0.612716  1
  B  B45  1  0.501293  0.556076  0.887284  1
  B  B46  1  0.998707  0.443924  0.387284  1
  B  B47  1  0.998707  0.056076  0.112716  1
  B  B48  1  0.647885  0.085606  0.341682  1
  B  B49  1  0.647885  0.414394  0.158318  1
  B  B50  1  0.852115  0.585606  0.658318  1
  B  B51  1  0.852115  0.914394  0.841682  1
  B  B52  1  0.352115  0.914394  0.658318  1
  B  B53  1  0.352115  0.585606  0.841682  1
  B  B54  1  0.147885  0.414394  0.341682  1
  B  B55  1  0.147885  0.085606  0.158318  1
  B  B56  1  0.746799  0.150208  0.438775  1
  B  B57  1  0.746799  0.349792  0.061225  1
  B  B58  1  0.753201  0.650208  0.561225  1
  B  B59  1  0.753201  0.849792  0.938775  1
  B  B60  1  0.253201  0.849792  0.561225  1
  B  B61  1  0.253201  0.650208  0.938775  1
  B  B62  1  0.246799  0.349792  0.438775  1
  B  B63  1  0.246799  0.150208  0.061225  1
  B  B64  1  0.585019  0.173719  0.448025  1
  B  B65  1  0.585019  0.326281  0.051975  1
  B  B66  1  0.914981  0.673719  0.551975  1
  B  B67  1  0.914981  0.826281  0.948025  1
  B  B68  1  0.414981  0.826281  0.551975  1
  B  B69  1  0.414981  0.673719  0.948025  1
  B  B70  1  0.085019  0.326281  0.448025  1
  B  B71  1  0.085019  0.173719  0.051975  1
  H  H72  1  0.767289  0.937385  0.488265  1
  H  H73  1  0.767289  0.562615  0.011735  1
  H  H74  1  0.732711  0.437385  0.511735  1
  H  H75  1  0.732711  0.062615  0.988265  1
  H  H76  1  0.232711  0.062615  0.511735  1
  H  H77  1  0.232711  0.437385  0.988265  1
  H  H78  1  0.267289  0.562615  0.488265  1
  H  H79  1  0.267289  0.937385  0.011735  1
  H  H80  1  0.704264  0.035611  0.603123  1
  H  H81  1  0.704264  0.464389  0.896877  1
  H  H82  1  0.795736  0.535611  0.396877  1
  H  H83  1  0.795736  0.964389  0.103123  1
  H  H84  1  0.295736  0.964389  0.396877  1
  H  H85  1  0.295736  0.535611  0.103123  1
  H  H86  1  0.204264  0.464389  0.603123  1
  H  H87  1  0.204264  0.035611  0.896877  1
  H  H88  1  0.599487  0.868119  0.445443  1
  H  H89  1  0.599487  0.631881  0.054557  1
  H  H90  1  0.900513  0.368119  0.554557  1
  H  H91  1  0.900513  0.131881  0.945443  1
  H  H92  1  0.400513  0.131881  0.554557  1
  H  H93  1  0.400513  0.368119  0.945443  1
  H  H94  1  0.099487  0.631881  0.445443  1
  H  H95  1  0.099487  0.868119  0.054557  1
  H  H96  1  0.592911  0.869270  0.284854  1
  H  H97  1  0.592911  0.630730  0.215146  1
  H  H98  1  0.907089  0.369270  0.715146  1
  H  H99  1  0.907089  0.130730  0.784854  1
  H  H100  1  0.407089  0.130730  0.715146  1
  H  H101  1  0.407089  0.369270  0.784854  1
  H  H102  1  0.092910  0.630730  0.284854  1
  H  H103  1  0.092910  0.869270  0.215146  1
  H  H104  1  0.849140  0.959528  0.345570  1
  H  H105  1  0.849140  0.540472  0.154430  1
  H  H106  1  0.650860  0.459528  0.654430  1
  H  H107  1  0.650860  0.040472  0.845570  1
  H  H108  1  0.150860  0.040472  0.654430  1
  H  H109  1  0.150860  0.459528  0.845570  1
  H  H110  1  0.349140  0.540472  0.345570  1
  H  H111  1  0.812127  0.230439  0.411681  1
  H  H112  1  0.349140  0.959528  0.154430  1
  H  H113  1  0.887960  0.464331  0.922058  1
  H  H114  1  0.612040  0.535669  0.422058  1
  H  H115  1  0.612040  0.964331  0.077942  1
  H  H116  1  0.112040  0.964331  0.422058  1
  H  H117  1  0.112040  0.535669  0.077942  1
  H  H118  1  0.387960  0.464331  0.577942  1
  H  H119  1  0.387960  0.035669  0.922058  1
  H  H120  1  0.675344  0.208222  0.637684  1
  H  H121  1  0.675344  0.291778  0.862316  1
  H  H122  1  0.824656  0.708222  0.362316  1
  H  H123  1  0.824656  0.791778  0.137684  1
  H  H124  1  0.324656  0.791778  0.362316  1
  H  H125  1  0.324656  0.708222  0.137684  1
  H  H126  1  0.175344  0.291778  0.637684  1
  H  H127  1  0.175344  0.208222  0.862316  1
  H  H128  1  0.414417  0.083482  0.331699  1
  H  H129  1  0.414417  0.416518  0.168301  1
  H  H130  1  0.085583  0.583482  0.668301  1
  H  H131  1  0.085583  0.916518  0.831699  1
  H  H132  1  0.585583  0.916518  0.668301  1
  H  H133  1  0.585583  0.583482  0.831699  1
  H  H134  1  0.914417  0.416518  0.331699  1
  H  H135  1  0.914417  0.083482  0.168301  1
  H  H136  1  0.659981  0.114929  0.250210  1
  H  H137  1  0.659981  0.385071  0.249790  1
  H  H138  1  0.840019  0.614929  0.749790  1
  H  H139  1  0.840019  0.885071  0.750210  1
  H  H140  1  0.340019  0.885071  0.749790  1
  H  H141  1  0.340019  0.614929  0.750210  1
  H  H142  1  0.159981  0.385071  0.250210  1
  H  H143  1  0.159981  0.114929  0.249790  1
  H  H144  1  0.045235  0.273187  0.057943  1
  H  H145  1  0.045235  0.226813  0.442057  1
  H  H146  1  0.454765  0.773187  0.942057  1
  H  H147  1  0.454765  0.726813  0.557943  1
  H  H148  1  0.954765  0.726813  0.942057  1
  H  H149  1  0.954765  0.773187  0.557943  1
  H  H150  1  0.545235  0.226813  0.057943  1
  H  H151  1  0.545235  0.273187  0.442057  1
  H  H152  1  0.312127  0.230439  0.088319  1
  H  H153  1  0.312127  0.269561  0.411681  1
  H  H154  1  0.187873  0.730439  0.911681  1
  H  H155  1  0.187873  0.769561  0.588319  1
  H  H156  1  0.687873  0.769561  0.911681  1
  H  H157  1  0.687873  0.730439  0.588319  1
  H  H158  1  0.812127  0.269561  0.088319  1
  H  H159  1  0.887960  0.035669  0.577942  1
