# generated using pymatgen
data_CaMnSiHO5
_symmetry_space_group_name_H-M   'P 1'
_cell_length_a   5.94922775
_cell_length_b   7.32093375
_cell_length_c   8.77905574
_cell_angle_alpha   90.00000000
_cell_angle_beta   90.00000000
_cell_angle_gamma   90.00000000
_symmetry_Int_Tables_number   1
_chemical_formula_structural   CaMnSiHO5
_chemical_formula_sum   'Ca4 Mn4 Si4 H4 O20'
_cell_volume   382.36213530
_cell_formula_units_Z   4
loop_
 _symmetry_equiv_pos_site_id
 _symmetry_equiv_pos_as_xyz
  1  'x, y, z'
loop_
 _atom_site_type_symbol
 _atom_site_label
 _atom_site_symmetry_multiplicity
 _atom_site_fract_x
 _atom_site_fract_y
 _atom_site_fract_z
 _atom_site_occupancy
  Ca  Ca0  1  0.519748  0.121848  0.322511  1
  Ca  Ca1  1  0.980252  0.878152  0.822511  1
  Ca  Ca2  1  0.480252  0.621848  0.177489  1
  Ca  Ca3  1  0.019748  0.378152  0.677489  1
  Mn  Mn4  1  0.746243  0.257254  0.996482  1
  Mn  Mn5  1  0.253757  0.757254  0.503518  1
  Mn  Mn6  1  0.753757  0.742746  0.496482  1
  Mn  Mn7  1  0.246243  0.242746  0.003518  1
  Si  Si8  1  0.988478  0.366154  0.318838  1
  Si  Si9  1  0.488478  0.133846  0.681162  1
  Si  Si10  1  0.011522  0.866154  0.181162  1
  Si  Si11  1  0.511522  0.633846  0.818838  1
  H  H12  1  0.473608  0.430179  0.522923  1
  H  H13  1  0.973608  0.069821  0.477077  1
  H  H14  1  0.526392  0.930179  0.977077  1
  H  H15  1  0.026392  0.569821  0.022923  1
  O  O16  1  0.738165  0.626079  0.709667  1
  O  O17  1  0.997383  0.894693  0.559163  1
  O  O18  1  0.502617  0.105307  0.059163  1
  O  O19  1  0.002617  0.394693  0.940837  1
  O  O20  1  0.761835  0.373921  0.209667  1
  O  O21  1  0.261835  0.126079  0.790333  1
  O  O22  1  0.238165  0.873921  0.290333  1
  O  O23  1  0.497383  0.605307  0.440837  1
  O  O24  1  0.490879  0.458805  0.935857  1
  O  O25  1  0.990879  0.041195  0.064143  1
  O  O26  1  0.509121  0.958805  0.564143  1
  O  O27  1  0.009121  0.541195  0.435857  1
  O  O28  1  0.078260  0.699653  0.058377  1
  O  O29  1  0.578260  0.800347  0.941623  1
  O  O30  1  0.226070  0.338176  0.224951  1
  O  O31  1  0.421740  0.300347  0.558377  1
  O  O32  1  0.273930  0.661824  0.724951  1
  O  O33  1  0.773930  0.838176  0.275049  1
  O  O34  1  0.726070  0.161824  0.775049  1
  O  O35  1  0.921740  0.199653  0.441623  1
