# generated using pymatgen
data_Na2TiCl4
_symmetry_space_group_name_H-M   'P 1'
_cell_length_a   3.76420353
_cell_length_b   6.99893771
_cell_length_c   12.24448843
_cell_angle_alpha   90.00000000
_cell_angle_beta   90.00000000
_cell_angle_gamma   90.00000000
_symmetry_Int_Tables_number   1
_chemical_formula_structural   Na2TiCl4
_chemical_formula_sum   'Na4 Ti2 Cl8'
_cell_volume   322.58626426
_cell_formula_units_Z   2
loop_
 _symmetry_equiv_pos_site_id
 _symmetry_equiv_pos_as_xyz
  1  'x, y, z'
loop_
 _atom_site_type_symbol
 _atom_site_label
 _atom_site_symmetry_multiplicity
 _atom_site_fract_x
 _atom_site_fract_y
 _atom_site_fract_z
 _atom_site_occupancy
  Na  Na0  1  0.000000  0.416946  0.317973  1
  Na  Na1  1  0.000000  0.583054  0.682027  1
  Na  Na2  1  0.000000  0.916946  0.182027  1
  Na  Na3  1  0.000000  0.083054  0.817973  1
  Ti  Ti4  1  0.500000  0.000000  0.500000  1
  Ti  Ti5  1  0.500000  0.500000  0.000000  1
  Cl  Cl6  1  0.000000  0.262067  0.042254  1
  Cl  Cl7  1  0.500000  0.876681  0.695889  1
  Cl  Cl8  1  0.500000  0.123319  0.304111  1
  Cl  Cl9  1  0.500000  0.376681  0.804111  1
  Cl  Cl10  1  0.500000  0.623319  0.195889  1
  Cl  Cl11  1  0.000000  0.762067  0.457746  1
  Cl  Cl12  1  0.000000  0.237933  0.542254  1
  Cl  Cl13  1  0.000000  0.737933  0.957746  1
