# generated using pymatgen
data_FePO4
_symmetry_space_group_name_H-M   'P 1'
_cell_length_a   4.86063327
_cell_length_b   5.88550146
_cell_length_c   9.91419763
_cell_angle_alpha   90.00000000
_cell_angle_beta   90.00000000
_cell_angle_gamma   90.00000000
_symmetry_Int_Tables_number   1
_chemical_formula_structural   FePO4
_chemical_formula_sum   'Fe4 P4 O16'
_cell_volume   283.61807100
_cell_formula_units_Z   4
loop_
 _symmetry_equiv_pos_site_id
 _symmetry_equiv_pos_as_xyz
  1  'x, y, z'
loop_
 _atom_site_type_symbol
 _atom_site_label
 _atom_site_symmetry_multiplicity
 _atom_site_fract_x
 _atom_site_fract_y
 _atom_site_fract_z
 _atom_site_occupancy
  Fe  Fe0  1  0.450883  0.750000  0.774056  1
  Fe  Fe1  1  0.049117  0.750000  0.274056  1
  Fe  Fe2  1  0.549117  0.250000  0.225944  1
  Fe  Fe3  1  0.950883  0.250000  0.725944  1
  P  P4  1  0.901369  0.750000  0.593816  1
  P  P5  1  0.598631  0.750000  0.093816  1
  P  P6  1  0.098631  0.250000  0.406184  1
  P  P7  1  0.401369  0.250000  0.906184  1
  O  O8  1  0.211167  0.750000  0.620320  1
  O  O9  1  0.288833  0.750000  0.120320  1
  O  O10  1  0.788833  0.250000  0.379680  1
  O  O11  1  0.711167  0.250000  0.879680  1
  O  O12  1  0.653087  0.750000  0.942782  1
  O  O13  1  0.846913  0.750000  0.442782  1
  O  O14  1  0.346913  0.250000  0.057218  1
  O  O15  1  0.153087  0.250000  0.557218  1
  O  O16  1  0.752787  0.953795  0.667108  1
  O  O17  1  0.747213  0.546205  0.167108  1
  O  O18  1  0.247213  0.453795  0.332892  1
  O  O19  1  0.252787  0.046205  0.832892  1
  O  O20  1  0.247213  0.046205  0.332892  1
  O  O21  1  0.252787  0.453795  0.832892  1
  O  O22  1  0.752787  0.546205  0.667108  1
  O  O23  1  0.747213  0.953795  0.167108  1
