# generated using pymatgen
data_Li3V2(GeO5)2
_symmetry_space_group_name_H-M   'P 1'
_cell_length_a   6.56067957
_cell_length_b   6.56067957
_cell_length_c   9.28027844
_cell_angle_alpha   90.00000000
_cell_angle_beta   90.00000000
_cell_angle_gamma   90.28119735
_symmetry_Int_Tables_number   1
_chemical_formula_structural   Li3V2(GeO5)2
_chemical_formula_sum   'Li6 V4 Ge4 O20'
_cell_volume   399.44172685
_cell_formula_units_Z   2
loop_
 _symmetry_equiv_pos_site_id
 _symmetry_equiv_pos_as_xyz
  1  'x, y, z'
loop_
 _atom_site_type_symbol
 _atom_site_label
 _atom_site_symmetry_multiplicity
 _atom_site_fract_x
 _atom_site_fract_y
 _atom_site_fract_z
 _atom_site_occupancy
  Li  Li0  1  0.000000  0.000000  0.000000  1
  Li  Li1  1  0.000000  0.500000  0.500000  1
  Li  Li2  1  0.000000  0.500000  1.000000  1
  Li  Li3  1  0.500000  0.500000  0.500000  1
  Li  Li4  1  0.500000  0.000000  0.500000  1
  Li  Li5  1  0.500000  0.000000  0.000000  1
  V  V6  1  0.758272  0.241728  0.302801  1
  V  V7  1  0.741728  0.258272  0.802801  1
  V  V8  1  0.241728  0.758272  0.697199  1
  V  V9  1  0.258272  0.741728  0.197199  1
  Ge  Ge10  1  0.750910  0.749090  0.250000  1
  Ge  Ge11  1  0.749090  0.750910  0.750000  1
  Ge  Ge12  1  0.249090  0.250910  0.750000  1
  Ge  Ge13  1  0.250910  0.249090  0.250000  1
  O  O14  1  0.033463  0.247720  0.864454  1
  O  O15  1  0.268485  0.731515  0.375579  1
  O  O16  1  0.231515  0.768485  0.875579  1
  O  O17  1  0.738829  0.965645  0.363856  1
  O  O18  1  0.247720  0.033463  0.135546  1
  O  O19  1  0.261171  0.034355  0.636144  1
  O  O20  1  0.768485  0.231515  0.124421  1
  O  O21  1  0.731515  0.268485  0.624421  1
  O  O22  1  0.533463  0.747720  0.635546  1
  O  O23  1  0.466537  0.252280  0.364454  1
  O  O24  1  0.034355  0.261171  0.363856  1
  O  O25  1  0.465645  0.238829  0.863856  1
  O  O26  1  0.238829  0.465645  0.136144  1
  O  O27  1  0.252280  0.466537  0.635546  1
  O  O28  1  0.761171  0.534355  0.863856  1
  O  O29  1  0.747720  0.533463  0.364454  1
  O  O30  1  0.966537  0.752280  0.135546  1
  O  O31  1  0.965645  0.738829  0.636144  1
  O  O32  1  0.534355  0.761171  0.136144  1
  O  O33  1  0.752280  0.966537  0.864454  1
