# generated using pymatgen
data_K2Zn3O4
_symmetry_space_group_name_H-M   'P 1'
_cell_length_a   8.18331421
_cell_length_b   8.18331421
_cell_length_c   5.83568427
_cell_angle_alpha   77.83449595
_cell_angle_beta   102.16550405
_cell_angle_gamma   133.40598853
_symmetry_Int_Tables_number   1
_chemical_formula_structural   K2Zn3O4
_chemical_formula_sum   'K4 Zn6 O8'
_cell_volume   276.34021899
_cell_formula_units_Z   2
loop_
 _symmetry_equiv_pos_site_id
 _symmetry_equiv_pos_as_xyz
  1  'x, y, z'
loop_
 _atom_site_type_symbol
 _atom_site_label
 _atom_site_symmetry_multiplicity
 _atom_site_fract_x
 _atom_site_fract_y
 _atom_site_fract_z
 _atom_site_occupancy
  K  K0  1  0.004889  0.243447  0.511889  1
  K  K1  1  0.756553  0.995111  0.011889  1
  K  K2  1  0.995111  0.756553  0.488111  1
  K  K3  1  0.243447  0.004889  0.988111  1
  Zn  Zn4  1  0.426407  0.808691  0.415124  1
  Zn  Zn5  1  0.191309  0.573593  0.915124  1
  Zn  Zn6  1  0.573593  0.191309  0.584876  1
  Zn  Zn7  1  0.480662  0.480662  0.250000  1
  Zn  Zn8  1  0.519338  0.519338  0.750000  1
  Zn  Zn9  1  0.808691  0.426407  0.084876  1
  O  O10  1  0.613334  0.141730  0.286340  1
  O  O11  1  0.618893  0.735521  0.455172  1
  O  O12  1  0.735521  0.618893  0.044828  1
  O  O13  1  0.381107  0.264479  0.544828  1
  O  O14  1  0.141730  0.613334  0.213660  1
  O  O15  1  0.386666  0.858270  0.713660  1
  O  O16  1  0.858270  0.386666  0.786340  1
  O  O17  1  0.264479  0.381107  0.955172  1
