# generated using pymatgen
data_Ti(Bi3O5)4
_symmetry_space_group_name_H-M   'P 1'
_cell_length_a   8.93697158
_cell_length_b   8.93697158
_cell_length_c   8.93697158
_cell_angle_alpha   109.47122063
_cell_angle_beta   109.47122063
_cell_angle_gamma   109.47122063
_symmetry_Int_Tables_number   1
_chemical_formula_structural   Ti(Bi3O5)4
_chemical_formula_sum   'Ti1 Bi12 O20'
_cell_volume   549.47664757
_cell_formula_units_Z   1
loop_
 _symmetry_equiv_pos_site_id
 _symmetry_equiv_pos_as_xyz
  1  'x, y, z'
loop_
 _atom_site_type_symbol
 _atom_site_label
 _atom_site_symmetry_multiplicity
 _atom_site_fract_x
 _atom_site_fract_y
 _atom_site_fract_z
 _atom_site_occupancy
  Ti  Ti0  1  0.000000  0.000000  0.000000  1
  Bi  Bi1  1  0.666624  0.162914  0.859128  1
  Bi  Bi2  1  0.303785  0.807495  0.140872  1
  Bi  Bi3  1  0.696215  0.837086  0.503710  1
  Bi  Bi4  1  0.192505  0.496290  0.333376  1
  Bi  Bi5  1  0.496290  0.333376  0.192505  1
  Bi  Bi6  1  0.859128  0.666624  0.162914  1
  Bi  Bi7  1  0.807495  0.140872  0.303785  1
  Bi  Bi8  1  0.503710  0.696215  0.837086  1
  Bi  Bi9  1  0.162914  0.859128  0.666624  1
  Bi  Bi10  1  0.140872  0.303785  0.807495  1
  Bi  Bi11  1  0.837086  0.503710  0.696215  1
  Bi  Bi12  1  0.333376  0.192505  0.496290  1
  O  O13  1  0.206635  1.000000  1.000000  1
  O  O14  1  1.000000  1.000000  0.206635  1
  O  O15  1  1.000000  0.206635  0.000000  1
  O  O16  1  0.793365  0.793365  0.793365  1
  O  O17  1  0.613497  1.000000  0.000000  1
  O  O18  1  1.000000  1.000000  0.613497  1
  O  O19  1  1.000000  0.613497  0.000000  1
  O  O20  1  0.386503  0.386503  0.386503  1
  O  O21  1  0.261039  0.642104  0.881007  1
  O  O22  1  0.761098  0.380033  0.118993  1
  O  O23  1  0.238902  0.357896  0.618935  1
  O  O24  1  0.619967  0.381065  0.738961  1
  O  O25  1  0.381065  0.738961  0.619967  1
  O  O26  1  0.738961  0.619967  0.381065  1
  O  O27  1  0.357896  0.618935  0.238902  1
  O  O28  1  0.118993  0.761098  0.380033  1
  O  O29  1  0.642104  0.881007  0.261039  1
  O  O30  1  0.618935  0.238902  0.357896  1
  O  O31  1  0.380033  0.118993  0.761098  1
  O  O32  1  0.881007  0.261039  0.642104  1
