# generated using pymatgen
data_TmGeRh
_symmetry_space_group_name_H-M   'P 1'
_cell_length_a   4.28738598
_cell_length_b   6.85110612
_cell_length_c   7.54098282
_cell_angle_alpha   90.00000000
_cell_angle_beta   90.00000000
_cell_angle_gamma   90.00000000
_symmetry_Int_Tables_number   1
_chemical_formula_structural   TmGeRh
_chemical_formula_sum   'Tm4 Ge4 Rh4'
_cell_volume   221.50382460
_cell_formula_units_Z   4
loop_
 _symmetry_equiv_pos_site_id
 _symmetry_equiv_pos_as_xyz
  1  'x, y, z'
loop_
 _atom_site_type_symbol
 _atom_site_label
 _atom_site_symmetry_multiplicity
 _atom_site_fract_x
 _atom_site_fract_y
 _atom_site_fract_z
 _atom_site_occupancy
  Tm  Tm0  1  0.250000  0.503656  0.804542  1
  Tm  Tm1  1  0.750000  0.496344  0.195458  1
  Tm  Tm2  1  0.250000  0.003656  0.695458  1
  Tm  Tm3  1  0.750000  0.996344  0.304542  1
  Ge  Ge4  1  0.250000  0.786131  0.106896  1
  Ge  Ge5  1  0.750000  0.213869  0.893104  1
  Ge  Ge6  1  0.250000  0.286131  0.393104  1
  Ge  Ge7  1  0.750000  0.713869  0.606896  1
  Rh  Rh8  1  0.750000  0.343007  0.566745  1
  Rh  Rh9  1  0.250000  0.656993  0.433255  1
  Rh  Rh10  1  0.750000  0.843007  0.933255  1
  Rh  Rh11  1  0.250000  0.156993  0.066745  1
