# generated using pymatgen
data_RbCdCl3
_symmetry_space_group_name_H-M   'P 1'
_cell_length_a   4.11940023
_cell_length_b   9.21228274
_cell_length_c   15.31262964
_cell_angle_alpha   90.00000000
_cell_angle_beta   90.00000000
_cell_angle_gamma   90.00000000
_symmetry_Int_Tables_number   1
_chemical_formula_structural   RbCdCl3
_chemical_formula_sum   'Rb4 Cd4 Cl12'
_cell_volume   581.10020168
_cell_formula_units_Z   4
loop_
 _symmetry_equiv_pos_site_id
 _symmetry_equiv_pos_as_xyz
  1  'x, y, z'
loop_
 _atom_site_type_symbol
 _atom_site_label
 _atom_site_symmetry_multiplicity
 _atom_site_fract_x
 _atom_site_fract_y
 _atom_site_fract_z
 _atom_site_occupancy
  Rb  Rb0  1  0.750000  0.069710  0.325838  1
  Rb  Rb1  1  0.250000  0.930290  0.674162  1
  Rb  Rb2  1  0.750000  0.569710  0.174162  1
  Rb  Rb3  1  0.250000  0.430290  0.825838  1
  Cd  Cd4  1  0.750000  0.335084  0.555895  1
  Cd  Cd5  1  0.250000  0.664916  0.444105  1
  Cd  Cd6  1  0.750000  0.835084  0.944105  1
  Cd  Cd7  1  0.250000  0.164916  0.055895  1
  Cl  Cl8  1  0.750000  0.476394  0.402404  1
  Cl  Cl9  1  0.750000  0.826280  0.503768  1
  Cl  Cl10  1  0.250000  0.673720  0.003768  1
  Cl  Cl11  1  0.750000  0.326280  0.996232  1
  Cl  Cl12  1  0.250000  0.281674  0.206478  1
  Cl  Cl13  1  0.750000  0.718326  0.793522  1
  Cl  Cl14  1  0.250000  0.781674  0.293522  1
  Cl  Cl15  1  0.250000  0.523606  0.597596  1
  Cl  Cl16  1  0.750000  0.976394  0.097596  1
  Cl  Cl17  1  0.250000  0.023606  0.902404  1
  Cl  Cl18  1  0.750000  0.218326  0.706478  1
  Cl  Cl19  1  0.250000  0.173720  0.496232  1
