# generated using pymatgen
data_HoSi3Rh5
_symmetry_space_group_name_H-M   'P 1'
_cell_length_a   15.64253946
_cell_length_b   15.64253946
_cell_length_c   3.87926992
_cell_angle_alpha   90.00000000
_cell_angle_beta   90.00000000
_cell_angle_gamma   120.00000000
_symmetry_Int_Tables_number   1
_chemical_formula_structural   HoSi3Rh5
_chemical_formula_sum   'Ho6 Si18 Rh30'
_cell_volume   822.04416139
_cell_formula_units_Z   6
loop_
 _symmetry_equiv_pos_site_id
 _symmetry_equiv_pos_as_xyz
  1  'x, y, z'
loop_
 _atom_site_type_symbol
 _atom_site_label
 _atom_site_symmetry_multiplicity
 _atom_site_fract_x
 _atom_site_fract_y
 _atom_site_fract_z
 _atom_site_occupancy
  Ho  Ho0  1  0.606069  0.899994  0.250000  1
  Ho  Ho1  1  0.706075  0.606069  0.750000  1
  Ho  Ho2  1  0.899994  0.293925  0.750000  1
  Ho  Ho3  1  0.100006  0.706075  0.250000  1
  Ho  Ho4  1  0.293925  0.393931  0.250000  1
  Ho  Ho5  1  0.393931  0.100006  0.750000  1
  Si  Si6  1  0.441711  0.760416  0.750000  1
  Si  Si7  1  0.681295  0.441711  0.250000  1
  Si  Si8  1  0.760416  0.318705  0.250000  1
  Si  Si9  1  0.239584  0.681295  0.750000  1
  Si  Si10  1  0.318705  0.558289  0.750000  1
  Si  Si11  1  0.558289  0.239584  0.250000  1
  Si  Si12  1  0.880498  0.130947  0.250000  1
  Si  Si13  1  0.119502  0.869053  0.750000  1
  Si  Si14  1  0.130947  0.250449  0.750000  1
  Si  Si15  1  0.250449  0.119502  0.250000  1
  Si  Si16  1  0.370778  0.938160  0.250000  1
  Si  Si17  1  0.432618  0.370778  0.750000  1
  Si  Si18  1  0.938160  0.567382  0.750000  1
  Si  Si19  1  0.061840  0.432618  0.250000  1
  Si  Si20  1  0.567382  0.629222  0.250000  1
  Si  Si21  1  0.629222  0.061840  0.750000  1
  Si  Si22  1  0.749551  0.880498  0.750000  1
  Si  Si23  1  0.869053  0.749551  0.250000  1
  Rh  Rh24  1  0.463732  0.924908  0.750000  1
  Rh  Rh25  1  0.153792  0.414506  0.750000  1
  Rh  Rh26  1  0.260714  0.846208  0.750000  1
  Rh  Rh27  1  0.739286  0.153792  0.250000  1
  Rh  Rh28  1  0.846208  0.585494  0.250000  1
  Rh  Rh29  1  0.414506  0.260714  0.250000  1
  Rh  Rh30  1  0.652125  0.223396  0.750000  1
  Rh  Rh31  1  0.428729  0.652125  0.250000  1
  Rh  Rh32  1  0.223396  0.571271  0.250000  1
  Rh  Rh33  1  0.776604  0.428729  0.750000  1
  Rh  Rh34  1  0.571271  0.347875  0.750000  1
  Rh  Rh35  1  0.347875  0.776604  0.250000  1
  Rh  Rh36  1  0.142988  0.029141  0.750000  1
  Rh  Rh37  1  0.113847  0.142988  0.250000  1
  Rh  Rh38  1  0.029141  0.886153  0.250000  1
  Rh  Rh39  1  0.970859  0.113847  0.750000  1
  Rh  Rh40  1  0.886153  0.857012  0.750000  1
  Rh  Rh41  1  0.857012  0.970859  0.250000  1
  Rh  Rh42  1  0.924908  0.461176  0.250000  1
  Rh  Rh43  1  0.075092  0.538824  0.750000  1
  Rh  Rh44  1  0.461176  0.536268  0.750000  1
  Rh  Rh45  1  0.536268  0.075092  0.250000  1
  Rh  Rh46  1  0.728444  0.772184  0.250000  1
  Rh  Rh47  1  0.956260  0.728444  0.750000  1
  Rh  Rh48  1  0.772184  0.043740  0.750000  1
  Rh  Rh49  1  0.227816  0.956260  0.250000  1
  Rh  Rh50  1  0.043740  0.271556  0.250000  1
  Rh  Rh51  1  0.271556  0.227816  0.750000  1
  Rh  Rh52  1  0.585494  0.739286  0.750000  1
  Rh  Rh53  1  0.538824  0.463732  0.250000  1
