# generated using pymatgen
data_TiCdO3
_symmetry_space_group_name_H-M   'P 1'
_cell_length_a   5.40074740
_cell_length_b   5.52300911
_cell_length_c   7.69216267
_cell_angle_alpha   90.00000000
_cell_angle_beta   90.00000000
_cell_angle_gamma   90.00000000
_symmetry_Int_Tables_number   1
_chemical_formula_structural   TiCdO3
_chemical_formula_sum   'Ti4 Cd4 O12'
_cell_volume   229.44472877
_cell_formula_units_Z   4
loop_
 _symmetry_equiv_pos_site_id
 _symmetry_equiv_pos_as_xyz
  1  'x, y, z'
loop_
 _atom_site_type_symbol
 _atom_site_label
 _atom_site_symmetry_multiplicity
 _atom_site_fract_x
 _atom_site_fract_y
 _atom_site_fract_z
 _atom_site_occupancy
  Ti  Ti0  1  0.756571  0.668412  0.250749  1
  Ti  Ti1  1  0.243429  0.168412  0.749251  1
  Ti  Ti2  1  0.243429  0.168412  0.250749  1
  Ti  Ti3  1  0.756571  0.668412  0.749251  1
  Cd  Cd4  1  0.261003  0.694595  0.500000  1
  Cd  Cd5  1  0.738997  0.194595  0.500000  1
  Cd  Cd6  1  0.750259  0.116696  0.000000  1
  Cd  Cd7  1  0.249741  0.616696  0.000000  1
  O  O8  1  0.049850  0.841384  0.795240  1
  O  O9  1  0.950150  0.341384  0.204760  1
  O  O10  1  0.950150  0.341384  0.795240  1
  O  O11  1  0.049850  0.841384  0.204760  1
  O  O12  1  0.444575  0.439411  0.702494  1
  O  O13  1  0.555425  0.939411  0.297506  1
  O  O14  1  0.555425  0.939411  0.702494  1
  O  O15  1  0.444575  0.439411  0.297506  1
  O  O16  1  0.161993  0.110984  0.500000  1
  O  O17  1  0.838007  0.610984  0.500000  1
  O  O18  1  0.336738  0.169411  0.000000  1
  O  O19  1  0.663262  0.669411  0.000000  1
