# generated using pymatgen
data_Na3BN2
_symmetry_space_group_name_H-M   'P 1'
_cell_length_a   5.74236800
_cell_length_b   7.98222800
_cell_length_c   7.91703498
_cell_angle_alpha   90.00000000
_cell_angle_beta   111.34492161
_cell_angle_gamma   90.00000000
_symmetry_Int_Tables_number   1
_chemical_formula_structural   Na3BN2
_chemical_formula_sum   'Na12 B4 N8'
_cell_volume   338.00008563
_cell_formula_units_Z   4
loop_
 _symmetry_equiv_pos_site_id
 _symmetry_equiv_pos_as_xyz
  1  'x, y, z'
loop_
 _atom_site_type_symbol
 _atom_site_label
 _atom_site_symmetry_multiplicity
 _atom_site_fract_x
 _atom_site_fract_y
 _atom_site_fract_z
 _atom_site_occupancy
  Na  Na0  1  0.742427  0.292064  0.813316  1
  Na  Na1  1  0.257573  0.792064  0.686684  1
  Na  Na2  1  0.257573  0.707936  0.186684  1
  Na  Na3  1  0.742427  0.207936  0.313316  1
  Na  Na4  1  0.241247  0.478151  0.877862  1
  Na  Na5  1  0.758753  0.978151  0.622138  1
  Na  Na6  1  0.758753  0.521849  0.122138  1
  Na  Na7  1  0.241247  0.021849  0.377862  1
  Na  Na8  1  0.251004  0.031460  0.991949  1
  Na  Na9  1  0.748996  0.531460  0.508051  1
  Na  Na10  1  0.748996  0.968540  0.008051  1
  Na  Na11  1  0.251004  0.468540  0.491949  1
  B  B12  1  0.214081  0.321984  0.176559  1
  B  B13  1  0.785919  0.678016  0.823441  1
  B  B14  1  0.214081  0.178016  0.676559  1
  B  B15  1  0.785919  0.821984  0.323441  1
  N  N16  1  0.583651  0.924551  0.276224  1
  N  N17  1  0.010994  0.220515  0.129694  1
  N  N18  1  0.416349  0.075449  0.723776  1
  N  N19  1  0.416349  0.424551  0.223776  1
  N  N20  1  0.989006  0.720515  0.370306  1
  N  N21  1  0.989006  0.779485  0.870306  1
  N  N22  1  0.583651  0.575449  0.776224  1
  N  N23  1  0.010994  0.279485  0.629694  1
