# generated using pymatgen
data_La2(WO4)3
_symmetry_space_group_name_H-M   'P 1'
_cell_length_a   7.21170408
_cell_length_b   7.21170408
_cell_length_c   11.80975312
_cell_angle_alpha   79.31223261
_cell_angle_beta   100.68776739
_cell_angle_gamma   67.85111596
_symmetry_Int_Tables_number   1
_chemical_formula_structural   La2(WO4)3
_chemical_formula_sum   'La4 W6 O24'
_cell_volume   536.55956294
_cell_formula_units_Z   2
loop_
 _symmetry_equiv_pos_site_id
 _symmetry_equiv_pos_as_xyz
  1  'x, y, z'
loop_
 _atom_site_type_symbol
 _atom_site_label
 _atom_site_symmetry_multiplicity
 _atom_site_fract_x
 _atom_site_fract_y
 _atom_site_fract_z
 _atom_site_occupancy
  La  La0  1  0.691116  0.054917  0.903506  1
  La  La1  1  0.054917  0.691116  0.596494  1
  La  La2  1  0.308884  0.945083  0.096494  1
  La  La3  1  0.945083  0.308884  0.403506  1
  W  W4  1  0.504802  0.199823  0.545122  1
  W  W5  1  0.199823  0.504802  0.954878  1
  W  W6  1  0.495198  0.800177  0.454878  1
  W  W7  1  0.800177  0.495198  0.045122  1
  W  W8  1  0.117731  0.117731  0.750000  1
  W  W9  1  0.882269  0.882269  0.250000  1
  O  O10  1  0.903151  0.671139  0.926729  1
  O  O11  1  0.671139  0.903151  0.573271  1
  O  O12  1  0.096849  0.328861  0.073271  1
  O  O13  1  0.328861  0.096849  0.426729  1
  O  O14  1  0.374029  0.228145  0.963978  1
  O  O15  1  0.228145  0.374029  0.536022  1
  O  O16  1  0.625971  0.771855  0.036022  1
  O  O17  1  0.771855  0.625971  0.463978  1
  O  O18  1  0.640472  0.203209  0.691400  1
  O  O19  1  0.203209  0.640472  0.808600  1
  O  O20  1  0.359528  0.796791  0.308600  1
  O  O21  1  0.796791  0.359528  0.191400  1
  O  O22  1  0.396470  0.015991  0.780987  1
  O  O23  1  0.015991  0.396470  0.719013  1
  O  O24  1  0.603530  0.984009  0.219013  1
  O  O25  1  0.984009  0.603530  0.280987  1
  O  O26  1  0.679152  0.397545  0.939795  1
  O  O27  1  0.397545  0.679152  0.560205  1
  O  O28  1  0.320848  0.602455  0.060205  1
  O  O29  1  0.602455  0.320848  0.439795  1
  O  O30  1  0.051713  0.028067  0.887270  1
  O  O31  1  0.028067  0.051713  0.612730  1
  O  O32  1  0.948287  0.971933  0.112730  1
  O  O33  1  0.971933  0.948287  0.387270  1
