# generated using pymatgen
data_Bi4B2O9
_symmetry_space_group_name_H-M   'P 1'
_cell_length_a   11.21584173
_cell_length_b   6.65770561
_cell_length_c   11.27562359
_cell_angle_alpha   90.00000000
_cell_angle_beta   90.30647870
_cell_angle_gamma   90.00000000
_symmetry_Int_Tables_number   1
_chemical_formula_structural   Bi4B2O9
_chemical_formula_sum   'Bi16 B8 O36'
_cell_volume   841.95875288
_cell_formula_units_Z   4
loop_
 _symmetry_equiv_pos_site_id
 _symmetry_equiv_pos_as_xyz
  1  'x, y, z'
loop_
 _atom_site_type_symbol
 _atom_site_label
 _atom_site_symmetry_multiplicity
 _atom_site_fract_x
 _atom_site_fract_y
 _atom_site_fract_z
 _atom_site_occupancy
  Bi  Bi0  1  0.019830  0.937534  0.655831  1
  Bi  Bi1  1  0.480170  0.437534  0.344169  1
  Bi  Bi2  1  0.980170  0.062466  0.344169  1
  Bi  Bi3  1  0.519830  0.562466  0.655831  1
  Bi  Bi4  1  0.340884  0.924049  0.497181  1
  Bi  Bi5  1  0.159116  0.424049  0.502819  1
  Bi  Bi6  1  0.659116  0.075951  0.502819  1
  Bi  Bi7  1  0.840884  0.575951  0.497181  1
  Bi  Bi8  1  0.009738  0.548067  0.196025  1
  Bi  Bi9  1  0.490262  0.048067  0.803975  1
  Bi  Bi10  1  0.990262  0.451933  0.803975  1
  Bi  Bi11  1  0.509738  0.951933  0.196025  1
  Bi  Bi12  1  0.152703  0.982434  0.008466  1
  Bi  Bi13  1  0.347297  0.482434  0.991534  1
  Bi  Bi14  1  0.847297  0.017566  0.991534  1
  Bi  Bi15  1  0.652703  0.517566  0.008466  1
  B  B16  1  0.244584  0.754757  0.776049  1
  B  B17  1  0.255416  0.254757  0.223951  1
  B  B18  1  0.755416  0.245243  0.223951  1
  B  B19  1  0.744584  0.745243  0.776049  1
  B  B20  1  0.233859  0.736382  0.248339  1
  B  B21  1  0.266141  0.236382  0.751661  1
  B  B22  1  0.766141  0.263618  0.751661  1
  B  B23  1  0.733859  0.763618  0.248339  1
  O  O24  1  0.340833  0.813930  0.289124  1
  O  O25  1  0.159167  0.313930  0.710876  1
  O  O26  1  0.659167  0.186070  0.710876  1
  O  O27  1  0.840833  0.686070  0.289124  1
  O  O28  1  0.220463  0.821809  0.661634  1
  O  O29  1  0.279537  0.321809  0.338366  1
  O  O30  1  0.147942  0.738143  0.853652  1
  O  O31  1  0.779537  0.178191  0.338366  1
  O  O32  1  0.891064  0.902626  0.501266  1
  O  O33  1  0.608936  0.402626  0.498734  1
  O  O34  1  0.108936  0.097374  0.498734  1
  O  O35  1  0.391064  0.597374  0.501266  1
  O  O36  1  0.505451  0.898881  0.614474  1
  O  O37  1  0.994549  0.398881  0.385526  1
  O  O38  1  0.494549  0.101119  0.385526  1
  O  O39  1  0.005451  0.601119  0.614474  1
  O  O40  1  0.717089  0.835084  0.134430  1
  O  O41  1  0.782911  0.335084  0.865570  1
  O  O42  1  0.282911  0.164916  0.865570  1
  O  O43  1  0.217089  0.664916  0.134430  1
  O  O44  1  0.986682  0.841407  0.079116  1
  O  O45  1  0.513318  0.341407  0.920884  1
  O  O46  1  0.013318  0.158593  0.920884  1
  O  O47  1  0.486682  0.658593  0.079116  1
  O  O48  1  0.859532  0.790301  0.812751  1
  O  O49  1  0.640468  0.290301  0.187249  1
  O  O50  1  0.140468  0.209699  0.187249  1
  O  O51  1  0.359532  0.709699  0.812751  1
  O  O52  1  0.633879  0.771110  0.322557  1
  O  O53  1  0.866121  0.271110  0.677443  1
  O  O54  1  0.366121  0.228890  0.677443  1
  O  O55  1  0.133879  0.728890  0.322557  1
  O  O56  1  0.647942  0.761857  0.853652  1
  O  O57  1  0.852058  0.261857  0.146348  1
  O  O58  1  0.352058  0.238143  0.146348  1
  O  O59  1  0.720463  0.678191  0.661634  1
