# generated using pymatgen
data_Bi3B5O12
_symmetry_space_group_name_H-M   'P 1'
_cell_length_a   6.64616360
_cell_length_b   7.88841879
_cell_length_c   18.67183845
_cell_angle_alpha   90.00000000
_cell_angle_beta   90.00000000
_cell_angle_gamma   90.00000000
_symmetry_Int_Tables_number   1
_chemical_formula_structural   Bi3B5O12
_chemical_formula_sum   'Bi12 B20 O48'
_cell_volume   978.92195219
_cell_formula_units_Z   4
loop_
 _symmetry_equiv_pos_site_id
 _symmetry_equiv_pos_as_xyz
  1  'x, y, z'
loop_
 _atom_site_type_symbol
 _atom_site_label
 _atom_site_symmetry_multiplicity
 _atom_site_fract_x
 _atom_site_fract_y
 _atom_site_fract_z
 _atom_site_occupancy
  Bi  Bi0  1  0.484476  0.518521  0.404051  1
  Bi  Bi1  1  0.984476  0.981479  0.095949  1
  Bi  Bi2  1  0.515524  0.018521  0.595949  1
  Bi  Bi3  1  0.015524  0.481479  0.904051  1
  Bi  Bi4  1  0.515524  0.481479  0.595949  1
  Bi  Bi5  1  0.015524  0.018521  0.904051  1
  Bi  Bi6  1  0.484476  0.981479  0.404051  1
  Bi  Bi7  1  0.984476  0.518521  0.095949  1
  Bi  Bi8  1  0.039799  0.750000  0.314493  1
  Bi  Bi9  1  0.539799  0.750000  0.185507  1
  Bi  Bi10  1  0.960201  0.250000  0.685507  1
  Bi  Bi11  1  0.460201  0.250000  0.814493  1
  B  B12  1  0.931350  0.750000  0.610017  1
  B  B13  1  0.431350  0.750000  0.889983  1
  B  B14  1  0.068650  0.250000  0.389983  1
  B  B15  1  0.568650  0.250000  0.110017  1
  B  B16  1  0.123849  0.402774  0.270192  1
  B  B17  1  0.623849  0.097226  0.229808  1
  B  B18  1  0.876151  0.902774  0.729808  1
  B  B19  1  0.376151  0.597226  0.770192  1
  B  B20  1  0.876151  0.597226  0.729808  1
  B  B21  1  0.376151  0.902774  0.770192  1
  B  B22  1  0.123849  0.097226  0.270192  1
  B  B23  1  0.623849  0.402774  0.229808  1
  B  B24  1  0.833404  0.750000  0.480688  1
  B  B25  1  0.333404  0.750000  0.019312  1
  B  B26  1  0.166596  0.250000  0.519312  1
  B  B27  1  0.666596  0.250000  0.980688  1
  B  B28  1  0.202550  0.750000  0.512459  1
  B  B29  1  0.702550  0.750000  0.987541  1
  B  B30  1  0.797450  0.250000  0.487541  1
  B  B31  1  0.297450  0.250000  0.012459  1
  O  O32  1  0.775753  0.750000  0.552132  1
  O  O33  1  0.275753  0.750000  0.947868  1
  O  O34  1  0.224247  0.250000  0.447868  1
  O  O35  1  0.724247  0.250000  0.052132  1
  O  O36  1  0.886225  0.750000  0.767338  1
  O  O37  1  0.386225  0.750000  0.732662  1
  O  O38  1  0.113775  0.250000  0.232662  1
  O  O39  1  0.613775  0.250000  0.267338  1
  O  O40  1  0.132918  0.750000  0.586087  1
  O  O41  1  0.632918  0.750000  0.913913  1
  O  O42  1  0.867082  0.250000  0.413913  1
  O  O43  1  0.367082  0.250000  0.086087  1
  O  O44  1  0.029967  0.750000  0.460048  1
  O  O45  1  0.529967  0.750000  0.039952  1
  O  O46  1  0.970033  0.250000  0.539952  1
  O  O47  1  0.470033  0.250000  0.960048  1
  O  O48  1  0.117623  0.404779  0.344371  1
  O  O49  1  0.617623  0.095221  0.155629  1
  O  O50  1  0.882377  0.904779  0.655629  1
  O  O51  1  0.382377  0.595221  0.844371  1
  O  O52  1  0.882377  0.595221  0.655629  1
  O  O53  1  0.382377  0.904779  0.844371  1
  O  O54  1  0.117623  0.095221  0.344371  1
  O  O55  1  0.617623  0.404779  0.155629  1
  O  O56  1  0.137819  0.552596  0.234319  1
  O  O57  1  0.637819  0.947404  0.265681  1
  O  O58  1  0.862181  0.052596  0.765681  1
  O  O59  1  0.362181  0.447404  0.734319  1
  O  O60  1  0.862181  0.447404  0.765681  1
  O  O61  1  0.362181  0.052596  0.734319  1
  O  O62  1  0.137819  0.947404  0.234319  1
  O  O63  1  0.637819  0.552596  0.265681  1
  O  O64  1  0.674823  0.406262  0.499599  1
  O  O65  1  0.174824  0.093738  0.000401  1
  O  O66  1  0.325177  0.906262  0.500401  1
  O  O67  1  0.825177  0.593738  0.999599  1
  O  O68  1  0.325177  0.593738  0.500401  1
  O  O69  1  0.825177  0.906262  0.999599  1
  O  O70  1  0.674823  0.093738  0.499599  1
  O  O71  1  0.174824  0.406262  0.000401  1
  O  O72  1  0.341432  0.750000  0.351618  1
  O  O73  1  0.841432  0.750000  0.148382  1
  O  O74  1  0.658568  0.250000  0.648382  1
  O  O75  1  0.158568  0.250000  0.851618  1
  O  O76  1  0.689722  0.750000  0.425545  1
  O  O77  1  0.189722  0.750000  0.074455  1
  O  O78  1  0.310278  0.250000  0.574455  1
  O  O79  1  0.810278  0.250000  0.925545  1
