# generated using pymatgen
data_GeRh
_symmetry_space_group_name_H-M   'P 1'
_cell_length_a   3.28237106
_cell_length_b   5.74923346
_cell_length_c   6.56726173
_cell_angle_alpha   90.00000000
_cell_angle_beta   90.00000000
_cell_angle_gamma   90.00000000
_symmetry_Int_Tables_number   1
_chemical_formula_structural   GeRh
_chemical_formula_sum   'Ge4 Rh4'
_cell_volume   123.93156793
_cell_formula_units_Z   4
loop_
 _symmetry_equiv_pos_site_id
 _symmetry_equiv_pos_as_xyz
  1  'x, y, z'
loop_
 _atom_site_type_symbol
 _atom_site_label
 _atom_site_symmetry_multiplicity
 _atom_site_fract_x
 _atom_site_fract_y
 _atom_site_fract_z
 _atom_site_occupancy
  Ge  Ge0  1  0.750000  0.807282  0.438695  1
  Ge  Ge1  1  0.250000  0.192718  0.561305  1
  Ge  Ge2  1  0.750000  0.307282  0.061305  1
  Ge  Ge3  1  0.250000  0.692718  0.938695  1
  Rh  Rh4  1  0.750000  0.996021  0.796814  1
  Rh  Rh5  1  0.250000  0.003979  0.203186  1
  Rh  Rh6  1  0.750000  0.496021  0.703186  1
  Rh  Rh7  1  0.250000  0.503979  0.296814  1
