# generated using pymatgen
data_Ti3Cu3O
_symmetry_space_group_name_H-M   'P 1'
_cell_length_a   7.94717499
_cell_length_b   7.94717499
_cell_length_c   7.94717499
_cell_angle_alpha   60.00000000
_cell_angle_beta   60.00000000
_cell_angle_gamma   60.00000000
_symmetry_Int_Tables_number   1
_chemical_formula_structural   Ti3Cu3O
_chemical_formula_sum   'Ti12 Cu12 O4'
_cell_volume   354.91416277
_cell_formula_units_Z   4
loop_
 _symmetry_equiv_pos_site_id
 _symmetry_equiv_pos_as_xyz
  1  'x, y, z'
loop_
 _atom_site_type_symbol
 _atom_site_label
 _atom_site_symmetry_multiplicity
 _atom_site_fract_x
 _atom_site_fract_y
 _atom_site_fract_z
 _atom_site_occupancy
  Ti  Ti0  1  0.435779  0.064221  0.435779  1
  Ti  Ti1  1  0.814221  0.814221  0.185779  1
  Ti  Ti2  1  0.064221  0.064221  0.435779  1
  Ti  Ti3  1  0.064221  0.435779  0.064221  1
  Ti  Ti4  1  0.185779  0.185779  0.814221  1
  Ti  Ti5  1  0.435779  0.435779  0.064221  1
  Ti  Ti6  1  0.814221  0.185779  0.185779  1
  Ti  Ti7  1  0.064221  0.435779  0.435779  1
  Ti  Ti8  1  0.185779  0.814221  0.814221  1
  Ti  Ti9  1  0.185779  0.814221  0.185779  1
  Ti  Ti10  1  0.435779  0.064221  0.064221  1
  Ti  Ti11  1  0.814221  0.185779  0.814221  1
  Cu  Cu12  1  0.415308  0.415308  0.754076  1
  Cu  Cu13  1  0.495924  0.834692  0.834692  1
  Cu  Cu14  1  0.834692  0.834692  0.834692  1
  Cu  Cu15  1  0.415308  0.754076  0.415308  1
  Cu  Cu16  1  0.754076  0.415308  0.415308  1
  Cu  Cu17  1  0.834692  0.834692  0.495924  1
  Cu  Cu18  1  0.415308  0.415308  0.415308  1
  Cu  Cu19  1  0.834692  0.495924  0.834692  1
  Cu  Cu20  1  0.625000  0.125000  0.625000  1
  Cu  Cu21  1  0.625000  0.625000  0.625000  1
  Cu  Cu22  1  0.625000  0.625000  0.125000  1
  Cu  Cu23  1  0.125000  0.625000  0.625000  1
  O  O24  1  0.125000  0.625000  0.125000  1
  O  O25  1  0.125000  0.125000  0.125000  1
  O  O26  1  0.125000  0.125000  0.625000  1
  O  O27  1  0.625000  0.125000  0.125000  1
