# generated using pymatgen
data_Sc3P2
_symmetry_space_group_name_H-M   'P 1'
_cell_length_a   3.72389561
_cell_length_b   10.06845270
_cell_length_c   10.16332390
_cell_angle_alpha   90.00000000
_cell_angle_beta   90.00000000
_cell_angle_gamma   90.00000000
_symmetry_Int_Tables_number   1
_chemical_formula_structural   Sc3P2
_chemical_formula_sum   'Sc12 P8'
_cell_volume   381.06231264
_cell_formula_units_Z   4
loop_
 _symmetry_equiv_pos_site_id
 _symmetry_equiv_pos_as_xyz
  1  'x, y, z'
loop_
 _atom_site_type_symbol
 _atom_site_label
 _atom_site_symmetry_multiplicity
 _atom_site_fract_x
 _atom_site_fract_y
 _atom_site_fract_z
 _atom_site_occupancy
  Sc  Sc0  1  0.250000  0.801117  0.222940  1
  Sc  Sc1  1  0.750000  0.198883  0.777060  1
  Sc  Sc2  1  0.250000  0.698883  0.722940  1
  Sc  Sc3  1  0.750000  0.301117  0.277060  1
  Sc  Sc4  1  0.750000  0.563005  0.125027  1
  Sc  Sc5  1  0.250000  0.436995  0.874973  1
  Sc  Sc6  1  0.750000  0.936995  0.625027  1
  Sc  Sc7  1  0.250000  0.063005  0.374973  1
  Sc  Sc8  1  0.750000  0.632286  0.452654  1
  Sc  Sc9  1  0.250000  0.367714  0.547346  1
  Sc  Sc10  1  0.750000  0.867714  0.952654  1
  Sc  Sc11  1  0.250000  0.132286  0.047346  1
  P  P12  1  0.750000  0.319149  0.010940  1
  P  P13  1  0.250000  0.680851  0.989060  1
  P  P14  1  0.750000  0.180851  0.510940  1
  P  P15  1  0.250000  0.819149  0.489060  1
  P  P16  1  0.750000  0.997192  0.186113  1
  P  P17  1  0.250000  0.002808  0.813887  1
  P  P18  1  0.750000  0.502808  0.686113  1
  P  P19  1  0.250000  0.497192  0.313887  1
