# generated using pymatgen
data_Ca2MnGaO5
_symmetry_space_group_name_H-M   'P 1'
_cell_length_a   8.49397228
_cell_length_b   8.49397228
_cell_length_c   8.49397228
_cell_angle_alpha   143.00492289
_cell_angle_beta   141.28294448
_cell_angle_gamma   54.62457709
_symmetry_Int_Tables_number   1
_chemical_formula_structural   Ca2MnGaO5
_chemical_formula_sum   'Ca4 Mn2 Ga2 O10'
_cell_volume   229.05245700
_cell_formula_units_Z   2
loop_
 _symmetry_equiv_pos_site_id
 _symmetry_equiv_pos_as_xyz
  1  'x, y, z'
loop_
 _atom_site_type_symbol
 _atom_site_label
 _atom_site_symmetry_multiplicity
 _atom_site_fract_x
 _atom_site_fract_y
 _atom_site_fract_z
 _atom_site_occupancy
  Ca  Ca0  1  0.419098  0.389557  0.027997  1
  Ca  Ca1  1  0.580902  0.608899  0.970458  1
  Ca  Ca2  1  0.861560  0.889557  0.970458  1
  Ca  Ca3  1  0.138440  0.108899  0.027997  1
  Mn  Mn4  1  0.500000  0.986057  0.486057  1
  Mn  Mn5  1  1.000000  0.486057  0.486057  1
  Ga  Ga6  1  0.181698  0.778755  0.460453  1
  Ga  Ga7  1  0.818302  0.278755  0.597057  1
  O  O8  1  0.128582  0.132589  0.761171  1
  O  O9  1  0.871418  0.632589  0.004008  1
  O  O10  1  0.217528  0.591998  0.520793  1
  O  O11  1  0.782472  0.303265  0.374470  1
  O  O12  1  0.571205  0.091998  0.374470  1
  O  O13  1  0.428795  0.803265  0.520793  1
  O  O14  1  0.240177  0.223729  0.491504  1
  O  O15  1  0.759823  0.251328  0.983552  1
  O  O16  1  0.767775  0.751328  0.491504  1
  O  O17  1  0.232225  0.723729  0.983552  1
