# generated using pymatgen
data_PbWO4
_symmetry_space_group_name_H-M   'P 1'
_cell_length_a   7.28151659
_cell_length_b   7.28151659
_cell_length_c   7.28151659
_cell_angle_alpha   135.04302337
_cell_angle_beta   135.04302337
_cell_angle_gamma   65.46335824
_symmetry_Int_Tables_number   1
_chemical_formula_structural   PbWO4
_chemical_formula_sum   'Pb2 W2 O8'
_cell_volume   189.89894656
_cell_formula_units_Z   2
loop_
 _symmetry_equiv_pos_site_id
 _symmetry_equiv_pos_as_xyz
  1  'x, y, z'
loop_
 _atom_site_type_symbol
 _atom_site_label
 _atom_site_symmetry_multiplicity
 _atom_site_fract_x
 _atom_site_fract_y
 _atom_site_fract_z
 _atom_site_occupancy
  Pb  Pb0  1  0.000000  0.000000  0.000000  1
  Pb  Pb1  1  0.750000  0.250000  0.500000  1
  W  W2  1  0.500000  0.500000  0.000000  1
  W  W3  1  0.250000  0.750000  0.500000  1
  O  O4  1  0.442139  0.817379  0.095040  1
  O  O5  1  0.567379  0.972339  0.875240  1
  O  O6  1  0.097098  0.692139  0.124760  1
  O  O7  1  0.722339  0.347098  0.904960  1
  O  O8  1  0.027661  0.902902  0.595040  1
  O  O9  1  0.652902  0.557861  0.375240  1
  O  O10  1  0.182621  0.277661  0.624760  1
  O  O11  1  0.307861  0.432621  0.404960  1
