# generated using pymatgen
data_In(FeO2)2
_symmetry_space_group_name_H-M   'P 1'
_cell_length_a   8.91142941
_cell_length_b   8.91142941
_cell_length_c   8.91142941
_cell_angle_alpha   22.01095219
_cell_angle_beta   22.01095219
_cell_angle_gamma   22.01095219
_symmetry_Int_Tables_number   1
_chemical_formula_structural   In(FeO2)2
_chemical_formula_sum   'In1 Fe2 O4'
_cell_volume   87.14467088
_cell_formula_units_Z   1
loop_
 _symmetry_equiv_pos_site_id
 _symmetry_equiv_pos_as_xyz
  1  'x, y, z'
loop_
 _atom_site_type_symbol
 _atom_site_label
 _atom_site_symmetry_multiplicity
 _atom_site_fract_x
 _atom_site_fract_y
 _atom_site_fract_z
 _atom_site_occupancy
  In  In0  1  0.000000  0.000000  0.000000  1
  Fe  Fe1  1  0.214931  0.214931  0.214931  1
  Fe  Fe2  1  0.785069  0.785069  0.785069  1
  O  O3  1  0.292167  0.292167  0.292167  1
  O  O4  1  0.707833  0.707833  0.707833  1
  O  O5  1  0.129405  0.129405  0.129405  1
  O  O6  1  0.870595  0.870595  0.870595  1
