# generated using pymatgen
data_CdH4NCl3
_symmetry_space_group_name_H-M   'P 1'
_cell_length_a   4.08739220
_cell_length_b   9.32445852
_cell_length_c   14.92120356
_cell_angle_alpha   90.00000000
_cell_angle_beta   90.00000000
_cell_angle_gamma   90.00000000
_symmetry_Int_Tables_number   1
_chemical_formula_structural   CdH4NCl3
_chemical_formula_sum   'Cd4 H16 N4 Cl12'
_cell_volume   568.68763878
_cell_formula_units_Z   4
loop_
 _symmetry_equiv_pos_site_id
 _symmetry_equiv_pos_as_xyz
  1  'x, y, z'
loop_
 _atom_site_type_symbol
 _atom_site_label
 _atom_site_symmetry_multiplicity
 _atom_site_fract_x
 _atom_site_fract_y
 _atom_site_fract_z
 _atom_site_occupancy
  Cd  Cd0  1  0.750000  0.337163  0.440467  1
  Cd  Cd1  1  0.250000  0.662837  0.559533  1
  Cd  Cd2  1  0.750000  0.837163  0.059533  1
  Cd  Cd3  1  0.250000  0.162837  0.940467  1
  H  H4  1  0.452168  0.883099  0.305853  1
  H  H5  1  0.952168  0.116901  0.694147  1
  H  H6  1  0.047832  0.383099  0.194147  1
  H  H7  1  0.547832  0.616901  0.805853  1
  H  H8  1  0.547832  0.116901  0.694147  1
  H  H9  1  0.047832  0.883099  0.305853  1
  H  H10  1  0.952168  0.616901  0.805853  1
  H  H11  1  0.452168  0.383099  0.194147  1
  H  H12  1  0.750000  0.965202  0.720592  1
  H  H13  1  0.250000  0.034798  0.279408  1
  H  H14  1  0.750000  0.465202  0.779408  1
  H  H15  1  0.250000  0.534798  0.220592  1
  H  H16  1  0.750000  0.018938  0.613313  1
  H  H17  1  0.250000  0.981062  0.386687  1
  H  H18  1  0.750000  0.518938  0.886687  1
  H  H19  1  0.250000  0.481062  0.113313  1
  N  N20  1  0.250000  0.446270  0.179165  1
  N  N21  1  0.750000  0.553730  0.820835  1
  N  N22  1  0.250000  0.946270  0.320835  1
  N  N23  1  0.750000  0.053730  0.679165  1
  Cl  Cl24  1  0.750000  0.234726  0.279801  1
  Cl  Cl25  1  0.250000  0.765274  0.720199  1
  Cl  Cl26  1  0.750000  0.734726  0.220199  1
  Cl  Cl27  1  0.250000  0.265274  0.779801  1
  Cl  Cl28  1  0.250000  0.172003  0.495481  1
  Cl  Cl29  1  0.750000  0.827997  0.504519  1
  Cl  Cl30  1  0.250000  0.672003  0.004519  1
  Cl  Cl31  1  0.750000  0.327997  0.995481  1
  Cl  Cl32  1  0.750000  0.474057  0.598468  1
  Cl  Cl33  1  0.250000  0.525943  0.401532  1
  Cl  Cl34  1  0.750000  0.974057  0.901532  1
  Cl  Cl35  1  0.250000  0.025943  0.098468  1
