# generated using pymatgen
data_Te3(PbO4)2
_symmetry_space_group_name_H-M   'P 1'
_cell_length_a   10.68551443
_cell_length_b   10.68551443
_cell_length_c   19.23715940
_cell_angle_alpha   90.00000000
_cell_angle_beta   90.00000000
_cell_angle_gamma   140.47416977
_symmetry_Int_Tables_number   1
_chemical_formula_structural   Te3(PbO4)2
_chemical_formula_sum   'Te18 Pb12 O48'
_cell_volume   1397.91170778
_cell_formula_units_Z   6
loop_
 _symmetry_equiv_pos_site_id
 _symmetry_equiv_pos_as_xyz
  1  'x, y, z'
loop_
 _atom_site_type_symbol
 _atom_site_label
 _atom_site_symmetry_multiplicity
 _atom_site_fract_x
 _atom_site_fract_y
 _atom_site_fract_z
 _atom_site_occupancy
  Te  Te0  1  0.176028  0.948574  0.250000  1
  Te  Te1  1  0.948574  0.176028  0.250000  1
  Te  Te2  1  0.823972  0.051426  0.750000  1
  Te  Te3  1  0.051426  0.823972  0.750000  1
  Te  Te4  1  0.535850  0.769288  0.583676  1
  Te  Te5  1  0.769288  0.535850  0.916324  1
  Te  Te6  1  0.464150  0.230712  0.083676  1
  Te  Te7  1  0.230712  0.464150  0.416324  1
  Te  Te8  1  0.464150  0.230712  0.416324  1
  Te  Te9  1  0.230712  0.464150  0.083676  1
  Te  Te10  1  0.535850  0.769288  0.916324  1
  Te  Te11  1  0.769288  0.535850  0.583676  1
  Te  Te12  1  0.794659  0.794659  0.074874  1
  Te  Te13  1  0.794659  0.794659  0.425126  1
  Te  Te14  1  0.205341  0.205341  0.574874  1
  Te  Te15  1  0.205341  0.205341  0.925126  1
  Te  Te16  1  0.603054  0.603054  0.250000  1
  Te  Te17  1  0.396946  0.396946  0.750000  1
  Pb  Pb18  1  0.318706  0.698157  0.250000  1
  Pb  Pb19  1  0.698157  0.318706  0.250000  1
  Pb  Pb20  1  0.681294  0.301843  0.750000  1
  Pb  Pb21  1  0.301843  0.681294  0.750000  1
  Pb  Pb22  1  0.936636  0.318140  0.589692  1
  Pb  Pb23  1  0.318140  0.936636  0.910308  1
  Pb  Pb24  1  0.063364  0.681860  0.089692  1
  Pb  Pb25  1  0.681860  0.063364  0.410308  1
  Pb  Pb26  1  0.063364  0.681860  0.410308  1
  Pb  Pb27  1  0.681860  0.063364  0.089692  1
  Pb  Pb28  1  0.936636  0.318140  0.910308  1
  Pb  Pb29  1  0.318140  0.936636  0.589692  1
  O  O30  1  0.014257  0.679097  0.250000  1
  O  O31  1  0.679097  0.014257  0.250000  1
  O  O32  1  0.985743  0.320903  0.750000  1
  O  O33  1  0.320903  0.985743  0.750000  1
  O  O34  1  0.509445  0.365511  0.250000  1
  O  O35  1  0.365511  0.509445  0.250000  1
  O  O36  1  0.490555  0.634489  0.750000  1
  O  O37  1  0.634489  0.490555  0.750000  1
  O  O38  1  0.000123  0.144336  0.886644  1
  O  O39  1  0.144336  0.000123  0.613356  1
  O  O40  1  0.999877  0.855664  0.386644  1
  O  O41  1  0.855664  0.999877  0.113356  1
  O  O42  1  0.999877  0.855664  0.113356  1
  O  O43  1  0.855664  0.999877  0.386644  1
  O  O44  1  0.000123  0.144336  0.613356  1
  O  O45  1  0.144336  0.000123  0.886644  1
  O  O46  1  0.292466  0.645366  0.615800  1
  O  O47  1  0.645366  0.292466  0.884200  1
  O  O48  1  0.707534  0.354634  0.115800  1
  O  O49  1  0.354634  0.707534  0.384200  1
  O  O50  1  0.707534  0.354634  0.384200  1
  O  O51  1  0.354634  0.707534  0.115800  1
  O  O52  1  0.292466  0.645366  0.884200  1
  O  O53  1  0.645366  0.292466  0.615800  1
  O  O54  1  0.649752  0.978003  0.678552  1
  O  O55  1  0.978003  0.649752  0.821448  1
  O  O56  1  0.350248  0.021997  0.178552  1
  O  O57  1  0.021997  0.350248  0.321448  1
  O  O58  1  0.350248  0.021997  0.321448  1
  O  O59  1  0.021997  0.350248  0.178552  1
  O  O60  1  0.414507  0.414507  0.863385  1
  O  O61  1  0.414507  0.414507  0.636615  1
  O  O62  1  0.585493  0.585493  0.363385  1
  O  O63  1  0.585493  0.585493  0.136615  1
  O  O64  1  0.587434  0.412566  0.500000  1
  O  O65  1  0.412566  0.587434  1.000000  1
  O  O66  1  0.412566  0.587434  0.500000  1
  O  O67  1  0.587434  0.412566  0.000000  1
  O  O68  1  0.980476  0.625719  0.532395  1
  O  O69  1  0.625719  0.980476  0.967605  1
  O  O70  1  0.019524  0.374281  0.032395  1
  O  O71  1  0.374281  0.019524  0.467605  1
  O  O72  1  0.019524  0.374281  0.467605  1
  O  O73  1  0.374281  0.019524  0.032395  1
  O  O74  1  0.980476  0.625719  0.967605  1
  O  O75  1  0.625719  0.980476  0.532395  1
  O  O76  1  0.978003  0.649752  0.678552  1
  O  O77  1  0.649752  0.978003  0.821448  1
