# generated using pymatgen
data_NaAlI4
_symmetry_space_group_name_H-M   'P 1'
_cell_length_a   8.39506479
_cell_length_b   8.47068885
_cell_length_c   15.16941469
_cell_angle_alpha   90.00000000
_cell_angle_beta   90.00000000
_cell_angle_gamma   90.00000000
_symmetry_Int_Tables_number   1
_chemical_formula_structural   NaAlI4
_chemical_formula_sum   'Na4 Al4 I16'
_cell_volume   1078.72714001
_cell_formula_units_Z   4
loop_
 _symmetry_equiv_pos_site_id
 _symmetry_equiv_pos_as_xyz
  1  'x, y, z'
loop_
 _atom_site_type_symbol
 _atom_site_label
 _atom_site_symmetry_multiplicity
 _atom_site_fract_x
 _atom_site_fract_y
 _atom_site_fract_z
 _atom_site_occupancy
  Na  Na0  1  0.250000  0.445924  0.650489  1
  Na  Na1  1  0.750000  0.945924  0.849511  1
  Na  Na2  1  0.750000  0.554076  0.349511  1
  Na  Na3  1  0.250000  0.054076  0.150489  1
  Al  Al4  1  0.250000  0.303296  0.398225  1
  Al  Al5  1  0.750000  0.803296  0.101775  1
  Al  Al6  1  0.750000  0.696704  0.601775  1
  Al  Al7  1  0.250000  0.196704  0.898225  1
  I  I8  1  0.250000  0.127968  0.534825  1
  I  I9  1  0.750000  0.627968  0.965175  1
  I  I10  1  0.750000  0.872032  0.465175  1
  I  I11  1  0.250000  0.372032  0.034825  1
  I  I12  1  0.250000  0.907100  0.947775  1
  I  I13  1  0.750000  0.407100  0.552225  1
  I  I14  1  0.750000  0.092900  0.052225  1
  I  I15  1  0.250000  0.592900  0.447775  1
  I  I16  1  0.994264  0.755532  0.699866  1
  I  I17  1  0.005736  0.255532  0.800134  1
  I  I18  1  0.494264  0.244468  0.300134  1
  I  I19  1  0.505736  0.744468  0.199866  1
  I  I20  1  0.005736  0.244468  0.300134  1
  I  I21  1  0.994264  0.744468  0.199866  1
  I  I22  1  0.505736  0.755532  0.699866  1
  I  I23  1  0.494264  0.255532  0.800134  1
