# generated using pymatgen
data_DyCoSn
_symmetry_space_group_name_H-M   'P 1'
_cell_length_a   4.58150871
_cell_length_b   7.23464515
_cell_length_c   7.35652750
_cell_angle_alpha   90.00000000
_cell_angle_beta   90.00000000
_cell_angle_gamma   90.00000000
_symmetry_Int_Tables_number   1
_chemical_formula_structural   DyCoSn
_chemical_formula_sum   'Dy4 Co4 Sn4'
_cell_volume   243.83644264
_cell_formula_units_Z   4
loop_
 _symmetry_equiv_pos_site_id
 _symmetry_equiv_pos_as_xyz
  1  'x, y, z'
loop_
 _atom_site_type_symbol
 _atom_site_label
 _atom_site_symmetry_multiplicity
 _atom_site_fract_x
 _atom_site_fract_y
 _atom_site_fract_z
 _atom_site_occupancy
  Dy  Dy0  1  0.750000  0.698547  0.525514  1
  Dy  Dy1  1  0.250000  0.301453  0.474486  1
  Dy  Dy2  1  0.750000  0.801453  0.025514  1
  Dy  Dy3  1  0.250000  0.198547  0.974486  1
  Co  Co4  1  0.250000  0.942332  0.648116  1
  Co  Co5  1  0.750000  0.442332  0.851884  1
  Co  Co6  1  0.250000  0.557668  0.148116  1
  Co  Co7  1  0.750000  0.057668  0.351884  1
  Sn  Sn8  1  0.750000  0.389161  0.202867  1
  Sn  Sn9  1  0.250000  0.889161  0.297133  1
  Sn  Sn10  1  0.750000  0.110839  0.702867  1
  Sn  Sn11  1  0.250000  0.610839  0.797133  1
