# generated using pymatgen
data_PtPb2
_symmetry_space_group_name_H-M   'P 1'
_cell_length_a   5.80672391
_cell_length_b   5.80672391
_cell_length_c   5.80672391
_cell_angle_alpha   104.58950095
_cell_angle_beta   104.58950095
_cell_angle_gamma   119.74996305
_symmetry_Int_Tables_number   1
_chemical_formula_structural   PtPb2
_chemical_formula_sum   'Pt2 Pb4'
_cell_volume   147.02629749
_cell_formula_units_Z   2
loop_
 _symmetry_equiv_pos_site_id
 _symmetry_equiv_pos_as_xyz
  1  'x, y, z'
loop_
 _atom_site_type_symbol
 _atom_site_label
 _atom_site_symmetry_multiplicity
 _atom_site_fract_x
 _atom_site_fract_y
 _atom_site_fract_z
 _atom_site_occupancy
  Pt  Pt0  1  0.250000  0.250000  0.000000  1
  Pt  Pt1  1  0.750000  0.750000  0.000000  1
  Pb  Pb2  1  0.160920  0.660920  0.821840  1
  Pb  Pb3  1  0.339080  0.160920  0.500000  1
  Pb  Pb4  1  0.660920  0.839080  0.500000  1
  Pb  Pb5  1  0.839080  0.339080  0.178160  1
