# generated using pymatgen
data_LiSn4Ru
_symmetry_space_group_name_H-M   'P 1'
_cell_length_a   7.38612303
_cell_length_b   7.38612303
_cell_length_c   7.38612303
_cell_angle_alpha   125.91694874
_cell_angle_beta   125.91694874
_cell_angle_gamma   80.02468333
_symmetry_Int_Tables_number   1
_chemical_formula_structural   LiSn4Ru
_chemical_formula_sum   'Li2 Sn8 Ru2'
_cell_volume   255.16022652
_cell_formula_units_Z   2
loop_
 _symmetry_equiv_pos_site_id
 _symmetry_equiv_pos_as_xyz
  1  'x, y, z'
loop_
 _atom_site_type_symbol
 _atom_site_label
 _atom_site_symmetry_multiplicity
 _atom_site_fract_x
 _atom_site_fract_y
 _atom_site_fract_z
 _atom_site_occupancy
  Li  Li0  1  0.000000  0.000000  0.000000  1
  Li  Li1  1  0.500000  0.500000  0.000000  1
  Sn  Sn2  1  0.702562  0.522685  0.500000  1
  Sn  Sn3  1  0.522685  0.022685  0.820123  1
  Sn  Sn4  1  0.202562  0.702562  0.179877  1
  Sn  Sn5  1  0.797438  0.297438  0.820123  1
  Sn  Sn6  1  0.477315  0.977315  0.179877  1
  Sn  Sn7  1  0.297438  0.477315  0.500000  1
  Sn  Sn8  1  0.977315  0.797438  0.500000  1
  Sn  Sn9  1  0.022685  0.202562  0.500000  1
  Ru  Ru10  1  0.250000  0.250000  0.000000  1
  Ru  Ru11  1  0.750000  0.750000  0.000000  1
