# generated using pymatgen
data_Na3In2(AsO4)3
_symmetry_space_group_name_H-M   'P 1'
_cell_length_a   9.28109469
_cell_length_b   9.28109469
_cell_length_c   6.97385955
_cell_angle_alpha   73.77617770
_cell_angle_beta   106.22382230
_cell_angle_gamma   87.22167058
_symmetry_Int_Tables_number   1
_chemical_formula_structural   Na3In2(AsO4)3
_chemical_formula_sum   'Na6 In4 As6 O24'
_cell_volume   548.58706481
_cell_formula_units_Z   2
loop_
 _symmetry_equiv_pos_site_id
 _symmetry_equiv_pos_as_xyz
  1  'x, y, z'
loop_
 _atom_site_type_symbol
 _atom_site_label
 _atom_site_symmetry_multiplicity
 _atom_site_fract_x
 _atom_site_fract_y
 _atom_site_fract_z
 _atom_site_occupancy
  Na  Na0  1  0.500000  0.500000  0.000000  1
  Na  Na1  1  0.275959  0.275959  0.250000  1
  Na  Na2  1  0.004643  0.004643  0.250000  1
  Na  Na3  1  0.995357  0.995357  0.750000  1
  Na  Na4  1  0.724041  0.724041  0.750000  1
  Na  Na5  1  0.500000  0.500000  0.500000  1
  In  In6  1  0.378718  0.933962  0.145411  1
  In  In7  1  0.066038  0.621282  0.645411  1
  In  In8  1  0.621282  0.066038  0.854589  1
  In  In9  1  0.933962  0.378718  0.354589  1
  As  As10  1  0.864145  0.342707  0.867734  1
  As  As11  1  0.723454  0.723454  0.250000  1
  As  As12  1  0.657293  0.135855  0.367734  1
  As  As13  1  0.276546  0.276546  0.750000  1
  As  As14  1  0.135855  0.657293  0.132266  1
  As  As15  1  0.342707  0.864145  0.632266  1
  O  O16  1  0.154897  0.838668  0.614798  1
  O  O17  1  0.000881  0.668467  0.898380  1
  O  O18  1  0.838668  0.154897  0.885202  1
  O  O19  1  0.668467  0.000881  0.601620  1
  O  O20  1  0.751289  0.844917  0.030297  1
  O  O21  1  0.702677  0.456198  0.817809  1
  O  O22  1  0.408886  0.947878  0.831086  1
  O  O23  1  0.331533  0.999119  0.398380  1
  O  O24  1  0.947878  0.408886  0.668914  1
  O  O25  1  0.456239  0.262583  0.724194  1
  O  O26  1  0.591114  0.052122  0.168914  1
  O  O27  1  0.262583  0.456239  0.775806  1
  O  O28  1  0.845103  0.161332  0.385202  1
  O  O29  1  0.052123  0.591114  0.331086  1
  O  O30  1  0.297323  0.543802  0.182191  1
  O  O31  1  0.737417  0.543761  0.224194  1
  O  O32  1  0.155083  0.248711  0.530297  1
  O  O33  1  0.844917  0.751289  0.469703  1
  O  O34  1  0.999119  0.331533  0.101620  1
  O  O35  1  0.543802  0.297323  0.317809  1
  O  O36  1  0.543761  0.737417  0.275806  1
  O  O37  1  0.161332  0.845103  0.114798  1
  O  O38  1  0.248711  0.155083  0.969703  1
  O  O39  1  0.456198  0.702677  0.682191  1
