# generated using pymatgen
data_La5B4N9
_symmetry_space_group_name_H-M   'P 1'
_cell_length_a   7.71945630
_cell_length_b   9.81428381
_cell_length_c   12.65820456
_cell_angle_alpha   90.00000000
_cell_angle_beta   90.00000000
_cell_angle_gamma   90.00000000
_symmetry_Int_Tables_number   1
_chemical_formula_structural   La5B4N9
_chemical_formula_sum   'La20 B16 N36'
_cell_volume   958.99741272
_cell_formula_units_Z   4
loop_
 _symmetry_equiv_pos_site_id
 _symmetry_equiv_pos_as_xyz
  1  'x, y, z'
loop_
 _atom_site_type_symbol
 _atom_site_label
 _atom_site_symmetry_multiplicity
 _atom_site_fract_x
 _atom_site_fract_y
 _atom_site_fract_z
 _atom_site_occupancy
  La  La0  1  0.996413  0.345866  0.085266  1
  La  La1  1  0.496413  0.654134  0.914734  1
  La  La2  1  0.003587  0.345866  0.414734  1
  La  La3  1  0.503587  0.654134  0.585266  1
  La  La4  1  0.003587  0.654134  0.914734  1
  La  La5  1  0.503587  0.345866  0.085266  1
  La  La6  1  0.996413  0.654134  0.585266  1
  La  La7  1  0.496413  0.345866  0.414734  1
  La  La8  1  0.500000  0.010419  0.250000  1
  La  La9  1  0.000000  0.989581  0.750000  1
  La  La10  1  0.500000  0.989581  0.750000  1
  La  La11  1  0.000000  0.010419  0.250000  1
  La  La12  1  0.250000  0.994991  0.995282  1
  La  La13  1  0.750000  0.005009  0.004718  1
  La  La14  1  0.750000  0.994991  0.504718  1
  La  La15  1  0.250000  0.005009  0.495282  1
  La  La16  1  0.250000  0.360247  0.678168  1
  La  La17  1  0.750000  0.639753  0.321832  1
  La  La18  1  0.750000  0.360247  0.821832  1
  La  La19  1  0.250000  0.639753  0.178168  1
  B  B20  1  0.750000  0.433936  0.585443  1
  B  B21  1  0.093546  0.225707  0.870847  1
  B  B22  1  0.593546  0.774293  0.129153  1
  B  B23  1  0.906454  0.225707  0.629153  1
  B  B24  1  0.406454  0.774293  0.370847  1
  B  B25  1  0.906454  0.774293  0.129153  1
  B  B26  1  0.406454  0.225707  0.870847  1
  B  B27  1  0.093546  0.774293  0.370847  1
  B  B28  1  0.593546  0.225707  0.629153  1
  B  B29  1  0.250000  0.433936  0.914557  1
  B  B30  1  0.750000  0.566064  0.085443  1
  B  B31  1  0.250000  0.566064  0.414557  1
  B  B32  1  0.250000  0.755236  0.741321  1
  B  B33  1  0.750000  0.244764  0.258679  1
  B  B34  1  0.750000  0.755236  0.758679  1
  B  B35  1  0.250000  0.244764  0.241321  1
  N  N36  1  0.250000  0.607074  0.726368  1
  N  N37  1  0.250000  0.533773  0.998316  1
  N  N38  1  0.960097  0.858597  0.413215  1
  N  N39  1  0.460097  0.141403  0.586785  1
  N  N40  1  0.539903  0.858597  0.413215  1
  N  N41  1  0.039903  0.141403  0.586785  1
  N  N42  1  0.460097  0.858597  0.086785  1
  N  N43  1  0.960097  0.141403  0.913215  1
  N  N44  1  0.582655  0.375768  0.620112  1
  N  N45  1  0.039903  0.858597  0.086785  1
  N  N46  1  0.082655  0.624232  0.379888  1
  N  N47  1  0.417345  0.375768  0.879888  1
  N  N48  1  0.917345  0.624232  0.120112  1
  N  N49  1  0.417345  0.624232  0.379888  1
  N  N50  1  0.917345  0.375768  0.620112  1
  N  N51  1  0.582655  0.624232  0.120112  1
  N  N52  1  0.082655  0.375768  0.879888  1
  N  N53  1  0.250000  0.392926  0.226368  1
  N  N54  1  0.750000  0.607074  0.773632  1
  N  N55  1  0.750000  0.392926  0.273632  1
  N  N56  1  0.250000  0.159234  0.823905  1
  N  N57  1  0.750000  0.840766  0.176095  1
  N  N58  1  0.750000  0.159234  0.676095  1
  N  N59  1  0.250000  0.840766  0.323905  1
  N  N60  1  0.250000  0.179014  0.347166  1
  N  N61  1  0.750000  0.820986  0.652834  1
  N  N62  1  0.750000  0.179014  0.152834  1
  N  N63  1  0.250000  0.820986  0.847166  1
  N  N64  1  0.250000  0.154633  0.146465  1
  N  N65  1  0.750000  0.845367  0.853535  1
  N  N66  1  0.750000  0.154633  0.353535  1
  N  N67  1  0.250000  0.845367  0.646465  1
  N  N68  1  0.250000  0.466227  0.498316  1
  N  N69  1  0.750000  0.533773  0.501684  1
  N  N70  1  0.750000  0.466227  0.001684  1
  N  N71  1  0.539903  0.141403  0.913215  1
