# generated using pymatgen
data_CeDyS3
_symmetry_space_group_name_H-M   'P 1'
_cell_length_a   3.98318330
_cell_length_b   7.38631210
_cell_length_c   15.29016281
_cell_angle_alpha   90.00000000
_cell_angle_beta   90.00000000
_cell_angle_gamma   90.00000000
_symmetry_Int_Tables_number   1
_chemical_formula_structural   CeDyS3
_chemical_formula_sum   'Ce4 Dy4 S12'
_cell_volume   449.85241527
_cell_formula_units_Z   4
loop_
 _symmetry_equiv_pos_site_id
 _symmetry_equiv_pos_as_xyz
  1  'x, y, z'
loop_
 _atom_site_type_symbol
 _atom_site_label
 _atom_site_symmetry_multiplicity
 _atom_site_fract_x
 _atom_site_fract_y
 _atom_site_fract_z
 _atom_site_occupancy
  Ce  Ce0  1  0.750000  0.859597  0.203010  1
  Ce  Ce1  1  0.250000  0.140403  0.796990  1
  Ce  Ce2  1  0.750000  0.359597  0.296990  1
  Ce  Ce3  1  0.250000  0.640403  0.703010  1
  Dy  Dy4  1  0.750000  0.233442  0.543680  1
  Dy  Dy5  1  0.250000  0.766558  0.456320  1
  Dy  Dy6  1  0.750000  0.733442  0.956320  1
  Dy  Dy7  1  0.250000  0.266558  0.043680  1
  S  S8  1  0.250000  0.874336  0.063854  1
  S  S9  1  0.750000  0.125664  0.936146  1
  S  S10  1  0.250000  0.374336  0.436146  1
  S  S11  1  0.750000  0.625664  0.563854  1
  S  S12  1  0.250000  0.648735  0.282398  1
  S  S13  1  0.750000  0.351265  0.717602  1
  S  S14  1  0.250000  0.148735  0.217602  1
  S  S15  1  0.750000  0.851265  0.782398  1
  S  S16  1  0.750000  0.988921  0.394462  1
  S  S17  1  0.250000  0.011079  0.605538  1
  S  S18  1  0.750000  0.488921  0.105538  1
  S  S19  1  0.250000  0.511079  0.894462  1
