# generated using pymatgen
data_Th2Zn
_symmetry_space_group_name_H-M   'P 1'
_cell_length_a   6.07519224
_cell_length_b   6.07519224
_cell_length_c   6.07519224
_cell_angle_alpha   102.14303306
_cell_angle_beta   102.14303306
_cell_angle_gamma   125.40091769
_symmetry_Int_Tables_number   1
_chemical_formula_structural   Th2Zn
_chemical_formula_sum   'Th4 Zn2'
_cell_volume   162.41171807
_cell_formula_units_Z   2
loop_
 _symmetry_equiv_pos_site_id
 _symmetry_equiv_pos_as_xyz
  1  'x, y, z'
loop_
 _atom_site_type_symbol
 _atom_site_label
 _atom_site_symmetry_multiplicity
 _atom_site_fract_x
 _atom_site_fract_y
 _atom_site_fract_z
 _atom_site_occupancy
  Th  Th0  1  0.158149  0.658149  0.816297  1
  Th  Th1  1  0.658149  0.841851  0.500000  1
  Th  Th2  1  0.841851  0.341851  0.183703  1
  Th  Th3  1  0.341851  0.158149  0.500000  1
  Zn  Zn4  1  0.750000  0.750000  0.000000  1
  Zn  Zn5  1  0.250000  0.250000  0.000000  1
