# generated using pymatgen
data_FeCu2SnS4
_symmetry_space_group_name_H-M   'P 1'
_cell_length_a   6.60796533
_cell_length_b   6.60796533
_cell_length_c   6.60796533
_cell_angle_alpha   131.11713536
_cell_angle_beta   131.11713536
_cell_angle_gamma   71.62704152
_symmetry_Int_Tables_number   1
_chemical_formula_structural   FeCu2SnS4
_chemical_formula_sum   'Fe1 Cu2 Sn1 S4'
_cell_volume   160.23130640
_cell_formula_units_Z   1
loop_
 _symmetry_equiv_pos_site_id
 _symmetry_equiv_pos_as_xyz
  1  'x, y, z'
loop_
 _atom_site_type_symbol
 _atom_site_label
 _atom_site_symmetry_multiplicity
 _atom_site_fract_x
 _atom_site_fract_y
 _atom_site_fract_z
 _atom_site_occupancy
  Fe  Fe0  1  0.000000  0.000000  0.000000  1
  Cu  Cu1  1  0.250000  0.750000  0.500000  1
  Cu  Cu2  1  0.750000  0.250000  0.500000  1
  Sn  Sn3  1  0.500000  0.500000  0.000000  1
  S  S4  1  0.100565  0.634827  0.000000  1
  S  S5  1  0.365173  0.365173  0.465738  1
  S  S6  1  0.899435  0.899435  0.534262  1
  S  S7  1  0.634827  0.100565  1.000000  1
