# generated using pymatgen
data_Lu6UO12
_symmetry_space_group_name_H-M   'P 1'
_cell_length_a   6.43849330
_cell_length_b   6.43849330
_cell_length_c   6.43849330
_cell_angle_alpha   99.19852909
_cell_angle_beta   99.19852909
_cell_angle_gamma   99.19852909
_symmetry_Int_Tables_number   1
_chemical_formula_structural   Lu6UO12
_chemical_formula_sum   'Lu6 U1 O12'
_cell_volume   255.33083369
_cell_formula_units_Z   1
loop_
 _symmetry_equiv_pos_site_id
 _symmetry_equiv_pos_as_xyz
  1  'x, y, z'
loop_
 _atom_site_type_symbol
 _atom_site_label
 _atom_site_symmetry_multiplicity
 _atom_site_fract_x
 _atom_site_fract_y
 _atom_site_fract_z
 _atom_site_occupancy
  Lu  Lu0  1  0.854312  0.390845  0.672810  1
  Lu  Lu1  1  0.672810  0.854312  0.390845  1
  Lu  Lu2  1  0.390845  0.672810  0.854312  1
  Lu  Lu3  1  0.145688  0.609155  0.327190  1
  Lu  Lu4  1  0.327190  0.145688  0.609155  1
  Lu  Lu5  1  0.609155  0.327190  0.145688  1
  U  U6  1  0.000000  0.000000  0.000000  1
  O  O7  1  0.585784  0.178164  0.422950  1
  O  O8  1  0.422950  0.585784  0.178163  1
  O  O9  1  0.178164  0.422950  0.585784  1
  O  O10  1  0.414216  0.821837  0.577050  1
  O  O11  1  0.577050  0.414216  0.821837  1
  O  O12  1  0.821837  0.577050  0.414216  1
  O  O13  1  0.687247  0.911731  0.050014  1
  O  O14  1  0.088269  0.949986  0.312753  1
  O  O15  1  0.949986  0.312753  0.088269  1
  O  O16  1  0.312753  0.088269  0.949986  1
  O  O17  1  0.911731  0.050014  0.687247  1
  O  O18  1  0.050014  0.687247  0.911731  1
