# generated using pymatgen
data_Tm2S3
_symmetry_space_group_name_H-M   'P 1'
_cell_length_a   10.89918766
_cell_length_b   3.88645784
_cell_length_c   11.15483469
_cell_angle_alpha   90.00000000
_cell_angle_beta   108.85307291
_cell_angle_gamma   90.00000000
_symmetry_Int_Tables_number   1
_chemical_formula_structural   Tm2S3
_chemical_formula_sum   'Tm8 S12'
_cell_volume   447.16023168
_cell_formula_units_Z   4
loop_
 _symmetry_equiv_pos_site_id
 _symmetry_equiv_pos_as_xyz
  1  'x, y, z'
loop_
 _atom_site_type_symbol
 _atom_site_label
 _atom_site_symmetry_multiplicity
 _atom_site_fract_x
 _atom_site_fract_y
 _atom_site_fract_z
 _atom_site_occupancy
  Tm  Tm0  1  0.817269  0.250000  0.997213  1
  Tm  Tm1  1  0.182731  0.750000  0.002787  1
  Tm  Tm2  1  0.456587  0.250000  0.809756  1
  Tm  Tm3  1  0.543413  0.750000  0.190244  1
  Tm  Tm4  1  0.067937  0.250000  0.668264  1
  Tm  Tm5  1  0.932063  0.750000  0.331736  1
  Tm  Tm6  1  0.339422  0.250000  0.416398  1
  Tm  Tm7  1  0.660578  0.750000  0.583602  1
  S  S8  1  0.022811  0.250000  0.886766  1
  S  S9  1  0.977189  0.750000  0.113234  1
  S  S10  1  0.691055  0.250000  0.749599  1
  S  S11  1  0.308945  0.750000  0.250401  1
  S  S12  1  0.102039  0.250000  0.436409  1
  S  S13  1  0.897961  0.750000  0.563591  1
  S  S14  1  0.581652  0.250000  0.401715  1
  S  S15  1  0.418348  0.750000  0.598285  1
  S  S16  1  0.753781  0.250000  0.223087  1
  S  S17  1  0.246219  0.750000  0.776913  1
  S  S18  1  0.389772  0.250000  0.036908  1
  S  S19  1  0.610228  0.750000  0.963092  1
