# generated using pymatgen
data_NaBiO2
_symmetry_space_group_name_H-M   'P 1'
_cell_length_a   5.20408143
_cell_length_b   5.20408143
_cell_length_c   5.96858463
_cell_angle_alpha   64.58844104
_cell_angle_beta   115.41155896
_cell_angle_gamma   90.56983005
_symmetry_Int_Tables_number   1
_chemical_formula_structural   NaBiO2
_chemical_formula_sum   'Na2 Bi2 O4'
_cell_volume   128.83748203
_cell_formula_units_Z   2
loop_
 _symmetry_equiv_pos_site_id
 _symmetry_equiv_pos_as_xyz
  1  'x, y, z'
loop_
 _atom_site_type_symbol
 _atom_site_label
 _atom_site_symmetry_multiplicity
 _atom_site_fract_x
 _atom_site_fract_y
 _atom_site_fract_z
 _atom_site_occupancy
  Na  Na0  1  0.373365  0.373365  0.250000  1
  Na  Na1  1  0.626635  0.626635  0.750000  1
  Bi  Bi2  1  0.115676  0.115676  0.750000  1
  Bi  Bi3  1  0.884324  0.884324  0.250000  1
  O  O4  1  0.706110  0.134560  0.754153  1
  O  O5  1  0.134560  0.706110  0.745847  1
  O  O6  1  0.865440  0.293890  0.254153  1
  O  O7  1  0.293890  0.865440  0.245847  1
