# generated using pymatgen
data_Dy3Co6Sn5
_symmetry_space_group_name_H-M   'P 1'
_cell_length_a   8.11491671
_cell_length_b   8.11491671
_cell_length_c   8.11491671
_cell_angle_alpha   149.14801852
_cell_angle_beta   107.33055735
_cell_angle_gamma   81.00321609
_symmetry_Int_Tables_number   1
_chemical_formula_structural   Dy3Co6Sn5
_chemical_formula_sum   'Dy3 Co6 Sn5'
_cell_volume   256.15782564
_cell_formula_units_Z   1
loop_
 _symmetry_equiv_pos_site_id
 _symmetry_equiv_pos_as_xyz
  1  'x, y, z'
loop_
 _atom_site_type_symbol
 _atom_site_label
 _atom_site_symmetry_multiplicity
 _atom_site_fract_x
 _atom_site_fract_y
 _atom_site_fract_z
 _atom_site_occupancy
  Dy  Dy0  1  0.682183  0.682183  0.000000  1
  Dy  Dy1  1  0.317817  0.317817  0.000000  1
  Dy  Dy2  1  0.000000  0.000000  0.000000  1
  Co  Co3  1  0.165502  0.892628  0.272874  1
  Co  Co4  1  0.834498  0.107372  0.727126  1
  Co  Co5  1  0.619755  0.892628  0.727126  1
  Co  Co6  1  0.695462  0.500000  0.195462  1
  Co  Co7  1  0.304538  0.500000  0.804538  1
  Co  Co8  1  0.380245  0.107372  0.272874  1
  Sn  Sn9  1  0.335829  0.676866  0.658963  1
  Sn  Sn10  1  0.982097  0.323134  0.658963  1
  Sn  Sn11  1  0.017903  0.676866  0.341037  1
  Sn  Sn12  1  0.500000  0.000000  0.500000  1
  Sn  Sn13  1  0.664171  0.323134  0.341037  1
