# generated using pymatgen
data_RhBr3
_symmetry_space_group_name_H-M   'P 1'
_cell_length_a   6.43865253
_cell_length_b   6.43865253
_cell_length_c   6.99509170
_cell_angle_alpha   81.22902479
_cell_angle_beta   98.77097521
_cell_angle_gamma   59.99585153
_symmetry_Int_Tables_number   1
_chemical_formula_structural   RhBr3
_chemical_formula_sum   'Rh2 Br6'
_cell_volume   239.16358316
_cell_formula_units_Z   2
loop_
 _symmetry_equiv_pos_site_id
 _symmetry_equiv_pos_as_xyz
  1  'x, y, z'
loop_
 _atom_site_type_symbol
 _atom_site_label
 _atom_site_symmetry_multiplicity
 _atom_site_fract_x
 _atom_site_fract_y
 _atom_site_fract_z
 _atom_site_occupancy
  Rh  Rh0  1  0.166663  0.166663  0.000000  1
  Rh  Rh1  1  0.833337  0.833337  0.000000  1
  Br  Br2  1  0.430194  0.924347  0.789014  1
  Br  Br3  1  0.924347  0.430194  0.210986  1
  Br  Br4  1  0.215650  0.784350  0.211418  1
  Br  Br5  1  0.784350  0.215650  0.788582  1
  Br  Br6  1  0.075653  0.569806  0.789014  1
  Br  Br7  1  0.569806  0.075653  0.210986  1
