# generated using pymatgen
data_Li3Cu2P5O16
_symmetry_space_group_name_H-M   'P 1'
_cell_length_a   5.10343273
_cell_length_b   7.01837195
_cell_length_c   17.52236908
_cell_angle_alpha   90.00000000
_cell_angle_beta   91.10962019
_cell_angle_gamma   90.00000000
_symmetry_Int_Tables_number   1
_chemical_formula_structural   Li3Cu2P5O16
_chemical_formula_sum   'Li6 Cu4 P10 O32'
_cell_volume   627.49482729
_cell_formula_units_Z   2
loop_
 _symmetry_equiv_pos_site_id
 _symmetry_equiv_pos_as_xyz
  1  'x, y, z'
loop_
 _atom_site_type_symbol
 _atom_site_label
 _atom_site_symmetry_multiplicity
 _atom_site_fract_x
 _atom_site_fract_y
 _atom_site_fract_z
 _atom_site_occupancy
  Li  Li0  1  0.268164  0.327610  0.537324  1
  Li  Li1  1  0.731836  0.672390  0.462676  1
  Li  Li2  1  0.500000  0.024369  0.250000  1
  Li  Li3  1  0.268164  0.672390  0.037324  1
  Li  Li4  1  0.731836  0.327610  0.962676  1
  Li  Li5  1  0.500000  0.975631  0.750000  1
  Cu  Cu6  1  0.742591  0.169573  0.412017  1
  Cu  Cu7  1  0.257409  0.169573  0.087983  1
  Cu  Cu8  1  0.742591  0.830427  0.912017  1
  Cu  Cu9  1  0.257409  0.830427  0.587983  1
  P  P10  1  0.781309  0.873844  0.089516  1
  P  P11  1  0.723840  0.466718  0.123730  1
  P  P12  1  0.000000  0.247086  0.250000  1
  P  P13  1  0.276160  0.466718  0.376270  1
  P  P14  1  0.781309  0.126156  0.589516  1
  P  P15  1  0.723840  0.533282  0.623730  1
  P  P16  1  0.000000  0.752914  0.750000  1
  P  P17  1  0.218691  0.873844  0.410484  1
  P  P18  1  0.218691  0.126156  0.910484  1
  P  P19  1  0.276160  0.533282  0.876270  1
  O  O20  1  0.626657  0.805797  0.017425  1
  O  O21  1  0.929079  0.911935  0.427541  1
  O  O22  1  0.103112  0.387559  0.436826  1
  O  O23  1  0.373343  0.805797  0.482575  1
  O  O24  1  0.626657  0.194203  0.517425  1
  O  O25  1  0.896888  0.612441  0.563174  1
  O  O26  1  0.070921  0.088065  0.572459  1
  O  O27  1  0.429727  0.554738  0.610309  1
  O  O28  1  0.638726  0.981220  0.637103  1
  O  O29  1  0.788675  0.316660  0.644497  1
  O  O30  1  0.171087  0.865779  0.697095  1
  O  O31  1  0.800621  0.615378  0.706840  1
  O  O32  1  0.199379  0.615378  0.793160  1
  O  O33  1  0.828913  0.865779  0.802905  1
  O  O34  1  0.211325  0.316660  0.855503  1
  O  O35  1  0.361274  0.981220  0.862897  1
  O  O36  1  0.570273  0.554738  0.889691  1
  O  O37  1  0.361274  0.018780  0.362897  1
  O  O38  1  0.103112  0.612441  0.936826  1
  O  O39  1  0.373343  0.194203  0.982575  1
  O  O40  1  0.929079  0.088065  0.927541  1
  O  O41  1  0.896888  0.387559  0.063174  1
  O  O42  1  0.070921  0.911935  0.072459  1
  O  O43  1  0.429727  0.445262  0.110309  1
  O  O44  1  0.638726  0.018780  0.137103  1
  O  O45  1  0.788675  0.683340  0.144497  1
  O  O46  1  0.171087  0.134221  0.197095  1
  O  O47  1  0.800621  0.384622  0.206840  1
  O  O48  1  0.199379  0.384622  0.293160  1
  O  O49  1  0.828913  0.134221  0.302905  1
  O  O50  1  0.211325  0.683340  0.355503  1
  O  O51  1  0.570273  0.445262  0.389691  1
