# generated using pymatgen
data_Cs4ZrO4
_symmetry_space_group_name_H-M   'P 1'
_cell_length_a   7.28816240
_cell_length_b   20.23922995
_cell_length_c   7.30367406
_cell_angle_alpha   90.00000000
_cell_angle_beta   113.28976819
_cell_angle_gamma   90.00000000
_symmetry_Int_Tables_number   1
_chemical_formula_structural   Cs4ZrO4
_chemical_formula_sum   'Cs16 Zr4 O16'
_cell_volume   989.55653154
_cell_formula_units_Z   4
loop_
 _symmetry_equiv_pos_site_id
 _symmetry_equiv_pos_as_xyz
  1  'x, y, z'
loop_
 _atom_site_type_symbol
 _atom_site_label
 _atom_site_symmetry_multiplicity
 _atom_site_fract_x
 _atom_site_fract_y
 _atom_site_fract_z
 _atom_site_occupancy
  Cs  Cs0  1  0.840174  0.081668  0.276166  1
  Cs  Cs1  1  0.159826  0.581668  0.223834  1
  Cs  Cs2  1  0.159826  0.918332  0.723834  1
  Cs  Cs3  1  0.840174  0.418332  0.776166  1
  Cs  Cs4  1  0.685517  0.810247  0.683484  1
  Cs  Cs5  1  0.314483  0.310247  0.816516  1
  Cs  Cs6  1  0.314483  0.189753  0.316516  1
  Cs  Cs7  1  0.685517  0.689753  0.183484  1
  Cs  Cs8  1  0.198380  0.715982  0.677472  1
  Cs  Cs9  1  0.801620  0.215982  0.822528  1
  Cs  Cs10  1  0.801620  0.284018  0.322528  1
  Cs  Cs11  1  0.198380  0.784018  0.177472  1
  Cs  Cs12  1  0.720300  0.014278  0.750439  1
  Cs  Cs13  1  0.279700  0.514278  0.749561  1
  Cs  Cs14  1  0.279700  0.985722  0.249561  1
  Cs  Cs15  1  0.720300  0.485722  0.250439  1
  Zr  Zr16  1  0.754601  0.622590  0.701137  1
  Zr  Zr17  1  0.245399  0.122590  0.798863  1
  Zr  Zr18  1  0.245399  0.377410  0.298863  1
  Zr  Zr19  1  0.754601  0.877410  0.201137  1
  O  O20  1  0.094029  0.094655  0.964324  1
  O  O21  1  0.905971  0.594655  0.535676  1
  O  O22  1  0.905971  0.905345  0.035676  1
  O  O23  1  0.094029  0.405345  0.464324  1
  O  O24  1  0.500982  0.832920  0.021221  1
  O  O25  1  0.499018  0.332920  0.478779  1
  O  O26  1  0.499018  0.167080  0.978779  1
  O  O27  1  0.500982  0.667080  0.521221  1
  O  O28  1  0.709378  0.951689  0.360936  1
  O  O29  1  0.290622  0.451689  0.139064  1
  O  O30  1  0.290622  0.048311  0.639064  1
  O  O31  1  0.709378  0.548311  0.860936  1
  O  O32  1  0.927717  0.810332  0.395664  1
  O  O33  1  0.072283  0.310332  0.104336  1
  O  O34  1  0.072283  0.189668  0.604336  1
  O  O35  1  0.927717  0.689668  0.895664  1
