# generated using pymatgen
data_CeBN2
_symmetry_space_group_name_H-M   'P 1'
_cell_length_a   6.41872385
_cell_length_b   6.79649515
_cell_length_c   7.70279374
_cell_angle_alpha   106.55513087
_cell_angle_beta   90.18766878
_cell_angle_gamma   115.64396958
_symmetry_Int_Tables_number   1
_chemical_formula_structural   CeBN2
_chemical_formula_sum   'Ce6 B6 N12'
_cell_volume   287.24345857
_cell_formula_units_Z   6
loop_
 _symmetry_equiv_pos_site_id
 _symmetry_equiv_pos_as_xyz
  1  'x, y, z'
loop_
 _atom_site_type_symbol
 _atom_site_label
 _atom_site_symmetry_multiplicity
 _atom_site_fract_x
 _atom_site_fract_y
 _atom_site_fract_z
 _atom_site_occupancy
  Ce  Ce0  1  0.536788  0.778774  0.066187  1
  Ce  Ce1  1  0.463212  0.221226  0.933813  1
  Ce  Ce2  1  0.465046  0.217644  0.424299  1
  Ce  Ce3  1  0.534954  0.782356  0.575701  1
  Ce  Ce4  1  0.953294  0.648439  0.294312  1
  Ce  Ce5  1  0.046706  0.351561  0.705688  1
  B  B6  1  0.899277  0.205233  0.331652  1
  B  B7  1  0.099221  0.783792  0.987874  1
  B  B8  1  0.900779  0.216208  0.012126  1
  B  B9  1  0.100723  0.794767  0.668348  1
  B  B10  1  0.277761  0.429226  0.230538  1
  B  B11  1  0.722239  0.570774  0.769462  1
  N  N12  1  0.154333  0.368249  0.044951  1
  N  N13  1  0.845667  0.631751  0.955049  1
  N  N14  1  0.231294  0.798850  0.830242  1
  N  N15  1  0.763063  0.053700  0.431263  1
  N  N16  1  0.236937  0.946300  0.568737  1
  N  N17  1  0.768706  0.201150  0.169758  1
  N  N18  1  0.467864  0.482454  0.747230  1
  N  N19  1  0.532136  0.517546  0.252770  1
  N  N20  1  0.763971  0.083486  0.833901  1
  N  N21  1  0.236029  0.916514  0.166099  1
  N  N22  1  0.151004  0.369532  0.384381  1
  N  N23  1  0.848996  0.630468  0.615619  1
