# generated using pymatgen
data_LiP7
_symmetry_space_group_name_H-M   'P 1'
_cell_length_a   12.16080116
_cell_length_b   12.16080116
_cell_length_c   12.16080116
_cell_angle_alpha   111.83333569
_cell_angle_beta   111.83333569
_cell_angle_gamma   104.84375617
_symmetry_Int_Tables_number   1
_chemical_formula_structural   LiP7
_chemical_formula_sum   'Li8 P56'
_cell_volume   1377.70927516
_cell_formula_units_Z   8
loop_
 _symmetry_equiv_pos_site_id
 _symmetry_equiv_pos_as_xyz
  1  'x, y, z'
loop_
 _atom_site_type_symbol
 _atom_site_label
 _atom_site_symmetry_multiplicity
 _atom_site_fract_x
 _atom_site_fract_y
 _atom_site_fract_z
 _atom_site_occupancy
  Li  Li0  1  0.368757  0.131243  0.500000  1
  Li  Li1  1  0.881243  0.881243  0.262485  1
  Li  Li2  1  0.618757  0.618757  0.737515  1
  Li  Li3  1  0.631243  0.868757  0.500000  1
  Li  Li4  1  0.381243  0.118757  0.000000  1
  Li  Li5  1  0.868757  0.368757  0.237515  1
  Li  Li6  1  0.131243  0.631243  0.762485  1
  Li  Li7  1  0.118757  0.381243  1.000000  1
  P  P8  1  0.017734  0.134944  0.473805  1
  P  P9  1  0.884944  0.911139  0.617209  1
  P  P10  1  0.293929  0.267734  0.382791  1
  P  P11  1  0.232266  0.206071  0.617209  1
  P  P12  1  0.588861  0.615056  0.382791  1
  P  P13  1  0.661139  0.543929  0.526195  1
  P  P14  1  0.956071  0.838861  0.473805  1
  P  P15  1  0.365056  0.482266  0.526195  1
  P  P16  1  0.732266  0.115056  0.026195  1
  P  P17  1  0.865056  0.338861  0.882791  1
  P  P18  1  0.456071  0.982266  0.117209  1
  P  P19  1  0.517734  0.043929  0.882791  1
  P  P20  1  0.161139  0.634944  0.117209  1
  P  P21  1  0.088861  0.706071  0.973805  1
  P  P22  1  0.793929  0.411139  0.026195  1
  P  P23  1  0.384944  0.767734  0.973805  1
  P  P24  1  0.959931  0.213501  0.626990  1
  P  P25  1  0.963501  0.836512  0.753571  1
  P  P26  1  0.082941  0.209931  0.246429  1
  P  P27  1  0.290069  0.417059  0.753571  1
  P  P28  1  0.663488  0.536499  0.246429  1
  P  P29  1  0.586512  0.332941  0.373010  1
  P  P30  1  0.167059  0.913488  0.626990  1
  P  P31  1  0.286499  0.540069  0.373010  1
  P  P32  1  0.790069  0.036499  0.873010  1
  P  P33  1  0.786499  0.413488  0.746429  1
  P  P34  1  0.667059  0.040069  0.253571  1
  P  P35  1  0.459931  0.832941  0.746429  1
  P  P36  1  0.086512  0.713501  0.253571  1
  P  P37  1  0.163488  0.917059  0.126990  1
  P  P38  1  0.582941  0.336512  0.873010  1
  P  P39  1  0.463501  0.709931  0.126990  1
  P  P40  1  0.220614  0.126445  0.753123  1
  P  P41  1  0.876445  0.623321  0.405830  1
  P  P42  1  0.217491  0.470614  0.594170  1
  P  P43  1  0.029386  0.282509  0.405830  1
  P  P44  1  0.876679  0.623555  0.594170  1
  P  P45  1  0.373321  0.467491  0.246877  1
  P  P46  1  0.032509  0.126679  0.753123  1
  P  P47  1  0.373555  0.279386  0.246877  1
  P  P48  1  0.529386  0.123555  0.746877  1
  P  P49  1  0.873555  0.626679  0.094170  1
  P  P50  1  0.532509  0.779386  0.905830  1
  P  P51  1  0.720614  0.967491  0.094170  1
  P  P52  1  0.873321  0.626445  0.905830  1
  P  P53  1  0.376679  0.782509  0.253123  1
  P  P54  1  0.717491  0.123321  0.746877  1
  P  P55  1  0.376445  0.970614  0.253123  1
  P  P56  1  0.165130  0.875000  0.790130  1
  P  P57  1  0.625000  0.334870  0.209870  1
  P  P58  1  0.125000  0.415130  0.790130  1
  P  P59  1  0.084870  0.375000  0.209870  1
  P  P60  1  0.584870  0.375000  0.709870  1
  P  P61  1  0.125000  0.915130  0.290130  1
  P  P62  1  0.625000  0.834870  0.709870  1
  P  P63  1  0.665130  0.875000  0.290130  1
