# generated using pymatgen
data_B5H9N
_symmetry_space_group_name_H-M   'P 1'
_cell_length_a   7.29130222
_cell_length_b   7.50090766
_cell_length_c   18.21689149
_cell_angle_alpha   90.00000000
_cell_angle_beta   90.00000000
_cell_angle_gamma   90.00000000
_symmetry_Int_Tables_number   1
_chemical_formula_structural   B5H9N
_chemical_formula_sum   'B40 H72 N8'
_cell_volume   996.30702003
_cell_formula_units_Z   8
loop_
 _symmetry_equiv_pos_site_id
 _symmetry_equiv_pos_as_xyz
  1  'x, y, z'
loop_
 _atom_site_type_symbol
 _atom_site_label
 _atom_site_symmetry_multiplicity
 _atom_site_fract_x
 _atom_site_fract_y
 _atom_site_fract_z
 _atom_site_occupancy
  B  B0  1  0.788321  0.750000  0.504008  1
  B  B1  1  0.288321  0.250000  0.995992  1
  B  B2  1  0.211679  0.250000  0.495992  1
  B  B3  1  0.711679  0.750000  0.004008  1
  B  B4  1  0.630812  0.750000  0.574402  1
  B  B5  1  0.130812  0.250000  0.925598  1
  B  B6  1  0.369188  0.250000  0.425598  1
  B  B7  1  0.869188  0.750000  0.074402  1
  B  B8  1  0.239105  0.444973  0.434348  1
  B  B9  1  0.739105  0.555027  0.065652  1
  B  B10  1  0.760895  0.944973  0.565652  1
  B  B11  1  0.260895  0.055027  0.934348  1
  B  B12  1  0.760895  0.555027  0.565652  1
  B  B13  1  0.260895  0.444973  0.934348  1
  B  B14  1  0.239105  0.055027  0.434348  1
  B  B15  1  0.739105  0.944973  0.065652  1
  B  B16  1  0.079663  0.444857  0.354675  1
  B  B17  1  0.579663  0.555143  0.145325  1
  B  B18  1  0.920337  0.944857  0.645325  1
  B  B19  1  0.420337  0.055143  0.854675  1
  B  B20  1  0.920337  0.555143  0.645325  1
  B  B21  1  0.420337  0.444857  0.854675  1
  B  B22  1  0.079663  0.055143  0.354675  1
  B  B23  1  0.579663  0.944857  0.145325  1
  B  B24  1  0.310058  0.371498  0.346313  1
  B  B25  1  0.810058  0.628502  0.153687  1
  B  B26  1  0.689942  0.871498  0.653687  1
  B  B27  1  0.189942  0.128502  0.846313  1
  B  B28  1  0.689942  0.628502  0.653687  1
  B  B29  1  0.189942  0.371498  0.846313  1
  B  B30  1  0.310058  0.128502  0.346313  1
  B  B31  1  0.810058  0.871498  0.153687  1
  B  B32  1  0.868736  0.750000  0.694729  1
  B  B33  1  0.368736  0.250000  0.805271  1
  B  B34  1  0.131264  0.250000  0.305271  1
  B  B35  1  0.631264  0.750000  0.194729  1
  B  B36  1  0.076821  0.750000  0.649727  1
  B  B37  1  0.576821  0.250000  0.850273  1
  B  B38  1  0.923179  0.250000  0.350273  1
  B  B39  1  0.423179  0.750000  0.149727  1
  H  H40  1  0.950483  0.750000  0.493057  1
  H  H41  1  0.450483  0.250000  0.006943  1
  H  H42  1  0.049517  0.250000  0.506943  1
  H  H43  1  0.549517  0.750000  0.993057  1
  H  H44  1  0.477217  0.750000  0.550661  1
  H  H45  1  0.977217  0.250000  0.949339  1
  H  H46  1  0.522783  0.250000  0.449339  1
  H  H47  1  0.022783  0.750000  0.050661  1
  H  H48  1  0.296469  0.583934  0.457499  1
  H  H49  1  0.796469  0.416066  0.042501  1
  H  H50  1  0.703531  0.083934  0.542501  1
  H  H51  1  0.203531  0.916066  0.957499  1
  H  H52  1  0.703531  0.416066  0.542501  1
  H  H53  1  0.203531  0.583934  0.957499  1
  H  H54  1  0.296469  0.916066  0.457499  1
  H  H55  1  0.796469  0.083934  0.042501  1
  H  H56  1  0.057820  0.455087  0.427091  1
  H  H57  1  0.557820  0.544913  0.072909  1
  H  H58  1  0.942180  0.955087  0.572909  1
  H  H59  1  0.442180  0.044913  0.927091  1
  H  H60  1  0.942180  0.544913  0.572909  1
  H  H61  1  0.442180  0.455087  0.927091  1
  H  H62  1  0.057820  0.044913  0.427091  1
  H  H63  1  0.557820  0.955087  0.072909  1
  H  H64  1  0.035023  0.584218  0.327375  1
  H  H65  1  0.535023  0.415782  0.172625  1
  H  H66  1  0.964977  0.084218  0.672625  1
  H  H67  1  0.464977  0.915782  0.827375  1
  H  H68  1  0.964977  0.415782  0.672625  1
  H  H69  1  0.768949  0.750000  0.383518  1
  H  H70  1  0.464977  0.584218  0.827375  1
  H  H71  1  0.535023  0.084218  0.172625  1
  H  H72  1  0.422698  0.450766  0.310730  1
  H  H73  1  0.922698  0.549234  0.189270  1
  H  H74  1  0.577302  0.950766  0.689270  1
  H  H75  1  0.077302  0.049234  0.810730  1
  H  H76  1  0.577302  0.549234  0.689270  1
  H  H77  1  0.077302  0.450766  0.810730  1
  H  H78  1  0.422698  0.049234  0.310730  1
  H  H79  1  0.922698  0.950766  0.189270  1
  H  H80  1  0.891934  0.750000  0.760147  1
  H  H81  1  0.391934  0.250000  0.739853  1
  H  H82  1  0.108066  0.250000  0.239853  1
  H  H83  1  0.608066  0.750000  0.260147  1
  H  H84  1  0.140762  0.750000  0.588966  1
  H  H85  1  0.640762  0.250000  0.911034  1
  H  H86  1  0.859238  0.250000  0.411034  1
  H  H87  1  0.359238  0.750000  0.088966  1
  H  H88  1  0.135270  0.750000  0.187696  1
  H  H89  1  0.635270  0.250000  0.312304  1
  H  H90  1  0.864730  0.250000  0.812304  1
  H  H91  1  0.364730  0.750000  0.687696  1
  H  H92  1  0.271258  0.859355  0.244382  1
  H  H93  1  0.771258  0.140645  0.255618  1
  H  H94  1  0.728742  0.359355  0.755618  1
  H  H95  1  0.228742  0.640645  0.744382  1
  H  H96  1  0.728742  0.140645  0.755618  1
  H  H97  1  0.228742  0.859355  0.744382  1
  H  H98  1  0.271258  0.640645  0.244382  1
  H  H99  1  0.771258  0.359355  0.255618  1
  H  H100  1  0.903974  0.640674  0.921953  1
  H  H101  1  0.403974  0.359326  0.578047  1
  H  H102  1  0.096026  0.140674  0.078047  1
  H  H103  1  0.596026  0.859326  0.421953  1
  H  H104  1  0.096026  0.359326  0.078047  1
  H  H105  1  0.596026  0.640674  0.421953  1
  H  H106  1  0.903974  0.859326  0.921953  1
  H  H107  1  0.403974  0.140674  0.578047  1
  H  H108  1  0.731051  0.750000  0.883518  1
  H  H109  1  0.231051  0.250000  0.616482  1
  H  H110  1  0.268949  0.250000  0.116482  1
  H  H111  1  0.035023  0.915782  0.327375  1
  N  N112  1  0.680184  0.750000  0.427253  1
  N  N113  1  0.180184  0.250000  0.072747  1
  N  N114  1  0.319816  0.250000  0.572747  1
  N  N115  1  0.819816  0.750000  0.927253  1
  N  N116  1  0.235338  0.750000  0.710228  1
  N  N117  1  0.735338  0.250000  0.789772  1
  N  N118  1  0.764662  0.250000  0.289772  1
  N  N119  1  0.264662  0.750000  0.210228  1
