# generated using pymatgen
data_Na4Ge2Te5
_symmetry_space_group_name_H-M   'P 1'
_cell_length_a   8.00726126
_cell_length_b   9.75630963
_cell_length_c   10.85001404
_cell_angle_alpha   68.22135705
_cell_angle_beta   70.78509553
_cell_angle_gamma   67.70701648
_symmetry_Int_Tables_number   1
_chemical_formula_structural   Na4Ge2Te5
_chemical_formula_sum   'Na8 Ge4 Te10'
_cell_volume   710.56857276
_cell_formula_units_Z   2
loop_
 _symmetry_equiv_pos_site_id
 _symmetry_equiv_pos_as_xyz
  1  'x, y, z'
loop_
 _atom_site_type_symbol
 _atom_site_label
 _atom_site_symmetry_multiplicity
 _atom_site_fract_x
 _atom_site_fract_y
 _atom_site_fract_z
 _atom_site_occupancy
  Na  Na0  1  0.267313  0.441417  0.427316  1
  Na  Na1  1  0.732687  0.558583  0.572684  1
  Na  Na2  1  0.873226  0.367479  0.190182  1
  Na  Na3  1  0.126774  0.632521  0.809818  1
  Na  Na4  1  0.678466  0.048281  0.585798  1
  Na  Na5  1  0.321534  0.951719  0.414202  1
  Na  Na6  1  0.462901  0.736891  0.018344  1
  Na  Na7  1  0.537099  0.263109  0.981656  1
  Ge  Ge8  1  0.895424  0.762611  0.144787  1
  Ge  Ge9  1  0.104576  0.237389  0.855213  1
  Ge  Ge10  1  0.914690  0.940207  0.253624  1
  Ge  Ge11  1  0.085310  0.059793  0.746376  1
  Te  Te12  1  0.809004  0.470494  0.872246  1
  Te  Te13  1  0.190996  0.529506  0.127754  1
  Te  Te14  1  0.395929  0.842524  0.719593  1
  Te  Te15  1  0.604071  0.157476  0.280407  1
  Te  Te16  1  0.987421  0.231549  0.519560  1
  Te  Te17  1  0.012579  0.768451  0.480440  1
  Te  Te18  1  0.395575  0.328487  0.714665  1
  Te  Te19  1  0.604425  0.671513  0.285335  1
  Te  Te20  1  0.804990  0.942831  0.906330  1
  Te  Te21  1  0.195010  0.057169  0.093670  1
