# generated using pymatgen
data_Sb2(SO4)3
_symmetry_space_group_name_H-M   'P 1'
_cell_length_a   13.36409288
_cell_length_b   4.89842004
_cell_length_c   17.96297179
_cell_angle_alpha   90.00000000
_cell_angle_beta   126.38984513
_cell_angle_gamma   90.00000000
_symmetry_Int_Tables_number   1
_chemical_formula_structural   Sb2(SO4)3
_chemical_formula_sum   'Sb8 S12 O48'
_cell_volume   946.60548237
_cell_formula_units_Z   4
loop_
 _symmetry_equiv_pos_site_id
 _symmetry_equiv_pos_as_xyz
  1  'x, y, z'
loop_
 _atom_site_type_symbol
 _atom_site_label
 _atom_site_symmetry_multiplicity
 _atom_site_fract_x
 _atom_site_fract_y
 _atom_site_fract_z
 _atom_site_occupancy
  Sb  Sb0  1  0.111837  0.708493  0.937290  1
  Sb  Sb1  1  0.888163  0.208493  0.562710  1
  Sb  Sb2  1  0.888163  0.291507  0.062710  1
  Sb  Sb3  1  0.111837  0.791507  0.437290  1
  Sb  Sb4  1  0.356957  0.925849  0.783611  1
  Sb  Sb5  1  0.643043  0.425849  0.716389  1
  Sb  Sb6  1  0.643043  0.074151  0.216389  1
  Sb  Sb7  1  0.356957  0.574151  0.283611  1
  S  S8  1  0.162740  0.145002  0.107206  1
  S  S9  1  0.837260  0.645002  0.392794  1
  S  S10  1  0.837260  0.854998  0.892794  1
  S  S11  1  0.162740  0.354998  0.607206  1
  S  S12  1  0.170950  0.169137  0.823365  1
  S  S13  1  0.829050  0.669137  0.676635  1
  S  S14  1  0.829050  0.830863  0.176635  1
  S  S15  1  0.170950  0.330863  0.323365  1
  S  S16  1  0.557773  0.441148  0.889904  1
  S  S17  1  0.442227  0.941148  0.610096  1
  S  S18  1  0.442227  0.558852  0.110096  1
  S  S19  1  0.557773  0.058852  0.389904  1
  O  O20  1  0.270031  0.145966  0.207788  1
  O  O21  1  0.729969  0.645966  0.292212  1
  O  O22  1  0.729969  0.854034  0.792212  1
  O  O23  1  0.270031  0.354034  0.707788  1
  O  O24  1  0.201083  0.956243  0.061687  1
  O  O25  1  0.798917  0.456243  0.438313  1
  O  O26  1  0.798917  0.043757  0.938313  1
  O  O27  1  0.201083  0.543757  0.561687  1
  O  O28  1  0.136495  0.422393  0.069440  1
  O  O29  1  0.863505  0.922393  0.430560  1
  O  O30  1  0.863505  0.577607  0.930560  1
  O  O31  1  0.136495  0.077607  0.569440  1
  O  O32  1  0.050946  0.026896  0.096123  1
  O  O33  1  0.949054  0.526896  0.403877  1
  O  O34  1  0.949054  0.973104  0.903877  1
  O  O35  1  0.050946  0.473104  0.596123  1
  O  O36  1  0.141262  0.062998  0.888691  1
  O  O37  1  0.170968  0.464898  0.828680  1
  O  O38  1  0.829032  0.535102  0.171320  1
  O  O39  1  0.170968  0.035102  0.328680  1
  O  O40  1  0.557344  0.961832  0.312600  1
  O  O41  1  0.442656  0.461832  0.187400  1
  O  O42  1  0.442656  0.038168  0.687400  1
  O  O43  1  0.557344  0.538168  0.812600  1
  O  O44  1  0.516053  0.358604  0.375417  1
  O  O45  1  0.483947  0.858604  0.124583  1
  O  O46  1  0.483947  0.641396  0.624583  1
  O  O47  1  0.516053  0.141396  0.875417  1
  O  O48  1  0.680346  0.057313  0.480153  1
  O  O49  1  0.319654  0.557313  0.019847  1
  O  O50  1  0.319654  0.942687  0.519847  1
  O  O51  1  0.680346  0.442687  0.980153  1
  O  O52  1  0.468190  0.889129  0.395071  1
  O  O53  1  0.531810  0.389129  0.104929  1
  O  O54  1  0.531810  0.110871  0.604929  1
  O  O55  1  0.468190  0.610871  0.895071  1
  O  O56  1  0.086673  0.446690  0.230584  1
  O  O57  1  0.913327  0.946690  0.269416  1
  O  O58  1  0.913327  0.553310  0.769416  1
  O  O59  1  0.086673  0.053310  0.730584  1
  O  O60  1  0.302735  0.439650  0.366046  1
  O  O61  1  0.697265  0.939650  0.133954  1
  O  O62  1  0.697265  0.560350  0.633954  1
  O  O63  1  0.302735  0.060350  0.866046  1
  O  O64  1  0.141262  0.437002  0.388691  1
  O  O65  1  0.858738  0.937002  0.111309  1
  O  O66  1  0.858738  0.562998  0.611309  1
  O  O67  1  0.829032  0.964898  0.671320  1
