# generated using pymatgen
data_AsCl2F3
_symmetry_space_group_name_H-M   'P 1'
_cell_length_a   8.94534495
_cell_length_b   8.94534495
_cell_length_c   6.43010777
_cell_angle_alpha   90.00000000
_cell_angle_beta   90.00000000
_cell_angle_gamma   90.00000000
_symmetry_Int_Tables_number   1
_chemical_formula_structural   AsCl2F3
_chemical_formula_sum   'As4 Cl8 F12'
_cell_volume   514.53205571
_cell_formula_units_Z   4
loop_
 _symmetry_equiv_pos_site_id
 _symmetry_equiv_pos_as_xyz
  1  'x, y, z'
loop_
 _atom_site_type_symbol
 _atom_site_label
 _atom_site_symmetry_multiplicity
 _atom_site_fract_x
 _atom_site_fract_y
 _atom_site_fract_z
 _atom_site_occupancy
  As  As0  1  0.500000  0.000000  0.675230  1
  As  As1  1  0.000000  0.500000  0.324770  1
  As  As2  1  0.500000  0.500000  0.000000  1
  As  As3  1  0.000000  0.000000  0.000000  1
  Cl  Cl4  1  0.463337  0.685995  0.191341  1
  Cl  Cl5  1  0.185995  0.036663  0.191341  1
  Cl  Cl6  1  0.685995  0.536663  0.808659  1
  Cl  Cl7  1  0.036663  0.814005  0.808659  1
  Cl  Cl8  1  0.963337  0.185995  0.808659  1
  Cl  Cl9  1  0.314005  0.463337  0.808659  1
  Cl  Cl10  1  0.536663  0.314005  0.191341  1
  Cl  Cl11  1  0.814005  0.963337  0.191341  1
  F  F12  1  0.500000  0.000000  0.397495  1
  F  F13  1  0.000000  0.500000  0.602505  1
  F  F14  1  0.431616  0.813265  0.673228  1
  F  F15  1  0.313265  0.068384  0.673228  1
  F  F16  1  0.686735  0.931616  0.673228  1
  F  F17  1  0.568384  0.186735  0.673228  1
  F  F18  1  0.068384  0.686735  0.326772  1
  F  F19  1  0.186735  0.431616  0.326772  1
  F  F20  1  0.813265  0.568384  0.326772  1
  F  F21  1  0.000000  0.500000  0.050329  1
  F  F22  1  0.500000  0.000000  0.949671  1
  F  F23  1  0.931616  0.313265  0.326772  1
