# generated using pymatgen
data_H8S(NO2)2
_symmetry_space_group_name_H-M   'P 1'
_cell_length_a   6.06063800
_cell_length_b   8.22217843
_cell_length_c   10.80150098
_cell_angle_alpha   90.00000000
_cell_angle_beta   90.00000000
_cell_angle_gamma   90.00000000
_symmetry_Int_Tables_number   1
_chemical_formula_structural   H8S(NO2)2
_chemical_formula_sum   'H32 S4 N8 O16'
_cell_volume   538.25658429
_cell_formula_units_Z   4
loop_
 _symmetry_equiv_pos_site_id
 _symmetry_equiv_pos_as_xyz
  1  'x, y, z'
loop_
 _atom_site_type_symbol
 _atom_site_label
 _atom_site_symmetry_multiplicity
 _atom_site_fract_x
 _atom_site_fract_y
 _atom_site_fract_z
 _atom_site_occupancy
  H  H0  1  0.420571  0.454668  0.835874  1
  H  H1  1  0.920571  0.545332  0.164126  1
  H  H2  1  0.920571  0.045332  0.335874  1
  H  H3  1  0.420571  0.954668  0.664126  1
  H  H4  1  0.148916  0.395501  0.838390  1
  H  H5  1  0.648916  0.604499  0.161610  1
  H  H6  1  0.648916  0.104499  0.338390  1
  H  H7  1  0.148916  0.895501  0.661610  1
  H  H8  1  0.254793  0.491137  0.712113  1
  H  H9  1  0.754793  0.508863  0.287887  1
  H  H10  1  0.754793  0.008863  0.212113  1
  H  H11  1  0.254793  0.991137  0.787887  1
  H  H12  1  0.221521  0.596059  0.846597  1
  H  H13  1  0.721521  0.403941  0.153403  1
  H  H14  1  0.201148  0.260328  0.177908  1
  H  H15  1  0.721521  0.903941  0.346597  1
  H  H16  1  0.410440  0.191091  0.087314  1
  H  H17  1  0.910440  0.808909  0.912686  1
  H  H18  1  0.910440  0.308909  0.587314  1
  H  H19  1  0.410440  0.691091  0.412686  1
  H  H20  1  0.148446  0.205505  0.028617  1
  H  H21  1  0.648446  0.794495  0.971383  1
  H  H22  1  0.648446  0.294495  0.528617  1
  H  H23  1  0.148446  0.705505  0.471383  1
  H  H24  1  0.206864  0.060979  0.135359  1
  H  H25  1  0.706864  0.939021  0.864641  1
  H  H26  1  0.706864  0.439021  0.635359  1
  H  H27  1  0.206864  0.560979  0.364641  1
  H  H28  1  0.201148  0.760328  0.322092  1
  H  H29  1  0.701148  0.239672  0.677908  1
  H  H30  1  0.701148  0.739672  0.822092  1
  H  H31  1  0.221521  0.096059  0.653403  1
  S  S32  1  0.247649  0.741439  0.075432  1
  S  S33  1  0.747649  0.258561  0.924568  1
  S  S34  1  0.747649  0.758561  0.575432  1
  S  S35  1  0.247649  0.241439  0.424568  1
  N  N36  1  0.259889  0.484022  0.806898  1
  N  N37  1  0.759889  0.515978  0.193102  1
  N  N38  1  0.759889  0.015978  0.306898  1
  N  N39  1  0.259889  0.984022  0.693102  1
  N  N40  1  0.242735  0.179992  0.107773  1
  N  N41  1  0.742735  0.820008  0.892227  1
  N  N42  1  0.742735  0.320008  0.607773  1
  N  N43  1  0.242735  0.679992  0.392227  1
  O  O44  1  0.488895  0.766531  0.102139  1
  O  O45  1  0.988895  0.233469  0.897861  1
  O  O46  1  0.988895  0.733469  0.602139  1
  O  O47  1  0.488895  0.266531  0.397861  1
  O  O48  1  0.116259  0.851907  0.157004  1
  O  O49  1  0.616259  0.148093  0.842996  1
  O  O50  1  0.616259  0.648093  0.657004  1
  O  O51  1  0.116259  0.351907  0.342996  1
  O  O52  1  0.204543  0.783235  0.941792  1
  O  O53  1  0.704543  0.216765  0.058208  1
  O  O54  1  0.704543  0.716765  0.441792  1
  O  O55  1  0.204543  0.283235  0.558208  1
  O  O56  1  0.186331  0.569809  0.100062  1
  O  O57  1  0.686331  0.430191  0.899938  1
  O  O58  1  0.686331  0.930191  0.600062  1
  O  O59  1  0.186331  0.069809  0.399938  1
