# generated using pymatgen
data_Ba2Mg3Si4
_symmetry_space_group_name_H-M   'P 1'
_cell_length_a   6.50174535
_cell_length_b   6.50174535
_cell_length_c   15.69538566
_cell_angle_alpha   85.40695703
_cell_angle_beta   94.59304297
_cell_angle_gamma   138.20680938
_symmetry_Int_Tables_number   1
_chemical_formula_structural   Ba2Mg3Si4
_chemical_formula_sum   'Ba4 Mg6 Si8'
_cell_volume   440.54894538
_cell_formula_units_Z   2
loop_
 _symmetry_equiv_pos_site_id
 _symmetry_equiv_pos_as_xyz
  1  'x, y, z'
loop_
 _atom_site_type_symbol
 _atom_site_label
 _atom_site_symmetry_multiplicity
 _atom_site_fract_x
 _atom_site_fract_y
 _atom_site_fract_z
 _atom_site_occupancy
  Ba  Ba0  1  0.842193  0.157807  0.409859  1
  Ba  Ba1  1  0.157807  0.842193  0.590141  1
  Ba  Ba2  1  0.941105  0.058895  0.134600  1
  Ba  Ba3  1  0.058895  0.941105  0.865400  1
  Mg  Mg4  1  0.662262  0.337738  0.205444  1
  Mg  Mg5  1  0.337738  0.662262  0.794556  1
  Mg  Mg6  1  0.106569  0.893431  0.345829  1
  Mg  Mg7  1  0.893431  0.106569  0.654171  1
  Mg  Mg8  1  0.219515  0.780485  0.068820  1
  Mg  Mg9  1  0.780485  0.219515  0.931180  1
  Si  Si10  1  0.280239  0.719761  0.245788  1
  Si  Si11  1  0.560437  0.439563  0.442795  1
  Si  Si12  1  0.598897  0.401103  0.029767  1
  Si  Si13  1  0.401103  0.598897  0.970233  1
  Si  Si14  1  0.523549  0.476451  0.704361  1
  Si  Si15  1  0.476451  0.523549  0.295639  1
  Si  Si16  1  0.439563  0.560437  0.557205  1
  Si  Si17  1  0.719761  0.280239  0.754212  1
