# generated using pymatgen
data_TlTe
_symmetry_space_group_name_H-M   'P 1'
_cell_length_a   9.81701103
_cell_length_b   9.81701103
_cell_length_c   9.81701103
_cell_angle_alpha   95.94264757
_cell_angle_beta   95.94264757
_cell_angle_gamma   142.46056769
_symmetry_Int_Tables_number   1
_chemical_formula_structural   TlTe
_chemical_formula_sum   'Tl8 Te8'
_cell_volume   545.80987321
_cell_formula_units_Z   8
loop_
 _symmetry_equiv_pos_site_id
 _symmetry_equiv_pos_as_xyz
  1  'x, y, z'
loop_
 _atom_site_type_symbol
 _atom_site_label
 _atom_site_symmetry_multiplicity
 _atom_site_fract_x
 _atom_site_fract_y
 _atom_site_fract_z
 _atom_site_occupancy
  Tl  Tl0  1  0.728092  0.579361  0.307453  1
  Tl  Tl1  1  0.271908  0.420639  0.692547  1
  Tl  Tl2  1  0.420639  0.728092  0.148731  1
  Tl  Tl3  1  0.579361  0.271908  0.851269  1
  Tl  Tl4  1  0.228092  0.920639  0.148731  1
  Tl  Tl5  1  0.079361  0.228092  0.307453  1
  Tl  Tl6  1  0.920639  0.771908  0.692547  1
  Tl  Tl7  1  0.771908  0.079361  0.851269  1
  Te  Te8  1  0.750000  0.750000  0.000000  1
  Te  Te9  1  0.250000  0.250000  0.000000  1
  Te  Te10  1  0.000000  0.500000  0.500000  1
  Te  Te11  1  0.500000  0.000000  0.500000  1
  Te  Te12  1  0.662677  0.837323  0.500000  1
  Te  Te13  1  0.162677  0.662677  0.825354  1
  Te  Te14  1  0.837323  0.337323  0.174646  1
  Te  Te15  1  0.337323  0.162677  0.500000  1
