# generated using pymatgen
data_Hg2PCl2
_symmetry_space_group_name_H-M   'P 1'
_cell_length_a   6.03520809
_cell_length_b   6.03520809
_cell_length_c   7.74659263
_cell_angle_alpha   70.76380495
_cell_angle_beta   109.23619505
_cell_angle_gamma   94.84905632
_symmetry_Int_Tables_number   1
_chemical_formula_structural   Hg2PCl2
_chemical_formula_sum   'Hg4 P2 Cl4'
_cell_volume   251.44124674
_cell_formula_units_Z   2
loop_
 _symmetry_equiv_pos_site_id
 _symmetry_equiv_pos_as_xyz
  1  'x, y, z'
loop_
 _atom_site_type_symbol
 _atom_site_label
 _atom_site_symmetry_multiplicity
 _atom_site_fract_x
 _atom_site_fract_y
 _atom_site_fract_z
 _atom_site_occupancy
  Hg  Hg0  1  0.000000  0.500000  0.000000  1
  Hg  Hg1  1  0.500000  0.000000  0.000000  1
  Hg  Hg2  1  0.293343  0.706657  0.571626  1
  Hg  Hg3  1  0.706657  0.293343  0.428374  1
  P  P4  1  0.361859  0.638141  0.915745  1
  P  P5  1  0.638141  0.361859  0.084255  1
  Cl  Cl6  1  0.722616  0.722616  0.500000  1
  Cl  Cl7  1  0.277384  0.277384  0.500000  1
  Cl  Cl8  1  0.892450  0.107550  0.778831  1
  Cl  Cl9  1  0.107550  0.892450  0.221169  1
