# generated using pymatgen
data_Sr5U3O14
_symmetry_space_group_name_H-M   'P 1'
_cell_length_a   11.21530534
_cell_length_b   11.33356483
_cell_length_c   11.33454113
_cell_angle_alpha   90.00000000
_cell_angle_beta   90.00000000
_cell_angle_gamma   90.00000000
_symmetry_Int_Tables_number   1
_chemical_formula_structural   Sr5U3O14
_chemical_formula_sum   'Sr20 U12 O56'
_cell_volume   1440.72661077
_cell_formula_units_Z   4
loop_
 _symmetry_equiv_pos_site_id
 _symmetry_equiv_pos_as_xyz
  1  'x, y, z'
loop_
 _atom_site_type_symbol
 _atom_site_label
 _atom_site_symmetry_multiplicity
 _atom_site_fract_x
 _atom_site_fract_y
 _atom_site_fract_z
 _atom_site_occupancy
  Sr  Sr0  1  0.500000  0.000000  0.000000  1
  Sr  Sr1  1  0.000000  0.500000  0.000000  1
  Sr  Sr2  1  0.500000  0.500000  0.500000  1
  Sr  Sr3  1  0.000000  0.000000  0.500000  1
  Sr  Sr4  1  0.257135  0.261537  0.019784  1
  Sr  Sr5  1  0.757135  0.238463  0.980216  1
  Sr  Sr6  1  0.742865  0.761537  0.480216  1
  Sr  Sr7  1  0.242865  0.738463  0.519784  1
  Sr  Sr8  1  0.742865  0.738463  0.980216  1
  Sr  Sr9  1  0.242865  0.761537  0.019784  1
  Sr  Sr10  1  0.257135  0.238463  0.519784  1
  Sr  Sr11  1  0.757135  0.261537  0.480216  1
  Sr  Sr12  1  0.276070  0.504199  0.250651  1
  Sr  Sr13  1  0.776070  0.995801  0.749349  1
  Sr  Sr14  1  0.723930  0.004199  0.249349  1
  Sr  Sr15  1  0.223930  0.495801  0.750651  1
  Sr  Sr16  1  0.723930  0.495801  0.749349  1
  Sr  Sr17  1  0.223930  0.004199  0.250651  1
  Sr  Sr18  1  0.276070  0.995801  0.750651  1
  Sr  Sr19  1  0.776070  0.504199  0.249349  1
  U  U20  1  0.000000  0.000000  0.000000  1
  U  U21  1  0.500000  0.500000  0.000000  1
  U  U22  1  0.000000  0.500000  0.500000  1
  U  U23  1  0.500000  0.000000  0.500000  1
  U  U24  1  0.001106  0.251620  0.243963  1
  U  U25  1  0.501106  0.248380  0.756037  1
  U  U26  1  0.998894  0.751620  0.256037  1
  U  U27  1  0.498894  0.748380  0.743963  1
  U  U28  1  0.998894  0.748380  0.756037  1
  U  U29  1  0.498894  0.751620  0.243963  1
  U  U30  1  0.001106  0.248380  0.743963  1
  U  U31  1  0.501106  0.251620  0.256037  1
  O  O32  1  0.159600  0.975010  0.932985  1
  O  O33  1  0.659600  0.524990  0.067015  1
  O  O34  1  0.840400  0.475010  0.567015  1
  O  O35  1  0.340400  0.024990  0.432985  1
  O  O36  1  0.840400  0.024990  0.067015  1
  O  O37  1  0.340400  0.475010  0.932985  1
  O  O38  1  0.159600  0.524990  0.432985  1
  O  O39  1  0.659600  0.975010  0.567015  1
  O  O40  1  0.082076  0.130677  0.111648  1
  O  O41  1  0.582076  0.369323  0.888352  1
  O  O42  1  0.917924  0.630677  0.388352  1
  O  O43  1  0.417924  0.869323  0.611648  1
  O  O44  1  0.917924  0.869323  0.888352  1
  O  O45  1  0.417924  0.630677  0.111648  1
  O  O46  1  0.082076  0.369323  0.611648  1
  O  O47  1  0.582076  0.130677  0.388352  1
  O  O48  1  0.067325  0.621677  0.628681  1
  O  O49  1  0.567325  0.878323  0.371319  1
  O  O50  1  0.932675  0.121678  0.871319  1
  O  O51  1  0.432675  0.378323  0.128681  1
  O  O52  1  0.932675  0.378323  0.371319  1
  O  O53  1  0.432675  0.121678  0.628681  1
  O  O54  1  0.067325  0.878323  0.128681  1
  O  O55  1  0.567325  0.621677  0.871319  1
  O  O56  1  0.112464  0.167867  0.362844  1
  O  O57  1  0.612464  0.332133  0.637156  1
  O  O58  1  0.887536  0.667867  0.137156  1
  O  O59  1  0.387536  0.832133  0.862844  1
  O  O60  1  0.887536  0.832133  0.637156  1
  O  O61  1  0.387536  0.667867  0.362844  1
  O  O62  1  0.112464  0.332133  0.862844  1
  O  O63  1  0.612464  0.167867  0.137156  1
  O  O64  1  0.112807  0.661012  0.871985  1
  O  O65  1  0.612807  0.838988  0.128015  1
  O  O66  1  0.887193  0.161012  0.628015  1
  O  O67  1  0.387193  0.338988  0.371985  1
  O  O68  1  0.887193  0.338988  0.128015  1
  O  O69  1  0.387193  0.161012  0.871985  1
  O  O70  1  0.112807  0.838988  0.371985  1
  O  O71  1  0.612807  0.661012  0.628015  1
  O  O72  1  0.875801  0.146517  0.321377  1
  O  O73  1  0.375801  0.353483  0.678623  1
  O  O74  1  0.124199  0.646517  0.178623  1
  O  O75  1  0.624199  0.853483  0.821377  1
  O  O76  1  0.124199  0.853483  0.678623  1
  O  O77  1  0.624199  0.646517  0.321377  1
  O  O78  1  0.875801  0.353483  0.821377  1
  O  O79  1  0.375801  0.146517  0.178623  1
  O  O80  1  0.875067  0.636161  0.827776  1
  O  O81  1  0.375067  0.863839  0.172224  1
  O  O82  1  0.124933  0.136161  0.672224  1
  O  O83  1  0.624933  0.363839  0.327776  1
  O  O84  1  0.124933  0.363839  0.172224  1
  O  O85  1  0.624933  0.136161  0.827776  1
  O  O86  1  0.875067  0.863839  0.327776  1
  O  O87  1  0.375067  0.636161  0.672224  1
