# generated using pymatgen
data_Be(H2N)2
_symmetry_space_group_name_H-M   'P 1'
_cell_length_a   10.93201674
_cell_length_b   10.93201674
_cell_length_c   10.93201674
_cell_angle_alpha   123.58427183
_cell_angle_beta   123.58427183
_cell_angle_gamma   83.89644483
_symmetry_Int_Tables_number   1
_chemical_formula_structural   Be(H2N)2
_chemical_formula_sum   'Be16 H64 N32'
_cell_volume   868.37360788
_cell_formula_units_Z   16
loop_
 _symmetry_equiv_pos_site_id
 _symmetry_equiv_pos_as_xyz
  1  'x, y, z'
loop_
 _atom_site_type_symbol
 _atom_site_label
 _atom_site_symmetry_multiplicity
 _atom_site_fract_x
 _atom_site_fract_y
 _atom_site_fract_z
 _atom_site_occupancy
  Be  Be0  1  0.254451  0.562962  0.444784  1
  Be  Be1  1  0.312962  0.368178  0.808511  1
  Be  Be2  1  0.559667  0.504451  0.191489  1
  Be  Be3  1  0.995549  0.940333  0.808511  1
  Be  Be4  1  0.131822  0.187038  0.191489  1
  Be  Be5  1  0.690333  0.381822  0.444784  1
  Be  Be6  1  0.937038  0.245549  0.555216  1
  Be  Be7  1  0.118178  0.809667  0.555216  1
  Be  Be8  1  0.495549  0.687038  0.055216  1
  Be  Be9  1  0.437038  0.881822  0.691489  1
  Be  Be10  1  0.190333  0.745549  0.308511  1
  Be  Be11  1  0.754451  0.309667  0.691489  1
  Be  Be12  1  0.618178  0.062962  0.308511  1
  Be  Be13  1  0.059667  0.868178  0.055216  1
  Be  Be14  1  0.812962  0.004451  0.944784  1
  Be  Be15  1  0.631822  0.440333  0.944784  1
  H  H16  1  0.132201  0.137348  0.598296  1
  H  H17  1  0.966096  0.960949  0.598296  1
  H  H18  1  0.362652  0.367799  0.401704  1
  H  H19  1  0.117800  0.216096  0.505147  1
  H  H20  1  0.710949  0.612652  0.494853  1
  H  H21  1  0.887348  0.789051  0.505147  1
  H  H22  1  0.283904  0.382201  0.494853  1
  H  H23  1  0.539051  0.533904  0.401704  1
  H  H24  1  0.617800  0.112652  0.901704  1
  H  H25  1  0.783904  0.289051  0.901704  1
  H  H26  1  0.387348  0.882201  0.098296  1
  H  H27  1  0.632201  0.033904  0.994853  1
  H  H28  1  0.039051  0.637348  0.005147  1
  H  H29  1  0.862652  0.460949  0.994853  1
  H  H30  1  0.466096  0.867799  0.005147  1
  H  H31  1  0.210949  0.716096  0.098296  1
  H  H32  1  0.372245  0.978640  0.526549  1
  H  H33  1  0.654304  0.047909  0.526549  1
  H  H34  1  0.521360  0.127755  0.473451  1
  H  H35  1  0.877755  0.904304  0.106395  1
  H  H36  1  0.797909  0.771360  0.893605  1
  H  H37  1  0.728640  0.702091  0.106395  1
  H  H38  1  0.595696  0.622245  0.893605  1
  H  H39  1  0.452091  0.845696  0.473451  1
  H  H40  1  0.377755  0.271360  0.973451  1
  H  H41  1  0.095696  0.202091  0.973451  1
  H  H42  1  0.228640  0.122245  0.026549  1
  H  H43  1  0.957777  0.715529  0.251569  1
  H  H44  1  0.872245  0.345696  0.393605  1
  H  H45  1  0.021360  0.547909  0.393605  1
  H  H46  1  0.154304  0.627755  0.606395  1
  H  H47  1  0.297909  0.404304  0.026549  1
  H  H48  1  0.042354  0.894259  0.374153  1
  H  H49  1  0.831799  0.979895  0.374153  1
  H  H50  1  0.605741  0.457646  0.625847  1
  H  H51  1  0.207646  0.081799  0.351904  1
  H  H52  1  0.729895  0.855741  0.648096  1
  H  H53  1  0.644259  0.770105  0.351904  1
  H  H54  1  0.418201  0.292354  0.648096  1
  H  H55  1  0.520105  0.668201  0.625847  1
  H  H56  1  0.707646  0.355741  0.125847  1
  H  H57  1  0.918201  0.270105  0.125847  1
  H  H58  1  0.144259  0.792354  0.874153  1
  H  H59  1  0.542354  0.168201  0.148096  1
  H  H60  1  0.020105  0.394259  0.851904  1
  H  H61  1  0.105741  0.479895  0.148096  1
  H  H62  1  0.331799  0.957646  0.851904  1
  H  H63  1  0.229895  0.581799  0.874153  1
  H  H64  1  0.286040  0.543792  0.751569  1
  H  H65  1  0.293792  0.042223  0.757752  1
  H  H66  1  0.284471  0.536040  0.242248  1
  H  H67  1  0.963961  0.215529  0.757752  1
  H  H68  1  0.457777  0.206208  0.242248  1
  H  H69  1  0.965529  0.707777  0.751569  1
  H  H70  1  0.956208  0.213961  0.248431  1
  H  H71  1  0.792223  0.534471  0.248431  1
  H  H72  1  0.463961  0.706208  0.748431  1
  H  H73  1  0.456208  0.207777  0.742248  1
  H  H74  1  0.465529  0.713960  0.257752  1
  H  H75  1  0.786040  0.034471  0.742248  1
  H  H76  1  0.292223  0.043792  0.257752  1
  H  H77  1  0.784471  0.542223  0.748431  1
  H  H78  1  0.793792  0.036040  0.251569  1
  H  H79  1  0.952091  0.478640  0.606395  1
  N  N80  1  0.062165  0.796096  0.363164  1
  N  N81  1  0.800998  0.067067  0.363164  1
  N  N82  1  0.703904  0.437835  0.636836  1
  N  N83  1  0.187835  0.050998  0.233931  1
  N  N84  1  0.817067  0.953904  0.766069  1
  N  N85  1  0.546096  0.682933  0.233931  1
  N  N86  1  0.449002  0.312165  0.766069  1
  N  N87  1  0.432933  0.699001  0.636836  1
  N  N88  1  0.687835  0.453904  0.136836  1
  N  N89  1  0.949002  0.182933  0.136836  1
  N  N90  1  0.046096  0.812165  0.863164  1
  N  N91  1  0.562165  0.199002  0.266069  1
  N  N92  1  0.932933  0.296096  0.733931  1
  N  N93  1  0.203904  0.567067  0.266069  1
  N  N94  1  0.300998  0.937835  0.733931  1
  N  N95  1  0.317067  0.550998  0.863164  1
  N  N96  1  0.377079  0.377079  0.000000  1
  N  N97  1  0.127079  0.627079  0.500000  1
  N  N98  1  0.872921  0.372921  0.500000  1
  N  N99  1  0.122921  0.122921  0.000000  1
  N  N100  1  0.372921  0.872921  0.500000  1
  N  N101  1  0.622921  0.622921  0.000000  1
  N  N102  1  0.877079  0.877079  0.000000  1
  N  N103  1  0.627079  0.127079  0.500000  1
  N  N104  1  0.125000  0.739110  0.114110  1
  N  N105  1  0.489110  0.875000  0.114110  1
  N  N106  1  0.760890  0.375000  0.885890  1
  N  N107  1  0.625000  0.010890  0.885890  1
  N  N108  1  0.625000  0.510890  0.385890  1
  N  N109  1  0.260890  0.375000  0.385890  1
  N  N110  1  0.989110  0.875000  0.614110  1
  N  N111  1  0.125000  0.239110  0.614110  1
