# generated using pymatgen
data_Yb2InGe2
_symmetry_space_group_name_H-M   'P 1'
_cell_length_a   7.33720988
_cell_length_b   7.33720988
_cell_length_c   4.41997922
_cell_angle_alpha   90.00000000
_cell_angle_beta   90.00000000
_cell_angle_gamma   90.00000000
_symmetry_Int_Tables_number   1
_chemical_formula_structural   Yb2InGe2
_chemical_formula_sum   'Yb4 In2 Ge4'
_cell_volume   237.94802911
_cell_formula_units_Z   2
loop_
 _symmetry_equiv_pos_site_id
 _symmetry_equiv_pos_as_xyz
  1  'x, y, z'
loop_
 _atom_site_type_symbol
 _atom_site_label
 _atom_site_symmetry_multiplicity
 _atom_site_fract_x
 _atom_site_fract_y
 _atom_site_fract_z
 _atom_site_occupancy
  Yb  Yb0  1  0.326075  0.826075  0.500000  1
  Yb  Yb1  1  0.826075  0.673925  0.500000  1
  Yb  Yb2  1  0.173925  0.326075  0.500000  1
  Yb  Yb3  1  0.673925  0.173925  0.500000  1
  In  In4  1  0.000000  0.000000  0.000000  1
  In  In5  1  0.500000  0.500000  0.000000  1
  Ge  Ge6  1  0.122233  0.622233  0.000000  1
  Ge  Ge7  1  0.622233  0.877767  0.000000  1
  Ge  Ge8  1  0.377767  0.122233  0.000000  1
  Ge  Ge9  1  0.877767  0.377767  0.000000  1
