# generated using pymatgen
data_Rb2SnO2
_symmetry_space_group_name_H-M   'P 1'
_cell_length_a   5.88714326
_cell_length_b   7.64196088
_cell_length_c   11.43767112
_cell_angle_alpha   90.00000000
_cell_angle_beta   90.00000000
_cell_angle_gamma   90.00000000
_symmetry_Int_Tables_number   1
_chemical_formula_structural   Rb2SnO2
_chemical_formula_sum   'Rb8 Sn4 O8'
_cell_volume   514.57302878
_cell_formula_units_Z   4
loop_
 _symmetry_equiv_pos_site_id
 _symmetry_equiv_pos_as_xyz
  1  'x, y, z'
loop_
 _atom_site_type_symbol
 _atom_site_label
 _atom_site_symmetry_multiplicity
 _atom_site_fract_x
 _atom_site_fract_y
 _atom_site_fract_z
 _atom_site_occupancy
  Rb  Rb0  1  0.001079  0.646988  0.741555  1
  Rb  Rb1  1  0.498921  0.353012  0.241555  1
  Rb  Rb2  1  0.002883  0.608603  0.417686  1
  Rb  Rb3  1  0.497117  0.391397  0.917686  1
  Rb  Rb4  1  0.997117  0.108603  0.082314  1
  Rb  Rb5  1  0.502883  0.891397  0.582314  1
  Rb  Rb6  1  0.501079  0.853012  0.258445  1
  Rb  Rb7  1  0.998921  0.146988  0.758445  1
  Sn  Sn8  1  0.495617  0.889375  0.943394  1
  Sn  Sn9  1  0.504383  0.389375  0.556606  1
  Sn  Sn10  1  0.004383  0.110625  0.443394  1
  Sn  Sn11  1  0.995617  0.610625  0.056606  1
  O  O12  1  0.337678  0.694699  0.047649  1
  O  O13  1  0.496393  0.583054  0.434862  1
  O  O14  1  0.996393  0.916946  0.565138  1
  O  O15  1  0.162322  0.305301  0.547649  1
  O  O16  1  0.503607  0.083054  0.065138  1
  O  O17  1  0.662322  0.194699  0.452351  1
  O  O18  1  0.837678  0.805301  0.952351  1
  O  O19  1  0.003607  0.416946  0.934862  1
