# generated using pymatgen
data_Li2TeO3
_symmetry_space_group_name_H-M   'P 1'
_cell_length_a   5.47950833
_cell_length_b   5.47950833
_cell_length_c   14.08794444
_cell_angle_alpha   87.62876466
_cell_angle_beta   92.37123534
_cell_angle_gamma   56.97059509
_symmetry_Int_Tables_number   1
_chemical_formula_structural   Li2TeO3
_chemical_formula_sum   'Li8 Te4 O12'
_cell_volume   353.29463923
_cell_formula_units_Z   4
loop_
 _symmetry_equiv_pos_site_id
 _symmetry_equiv_pos_as_xyz
  1  'x, y, z'
loop_
 _atom_site_type_symbol
 _atom_site_label
 _atom_site_symmetry_multiplicity
 _atom_site_fract_x
 _atom_site_fract_y
 _atom_site_fract_z
 _atom_site_occupancy
  Li  Li0  1  0.046654  0.453467  0.682848  1
  Li  Li1  1  0.453467  0.046654  0.817152  1
  Li  Li2  1  0.953346  0.546533  0.317152  1
  Li  Li3  1  0.546533  0.953346  0.182848  1
  Li  Li4  1  0.267926  0.860622  0.315424  1
  Li  Li5  1  0.860622  0.267926  0.184576  1
  Li  Li6  1  0.732074  0.139378  0.684576  1
  Li  Li7  1  0.139378  0.732074  0.815424  1
  Te  Te8  1  0.359180  0.827303  0.593892  1
  Te  Te9  1  0.827303  0.359180  0.906108  1
  Te  Te10  1  0.640820  0.172697  0.406108  1
  Te  Te11  1  0.172697  0.640820  0.093892  1
  O  O12  1  0.717737  0.465755  0.617141  1
  O  O13  1  0.231280  0.881882  0.170761  1
  O  O14  1  0.768720  0.118118  0.829239  1
  O  O15  1  0.118118  0.768720  0.670761  1
  O  O16  1  0.934678  0.580757  0.172108  1
  O  O17  1  0.580757  0.934678  0.327892  1
  O  O18  1  0.065322  0.419243  0.827892  1
  O  O19  1  0.419243  0.065322  0.672108  1
  O  O20  1  0.282263  0.534245  0.382859  1
  O  O21  1  0.534245  0.282263  0.117141  1
  O  O22  1  0.881882  0.231280  0.329239  1
  O  O23  1  0.465755  0.717737  0.882859  1
