# generated using pymatgen
data_Li3P7
_symmetry_space_group_name_H-M   'P 1'
_cell_length_a   7.62868168
_cell_length_b   9.84787485
_cell_length_c   10.59724957
_cell_angle_alpha   90.00000000
_cell_angle_beta   90.00000000
_cell_angle_gamma   90.00000000
_symmetry_Int_Tables_number   1
_chemical_formula_structural   Li3P7
_chemical_formula_sum   'Li12 P28'
_cell_volume   796.13217639
_cell_formula_units_Z   4
loop_
 _symmetry_equiv_pos_site_id
 _symmetry_equiv_pos_as_xyz
  1  'x, y, z'
loop_
 _atom_site_type_symbol
 _atom_site_label
 _atom_site_symmetry_multiplicity
 _atom_site_fract_x
 _atom_site_fract_y
 _atom_site_fract_z
 _atom_site_occupancy
  Li  Li0  1  0.850532  0.307848  0.816050  1
  Li  Li1  1  0.350532  0.192152  0.183950  1
  Li  Li2  1  0.149468  0.807848  0.683950  1
  Li  Li3  1  0.649468  0.692152  0.316050  1
  Li  Li4  1  0.568949  0.025950  0.014795  1
  Li  Li5  1  0.068949  0.474050  0.985205  1
  Li  Li6  1  0.431051  0.525950  0.485205  1
  Li  Li7  1  0.931051  0.974050  0.514795  1
  Li  Li8  1  0.402238  0.301371  0.692124  1
  Li  Li9  1  0.902238  0.198629  0.307876  1
  Li  Li10  1  0.597762  0.801371  0.807876  1
  Li  Li11  1  0.097762  0.698629  0.192124  1
  P  P12  1  0.280768  0.875491  0.318848  1
  P  P13  1  0.780768  0.624509  0.681152  1
  P  P14  1  0.719232  0.375491  0.181152  1
  P  P15  1  0.219232  0.124509  0.818848  1
  P  P16  1  0.637646  0.048522  0.387402  1
  P  P17  1  0.137646  0.451478  0.612598  1
  P  P18  1  0.362354  0.548522  0.112598  1
  P  P19  1  0.862354  0.951478  0.887402  1
  P  P20  1  0.533797  0.943528  0.565132  1
  P  P21  1  0.033797  0.556472  0.434868  1
  P  P22  1  0.466203  0.443528  0.934868  1
  P  P23  1  0.966203  0.056472  0.065132  1
  P  P24  1  0.406053  0.134841  0.494288  1
  P  P25  1  0.906053  0.365159  0.505712  1
  P  P26  1  0.593947  0.634841  0.005712  1
  P  P27  1  0.093947  0.865159  0.994288  1
  P  P28  1  0.316265  0.927027  0.881290  1
  P  P29  1  0.816265  0.572973  0.118710  1
  P  P30  1  0.683735  0.427027  0.618710  1
  P  P31  1  0.183735  0.072973  0.381290  1
  P  P32  1  0.128725  0.218031  0.994617  1
  P  P33  1  0.628725  0.281969  0.005383  1
  P  P34  1  0.871275  0.718031  0.505383  1
  P  P35  1  0.371275  0.781969  0.494617  1
  P  P36  1  0.966493  0.070503  0.734192  1
  P  P37  1  0.466493  0.429497  0.265808  1
  P  P38  1  0.033507  0.570503  0.765808  1
  P  P39  1  0.533507  0.929497  0.234192  1
