# generated using pymatgen
data_Na4Ga2S5
_symmetry_space_group_name_H-M   'P 1'
_cell_length_a   8.04831287
_cell_length_b   6.17845747
_cell_length_c   20.11294083
_cell_angle_alpha   90.00000000
_cell_angle_beta   91.36882956
_cell_angle_gamma   90.00000000
_symmetry_Int_Tables_number   1
_chemical_formula_structural   Na4Ga2S5
_chemical_formula_sum   'Na16 Ga8 S20'
_cell_volume   999.85388268
_cell_formula_units_Z   4
loop_
 _symmetry_equiv_pos_site_id
 _symmetry_equiv_pos_as_xyz
  1  'x, y, z'
loop_
 _atom_site_type_symbol
 _atom_site_label
 _atom_site_symmetry_multiplicity
 _atom_site_fract_x
 _atom_site_fract_y
 _atom_site_fract_z
 _atom_site_occupancy
  Na  Na0  1  0.576156  0.743775  0.043015  1
  Na  Na1  1  0.423844  0.243775  0.456985  1
  Na  Na2  1  0.423844  0.256225  0.956985  1
  Na  Na3  1  0.576156  0.756225  0.543015  1
  Na  Na4  1  0.901988  0.458556  0.102629  1
  Na  Na5  1  0.098012  0.958556  0.397371  1
  Na  Na6  1  0.098012  0.541444  0.897371  1
  Na  Na7  1  0.901988  0.041444  0.602629  1
  Na  Na8  1  0.846565  0.475074  0.283365  1
  Na  Na9  1  0.153435  0.975074  0.216635  1
  Na  Na10  1  0.153435  0.524926  0.716635  1
  Na  Na11  1  0.846565  0.024926  0.783365  1
  Na  Na12  1  0.388374  0.500337  0.299727  1
  Na  Na13  1  0.611626  0.000337  0.200273  1
  Na  Na14  1  0.611626  0.499663  0.700273  1
  Na  Na15  1  0.388374  0.999663  0.799727  1
  Ga  Ga16  1  0.846045  0.086591  0.963448  1
  Ga  Ga17  1  0.153955  0.913409  0.036552  1
  Ga  Ga18  1  0.846045  0.413409  0.463448  1
  Ga  Ga19  1  0.333446  0.067374  0.634275  1
  Ga  Ga20  1  0.666554  0.567374  0.865725  1
  Ga  Ga21  1  0.666554  0.932626  0.365725  1
  Ga  Ga22  1  0.333446  0.432626  0.134275  1
  Ga  Ga23  1  0.153955  0.586591  0.536552  1
  S  S24  1  0.888848  0.523729  0.573858  1
  S  S25  1  0.888848  0.976271  0.073858  1
  S  S26  1  0.111152  0.476271  0.426142  1
  S  S27  1  0.131948  0.015667  0.707318  1
  S  S28  1  0.868052  0.515667  0.792682  1
  S  S29  1  0.868052  0.984333  0.292682  1
  S  S30  1  0.111152  0.023729  0.926142  1
  S  S31  1  0.131948  0.484333  0.207318  1
  S  S32  1  0.635278  0.570611  0.402378  1
  S  S33  1  0.364722  0.070611  0.097622  1
  S  S34  1  0.364722  0.429389  0.597622  1
  S  S35  1  0.635278  0.929389  0.902378  1
  S  S36  1  0.241985  0.563682  0.029907  1
  S  S37  1  0.758015  0.063682  0.470093  1
  S  S38  1  0.758015  0.436318  0.970093  1
  S  S39  1  0.241985  0.936318  0.529907  1
  S  S40  1  0.591010  0.522719  0.172350  1
  S  S41  1  0.408990  0.022719  0.327650  1
  S  S42  1  0.408990  0.477281  0.827650  1
  S  S43  1  0.591010  0.977281  0.672350  1
