# generated using pymatgen
data_YbNiB4
_symmetry_space_group_name_H-M   'P 1'
_cell_length_a   3.37061643
_cell_length_b   5.87816584
_cell_length_c   11.40257291
_cell_angle_alpha   90.00000000
_cell_angle_beta   90.00000000
_cell_angle_gamma   90.00000000
_symmetry_Int_Tables_number   1
_chemical_formula_structural   YbNiB4
_chemical_formula_sum   'Yb4 Ni4 B16'
_cell_volume   225.91966006
_cell_formula_units_Z   4
loop_
 _symmetry_equiv_pos_site_id
 _symmetry_equiv_pos_as_xyz
  1  'x, y, z'
loop_
 _atom_site_type_symbol
 _atom_site_label
 _atom_site_symmetry_multiplicity
 _atom_site_fract_x
 _atom_site_fract_y
 _atom_site_fract_z
 _atom_site_occupancy
  Yb  Yb0  1  0.000000  0.627827  0.349677  1
  Yb  Yb1  1  0.000000  0.127827  0.150323  1
  Yb  Yb2  1  0.000000  0.872173  0.849677  1
  Yb  Yb3  1  0.000000  0.372173  0.650323  1
  Ni  Ni4  1  0.000000  0.135551  0.411375  1
  Ni  Ni5  1  0.000000  0.364449  0.911375  1
  Ni  Ni6  1  0.000000  0.635551  0.088625  1
  Ni  Ni7  1  0.000000  0.864449  0.588625  1
  B  B8  1  0.500000  0.019935  0.690586  1
  B  B9  1  0.500000  0.782081  0.184075  1
  B  B10  1  0.500000  0.612249  0.952710  1
  B  B11  1  0.500000  0.282081  0.315925  1
  B  B12  1  0.500000  0.887751  0.452710  1
  B  B13  1  0.500000  0.860551  0.032578  1
  B  B14  1  0.500000  0.639449  0.532578  1
  B  B15  1  0.500000  0.112249  0.547290  1
  B  B16  1  0.500000  0.217919  0.815925  1
  B  B17  1  0.500000  0.480065  0.190586  1
  B  B18  1  0.500000  0.519935  0.809414  1
  B  B19  1  0.500000  0.980065  0.309414  1
  B  B20  1  0.500000  0.387751  0.047290  1
  B  B21  1  0.500000  0.717919  0.684075  1
  B  B22  1  0.500000  0.360551  0.467422  1
  B  B23  1  0.500000  0.139449  0.967422  1
