# generated using pymatgen
data_Al2B2Ru3
_symmetry_space_group_name_H-M   'P 1'
_cell_length_a   9.04175518
_cell_length_b   9.04175518
_cell_length_c   2.94262062
_cell_angle_alpha   90.00000000
_cell_angle_beta   90.00000000
_cell_angle_gamma   160.65095991
_symmetry_Int_Tables_number   1
_chemical_formula_structural   Al2B2Ru3
_chemical_formula_sum   'Al2 B2 Ru3'
_cell_volume   79.70583984
_cell_formula_units_Z   1
loop_
 _symmetry_equiv_pos_site_id
 _symmetry_equiv_pos_as_xyz
  1  'x, y, z'
loop_
 _atom_site_type_symbol
 _atom_site_label
 _atom_site_symmetry_multiplicity
 _atom_site_fract_x
 _atom_site_fract_y
 _atom_site_fract_z
 _atom_site_occupancy
  Al  Al0  1  0.420965  0.579035  0.500000  1
  Al  Al1  1  0.579035  0.420965  0.500000  1
  B  B2  1  0.277642  0.722358  0.500000  1
  B  B3  1  0.722358  0.277642  0.500000  1
  Ru  Ru4  1  0.174952  0.825048  0.000000  1
  Ru  Ru5  1  0.000000  0.000000  0.000000  1
  Ru  Ru6  1  0.825048  0.174952  0.000000  1
