# generated using pymatgen
data_RhS2
_symmetry_space_group_name_H-M   'P 1'
_cell_length_a   5.77276665
_cell_length_b   5.77276665
_cell_length_c   5.77276665
_cell_angle_alpha   90.00000000
_cell_angle_beta   90.00000000
_cell_angle_gamma   90.00000000
_symmetry_Int_Tables_number   1
_chemical_formula_structural   RhS2
_chemical_formula_sum   'Rh4 S8'
_cell_volume   192.37649492
_cell_formula_units_Z   4
loop_
 _symmetry_equiv_pos_site_id
 _symmetry_equiv_pos_as_xyz
  1  'x, y, z'
loop_
 _atom_site_type_symbol
 _atom_site_label
 _atom_site_symmetry_multiplicity
 _atom_site_fract_x
 _atom_site_fract_y
 _atom_site_fract_z
 _atom_site_occupancy
  Rh  Rh0  1  0.000000  0.500000  0.500000  1
  Rh  Rh1  1  0.500000  0.500000  0.000000  1
  Rh  Rh2  1  0.500000  0.000000  0.500000  1
  Rh  Rh3  1  0.000000  0.000000  0.000000  1
  S  S4  1  0.390912  0.109088  0.890912  1
  S  S5  1  0.109088  0.890912  0.390912  1
  S  S6  1  0.890912  0.390912  0.109088  1
  S  S7  1  0.609088  0.609088  0.609088  1
  S  S8  1  0.390912  0.390912  0.390912  1
  S  S9  1  0.109088  0.609088  0.890912  1
  S  S10  1  0.890912  0.109088  0.609088  1
  S  S11  1  0.609088  0.890912  0.109088  1
