# generated using pymatgen
data_US2
_symmetry_space_group_name_H-M   'P 1'
_cell_length_a   7.24970195
_cell_length_b   7.24970195
_cell_length_c   3.93395541
_cell_angle_alpha   90.00000000
_cell_angle_beta   90.00000000
_cell_angle_gamma   120.00000000
_symmetry_Int_Tables_number   1
_chemical_formula_structural   US2
_chemical_formula_sum   'U3 S6'
_cell_volume   179.06073770
_cell_formula_units_Z   3
loop_
 _symmetry_equiv_pos_site_id
 _symmetry_equiv_pos_as_xyz
  1  'x, y, z'
loop_
 _atom_site_type_symbol
 _atom_site_label
 _atom_site_symmetry_multiplicity
 _atom_site_fract_x
 _atom_site_fract_y
 _atom_site_fract_z
 _atom_site_occupancy
  U  U0  1  0.666667  0.333333  0.000000  1
  U  U1  1  0.333333  0.666667  0.000000  1
  U  U2  1  0.000000  0.000000  0.500000  1
  S  S3  1  0.000000  0.591940  0.500000  1
  S  S4  1  0.408060  0.408060  0.500000  1
  S  S5  1  0.591940  0.000000  0.500000  1
  S  S6  1  0.257859  0.000000  0.000000  1
  S  S7  1  0.742141  0.742141  0.000000  1
  S  S8  1  0.000000  0.257859  0.000000  1
