# generated using pymatgen
data_EuGa4
_symmetry_space_group_name_H-M   'P 1'
_cell_length_a   6.21591694
_cell_length_b   6.21591694
_cell_length_c   6.21591694
_cell_angle_alpha   137.97770810
_cell_angle_beta   137.97770810
_cell_angle_gamma   60.93714136
_symmetry_Int_Tables_number   1
_chemical_formula_structural   EuGa4
_chemical_formula_sum   'Eu1 Ga4'
_cell_volume   106.44728891
_cell_formula_units_Z   1
loop_
 _symmetry_equiv_pos_site_id
 _symmetry_equiv_pos_as_xyz
  1  'x, y, z'
loop_
 _atom_site_type_symbol
 _atom_site_label
 _atom_site_symmetry_multiplicity
 _atom_site_fract_x
 _atom_site_fract_y
 _atom_site_fract_z
 _atom_site_occupancy
  Eu  Eu0  1  0.000000  0.000000  0.000000  1
  Ga  Ga1  1  0.617088  0.617088  0.000000  1
  Ga  Ga2  1  0.750000  0.250000  0.500000  1
  Ga  Ga3  1  0.250000  0.750000  0.500000  1
  Ga  Ga4  1  0.382912  0.382912  0.000000  1
