# generated using pymatgen
data_Cs6InAs3
_symmetry_space_group_name_H-M   'P 1'
_cell_length_a   10.78845588
_cell_length_b   6.46633181
_cell_length_c   12.44351538
_cell_angle_alpha   90.00000000
_cell_angle_beta   101.71567072
_cell_angle_gamma   90.00000000
_symmetry_Int_Tables_number   1
_chemical_formula_structural   Cs6InAs3
_chemical_formula_sum   'Cs12 In2 As6'
_cell_volume   849.99676120
_cell_formula_units_Z   2
loop_
 _symmetry_equiv_pos_site_id
 _symmetry_equiv_pos_as_xyz
  1  'x, y, z'
loop_
 _atom_site_type_symbol
 _atom_site_label
 _atom_site_symmetry_multiplicity
 _atom_site_fract_x
 _atom_site_fract_y
 _atom_site_fract_z
 _atom_site_occupancy
  Cs  Cs0  1  0.465334  0.750000  0.926860  1
  Cs  Cs1  1  0.534666  0.250000  0.073140  1
  Cs  Cs2  1  0.743475  0.750000  0.775859  1
  Cs  Cs3  1  0.256525  0.250000  0.224141  1
  Cs  Cs4  1  0.562762  0.250000  0.463696  1
  Cs  Cs5  1  0.437238  0.750000  0.536304  1
  Cs  Cs6  1  0.865255  0.250000  0.983008  1
  Cs  Cs7  1  0.134745  0.750000  0.016992  1
  Cs  Cs8  1  0.880038  0.250000  0.324323  1
  Cs  Cs9  1  0.119962  0.750000  0.675677  1
  Cs  Cs10  1  0.917125  0.250000  0.636871  1
  Cs  Cs11  1  0.082875  0.750000  0.363129  1
  In  In12  1  0.328391  0.250000  0.721217  1
  In  In13  1  0.671609  0.750000  0.278783  1
  As  As14  1  0.187587  0.250000  0.878176  1
  As  As15  1  0.812413  0.750000  0.121824  1
  As  As16  1  0.210715  0.250000  0.510607  1
  As  As17  1  0.789285  0.750000  0.489393  1
  As  As18  1  0.577772  0.250000  0.772897  1
  As  As19  1  0.422228  0.750000  0.227103  1
