# generated using pymatgen
data_MgH12SO9
_symmetry_space_group_name_H-M   'P 1'
_cell_length_a   5.94920520
_cell_length_b   5.94920520
_cell_length_c   5.94920520
_cell_angle_alpha   96.00119119
_cell_angle_beta   96.00119119
_cell_angle_gamma   96.00119119
_symmetry_Int_Tables_number   1
_chemical_formula_structural   MgH12SO9
_chemical_formula_sum   'Mg1 H12 S1 O9'
_cell_volume   206.83457966
_cell_formula_units_Z   1
loop_
 _symmetry_equiv_pos_site_id
 _symmetry_equiv_pos_as_xyz
  1  'x, y, z'
loop_
 _atom_site_type_symbol
 _atom_site_label
 _atom_site_symmetry_multiplicity
 _atom_site_fract_x
 _atom_site_fract_y
 _atom_site_fract_z
 _atom_site_occupancy
  Mg  Mg0  1  0.990903  0.990903  0.990903  1
  H  H1  1  0.367285  0.797127  0.184361  1
  H  H2  1  0.184361  0.367285  0.797127  1
  H  H3  1  0.797127  0.184361  0.367285  1
  H  H4  1  0.400786  0.062399  0.265806  1
  H  H5  1  0.265806  0.400786  0.062399  1
  H  H6  1  0.062399  0.265806  0.400786  1
  H  H7  1  0.619917  0.132701  0.733240  1
  H  H8  1  0.733240  0.619917  0.132701  1
  H  H9  1  0.132701  0.733240  0.619917  1
  H  H10  1  0.532676  0.016704  0.945147  1
  H  H11  1  0.945147  0.532676  0.016704  1
  H  H12  1  0.016704  0.945147  0.532676  1
  S  S13  1  0.495349  0.495349  0.495349  1
  O  O14  1  0.328769  0.946269  0.135758  1
  O  O15  1  0.135758  0.328769  0.946269  1
  O  O16  1  0.946269  0.135758  0.328769  1
  O  O17  1  0.670157  0.068191  0.874895  1
  O  O18  1  0.874895  0.670157  0.068191  1
  O  O19  1  0.068191  0.874895  0.670157  1
  O  O20  1  0.553429  0.245115  0.473436  1
  O  O21  1  0.473436  0.553429  0.245115  1
  O  O22  1  0.245115  0.473436  0.553429  1
