# generated using pymatgen
data_Cd3AsCl3
_symmetry_space_group_name_H-M   'P 1'
_cell_length_a   7.22461692
_cell_length_b   8.27807981
_cell_length_c   13.46817698
_cell_angle_alpha   90.00000000
_cell_angle_beta   90.00000000
_cell_angle_gamma   90.00000000
_symmetry_Int_Tables_number   1
_chemical_formula_structural   Cd3AsCl3
_chemical_formula_sum   'Cd12 As4 Cl12'
_cell_volume   805.47719260
_cell_formula_units_Z   4
loop_
 _symmetry_equiv_pos_site_id
 _symmetry_equiv_pos_as_xyz
  1  'x, y, z'
loop_
 _atom_site_type_symbol
 _atom_site_label
 _atom_site_symmetry_multiplicity
 _atom_site_fract_x
 _atom_site_fract_y
 _atom_site_fract_z
 _atom_site_occupancy
  Cd  Cd0  1  0.505021  0.750000  0.761275  1
  Cd  Cd1  1  0.005021  0.250000  0.738725  1
  Cd  Cd2  1  0.494979  0.250000  0.238725  1
  Cd  Cd3  1  0.994979  0.750000  0.261275  1
  Cd  Cd4  1  0.500000  0.500000  0.500000  1
  Cd  Cd5  1  0.000000  0.500000  0.000000  1
  Cd  Cd6  1  0.500000  0.000000  0.500000  1
  Cd  Cd7  1  0.000000  0.000000  0.000000  1
  Cd  Cd8  1  0.997924  0.750000  0.588411  1
  Cd  Cd9  1  0.497924  0.250000  0.911589  1
  Cd  Cd10  1  0.002076  0.250000  0.411589  1
  Cd  Cd11  1  0.502076  0.750000  0.088411  1
  As  As12  1  0.858055  0.750000  0.083905  1
  As  As13  1  0.358055  0.250000  0.416095  1
  As  As14  1  0.141945  0.250000  0.916095  1
  As  As15  1  0.641945  0.750000  0.583905  1
  Cl  Cl16  1  0.806445  0.021599  0.332704  1
  Cl  Cl17  1  0.306445  0.978401  0.167296  1
  Cl  Cl18  1  0.193555  0.521599  0.667296  1
  Cl  Cl19  1  0.693555  0.478401  0.832704  1
  Cl  Cl20  1  0.193555  0.978401  0.667296  1
  Cl  Cl21  1  0.693555  0.021599  0.832704  1
  Cl  Cl22  1  0.806445  0.478401  0.332704  1
  Cl  Cl23  1  0.306445  0.521599  0.167296  1
  Cl  Cl24  1  0.309566  0.750000  0.918374  1
  Cl  Cl25  1  0.809566  0.250000  0.581626  1
  Cl  Cl26  1  0.690434  0.250000  0.081626  1
  Cl  Cl27  1  0.190434  0.750000  0.418374  1
