# generated using pymatgen
data_AsF3
_symmetry_space_group_name_H-M   'P 1'
_cell_length_a   5.37991364
_cell_length_b   7.11794183
_cell_length_c   7.46926460
_cell_angle_alpha   90.00000000
_cell_angle_beta   90.00000000
_cell_angle_gamma   90.00000000
_symmetry_Int_Tables_number   1
_chemical_formula_structural   AsF3
_chemical_formula_sum   'As4 F12'
_cell_volume   286.02736384
_cell_formula_units_Z   4
loop_
 _symmetry_equiv_pos_site_id
 _symmetry_equiv_pos_as_xyz
  1  'x, y, z'
loop_
 _atom_site_type_symbol
 _atom_site_label
 _atom_site_symmetry_multiplicity
 _atom_site_fract_x
 _atom_site_fract_y
 _atom_site_fract_z
 _atom_site_occupancy
  As  As0  1  0.456586  0.215586  0.751868  1
  As  As1  1  0.543414  0.784414  0.251868  1
  As  As2  1  0.043414  0.715586  0.751868  1
  As  As3  1  0.956586  0.284414  0.251868  1
  F  F4  1  0.193259  0.320543  0.646745  1
  F  F5  1  0.806741  0.679457  0.146745  1
  F  F6  1  0.306741  0.820543  0.646745  1
  F  F7  1  0.693259  0.179457  0.146745  1
  F  F8  1  0.090089  0.064630  0.308995  1
  F  F9  1  0.909911  0.935370  0.808995  1
  F  F10  1  0.409911  0.564630  0.308995  1
  F  F11  1  0.590089  0.435370  0.808995  1
  F  F12  1  0.123284  0.306079  0.047192  1
  F  F13  1  0.876716  0.693921  0.547192  1
  F  F14  1  0.376716  0.806079  0.047192  1
  F  F15  1  0.623284  0.193921  0.547192  1
