# generated using pymatgen
data_SiPd3
_symmetry_space_group_name_H-M   'P 1'
_cell_length_a   5.34204347
_cell_length_b   5.85991311
_cell_length_c   7.63112393
_cell_angle_alpha   90.00000000
_cell_angle_beta   90.00000000
_cell_angle_gamma   90.00000000
_symmetry_Int_Tables_number   1
_chemical_formula_structural   SiPd3
_chemical_formula_sum   'Si4 Pd12'
_cell_volume   238.88402101
_cell_formula_units_Z   4
loop_
 _symmetry_equiv_pos_site_id
 _symmetry_equiv_pos_as_xyz
  1  'x, y, z'
loop_
 _atom_site_type_symbol
 _atom_site_label
 _atom_site_symmetry_multiplicity
 _atom_site_fract_x
 _atom_site_fract_y
 _atom_site_fract_z
 _atom_site_occupancy
  Si  Si0  1  0.530287  0.604052  0.750000  1
  Si  Si1  1  0.030287  0.895948  0.250000  1
  Si  Si2  1  0.969713  0.104052  0.750000  1
  Si  Si3  1  0.469713  0.395948  0.250000  1
  Pd  Pd4  1  0.678094  0.320350  0.948237  1
  Pd  Pd5  1  0.178094  0.179650  0.051763  1
  Pd  Pd6  1  0.821906  0.820350  0.551763  1
  Pd  Pd7  1  0.321906  0.679650  0.448237  1
  Pd  Pd8  1  0.902573  0.506731  0.250000  1
  Pd  Pd9  1  0.402573  0.993269  0.750000  1
  Pd  Pd10  1  0.597427  0.006731  0.250000  1
  Pd  Pd11  1  0.097427  0.493269  0.750000  1
  Pd  Pd12  1  0.678094  0.320350  0.551763  1
  Pd  Pd13  1  0.178094  0.179650  0.448237  1
  Pd  Pd14  1  0.821906  0.820350  0.948237  1
  Pd  Pd15  1  0.321906  0.679650  0.051763  1
