# generated using pymatgen
data_TiIN
_symmetry_space_group_name_H-M   'P 1'
_cell_length_a   3.54131701
_cell_length_b   3.97657551
_cell_length_c   9.60003721
_cell_angle_alpha   90.00000000
_cell_angle_beta   90.00000000
_cell_angle_gamma   90.00000000
_symmetry_Int_Tables_number   1
_chemical_formula_structural   TiIN
_chemical_formula_sum   'Ti2 I2 N2'
_cell_volume   135.19074316
_cell_formula_units_Z   2
loop_
 _symmetry_equiv_pos_site_id
 _symmetry_equiv_pos_as_xyz
  1  'x, y, z'
loop_
 _atom_site_type_symbol
 _atom_site_label
 _atom_site_symmetry_multiplicity
 _atom_site_fract_x
 _atom_site_fract_y
 _atom_site_fract_z
 _atom_site_occupancy
  Ti  Ti0  1  0.000000  0.500000  0.928035  1
  Ti  Ti1  1  0.500000  0.000000  0.071965  1
  I  I2  1  0.500000  0.500000  0.697747  1
  I  I3  1  0.000000  0.000000  0.302253  1
  N  N4  1  0.000000  0.000000  0.966476  1
  N  N5  1  0.500000  0.500000  0.033524  1
