# generated using pymatgen
data_UMn5P3
_symmetry_space_group_name_H-M   'P 1'
_cell_length_a   3.63246271
_cell_length_b   10.63111492
_cell_length_c   11.92508586
_cell_angle_alpha   90.00000000
_cell_angle_beta   90.00000000
_cell_angle_gamma   90.00000000
_symmetry_Int_Tables_number   1
_chemical_formula_structural   UMn5P3
_chemical_formula_sum   'U4 Mn20 P12'
_cell_volume   460.51257318
_cell_formula_units_Z   4
loop_
 _symmetry_equiv_pos_site_id
 _symmetry_equiv_pos_as_xyz
  1  'x, y, z'
loop_
 _atom_site_type_symbol
 _atom_site_label
 _atom_site_symmetry_multiplicity
 _atom_site_fract_x
 _atom_site_fract_y
 _atom_site_fract_z
 _atom_site_occupancy
  U  U0  1  0.250000  0.582478  0.703009  1
  U  U1  1  0.750000  0.417522  0.296991  1
  U  U2  1  0.750000  0.082478  0.796991  1
  U  U3  1  0.250000  0.917522  0.203009  1
  Mn  Mn4  1  0.250000  0.405316  0.485172  1
  Mn  Mn5  1  0.750000  0.717672  0.326444  1
  Mn  Mn6  1  0.750000  0.782328  0.826444  1
  Mn  Mn7  1  0.250000  0.282328  0.673556  1
  Mn  Mn8  1  0.250000  0.617633  0.201910  1
  Mn  Mn9  1  0.750000  0.382367  0.798090  1
  Mn  Mn10  1  0.750000  0.117633  0.298090  1
  Mn  Mn11  1  0.250000  0.882367  0.701910  1
  Mn  Mn12  1  0.250000  0.033962  0.432672  1
  Mn  Mn13  1  0.750000  0.966038  0.567328  1
  Mn  Mn14  1  0.750000  0.533962  0.067328  1
  Mn  Mn15  1  0.250000  0.466038  0.932672  1
  Mn  Mn16  1  0.750000  0.905316  0.014828  1
  Mn  Mn17  1  0.250000  0.094684  0.985172  1
  Mn  Mn18  1  0.250000  0.704815  0.989671  1
  Mn  Mn19  1  0.750000  0.295185  0.010329  1
  Mn  Mn20  1  0.750000  0.204815  0.510329  1
  Mn  Mn21  1  0.250000  0.795185  0.489671  1
  Mn  Mn22  1  0.250000  0.217672  0.173556  1
  Mn  Mn23  1  0.750000  0.594684  0.514828  1
  P  P24  1  0.250000  0.597320  0.394040  1
  P  P25  1  0.750000  0.402680  0.605960  1
  P  P26  1  0.750000  0.097320  0.105960  1
  P  P27  1  0.250000  0.902680  0.894040  1
  P  P28  1  0.750000  0.769091  0.630765  1
  P  P29  1  0.250000  0.230909  0.369235  1
  P  P30  1  0.250000  0.417925  0.114405  1
  P  P31  1  0.750000  0.582075  0.885595  1
  P  P32  1  0.750000  0.917925  0.385595  1
  P  P33  1  0.250000  0.082075  0.614405  1
  P  P34  1  0.250000  0.269091  0.869235  1
  P  P35  1  0.750000  0.730909  0.130765  1
