# generated using pymatgen
data_SrCoP2O7
_symmetry_space_group_name_H-M   'P 1'
_cell_length_a   5.38745476
_cell_length_b   8.34136616
_cell_length_c   13.96314718
_cell_angle_alpha   90.00000000
_cell_angle_beta   112.40819984
_cell_angle_gamma   90.00000000
_symmetry_Int_Tables_number   1
_chemical_formula_structural   SrCoP2O7
_chemical_formula_sum   'Sr4 Co4 P8 O28'
_cell_volume   580.10559491
_cell_formula_units_Z   4
loop_
 _symmetry_equiv_pos_site_id
 _symmetry_equiv_pos_as_xyz
  1  'x, y, z'
loop_
 _atom_site_type_symbol
 _atom_site_label
 _atom_site_symmetry_multiplicity
 _atom_site_fract_x
 _atom_site_fract_y
 _atom_site_fract_z
 _atom_site_occupancy
  Sr  Sr0  1  0.990958  0.163884  0.777882  1
  Sr  Sr1  1  0.009042  0.663884  0.722118  1
  Sr  Sr2  1  0.009042  0.836116  0.222118  1
  Sr  Sr3  1  0.990958  0.336116  0.277882  1
  Co  Co4  1  0.286013  0.349882  0.604738  1
  Co  Co5  1  0.713987  0.849882  0.895262  1
  Co  Co6  1  0.713987  0.650118  0.395262  1
  Co  Co7  1  0.286013  0.150118  0.104738  1
  P  P8  1  0.667835  0.299759  0.479674  1
  P  P9  1  0.332165  0.799759  0.020326  1
  P  P10  1  0.332165  0.700241  0.520326  1
  P  P11  1  0.667835  0.200241  0.979674  1
  P  P12  1  0.419375  0.965274  0.667751  1
  P  P13  1  0.580625  0.465274  0.832249  1
  P  P14  1  0.580625  0.034726  0.332249  1
  P  P15  1  0.419375  0.534726  0.167751  1
  O  O16  1  0.889501  0.310652  0.588293  1
  O  O17  1  0.110499  0.810652  0.911707  1
  O  O18  1  0.110499  0.689348  0.411707  1
  O  O19  1  0.889501  0.189348  0.088293  1
  O  O20  1  0.381194  0.168516  0.973982  1
  O  O21  1  0.618806  0.668516  0.526018  1
  O  O22  1  0.618806  0.831484  0.026018  1
  O  O23  1  0.381194  0.331484  0.473982  1
  O  O24  1  0.803445  0.441659  0.791609  1
  O  O25  1  0.196555  0.941659  0.708391  1
  O  O26  1  0.196555  0.558341  0.208391  1
  O  O27  1  0.803445  0.058341  0.291609  1
  O  O28  1  0.679865  0.385826  0.946572  1
  O  O29  1  0.320135  0.885826  0.553428  1
  O  O30  1  0.320135  0.614174  0.053428  1
  O  O31  1  0.679865  0.114174  0.446572  1
  O  O32  1  0.479339  0.359182  0.153273  1
  O  O33  1  0.520661  0.859182  0.346727  1
  O  O34  1  0.520661  0.640818  0.846727  1
  O  O35  1  0.479339  0.140818  0.653273  1
  O  O36  1  0.732860  0.403147  0.400208  1
  O  O37  1  0.267140  0.903147  0.099792  1
  O  O38  1  0.267140  0.596853  0.599792  1
  O  O39  1  0.732860  0.096853  0.900208  1
  O  O40  1  0.316189  0.117738  0.263814  1
  O  O41  1  0.683811  0.617738  0.236186  1
  O  O42  1  0.683811  0.882262  0.736186  1
  O  O43  1  0.316189  0.382262  0.763814  1
