# generated using pymatgen
data_Li3V2(SiO5)2
_symmetry_space_group_name_H-M   'P 1'
_cell_length_a   6.38073908
_cell_length_b   6.38073908
_cell_length_c   9.13847911
_cell_angle_alpha   90.00000000
_cell_angle_beta   90.00000000
_cell_angle_gamma   90.19287881
_symmetry_Int_Tables_number   1
_chemical_formula_structural   Li3V2(SiO5)2
_chemical_formula_sum   'Li6 V4 Si4 O20'
_cell_volume   372.06038763
_cell_formula_units_Z   2
loop_
 _symmetry_equiv_pos_site_id
 _symmetry_equiv_pos_as_xyz
  1  'x, y, z'
loop_
 _atom_site_type_symbol
 _atom_site_label
 _atom_site_symmetry_multiplicity
 _atom_site_fract_x
 _atom_site_fract_y
 _atom_site_fract_z
 _atom_site_occupancy
  Li  Li0  1  0.000000  0.000000  0.000000  1
  Li  Li1  1  0.500000  0.000000  0.000000  1
  Li  Li2  1  0.500000  0.000000  0.500000  1
  Li  Li3  1  0.500000  0.500000  0.500000  1
  Li  Li4  1  0.000000  0.500000  0.000000  1
  Li  Li5  1  0.000000  0.500000  0.500000  1
  V  V6  1  0.258436  0.258436  0.797511  1
  V  V7  1  0.241564  0.241564  0.297511  1
  V  V8  1  0.741564  0.741564  0.202489  1
  V  V9  1  0.758436  0.758436  0.702489  1
  Si  Si10  1  0.749497  0.249497  0.250000  1
  Si  Si11  1  0.750503  0.250503  0.750000  1
  Si  Si12  1  0.250503  0.750503  0.750000  1
  Si  Si13  1  0.249497  0.749497  0.250000  1
  O  O14  1  0.751857  0.041564  0.143891  1
  O  O15  1  0.741294  0.043016  0.643379  1
  O  O16  1  0.541564  0.251857  0.356109  1
  O  O17  1  0.230743  0.230743  0.116291  1
  O  O18  1  0.269257  0.269257  0.616291  1
  O  O19  1  0.543016  0.241294  0.856621  1
  O  O20  1  0.958436  0.248143  0.856109  1
  O  O21  1  0.956984  0.258706  0.356621  1
  O  O22  1  0.758706  0.456984  0.143379  1
  O  O23  1  0.748143  0.458436  0.643891  1
  O  O24  1  0.241294  0.543016  0.856621  1
  O  O25  1  0.251857  0.541564  0.356109  1
  O  O26  1  0.041564  0.751857  0.143891  1
  O  O27  1  0.456984  0.758706  0.143379  1
  O  O28  1  0.769257  0.769257  0.883709  1
  O  O29  1  0.730743  0.730743  0.383709  1
  O  O30  1  0.043016  0.741294  0.643379  1
  O  O31  1  0.458436  0.748143  0.643891  1
  O  O32  1  0.248143  0.958436  0.856109  1
  O  O33  1  0.258706  0.956984  0.356621  1
