# generated using pymatgen
data_Ba2Y(CuO2)3
_symmetry_space_group_name_H-M   'P 1'
_cell_length_a   3.89057356
_cell_length_b   3.89057356
_cell_length_c   12.12301951
_cell_angle_alpha   90.00000000
_cell_angle_beta   90.00000000
_cell_angle_gamma   90.00000000
_symmetry_Int_Tables_number   1
_chemical_formula_structural   Ba2Y(CuO2)3
_chemical_formula_sum   'Ba2 Y1 Cu3 O6'
_cell_volume   183.50084403
_cell_formula_units_Z   1
loop_
 _symmetry_equiv_pos_site_id
 _symmetry_equiv_pos_as_xyz
  1  'x, y, z'
loop_
 _atom_site_type_symbol
 _atom_site_label
 _atom_site_symmetry_multiplicity
 _atom_site_fract_x
 _atom_site_fract_y
 _atom_site_fract_z
 _atom_site_occupancy
  Ba  Ba0  1  0.500000  0.500000  0.197114  1
  Ba  Ba1  1  0.500000  0.500000  0.802886  1
  Y  Y2  1  0.500000  0.500000  0.500000  1
  Cu  Cu3  1  0.000000  0.000000  0.368125  1
  Cu  Cu4  1  0.000000  0.000000  0.631875  1
  Cu  Cu5  1  0.000000  0.000000  0.000000  1
  O  O6  1  0.000000  0.500000  0.620909  1
  O  O7  1  0.500000  0.000000  0.379091  1
  O  O8  1  0.500000  0.000000  0.620909  1
  O  O9  1  0.000000  0.000000  0.149340  1
  O  O10  1  0.000000  0.500000  0.379091  1
  O  O11  1  0.000000  0.000000  0.850660  1
