# generated using pymatgen
data_U3Fe2Si7
_symmetry_space_group_name_H-M   'P 1'
_cell_length_a   12.27028143
_cell_length_b   12.27028143
_cell_length_c   4.02515464
_cell_angle_alpha   90.00000000
_cell_angle_beta   90.00000000
_cell_angle_gamma   161.26339506
_symmetry_Int_Tables_number   1
_chemical_formula_structural   U3Fe2Si7
_chemical_formula_sum   'U3 Fe2 Si7'
_cell_volume   194.66666715
_cell_formula_units_Z   1
loop_
 _symmetry_equiv_pos_site_id
 _symmetry_equiv_pos_as_xyz
  1  'x, y, z'
loop_
 _atom_site_type_symbol
 _atom_site_label
 _atom_site_symmetry_multiplicity
 _atom_site_fract_x
 _atom_site_fract_y
 _atom_site_fract_z
 _atom_site_occupancy
  U  U0  1  0.000000  0.000000  0.500000  1
  U  U1  1  0.684846  0.315154  1.000000  1
  U  U2  1  0.315154  0.684846  1.000000  1
  Fe  Fe3  1  0.872271  0.127729  0.500000  1
  Fe  Fe4  1  0.127729  0.872271  0.500000  1
  Si  Si5  1  0.778168  0.221832  0.500000  1
  Si  Si6  1  0.221832  0.778168  0.500000  1
  Si  Si7  1  0.913431  0.086569  1.000000  1
  Si  Si8  1  0.086569  0.913431  1.000000  1
  Si  Si9  1  0.586009  0.413991  0.500000  1
  Si  Si10  1  0.500000  0.500000  1.000000  1
  Si  Si11  1  0.413991  0.586009  0.500000  1
