# generated using pymatgen
data_LaBr
_symmetry_space_group_name_H-M   'P 1'
_cell_length_a   10.89886456
_cell_length_b   10.89886456
_cell_length_c   10.89886456
_cell_angle_alpha   21.85481716
_cell_angle_beta   21.85481716
_cell_angle_gamma   21.85481716
_symmetry_Int_Tables_number   1
_chemical_formula_structural   LaBr
_chemical_formula_sum   'La2 Br2'
_cell_volume   157.24965232
_cell_formula_units_Z   2
loop_
 _symmetry_equiv_pos_site_id
 _symmetry_equiv_pos_as_xyz
  1  'x, y, z'
loop_
 _atom_site_type_symbol
 _atom_site_label
 _atom_site_symmetry_multiplicity
 _atom_site_fract_x
 _atom_site_fract_y
 _atom_site_fract_z
 _atom_site_occupancy
  La  La0  1  0.119893  0.119893  0.119893  1
  La  La1  1  0.880107  0.880107  0.880107  1
  Br  Br2  1  0.392574  0.392574  0.392574  1
  Br  Br3  1  0.607426  0.607426  0.607426  1
