# generated using pymatgen
data_BaP3Pt2
_symmetry_space_group_name_H-M   'P 1'
_cell_length_a   8.40954818
_cell_length_b   5.83907368
_cell_length_c   11.80306644
_cell_angle_alpha   90.00000000
_cell_angle_beta   106.76779566
_cell_angle_gamma   90.00000000
_symmetry_Int_Tables_number   1
_chemical_formula_structural   BaP3Pt2
_chemical_formula_sum   'Ba4 P12 Pt8'
_cell_volume   554.93484973
_cell_formula_units_Z   4
loop_
 _symmetry_equiv_pos_site_id
 _symmetry_equiv_pos_as_xyz
  1  'x, y, z'
loop_
 _atom_site_type_symbol
 _atom_site_label
 _atom_site_symmetry_multiplicity
 _atom_site_fract_x
 _atom_site_fract_y
 _atom_site_fract_z
 _atom_site_occupancy
  Ba  Ba0  1  0.759842  0.085558  0.648199  1
  Ba  Ba1  1  0.240158  0.914442  0.351801  1
  Ba  Ba2  1  0.240158  0.585558  0.851801  1
  Ba  Ba3  1  0.759842  0.414442  0.148199  1
  P  P4  1  0.275839  0.384355  0.582949  1
  P  P5  1  0.724161  0.884355  0.917051  1
  P  P6  1  0.724161  0.615645  0.417051  1
  P  P7  1  0.275839  0.115645  0.082949  1
  P  P8  1  0.068792  0.879481  0.569912  1
  P  P9  1  0.931208  0.379481  0.930088  1
  P  P10  1  0.931208  0.120519  0.430088  1
  P  P11  1  0.455408  0.847812  0.174535  1
  P  P12  1  0.455408  0.652188  0.674535  1
  P  P13  1  0.544592  0.152188  0.825465  1
  P  P14  1  0.544592  0.347812  0.325465  1
  P  P15  1  0.068792  0.620519  0.069912  1
  Pt  Pt16  1  0.000000  0.500000  0.500000  1
  Pt  Pt17  1  0.500000  0.000000  0.000000  1
  Pt  Pt18  1  0.500000  0.500000  0.500000  1
  Pt  Pt19  1  0.000000  0.000000  0.000000  1
  Pt  Pt20  1  0.338267  0.483831  0.161165  1
  Pt  Pt21  1  0.661733  0.983831  0.338835  1
  Pt  Pt22  1  0.661733  0.516169  0.838835  1
  Pt  Pt23  1  0.338267  0.016169  0.661165  1
