# generated using pymatgen
data_La2Br5
_symmetry_space_group_name_H-M   'P 1'
_cell_length_a   8.04794428
_cell_length_b   4.30073596
_cell_length_c   13.60598918
_cell_angle_alpha   90.00000000
_cell_angle_beta   91.06062138
_cell_angle_gamma   90.00000000
_symmetry_Int_Tables_number   1
_chemical_formula_structural   La2Br5
_chemical_formula_sum   'La4 Br10'
_cell_volume   470.85094677
_cell_formula_units_Z   2
loop_
 _symmetry_equiv_pos_site_id
 _symmetry_equiv_pos_as_xyz
  1  'x, y, z'
loop_
 _atom_site_type_symbol
 _atom_site_label
 _atom_site_symmetry_multiplicity
 _atom_site_fract_x
 _atom_site_fract_y
 _atom_site_fract_z
 _atom_site_occupancy
  La  La0  1  0.072323  0.250000  0.838411  1
  La  La1  1  0.927677  0.750000  0.161589  1
  La  La2  1  0.427410  0.750000  0.659421  1
  La  La3  1  0.572590  0.250000  0.340579  1
  Br  Br4  1  0.048980  0.750000  0.677115  1
  Br  Br5  1  0.686781  0.750000  0.487383  1
  Br  Br6  1  0.145711  0.250000  0.069908  1
  Br  Br7  1  0.658526  0.250000  0.121229  1
  Br  Br8  1  0.667397  0.250000  0.729192  1
  Br  Br9  1  0.332603  0.750000  0.270808  1
  Br  Br10  1  0.951020  0.250000  0.322885  1
  Br  Br11  1  0.313219  0.250000  0.512617  1
  Br  Br12  1  0.341474  0.750000  0.878771  1
  Br  Br13  1  0.854289  0.750000  0.930092  1
