# generated using pymatgen
data_Te6Br2O11
_symmetry_space_group_name_H-M   'P 1'
_cell_length_a   6.96858039
_cell_length_b   6.96858039
_cell_length_c   15.93843580
_cell_angle_alpha   90.00000000
_cell_angle_beta   90.00000000
_cell_angle_gamma   119.71569105
_symmetry_Int_Tables_number   1
_chemical_formula_structural   Te6Br2O11
_chemical_formula_sum   'Te12 Br4 O22'
_cell_volume   672.20547667
_cell_formula_units_Z   2
loop_
 _symmetry_equiv_pos_site_id
 _symmetry_equiv_pos_as_xyz
  1  'x, y, z'
loop_
 _atom_site_type_symbol
 _atom_site_label
 _atom_site_symmetry_multiplicity
 _atom_site_fract_x
 _atom_site_fract_y
 _atom_site_fract_z
 _atom_site_occupancy
  Te  Te0  1  0.068777  0.068777  0.857812  1
  Te  Te1  1  0.931223  0.931223  0.357812  1
  Te  Te2  1  0.068777  0.068777  0.642188  1
  Te  Te3  1  0.931223  0.931223  0.142188  1
  Te  Te4  1  0.216142  0.524896  0.084731  1
  Te  Te5  1  0.783858  0.475104  0.584731  1
  Te  Te6  1  0.524896  0.216142  0.415269  1
  Te  Te7  1  0.475104  0.783858  0.915269  1
  Te  Te8  1  0.783858  0.475104  0.915269  1
  Te  Te9  1  0.216142  0.524896  0.415269  1
  Te  Te10  1  0.475104  0.783858  0.584731  1
  Te  Te11  1  0.524896  0.216142  0.084731  1
  Br  Br12  1  0.138380  0.472183  0.750000  1
  Br  Br13  1  0.861620  0.527817  0.250000  1
  Br  Br14  1  0.472183  0.138380  0.750000  1
  Br  Br15  1  0.527817  0.861620  0.250000  1
  O  O16  1  0.927296  0.927296  0.750000  1
  O  O17  1  0.072704  0.072704  0.250000  1
  O  O18  1  0.962242  0.201811  0.096271  1
  O  O19  1  0.037758  0.798189  0.596271  1
  O  O20  1  0.201811  0.962242  0.403729  1
  O  O21  1  0.798189  0.037758  0.903729  1
  O  O22  1  0.037758  0.798189  0.903729  1
  O  O23  1  0.962242  0.201811  0.403729  1
  O  O24  1  0.798189  0.037758  0.596271  1
  O  O25  1  0.201811  0.962242  0.096271  1
  O  O26  1  0.814924  0.515826  0.035390  1
  O  O27  1  0.185076  0.484174  0.535390  1
  O  O28  1  0.515826  0.814924  0.464610  1
  O  O29  1  0.484174  0.185076  0.964610  1
  O  O30  1  0.185076  0.484174  0.964610  1
  O  O31  1  0.814924  0.515826  0.464610  1
  O  O32  1  0.425249  0.425249  0.113372  1
  O  O33  1  0.574751  0.574751  0.613372  1
  O  O34  1  0.425249  0.425249  0.386628  1
  O  O35  1  0.574751  0.574751  0.886628  1
  O  O36  1  0.515826  0.814924  0.035390  1
  O  O37  1  0.484174  0.185076  0.535390  1
