# generated using pymatgen
data_EuCl2
_symmetry_space_group_name_H-M   'P 1'
_cell_length_a   4.55817436
_cell_length_b   7.54576465
_cell_length_c   9.04116973
_cell_angle_alpha   90.00000000
_cell_angle_beta   90.00000000
_cell_angle_gamma   90.00000000
_symmetry_Int_Tables_number   1
_chemical_formula_structural   EuCl2
_chemical_formula_sum   'Eu4 Cl8'
_cell_volume   310.97022779
_cell_formula_units_Z   4
loop_
 _symmetry_equiv_pos_site_id
 _symmetry_equiv_pos_as_xyz
  1  'x, y, z'
loop_
 _atom_site_type_symbol
 _atom_site_label
 _atom_site_symmetry_multiplicity
 _atom_site_fract_x
 _atom_site_fract_y
 _atom_site_fract_z
 _atom_site_occupancy
  Eu  Eu0  1  0.250000  0.745102  0.609630  1
  Eu  Eu1  1  0.750000  0.254898  0.390370  1
  Eu  Eu2  1  0.250000  0.245102  0.890370  1
  Eu  Eu3  1  0.750000  0.754898  0.109630  1
  Cl  Cl4  1  0.250000  0.518094  0.338446  1
  Cl  Cl5  1  0.750000  0.481906  0.661554  1
  Cl  Cl6  1  0.250000  0.018094  0.161554  1
  Cl  Cl7  1  0.750000  0.981906  0.838446  1
  Cl  Cl8  1  0.750000  0.858834  0.424046  1
  Cl  Cl9  1  0.250000  0.141166  0.575954  1
  Cl  Cl10  1  0.750000  0.358834  0.075954  1
  Cl  Cl11  1  0.250000  0.641166  0.924046  1
