# generated using pymatgen
data_K2TeBr6
_symmetry_space_group_name_H-M   'P 1'
_cell_length_a   7.68905693
_cell_length_b   8.03986967
_cell_length_c   13.26051169
_cell_angle_alpha   90.00000000
_cell_angle_beta   125.19353256
_cell_angle_gamma   90.00000000
_symmetry_Int_Tables_number   1
_chemical_formula_structural   K2TeBr6
_chemical_formula_sum   'K4 Te2 Br12'
_cell_volume   669.90931780
_cell_formula_units_Z   2
loop_
 _symmetry_equiv_pos_site_id
 _symmetry_equiv_pos_as_xyz
  1  'x, y, z'
loop_
 _atom_site_type_symbol
 _atom_site_label
 _atom_site_symmetry_multiplicity
 _atom_site_fract_x
 _atom_site_fract_y
 _atom_site_fract_z
 _atom_site_occupancy
  K  K0  1  0.266854  0.072231  0.750977  1
  K  K1  1  0.733146  0.572231  0.749023  1
  K  K2  1  0.733146  0.927769  0.249023  1
  K  K3  1  0.266854  0.427769  0.250977  1
  Te  Te4  1  0.000000  0.500000  0.500000  1
  Te  Te5  1  0.000000  0.000000  0.000000  1
  Br  Br6  1  0.833808  0.514427  0.253689  1
  Br  Br7  1  0.166192  0.485573  0.746311  1
  Br  Br8  1  0.664792  0.811469  0.956408  1
  Br  Br9  1  0.833808  0.985573  0.753689  1
  Br  Br10  1  0.335208  0.188531  0.043592  1
  Br  Br11  1  0.664792  0.688531  0.456408  1
  Br  Br12  1  0.774651  0.286512  0.961258  1
  Br  Br13  1  0.225349  0.786512  0.538742  1
  Br  Br14  1  0.225349  0.713488  0.038742  1
  Br  Br15  1  0.774651  0.213488  0.461258  1
  Br  Br16  1  0.335208  0.311469  0.543592  1
  Br  Br17  1  0.166192  0.014427  0.246311  1
