# generated using pymatgen
data_Ba3Ge4
_symmetry_space_group_name_H-M   'P 1'
_cell_length_a   8.67807838
_cell_length_b   8.67807838
_cell_length_c   12.25554270
_cell_angle_alpha   90.00000000
_cell_angle_beta   90.00000000
_cell_angle_gamma   90.00000000
_symmetry_Int_Tables_number   1
_chemical_formula_structural   Ba3Ge4
_chemical_formula_sum   'Ba12 Ge16'
_cell_volume   922.95320897
_cell_formula_units_Z   4
loop_
 _symmetry_equiv_pos_site_id
 _symmetry_equiv_pos_as_xyz
  1  'x, y, z'
loop_
 _atom_site_type_symbol
 _atom_site_label
 _atom_site_symmetry_multiplicity
 _atom_site_fract_x
 _atom_site_fract_y
 _atom_site_fract_z
 _atom_site_occupancy
  Ba  Ba0  1  0.500000  0.000000  0.750000  1
  Ba  Ba1  1  0.500000  0.000000  0.250000  1
  Ba  Ba2  1  0.000000  0.500000  0.750000  1
  Ba  Ba3  1  0.000000  0.500000  0.250000  1
  Ba  Ba4  1  0.000000  0.000000  0.669594  1
  Ba  Ba5  1  0.500000  0.500000  0.169594  1
  Ba  Ba6  1  0.500000  0.500000  0.830406  1
  Ba  Ba7  1  0.000000  0.000000  0.330406  1
  Ba  Ba8  1  0.162330  0.837670  0.000000  1
  Ba  Ba9  1  0.662330  0.662330  0.500000  1
  Ba  Ba10  1  0.337670  0.337670  0.500000  1
  Ba  Ba11  1  0.837670  0.162330  0.000000  1
  Ge  Ge12  1  0.802582  0.802582  0.851743  1
  Ge  Ge13  1  0.197418  0.197418  0.851743  1
  Ge  Ge14  1  0.802582  0.802582  0.148257  1
  Ge  Ge15  1  0.302582  0.697418  0.351743  1
  Ge  Ge16  1  0.697418  0.302582  0.351743  1
  Ge  Ge17  1  0.697418  0.302582  0.648257  1
  Ge  Ge18  1  0.302582  0.697418  0.648257  1
  Ge  Ge19  1  0.197418  0.197418  0.148257  1
  Ge  Ge20  1  0.803996  0.588609  0.000000  1
  Ge  Ge21  1  0.196004  0.411391  0.000000  1
  Ge  Ge22  1  0.588609  0.803996  0.000000  1
  Ge  Ge23  1  0.088609  0.696004  0.500000  1
  Ge  Ge24  1  0.411391  0.196004  0.000000  1
  Ge  Ge25  1  0.303996  0.911391  0.500000  1
  Ge  Ge26  1  0.696004  0.088609  0.500000  1
  Ge  Ge27  1  0.911391  0.303996  0.500000  1
