# generated using pymatgen
data_K3BS3
_symmetry_space_group_name_H-M   'P 1'
_cell_length_a   10.32282886
_cell_length_b   6.27674013
_cell_length_c   12.75391400
_cell_angle_alpha   90.00000000
_cell_angle_beta   112.11822252
_cell_angle_gamma   90.00000000
_symmetry_Int_Tables_number   1
_chemical_formula_structural   K3BS3
_chemical_formula_sum   'K12 B4 S12'
_cell_volume   765.55975013
_cell_formula_units_Z   4
loop_
 _symmetry_equiv_pos_site_id
 _symmetry_equiv_pos_as_xyz
  1  'x, y, z'
loop_
 _atom_site_type_symbol
 _atom_site_label
 _atom_site_symmetry_multiplicity
 _atom_site_fract_x
 _atom_site_fract_y
 _atom_site_fract_z
 _atom_site_occupancy
  K  K0  1  0.468631  0.726951  0.092094  1
  K  K1  1  0.531369  0.226951  0.407906  1
  K  K2  1  0.531369  0.273049  0.907906  1
  K  K3  1  0.468631  0.773049  0.592094  1
  K  K4  1  0.765346  0.831973  0.389521  1
  K  K5  1  0.234654  0.331973  0.110479  1
  K  K6  1  0.234654  0.168027  0.610479  1
  K  K7  1  0.765346  0.668027  0.889521  1
  K  K8  1  0.099342  0.555716  0.350220  1
  K  K9  1  0.900658  0.055716  0.149780  1
  K  K10  1  0.900658  0.444284  0.649780  1
  K  K11  1  0.099342  0.944284  0.850220  1
  B  B12  1  0.268359  0.871118  0.259450  1
  B  B13  1  0.731641  0.371118  0.240550  1
  B  B14  1  0.731641  0.128882  0.740550  1
  B  B15  1  0.268359  0.628882  0.759450  1
  S  S16  1  0.421756  0.703624  0.331417  1
  S  S17  1  0.578244  0.203624  0.168583  1
  S  S18  1  0.578244  0.296376  0.668583  1
  S  S19  1  0.421756  0.796376  0.831417  1
  S  S20  1  0.162287  0.827985  0.108943  1
  S  S21  1  0.837713  0.327985  0.391057  1
  S  S22  1  0.837713  0.172015  0.891057  1
  S  S23  1  0.162287  0.672015  0.608943  1
  S  S24  1  0.213187  0.425239  0.838461  1
  S  S25  1  0.786813  0.925239  0.661539  1
  S  S26  1  0.786813  0.574761  0.161539  1
  S  S27  1  0.213187  0.074761  0.338461  1
