# generated using pymatgen
data_Cs2Sb4S7
_symmetry_space_group_name_H-M   'P 1'
_cell_length_a   11.59672234
_cell_length_b   12.49294286
_cell_length_c   12.15637465
_cell_angle_alpha   90.00000000
_cell_angle_beta   99.90872940
_cell_angle_gamma   90.00000000
_symmetry_Int_Tables_number   1
_chemical_formula_structural   Cs2Sb4S7
_chemical_formula_sum   'Cs8 Sb16 S28'
_cell_volume   1734.91006376
_cell_formula_units_Z   4
loop_
 _symmetry_equiv_pos_site_id
 _symmetry_equiv_pos_as_xyz
  1  'x, y, z'
loop_
 _atom_site_type_symbol
 _atom_site_label
 _atom_site_symmetry_multiplicity
 _atom_site_fract_x
 _atom_site_fract_y
 _atom_site_fract_z
 _atom_site_occupancy
  Cs  Cs0  1  0.980852  0.929328  0.328579  1
  Cs  Cs1  1  0.019148  0.429328  0.171421  1
  Cs  Cs2  1  0.019148  0.070672  0.671421  1
  Cs  Cs3  1  0.980852  0.570672  0.828579  1
  Cs  Cs4  1  0.547361  0.455149  0.694334  1
  Cs  Cs5  1  0.452639  0.955149  0.805666  1
  Cs  Cs6  1  0.452639  0.544851  0.305666  1
  Cs  Cs7  1  0.547361  0.044851  0.194334  1
  Sb  Sb8  1  0.639147  0.340656  0.075368  1
  Sb  Sb9  1  0.360853  0.840656  0.424632  1
  Sb  Sb10  1  0.360853  0.659344  0.924632  1
  Sb  Sb11  1  0.639147  0.159344  0.575368  1
  Sb  Sb12  1  0.799506  0.143002  0.948430  1
  Sb  Sb13  1  0.200494  0.643002  0.551570  1
  Sb  Sb14  1  0.200494  0.856998  0.051570  1
  Sb  Sb15  1  0.799506  0.356998  0.448430  1
  Sb  Sb16  1  0.846665  0.854668  0.911211  1
  Sb  Sb17  1  0.153335  0.354668  0.588789  1
  Sb  Sb18  1  0.153335  0.145332  0.088789  1
  Sb  Sb19  1  0.846665  0.645332  0.411211  1
  Sb  Sb20  1  0.705933  0.641088  0.052511  1
  Sb  Sb21  1  0.294067  0.141088  0.447489  1
  Sb  Sb22  1  0.294067  0.358912  0.947489  1
  Sb  Sb23  1  0.705933  0.858912  0.552511  1
  S  S24  1  0.798820  0.228523  0.159637  1
  S  S25  1  0.201180  0.728523  0.340363  1
  S  S26  1  0.201180  0.771477  0.840363  1
  S  S27  1  0.798820  0.271477  0.659637  1
  S  S28  1  0.591623  0.205600  0.917988  1
  S  S29  1  0.408377  0.705600  0.582012  1
  S  S30  1  0.408377  0.794400  0.082012  1
  S  S31  1  0.591623  0.294400  0.417988  1
  S  S32  1  0.803837  0.975880  0.061304  1
  S  S33  1  0.196163  0.475880  0.438696  1
  S  S34  1  0.196163  0.024120  0.938696  1
  S  S35  1  0.803837  0.524120  0.561304  1
  S  S36  1  0.754784  0.005125  0.777992  1
  S  S37  1  0.245216  0.505125  0.722008  1
  S  S38  1  0.245216  0.994875  0.222008  1
  S  S39  1  0.754784  0.494875  0.277992  1
  S  S40  1  0.669398  0.740203  0.866763  1
  S  S41  1  0.330602  0.240203  0.633237  1
  S  S42  1  0.330602  0.259797  0.133237  1
  S  S43  1  0.669398  0.759797  0.366763  1
  S  S44  1  0.903171  0.704573  0.099131  1
  S  S45  1  0.096829  0.204573  0.400869  1
  S  S46  1  0.096829  0.295427  0.900869  1
  S  S47  1  0.903171  0.795427  0.599131  1
  S  S48  1  0.738489  0.034312  0.459961  1
  S  S49  1  0.261511  0.534312  0.040039  1
  S  S50  1  0.261511  0.965688  0.540039  1
  S  S51  1  0.738489  0.465688  0.959961  1
