# generated using pymatgen
data_CoH9(CN2)3
_symmetry_space_group_name_H-M   'P 1'
_cell_length_a   7.31426512
_cell_length_b   7.31426512
_cell_length_c   7.31426512
_cell_angle_alpha   97.40594305
_cell_angle_beta   97.40594305
_cell_angle_gamma   97.40594305
_symmetry_Int_Tables_number   1
_chemical_formula_structural   CoH9(CN2)3
_chemical_formula_sum   'Co2 H18 C6 N12'
_cell_volume   380.56456809
_cell_formula_units_Z   2
loop_
 _symmetry_equiv_pos_site_id
 _symmetry_equiv_pos_as_xyz
  1  'x, y, z'
loop_
 _atom_site_type_symbol
 _atom_site_label
 _atom_site_symmetry_multiplicity
 _atom_site_fract_x
 _atom_site_fract_y
 _atom_site_fract_z
 _atom_site_occupancy
  Co  Co0  1  0.500000  0.500000  0.500000  1
  Co  Co1  1  0.000000  0.000000  0.000000  1
  H  H2  1  0.201034  0.649399  0.452372  1
  H  H3  1  0.452372  0.201034  0.649399  1
  H  H4  1  0.547628  0.798966  0.350601  1
  H  H5  1  0.350601  0.547628  0.798966  1
  H  H6  1  0.160704  0.434934  0.339923  1
  H  H7  1  0.339923  0.160704  0.434934  1
  H  H8  1  0.434934  0.339923  0.160704  1
  H  H9  1  0.839296  0.565066  0.660077  1
  H  H10  1  0.660077  0.839296  0.565066  1
  H  H11  1  0.565066  0.660077  0.839296  1
  H  H12  1  0.273990  0.601979  0.249306  1
  H  H13  1  0.798966  0.350601  0.547628  1
  H  H14  1  0.601979  0.249306  0.273990  1
  H  H15  1  0.726010  0.398021  0.750694  1
  H  H16  1  0.750694  0.726010  0.398021  1
  H  H17  1  0.398021  0.750694  0.726010  1
  H  H18  1  0.649399  0.452372  0.201034  1
  H  H19  1  0.249306  0.273990  0.601979  1
  C  C20  1  0.122442  0.225732  0.950318  1
  C  C21  1  0.877558  0.774268  0.049682  1
  C  C22  1  0.225732  0.950318  0.122442  1
  C  C23  1  0.049682  0.877558  0.774268  1
  C  C24  1  0.774268  0.049683  0.877558  1
  C  C25  1  0.950318  0.122442  0.225732  1
  N  N26  1  0.372231  0.259932  0.551851  1
  N  N27  1  0.627769  0.740068  0.448149  1
  N  N28  1  0.448149  0.627769  0.740068  1
  N  N29  1  0.740068  0.448149  0.627769  1
  N  N30  1  0.633420  0.077165  0.796084  1
  N  N31  1  0.796084  0.633420  0.077165  1
  N  N32  1  0.077165  0.796084  0.633420  1
  N  N33  1  0.259932  0.551851  0.372231  1
  N  N34  1  0.203916  0.366580  0.922835  1
  N  N35  1  0.922835  0.203916  0.366580  1
  N  N36  1  0.551851  0.372231  0.259932  1
  N  N37  1  0.366580  0.922835  0.203916  1
