# generated using pymatgen
data_LaAl4
_symmetry_space_group_name_H-M   'P 1'
_cell_length_a   6.40848538
_cell_length_b   6.40848538
_cell_length_c   6.40848538
_cell_angle_alpha   140.26502521
_cell_angle_beta   140.26502521
_cell_angle_gamma   57.45111597
_symmetry_Int_Tables_number   1
_chemical_formula_structural   LaAl4
_chemical_formula_sum   'La1 Al4'
_cell_volume   106.62429526
_cell_formula_units_Z   1
loop_
 _symmetry_equiv_pos_site_id
 _symmetry_equiv_pos_as_xyz
  1  'x, y, z'
loop_
 _atom_site_type_symbol
 _atom_site_label
 _atom_site_symmetry_multiplicity
 _atom_site_fract_x
 _atom_site_fract_y
 _atom_site_fract_z
 _atom_site_occupancy
  La  La0  1  1.000000  1.000000  0.000000  1
  Al  Al1  1  0.250000  0.750000  0.500000  1
  Al  Al2  1  0.613428  0.613428  0.000000  1
  Al  Al3  1  0.386572  0.386572  0.000000  1
  Al  Al4  1  0.750000  0.250000  0.500000  1
