# generated using pymatgen
data_FePO4
_symmetry_space_group_name_H-M   'P 1'
_cell_length_a   5.37677166
_cell_length_b   5.37677166
_cell_length_c   11.85569965
_cell_angle_alpha   90.00000000
_cell_angle_beta   90.00000000
_cell_angle_gamma   120.00000000
_symmetry_Int_Tables_number   1
_chemical_formula_structural   FePO4
_chemical_formula_sum   'Fe3 P3 O12'
_cell_volume   296.82536253
_cell_formula_units_Z   3
loop_
 _symmetry_equiv_pos_site_id
 _symmetry_equiv_pos_as_xyz
  1  'x, y, z'
loop_
 _atom_site_type_symbol
 _atom_site_label
 _atom_site_symmetry_multiplicity
 _atom_site_fract_x
 _atom_site_fract_y
 _atom_site_fract_z
 _atom_site_occupancy
  Fe  Fe0  1  0.000000  0.500000  0.833333  1
  Fe  Fe1  1  0.500000  0.500000  0.166667  1
  Fe  Fe2  1  0.500000  0.000000  0.500000  1
  P  P3  1  0.000000  0.500000  0.333333  1
  P  P4  1  0.500000  0.500000  0.666667  1
  P  P5  1  0.500000  0.000000  0.000000  1
  O  O6  1  0.577211  0.813252  0.074359  1
  O  O7  1  0.186748  0.763959  0.407692  1
  O  O8  1  0.236041  0.422789  0.741025  1
  O  O9  1  0.763959  0.577211  0.741025  1
  O  O10  1  0.422789  0.236041  0.592308  1
  O  O11  1  0.422789  0.186748  0.074359  1
  O  O12  1  0.577211  0.763959  0.592308  1
  O  O13  1  0.813252  0.577211  0.258975  1
  O  O14  1  0.763959  0.186748  0.925641  1
  O  O15  1  0.236041  0.813252  0.925641  1
  O  O16  1  0.186748  0.422789  0.258975  1
  O  O17  1  0.813252  0.236041  0.407692  1
