# generated using pymatgen
data_CdTeO3
_symmetry_space_group_name_H-M   'P 1'
_cell_length_a   7.59565083
_cell_length_b   11.45142215
_cell_length_c   7.98098461
_cell_angle_alpha   90.00000000
_cell_angle_beta   113.93007901
_cell_angle_gamma   90.00000000
_symmetry_Int_Tables_number   1
_chemical_formula_structural   CdTeO3
_chemical_formula_sum   'Cd8 Te8 O24'
_cell_volume   634.52192521
_cell_formula_units_Z   8
loop_
 _symmetry_equiv_pos_site_id
 _symmetry_equiv_pos_as_xyz
  1  'x, y, z'
loop_
 _atom_site_type_symbol
 _atom_site_label
 _atom_site_symmetry_multiplicity
 _atom_site_fract_x
 _atom_site_fract_y
 _atom_site_fract_z
 _atom_site_occupancy
  Cd  Cd0  1  0.693434  0.991480  0.731394  1
  Cd  Cd1  1  0.806566  0.491480  0.268606  1
  Cd  Cd2  1  0.306566  0.008520  0.268606  1
  Cd  Cd3  1  0.193434  0.508520  0.731394  1
  Cd  Cd4  1  0.023555  0.766058  0.996195  1
  Cd  Cd5  1  0.476445  0.266058  0.003805  1
  Cd  Cd6  1  0.976445  0.233942  0.003805  1
  Cd  Cd7  1  0.523555  0.733942  0.996195  1
  Te  Te8  1  0.876345  0.742501  0.498089  1
  Te  Te9  1  0.623655  0.242501  0.501911  1
  Te  Te10  1  0.123655  0.257499  0.501911  1
  Te  Te11  1  0.376345  0.757499  0.498089  1
  Te  Te12  1  0.759166  0.000214  0.164102  1
  Te  Te13  1  0.740834  0.500214  0.835898  1
  Te  Te14  1  0.240834  0.999786  0.835898  1
  Te  Te15  1  0.259166  0.499786  0.164102  1
  O  O16  1  0.007526  0.921667  0.803891  1
  O  O17  1  0.492474  0.421667  0.196109  1
  O  O18  1  0.992474  0.078333  0.196109  1
  O  O19  1  0.507526  0.578333  0.803891  1
  O  O20  1  0.059732  0.627254  0.490814  1
  O  O21  1  0.440268  0.127254  0.509186  1
  O  O22  1  0.940268  0.372746  0.509186  1
  O  O23  1  0.559732  0.872746  0.490814  1
  O  O24  1  0.170291  0.832609  0.300990  1
  O  O25  1  0.329709  0.332609  0.699010  1
  O  O26  1  0.829709  0.167391  0.699010  1
  O  O27  1  0.670291  0.667391  0.300990  1
  O  O28  1  0.262523  0.628956  0.004791  1
  O  O29  1  0.237477  0.128956  0.995209  1
  O  O30  1  0.737477  0.371044  0.995209  1
  O  O31  1  0.762523  0.871044  0.004791  1
  O  O32  1  0.888491  0.589521  0.050093  1
  O  O33  1  0.611509  0.089521  0.949907  1
  O  O34  1  0.111509  0.410479  0.949907  1
  O  O35  1  0.388491  0.910479  0.050093  1
  O  O36  1  0.843491  0.676353  0.701451  1
  O  O37  1  0.656509  0.176353  0.298549  1
  O  O38  1  0.156509  0.323647  0.298549  1
  O  O39  1  0.343491  0.823647  0.701451  1
