# generated using pymatgen
data_K2SnTe3
_symmetry_space_group_name_H-M   'P 1'
_cell_length_a   12.51129245
_cell_length_b   12.51129245
_cell_length_c   8.83783287
_cell_angle_alpha   90.00000000
_cell_angle_beta   90.00000000
_cell_angle_gamma   138.85735521
_symmetry_Int_Tables_number   1
_chemical_formula_structural   K2SnTe3
_chemical_formula_sum   'K8 Sn4 Te12'
_cell_volume   910.19352778
_cell_formula_units_Z   4
loop_
 _symmetry_equiv_pos_site_id
 _symmetry_equiv_pos_as_xyz
  1  'x, y, z'
loop_
 _atom_site_type_symbol
 _atom_site_label
 _atom_site_symmetry_multiplicity
 _atom_site_fract_x
 _atom_site_fract_y
 _atom_site_fract_z
 _atom_site_occupancy
  K  K0  1  0.922220  0.077780  0.000000  1
  K  K1  1  0.577780  0.422220  0.500000  1
  K  K2  1  0.077780  0.922220  0.000000  1
  K  K3  1  0.422220  0.577780  0.500000  1
  K  K4  1  0.765173  0.234827  0.000000  1
  K  K5  1  0.265173  0.734827  0.500000  1
  K  K6  1  0.734827  0.265173  0.500000  1
  K  K7  1  0.234827  0.765173  0.000000  1
  Sn  Sn8  1  0.584302  0.415698  0.000000  1
  Sn  Sn9  1  0.915698  0.084302  0.500000  1
  Sn  Sn10  1  0.415698  0.584302  0.000000  1
  Sn  Sn11  1  0.084302  0.915698  0.500000  1
  Te  Te12  1  0.036832  0.335713  0.313880  1
  Te  Te13  1  0.835713  0.536832  0.186120  1
  Te  Te14  1  0.463168  0.164287  0.813880  1
  Te  Te15  1  0.664287  0.963168  0.686120  1
  Te  Te16  1  0.963168  0.664287  0.686120  1
  Te  Te17  1  0.164287  0.463168  0.813880  1
  Te  Te18  1  0.536832  0.835713  0.186120  1
  Te  Te19  1  0.335713  0.036832  0.313880  1
  Te  Te20  1  0.832293  0.832293  0.332101  1
  Te  Te21  1  0.332293  0.332293  0.167899  1
  Te  Te22  1  0.667707  0.667707  0.832101  1
  Te  Te23  1  0.167707  0.167707  0.667899  1
