# generated using pymatgen
data_CrFeP
_symmetry_space_group_name_H-M   'P 1'
_cell_length_a   3.53399457
_cell_length_b   5.75351008
_cell_length_c   6.55566491
_cell_angle_alpha   90.00000000
_cell_angle_beta   90.00000000
_cell_angle_gamma   90.00000000
_symmetry_Int_Tables_number   1
_chemical_formula_structural   CrFeP
_chemical_formula_sum   'Cr4 Fe4 P4'
_cell_volume   133.29550454
_cell_formula_units_Z   4
loop_
 _symmetry_equiv_pos_site_id
 _symmetry_equiv_pos_as_xyz
  1  'x, y, z'
loop_
 _atom_site_type_symbol
 _atom_site_label
 _atom_site_symmetry_multiplicity
 _atom_site_fract_x
 _atom_site_fract_y
 _atom_site_fract_z
 _atom_site_occupancy
  Cr  Cr0  1  0.750000  0.976279  0.170114  1
  Cr  Cr1  1  0.250000  0.023721  0.829886  1
  Cr  Cr2  1  0.750000  0.476279  0.329886  1
  Cr  Cr3  1  0.250000  0.523721  0.670114  1
  Fe  Fe4  1  0.250000  0.644193  0.061870  1
  Fe  Fe5  1  0.750000  0.355807  0.938130  1
  Fe  Fe6  1  0.250000  0.144193  0.438130  1
  Fe  Fe7  1  0.750000  0.855807  0.561870  1
  P  P8  1  0.250000  0.265317  0.123226  1
  P  P9  1  0.750000  0.734683  0.876774  1
  P  P10  1  0.250000  0.765317  0.376774  1
  P  P11  1  0.750000  0.234683  0.623226  1
