# generated using pymatgen
data_Hf3Te2
_symmetry_space_group_name_H-M   'P 1'
_cell_length_a   9.93336227
_cell_length_b   9.93336227
_cell_length_c   9.93336227
_cell_angle_alpha   158.47411763
_cell_angle_beta   158.47411763
_cell_angle_gamma   30.62680051
_symmetry_Int_Tables_number   1
_chemical_formula_structural   Hf3Te2
_chemical_formula_sum   'Hf3 Te2'
_cell_volume   131.87164037
_cell_formula_units_Z   1
loop_
 _symmetry_equiv_pos_site_id
 _symmetry_equiv_pos_as_xyz
  1  'x, y, z'
loop_
 _atom_site_type_symbol
 _atom_site_label
 _atom_site_symmetry_multiplicity
 _atom_site_fract_x
 _atom_site_fract_y
 _atom_site_fract_z
 _atom_site_occupancy
  Hf  Hf0  1  0.411373  0.411373  0.000000  1
  Hf  Hf1  1  0.588627  0.588627  0.000000  1
  Hf  Hf2  1  0.000000  0.000000  0.000000  1
  Te  Te3  1  0.841170  0.841170  0.000000  1
  Te  Te4  1  0.158830  0.158830  0.000000  1
