# generated using pymatgen
data_Co(SbO3)2
_symmetry_space_group_name_H-M   'P 1'
_cell_length_a   4.72903922
_cell_length_b   4.72903922
_cell_length_c   9.42465548
_cell_angle_alpha   90.00000000
_cell_angle_beta   90.00000000
_cell_angle_gamma   90.00000000
_symmetry_Int_Tables_number   1
_chemical_formula_structural   Co(SbO3)2
_chemical_formula_sum   'Co2 Sb4 O12'
_cell_volume   210.77122236
_cell_formula_units_Z   2
loop_
 _symmetry_equiv_pos_site_id
 _symmetry_equiv_pos_as_xyz
  1  'x, y, z'
loop_
 _atom_site_type_symbol
 _atom_site_label
 _atom_site_symmetry_multiplicity
 _atom_site_fract_x
 _atom_site_fract_y
 _atom_site_fract_z
 _atom_site_occupancy
  Co  Co0  1  0.000000  0.000000  0.000000  1
  Co  Co1  1  0.500000  0.500000  0.500000  1
  Sb  Sb2  1  0.000000  0.000000  0.667551  1
  Sb  Sb3  1  0.000000  0.000000  0.332449  1
  Sb  Sb4  1  0.500000  0.500000  0.167551  1
  Sb  Sb5  1  0.500000  0.500000  0.832449  1
  O  O6  1  0.302557  0.302557  0.328385  1
  O  O7  1  0.309646  0.309646  0.000000  1
  O  O8  1  0.197443  0.802557  0.828385  1
  O  O9  1  0.690354  0.690354  0.000000  1
  O  O10  1  0.302557  0.302557  0.671615  1
  O  O11  1  0.197443  0.802557  0.171615  1
  O  O12  1  0.802557  0.197443  0.828385  1
  O  O13  1  0.697443  0.697443  0.328385  1
  O  O14  1  0.190354  0.809646  0.500000  1
  O  O15  1  0.809646  0.190354  0.500000  1
  O  O16  1  0.697443  0.697443  0.671615  1
  O  O17  1  0.802557  0.197443  0.171615  1
