# generated using pymatgen
data_K2H2IrCl5O
_symmetry_space_group_name_H-M   'P 1'
_cell_length_a   7.61483923
_cell_length_b   9.24448506
_cell_length_c   13.88716673
_cell_angle_alpha   90.00000000
_cell_angle_beta   90.00000000
_cell_angle_gamma   90.00000000
_symmetry_Int_Tables_number   1
_chemical_formula_structural   K2H2IrCl5O
_chemical_formula_sum   'K8 H8 Ir4 Cl20 O4'
_cell_volume   977.59081672
_cell_formula_units_Z   4
loop_
 _symmetry_equiv_pos_site_id
 _symmetry_equiv_pos_as_xyz
  1  'x, y, z'
loop_
 _atom_site_type_symbol
 _atom_site_label
 _atom_site_symmetry_multiplicity
 _atom_site_fract_x
 _atom_site_fract_y
 _atom_site_fract_z
 _atom_site_occupancy
  K  K0  1  0.377374  0.497264  0.654055  1
  K  K1  1  0.877374  0.997264  0.845945  1
  K  K2  1  0.377374  0.002736  0.654055  1
  K  K3  1  0.122626  0.497264  0.154055  1
  K  K4  1  0.122626  0.002736  0.154055  1
  K  K5  1  0.622626  0.997264  0.345945  1
  K  K6  1  0.622626  0.502736  0.345945  1
  K  K7  1  0.877374  0.502736  0.845945  1
  H  H8  1  0.471737  0.663435  0.963800  1
  H  H9  1  0.971737  0.336565  0.536200  1
  H  H10  1  0.528263  0.163435  0.036200  1
  H  H11  1  0.028263  0.836565  0.463800  1
  H  H12  1  0.028263  0.663435  0.463800  1
  H  H13  1  0.471737  0.836565  0.963800  1
  H  H14  1  0.528263  0.336565  0.036200  1
  H  H15  1  0.971737  0.163435  0.536200  1
  Ir  Ir16  1  0.307225  0.250000  0.897008  1
  Ir  Ir17  1  0.807225  0.750000  0.602992  1
  Ir  Ir18  1  0.692775  0.750000  0.102992  1
  Ir  Ir19  1  0.192775  0.250000  0.397008  1
  Cl  Cl20  1  0.429859  0.750000  0.195672  1
  Cl  Cl21  1  0.070141  0.750000  0.695672  1
  Cl  Cl22  1  0.570141  0.250000  0.804328  1
  Cl  Cl23  1  0.196711  0.506421  0.398083  1
  Cl  Cl24  1  0.196711  0.993579  0.398083  1
  Cl  Cl25  1  0.696711  0.006421  0.101917  1
  Cl  Cl26  1  0.803289  0.493579  0.601917  1
  Cl  Cl27  1  0.046876  0.250000  0.991274  1
  Cl  Cl28  1  0.803289  0.006421  0.601917  1
  Cl  Cl29  1  0.303289  0.993579  0.898083  1
  Cl  Cl30  1  0.303289  0.506421  0.898083  1
  Cl  Cl31  1  0.696711  0.493579  0.101917  1
  Cl  Cl32  1  0.363910  0.250000  0.257006  1
  Cl  Cl33  1  0.863910  0.750000  0.242994  1
  Cl  Cl34  1  0.636090  0.750000  0.742994  1
  Cl  Cl35  1  0.136090  0.250000  0.757006  1
  Cl  Cl36  1  0.453124  0.250000  0.491274  1
  Cl  Cl37  1  0.953124  0.750000  0.008726  1
  Cl  Cl38  1  0.546876  0.750000  0.508726  1
  Cl  Cl39  1  0.929859  0.250000  0.304328  1
  O  O40  1  0.452903  0.250000  0.026166  1
  O  O41  1  0.547097  0.750000  0.973834  1
  O  O42  1  0.047097  0.250000  0.526166  1
  O  O43  1  0.952903  0.750000  0.473834  1
