# generated using pymatgen
data_TbNiGe
_symmetry_space_group_name_H-M   'P 1'
_cell_length_a   4.24006115
_cell_length_b   6.97781397
_cell_length_c   7.30461814
_cell_angle_alpha   90.00000000
_cell_angle_beta   90.00000000
_cell_angle_gamma   90.00000000
_symmetry_Int_Tables_number   1
_chemical_formula_structural   TbNiGe
_chemical_formula_sum   'Tb4 Ni4 Ge4'
_cell_volume   216.11704680
_cell_formula_units_Z   4
loop_
 _symmetry_equiv_pos_site_id
 _symmetry_equiv_pos_as_xyz
  1  'x, y, z'
loop_
 _atom_site_type_symbol
 _atom_site_label
 _atom_site_symmetry_multiplicity
 _atom_site_fract_x
 _atom_site_fract_y
 _atom_site_fract_z
 _atom_site_occupancy
  Tb  Tb0  1  0.250000  0.492187  0.206274  1
  Tb  Tb1  1  0.250000  0.992187  0.293726  1
  Tb  Tb2  1  0.750000  0.007813  0.706274  1
  Tb  Tb3  1  0.750000  0.507813  0.793726  1
  Ni  Ni4  1  0.750000  0.806591  0.083392  1
  Ni  Ni5  1  0.250000  0.193409  0.916608  1
  Ni  Ni6  1  0.750000  0.306591  0.416608  1
  Ni  Ni7  1  0.250000  0.693409  0.583392  1
  Ge  Ge8  1  0.750000  0.195827  0.087571  1
  Ge  Ge9  1  0.250000  0.304173  0.587571  1
  Ge  Ge10  1  0.250000  0.804173  0.912429  1
  Ge  Ge11  1  0.750000  0.695827  0.412429  1
