# generated using pymatgen
data_LiCr(GeO3)2
_symmetry_space_group_name_H-M   'P 1'
_cell_length_a   5.43740935
_cell_length_b   8.86929620
_cell_length_c   9.68917941
_cell_angle_alpha   90.00000000
_cell_angle_beta   103.08046961
_cell_angle_gamma   90.00000000
_symmetry_Int_Tables_number   1
_chemical_formula_structural   LiCr(GeO3)2
_chemical_formula_sum   'Li4 Cr4 Ge8 O24'
_cell_volume   455.14612585
_cell_formula_units_Z   4
loop_
 _symmetry_equiv_pos_site_id
 _symmetry_equiv_pos_as_xyz
  1  'x, y, z'
loop_
 _atom_site_type_symbol
 _atom_site_label
 _atom_site_symmetry_multiplicity
 _atom_site_fract_x
 _atom_site_fract_y
 _atom_site_fract_z
 _atom_site_occupancy
  Li  Li0  1  0.036575  0.013518  0.258280  1
  Li  Li1  1  0.463425  0.513518  0.741720  1
  Li  Li2  1  0.963425  0.986482  0.741720  1
  Li  Li3  1  0.536575  0.486482  0.258280  1
  Cr  Cr4  1  0.538730  0.841202  0.251651  1
  Cr  Cr5  1  0.961270  0.341202  0.748349  1
  Cr  Cr6  1  0.461270  0.158798  0.748349  1
  Cr  Cr7  1  0.038730  0.658798  0.251651  1
  Ge  Ge8  1  0.272415  0.155646  0.046741  1
  Ge  Ge9  1  0.227585  0.655646  0.953259  1
  Ge  Ge10  1  0.727585  0.844354  0.953259  1
  Ge  Ge11  1  0.772415  0.344354  0.046741  1
  Ge  Ge12  1  0.826288  0.658815  0.554461  1
  Ge  Ge13  1  0.673712  0.158815  0.445539  1
  Ge  Ge14  1  0.173712  0.341185  0.445539  1
  Ge  Ge15  1  0.326288  0.841185  0.554461  1
  O  O16  1  0.183541  0.166138  0.857283  1
  O  O17  1  0.316459  0.666138  0.142717  1
  O  O18  1  0.816459  0.833862  0.142717  1
  O  O19  1  0.683541  0.333862  0.857283  1
  O  O20  1  0.327754  0.975261  0.114096  1
  O  O21  1  0.172246  0.475261  0.885904  1
  O  O22  1  0.672246  0.024739  0.885904  1
  O  O23  1  0.827754  0.524739  0.114096  1
  O  O24  1  0.007678  0.208507  0.116914  1
  O  O25  1  0.492322  0.708507  0.883086  1
  O  O26  1  0.992322  0.791493  0.883086  1
  O  O27  1  0.507678  0.291493  0.116914  1
  O  O28  1  0.759105  0.668404  0.364260  1
  O  O29  1  0.740895  0.168404  0.635740  1
  O  O30  1  0.240895  0.331596  0.635740  1
  O  O31  1  0.259105  0.831596  0.364260  1
  O  O32  1  0.743791  0.495503  0.631518  1
  O  O33  1  0.756209  0.995503  0.368482  1
  O  O34  1  0.256209  0.504497  0.368482  1
  O  O35  1  0.243791  0.004497  0.631518  1
  O  O36  1  0.659207  0.811784  0.612955  1
  O  O37  1  0.840793  0.311784  0.387045  1
  O  O38  1  0.340793  0.188216  0.387045  1
  O  O39  1  0.159207  0.688216  0.612955  1
