# generated using pymatgen
data_LaIn4Ni
_symmetry_space_group_name_H-M   'P 1'
_cell_length_a   8.85110725
_cell_length_b   8.85110725
_cell_length_c   7.27815524
_cell_angle_alpha   90.00000000
_cell_angle_beta   90.00000000
_cell_angle_gamma   150.12169292
_symmetry_Int_Tables_number   1
_chemical_formula_structural   LaIn4Ni
_chemical_formula_sum   'La2 In8 Ni2'
_cell_volume   284.04354557
_cell_formula_units_Z   2
loop_
 _symmetry_equiv_pos_site_id
 _symmetry_equiv_pos_as_xyz
  1  'x, y, z'
loop_
 _atom_site_type_symbol
 _atom_site_label
 _atom_site_symmetry_multiplicity
 _atom_site_fract_x
 _atom_site_fract_y
 _atom_site_fract_z
 _atom_site_occupancy
  La  La0  1  0.117676  0.882324  0.250000  1
  La  La1  1  0.882324  0.117676  0.750000  1
  In  In2  1  0.500000  0.500000  0.500000  1
  In  In3  1  0.500000  0.500000  0.000000  1
  In  In4  1  0.923708  0.076292  0.250000  1
  In  In5  1  0.076292  0.923708  0.750000  1
  In  In6  1  0.311335  0.688665  0.453477  1
  In  In7  1  0.688665  0.311335  0.546523  1
  In  In8  1  0.311335  0.688665  0.046523  1
  In  In9  1  0.688665  0.311335  0.953477  1
  Ni  Ni10  1  0.774845  0.225155  0.250000  1
  Ni  Ni11  1  0.225155  0.774845  0.750000  1
