# generated using pymatgen
data_BeH8SO8
_symmetry_space_group_name_H-M   'P 1'
_cell_length_a   7.90431504
_cell_length_b   7.90431504
_cell_length_c   7.90431504
_cell_angle_alpha   119.10836153
_cell_angle_beta   119.10836153
_cell_angle_gamma   91.55142809
_symmetry_Int_Tables_number   1
_chemical_formula_structural   BeH8SO8
_chemical_formula_sum   'Be2 H16 S2 O16'
_cell_volume   353.76870410
_cell_formula_units_Z   2
loop_
 _symmetry_equiv_pos_site_id
 _symmetry_equiv_pos_as_xyz
  1  'x, y, z'
loop_
 _atom_site_type_symbol
 _atom_site_label
 _atom_site_symmetry_multiplicity
 _atom_site_fract_x
 _atom_site_fract_y
 _atom_site_fract_z
 _atom_site_occupancy
  Be  Be0  1  0.750000  0.250000  0.500000  1
  Be  Be1  1  0.250000  0.750000  0.500000  1
  H  H2  1  0.010637  0.852388  0.591281  1
  H  H3  1  0.862592  0.171482  0.770287  1
  H  H4  1  0.261107  0.419356  0.408719  1
  H  H5  1  0.147612  0.738893  0.158249  1
  H  H6  1  0.580644  0.989363  0.841751  1
  H  H7  1  0.510637  0.919356  0.158249  1
  H  H8  1  0.080644  0.238893  0.591281  1
  H  H9  1  0.647612  0.489363  0.408719  1
  H  H10  1  0.761107  0.352388  0.841751  1
  H  H11  1  0.901195  0.671482  0.308890  1
  H  H12  1  0.362592  0.592306  0.691110  1
  H  H13  1  0.328518  0.637408  0.229713  1
  H  H14  1  0.407694  0.098805  0.770287  1
  H  H15  1  0.401195  0.092306  0.229713  1
  H  H16  1  0.907694  0.137408  0.308890  1
  H  H17  1  0.828518  0.598805  0.691110  1
  S  S18  1  0.500000  0.500000  0.000000  1
  S  S19  1  0.000000  0.000000  0.000000  1
  O  O20  1  0.007822  0.794895  0.955801  1
  O  O21  1  0.034506  0.775859  0.465627  1
  O  O22  1  0.431121  0.965494  0.741354  1
  O  O23  1  0.534506  0.068879  0.258646  1
  O  O24  1  0.931121  0.189767  0.465627  1
  O  O25  1  0.724141  0.465494  0.534373  1
  O  O26  1  0.810233  0.275859  0.741354  1
  O  O27  1  0.947978  0.992178  0.787072  1
  O  O28  1  0.205105  0.160906  0.212928  1
  O  O29  1  0.310233  0.568879  0.534373  1
  O  O30  1  0.839094  0.052022  0.044199  1
  O  O31  1  0.447978  0.660906  0.955801  1
  O  O32  1  0.339094  0.294895  0.787072  1
  O  O33  1  0.507822  0.552022  0.212928  1
  O  O34  1  0.705105  0.492178  0.044199  1
  O  O35  1  0.224141  0.689767  0.258646  1
