# generated using pymatgen
data_BaCe2CoS5
_symmetry_space_group_name_H-M   'P 1'
_cell_length_a   8.66299862
_cell_length_b   8.66299862
_cell_length_c   8.66299862
_cell_angle_alpha   126.78991324
_cell_angle_beta   126.78991324
_cell_angle_gamma   78.59369299
_symmetry_Int_Tables_number   1
_chemical_formula_structural   BaCe2CoS5
_chemical_formula_sum   'Ba2 Ce4 Co2 S10'
_cell_volume   403.62407593
_cell_formula_units_Z   2
loop_
 _symmetry_equiv_pos_site_id
 _symmetry_equiv_pos_as_xyz
  1  'x, y, z'
loop_
 _atom_site_type_symbol
 _atom_site_label
 _atom_site_symmetry_multiplicity
 _atom_site_fract_x
 _atom_site_fract_y
 _atom_site_fract_z
 _atom_site_occupancy
  Ba  Ba0  1  0.750000  0.750000  0.000000  1
  Ba  Ba1  1  0.250000  0.250000  0.000000  1
  Ce  Ce2  1  0.837956  0.662044  0.500000  1
  Ce  Ce3  1  0.662044  0.162044  0.824089  1
  Ce  Ce4  1  0.337956  0.837956  0.175911  1
  Ce  Ce5  1  0.162044  0.337956  0.500000  1
  Co  Co6  1  0.250000  0.750000  0.500000  1
  Co  Co7  1  0.750000  0.250000  0.500000  1
  S  S8  1  0.988729  0.488729  0.209369  1
  S  S9  1  0.720640  0.220640  0.209369  1
  S  S10  1  0.011271  0.511271  0.790631  1
  S  S11  1  0.511271  0.720640  0.500000  1
  S  S12  1  0.220640  0.011271  0.500000  1
  S  S13  1  0.488729  0.279360  0.500000  1
  S  S14  1  0.779360  0.988729  0.500000  1
  S  S15  1  0.279360  0.779360  0.790631  1
  S  S16  1  0.000000  0.000000  0.000000  1
  S  S17  1  0.500000  0.500000  0.000000  1
