# generated using pymatgen
data_USeO5
_symmetry_space_group_name_H-M   'P 1'
_cell_length_a   4.27748190
_cell_length_b   9.55621958
_cell_length_c   5.83507720
_cell_angle_alpha   90.00000000
_cell_angle_beta   98.99483552
_cell_angle_gamma   90.00000000
_symmetry_Int_Tables_number   1
_chemical_formula_structural   USeO5
_chemical_formula_sum   'U2 Se2 O10'
_cell_volume   235.58467314
_cell_formula_units_Z   2
loop_
 _symmetry_equiv_pos_site_id
 _symmetry_equiv_pos_as_xyz
  1  'x, y, z'
loop_
 _atom_site_type_symbol
 _atom_site_label
 _atom_site_symmetry_multiplicity
 _atom_site_fract_x
 _atom_site_fract_y
 _atom_site_fract_z
 _atom_site_occupancy
  U  U0  1  0.000000  0.500000  0.000000  1
  U  U1  1  0.000000  0.000000  0.000000  1
  Se  Se2  1  0.364048  0.750000  0.708523  1
  Se  Se3  1  0.635952  0.250000  0.291477  1
  O  O4  1  0.945665  0.413129  0.723504  1
  O  O5  1  0.054335  0.913129  0.276496  1
  O  O6  1  0.054335  0.586871  0.276496  1
  O  O7  1  0.945665  0.086871  0.723504  1
  O  O8  1  0.006055  0.250000  0.202673  1
  O  O9  1  0.993945  0.750000  0.797327  1
  O  O10  1  0.510881  0.106173  0.117173  1
  O  O11  1  0.489119  0.606173  0.882827  1
  O  O12  1  0.489119  0.893827  0.882827  1
  O  O13  1  0.510881  0.393827  0.117173  1
