# generated using pymatgen
data_KHSO4
_symmetry_space_group_name_H-M   'P 1'
_cell_length_a   8.47732282
_cell_length_b   10.02338124
_cell_length_c   19.38196238
_cell_angle_alpha   90.00000000
_cell_angle_beta   90.00000000
_cell_angle_gamma   90.00000000
_symmetry_Int_Tables_number   1
_chemical_formula_structural   KHSO4
_chemical_formula_sum   'K16 H16 S16 O64'
_cell_volume   1646.91322476
_cell_formula_units_Z   16
loop_
 _symmetry_equiv_pos_site_id
 _symmetry_equiv_pos_as_xyz
  1  'x, y, z'
loop_
 _atom_site_type_symbol
 _atom_site_label
 _atom_site_symmetry_multiplicity
 _atom_site_fract_x
 _atom_site_fract_y
 _atom_site_fract_z
 _atom_site_occupancy
  K  K0  1  0.123435  0.318012  0.381093  1
  K  K1  1  0.623435  0.181988  0.618907  1
  K  K2  1  0.876565  0.818012  0.118907  1
  K  K3  1  0.376565  0.681988  0.881093  1
  K  K4  1  0.876565  0.681988  0.618907  1
  K  K5  1  0.376565  0.818012  0.381093  1
  K  K6  1  0.123435  0.181988  0.881093  1
  K  K7  1  0.623435  0.318012  0.118907  1
  K  K8  1  0.616462  0.180254  0.375359  1
  K  K9  1  0.116462  0.319746  0.624641  1
  K  K10  1  0.383538  0.680254  0.124641  1
  K  K11  1  0.883538  0.819746  0.875359  1
  K  K12  1  0.383538  0.819746  0.624641  1
  K  K13  1  0.883538  0.680254  0.375359  1
  K  K14  1  0.616462  0.319746  0.875359  1
  K  K15  1  0.116462  0.180254  0.124641  1
  H  H16  1  0.769693  0.063375  0.224663  1
  H  H17  1  0.269693  0.436625  0.775337  1
  H  H18  1  0.230307  0.563375  0.275337  1
  H  H19  1  0.730307  0.936625  0.724663  1
  H  H20  1  0.230307  0.936625  0.775337  1
  H  H21  1  0.730307  0.563375  0.224663  1
  H  H22  1  0.769693  0.436625  0.724663  1
  H  H23  1  0.269693  0.063375  0.275337  1
  H  H24  1  0.910176  0.097918  0.498685  1
  H  H25  1  0.410176  0.402082  0.501315  1
  H  H26  1  0.089824  0.597918  0.001315  1
  H  H27  1  0.589824  0.902082  0.998685  1
  H  H28  1  0.089824  0.902082  0.501315  1
  H  H29  1  0.589824  0.597918  0.498685  1
  H  H30  1  0.910176  0.402082  0.998685  1
  H  H31  1  0.410176  0.097918  0.001315  1
  S  S32  1  0.516674  0.018911  0.206483  1
  S  S33  1  0.016674  0.481089  0.793517  1
  S  S34  1  0.483326  0.518911  0.293517  1
  S  S35  1  0.983326  0.981089  0.706483  1
  S  S36  1  0.483326  0.981089  0.793517  1
  S  S37  1  0.983326  0.518911  0.206483  1
  S  S38  1  0.516674  0.481089  0.706483  1
  S  S39  1  0.016674  0.018911  0.293517  1
  S  S40  1  0.756211  0.922230  0.497155  1
  S  S41  1  0.256211  0.577770  0.502845  1
  S  S42  1  0.243789  0.422230  0.002845  1
  S  S43  1  0.743789  0.077770  0.997155  1
  S  S44  1  0.243789  0.077770  0.502845  1
  S  S45  1  0.743789  0.422230  0.497155  1
  S  S46  1  0.756211  0.577770  0.997155  1
  S  S47  1  0.256211  0.922230  0.002845  1
  O  O48  1  0.578110  0.892861  0.179997  1
  O  O49  1  0.078110  0.607139  0.820003  1
  O  O50  1  0.421890  0.392861  0.320003  1
  O  O51  1  0.921890  0.107139  0.679997  1
  O  O52  1  0.421890  0.107139  0.820003  1
  O  O53  1  0.921890  0.392861  0.179997  1
  O  O54  1  0.578110  0.607139  0.679997  1
  O  O55  1  0.078110  0.892861  0.320003  1
  O  O56  1  0.421192  0.096560  0.158475  1
  O  O57  1  0.921192  0.403440  0.841525  1
  O  O58  1  0.578808  0.596560  0.341525  1
  O  O59  1  0.078808  0.903440  0.658475  1
  O  O60  1  0.578808  0.903440  0.841525  1
  O  O61  1  0.078808  0.596560  0.158475  1
  O  O62  1  0.421192  0.403440  0.658475  1
  O  O63  1  0.921192  0.096560  0.341525  1
  O  O64  1  0.434878  0.001721  0.274226  1
  O  O65  1  0.934878  0.498279  0.725774  1
  O  O66  1  0.565122  0.501721  0.225774  1
  O  O67  1  0.065122  0.998279  0.774226  1
  O  O68  1  0.565122  0.998279  0.725774  1
  O  O69  1  0.065122  0.501721  0.274226  1
  O  O70  1  0.434878  0.498279  0.774226  1
  O  O71  1  0.934878  0.001721  0.225774  1
  O  O72  1  0.663189  0.113485  0.223211  1
  O  O73  1  0.163189  0.386515  0.776789  1
  O  O74  1  0.336811  0.613485  0.276789  1
  O  O75  1  0.836811  0.886515  0.723211  1
  O  O76  1  0.336811  0.886515  0.776789  1
  O  O77  1  0.836811  0.613485  0.223211  1
  O  O78  1  0.663189  0.386515  0.723211  1
  O  O79  1  0.163189  0.113485  0.276789  1
  O  O80  1  0.666792  0.899142  0.433794  1
  O  O81  1  0.166792  0.600858  0.566206  1
  O  O82  1  0.333208  0.399142  0.066206  1
  O  O83  1  0.833208  0.100858  0.933794  1
  O  O84  1  0.333208  0.100858  0.566206  1
  O  O85  1  0.833208  0.399142  0.433794  1
  O  O86  1  0.666792  0.600858  0.933794  1
  O  O87  1  0.166792  0.899142  0.066206  1
  O  O88  1  0.667733  0.895338  0.560430  1
  O  O89  1  0.167733  0.604662  0.439570  1
  O  O90  1  0.332267  0.395338  0.939570  1
  O  O91  1  0.832267  0.104662  0.060430  1
  O  O92  1  0.332267  0.104662  0.439570  1
  O  O93  1  0.832267  0.395338  0.560430  1
  O  O94  1  0.667733  0.604662  0.060430  1
  O  O95  1  0.167733  0.895338  0.939570  1
  O  O96  1  0.911251  0.853932  0.496233  1
  O  O97  1  0.411251  0.646068  0.503767  1
  O  O98  1  0.088749  0.353932  0.003767  1
  O  O99  1  0.588749  0.146068  0.996233  1
  O  O100  1  0.088749  0.146068  0.503767  1
  O  O101  1  0.588749  0.353932  0.496233  1
  O  O102  1  0.911251  0.646068  0.996233  1
  O  O103  1  0.411251  0.853932  0.003767  1
  O  O104  1  0.792203  0.079114  0.498792  1
  O  O105  1  0.292203  0.420886  0.501208  1
  O  O106  1  0.207797  0.579114  0.001208  1
  O  O107  1  0.707797  0.920886  0.998792  1
  O  O108  1  0.207797  0.920886  0.501208  1
  O  O109  1  0.707797  0.579114  0.498792  1
  O  O110  1  0.792203  0.420886  0.998792  1
  O  O111  1  0.292203  0.079114  0.001208  1
