# generated using pymatgen
data_Ho6MnBi2
_symmetry_space_group_name_H-M   'P 1'
_cell_length_a   8.28979400
_cell_length_b   8.28979400
_cell_length_c   4.26818323
_cell_angle_alpha   90.00000000
_cell_angle_beta   90.00000000
_cell_angle_gamma   120.00000000
_symmetry_Int_Tables_number   1
_chemical_formula_structural   Ho6MnBi2
_chemical_formula_sum   'Ho6 Mn1 Bi2'
_cell_volume   254.01605305
_cell_formula_units_Z   1
loop_
 _symmetry_equiv_pos_site_id
 _symmetry_equiv_pos_as_xyz
  1  'x, y, z'
loop_
 _atom_site_type_symbol
 _atom_site_label
 _atom_site_symmetry_multiplicity
 _atom_site_fract_x
 _atom_site_fract_y
 _atom_site_fract_z
 _atom_site_occupancy
  Ho  Ho0  1  0.232668  0.000000  0.000000  1
  Ho  Ho1  1  0.000000  0.607457  0.500000  1
  Ho  Ho2  1  0.392543  0.392543  0.500000  1
  Ho  Ho3  1  0.767332  0.767332  0.000000  1
  Ho  Ho4  1  0.000000  0.232668  0.000000  1
  Ho  Ho5  1  0.607457  0.000000  0.500000  1
  Mn  Mn6  1  0.000000  0.000000  0.500000  1
  Bi  Bi7  1  0.333333  0.666667  0.000000  1
  Bi  Bi8  1  0.666667  0.333333  0.000000  1
