# generated using pymatgen
data_SmAl3(PbO4)2
_symmetry_space_group_name_H-M   'P 1'
_cell_length_a   9.59916638
_cell_length_b   9.59916638
_cell_length_c   9.59916638
_cell_angle_alpha   90.00000000
_cell_angle_beta   90.00000000
_cell_angle_gamma   90.00000000
_symmetry_Int_Tables_number   1
_chemical_formula_structural   SmAl3(PbO4)2
_chemical_formula_sum   'Sm4 Al12 Pb8 O32'
_cell_volume   884.50554076
_cell_formula_units_Z   4
loop_
 _symmetry_equiv_pos_site_id
 _symmetry_equiv_pos_as_xyz
  1  'x, y, z'
loop_
 _atom_site_type_symbol
 _atom_site_label
 _atom_site_symmetry_multiplicity
 _atom_site_fract_x
 _atom_site_fract_y
 _atom_site_fract_z
 _atom_site_occupancy
  Sm  Sm0  1  0.250000  0.250000  0.750000  1
  Sm  Sm1  1  0.250000  0.750000  0.250000  1
  Sm  Sm2  1  0.750000  0.750000  0.750000  1
  Sm  Sm3  1  0.750000  0.250000  0.250000  1
  Al  Al4  1  0.500000  0.000000  0.250000  1
  Al  Al5  1  0.500000  0.250000  0.000000  1
  Al  Al6  1  0.500000  0.750000  0.000000  1
  Al  Al7  1  0.750000  0.000000  0.500000  1
  Al  Al8  1  0.000000  0.750000  0.500000  1
  Al  Al9  1  0.250000  0.500000  0.000000  1
  Al  Al10  1  0.250000  0.000000  0.500000  1
  Al  Al11  1  0.000000  0.500000  0.750000  1
  Al  Al12  1  0.500000  0.000000  0.750000  1
  Al  Al13  1  0.000000  0.250000  0.500000  1
  Al  Al14  1  0.750000  0.500000  0.000000  1
  Al  Al15  1  0.000000  0.500000  0.250000  1
  Pb  Pb16  1  0.366832  0.366832  0.366832  1
  Pb  Pb17  1  0.133168  0.133168  0.133168  1
  Pb  Pb18  1  0.866832  0.133168  0.866832  1
  Pb  Pb19  1  0.133168  0.866832  0.866832  1
  Pb  Pb20  1  0.633168  0.633168  0.366832  1
  Pb  Pb21  1  0.366832  0.633168  0.633168  1
  Pb  Pb22  1  0.633168  0.366832  0.633168  1
  Pb  Pb23  1  0.866832  0.866832  0.133168  1
  O  O24  1  0.657288  0.657288  0.985956  1
  O  O25  1  0.389481  0.610519  0.389481  1
  O  O26  1  0.889481  0.110519  0.110519  1
  O  O27  1  0.342712  0.657288  0.014044  1
  O  O28  1  0.157288  0.157288  0.514044  1
  O  O29  1  0.485956  0.157288  0.842712  1
  O  O30  1  0.657288  0.342712  0.014044  1
  O  O31  1  0.842712  0.157288  0.485956  1
  O  O32  1  0.514044  0.157288  0.157288  1
  O  O33  1  0.842712  0.485956  0.157288  1
  O  O34  1  0.389481  0.389481  0.610519  1
  O  O35  1  0.342712  0.342712  0.985956  1
  O  O36  1  0.014044  0.342712  0.657288  1
  O  O37  1  0.110519  0.889481  0.110519  1
  O  O38  1  0.342712  0.014044  0.657288  1
  O  O39  1  0.110519  0.110519  0.889481  1
  O  O40  1  0.610519  0.610519  0.610519  1
  O  O41  1  0.842712  0.514044  0.842712  1
  O  O42  1  0.985956  0.657288  0.657288  1
  O  O43  1  0.485956  0.842712  0.157288  1
  O  O44  1  0.157288  0.514044  0.157288  1
  O  O45  1  0.985956  0.342712  0.342712  1
  O  O46  1  0.342712  0.985956  0.342712  1
  O  O47  1  0.157288  0.842712  0.485956  1
  O  O48  1  0.657288  0.014044  0.342712  1
  O  O49  1  0.514044  0.842712  0.842712  1
  O  O50  1  0.657288  0.985956  0.657288  1
  O  O51  1  0.842712  0.842712  0.514044  1
  O  O52  1  0.889481  0.889481  0.889481  1
  O  O53  1  0.610519  0.389481  0.389481  1
  O  O54  1  0.014044  0.657288  0.342712  1
  O  O55  1  0.157288  0.485956  0.842712  1
