# generated using pymatgen
data_Sr2GeN2
_symmetry_space_group_name_H-M   'P 1'
_cell_length_a   11.85993535
_cell_length_b   11.85993535
_cell_length_c   5.42653225
_cell_angle_alpha   90.00000000
_cell_angle_beta   90.00000000
_cell_angle_gamma   90.00000000
_symmetry_Int_Tables_number   1
_chemical_formula_structural   Sr2GeN2
_chemical_formula_sum   'Sr16 Ge8 N16'
_cell_volume   763.28553412
_cell_formula_units_Z   8
loop_
 _symmetry_equiv_pos_site_id
 _symmetry_equiv_pos_as_xyz
  1  'x, y, z'
loop_
 _atom_site_type_symbol
 _atom_site_label
 _atom_site_symmetry_multiplicity
 _atom_site_fract_x
 _atom_site_fract_y
 _atom_site_fract_z
 _atom_site_occupancy
  Sr  Sr0  1  0.477958  0.151441  0.500000  1
  Sr  Sr1  1  0.522042  0.848559  0.500000  1
  Sr  Sr2  1  0.848559  0.477958  0.000000  1
  Sr  Sr3  1  0.151441  0.522042  0.000000  1
  Sr  Sr4  1  0.651441  0.977958  0.000000  1
  Sr  Sr5  1  0.977958  0.348559  0.500000  1
  Sr  Sr6  1  0.022042  0.651441  0.500000  1
  Sr  Sr7  1  0.348559  0.022042  0.000000  1
  Sr  Sr8  1  0.133599  0.080188  0.500000  1
  Sr  Sr9  1  0.866401  0.919812  0.500000  1
  Sr  Sr10  1  0.919812  0.133599  0.000000  1
  Sr  Sr11  1  0.080188  0.866401  0.000000  1
  Sr  Sr12  1  0.580188  0.633599  0.000000  1
  Sr  Sr13  1  0.633599  0.419812  0.500000  1
  Sr  Sr14  1  0.366401  0.580188  0.500000  1
  Sr  Sr15  1  0.419812  0.366401  0.000000  1
  Ge  Ge16  1  0.151000  0.255979  0.000000  1
  Ge  Ge17  1  0.255979  0.849000  0.500000  1
  Ge  Ge18  1  0.744021  0.151000  0.500000  1
  Ge  Ge19  1  0.849000  0.744021  0.000000  1
  Ge  Ge20  1  0.349000  0.755979  0.000000  1
  Ge  Ge21  1  0.651000  0.244021  0.000000  1
  Ge  Ge22  1  0.755979  0.651000  0.500000  1
  Ge  Ge23  1  0.244021  0.349000  0.500000  1
  N  N24  1  0.165104  0.488488  0.500000  1
  N  N25  1  0.834896  0.511512  0.500000  1
  N  N26  1  0.511512  0.165104  0.000000  1
  N  N27  1  0.488488  0.834896  0.000000  1
  N  N28  1  0.988488  0.665104  0.000000  1
  N  N29  1  0.665104  0.011512  0.500000  1
  N  N30  1  0.334896  0.988488  0.500000  1
  N  N31  1  0.011512  0.334896  0.000000  1
  N  N32  1  0.401370  0.366185  0.500000  1
  N  N33  1  0.598630  0.633815  0.500000  1
  N  N34  1  0.633815  0.401370  0.000000  1
  N  N35  1  0.366185  0.598630  0.000000  1
  N  N36  1  0.866185  0.901370  0.000000  1
  N  N37  1  0.901370  0.133815  0.500000  1
  N  N38  1  0.098630  0.866185  0.500000  1
  N  N39  1  0.133815  0.098630  0.000000  1
