# generated using pymatgen
data_Ca2Si5N8
_symmetry_space_group_name_H-M   'P 1'
_cell_length_a   7.74742322
_cell_length_b   7.74742322
_cell_length_c   9.75314371
_cell_angle_alpha   69.63460397
_cell_angle_beta   110.36539603
_cell_angle_gamma   137.32786973
_symmetry_Int_Tables_number   1
_chemical_formula_structural   Ca2Si5N8
_chemical_formula_sum   'Ca4 Si10 N16'
_cell_volume   368.05759140
_cell_formula_units_Z   2
loop_
 _symmetry_equiv_pos_site_id
 _symmetry_equiv_pos_as_xyz
  1  'x, y, z'
loop_
 _atom_site_type_symbol
 _atom_site_label
 _atom_site_symmetry_multiplicity
 _atom_site_fract_x
 _atom_site_fract_y
 _atom_site_fract_z
 _atom_site_occupancy
  Ca  Ca0  1  0.356285  0.138005  0.696621  1
  Ca  Ca1  1  0.861995  0.643715  0.196621  1
  Ca  Ca2  1  0.765091  0.763072  0.502480  1
  Ca  Ca3  1  0.236928  0.234909  0.002480  1
  Si  Si4  1  0.857800  0.146574  0.626402  1
  Si  Si5  1  0.853426  0.142200  0.126402  1
  Si  Si6  1  0.570432  0.845485  0.868108  1
  Si  Si7  1  0.154515  0.429568  0.368108  1
  Si  Si8  1  0.250956  0.742476  0.563105  1
  Si  Si9  1  0.257524  0.749044  0.063105  1
  Si  Si10  1  0.965223  0.453994  0.818135  1
  Si  Si11  1  0.546006  0.034777  0.318135  1
  Si  Si12  1  0.862959  0.747603  0.853115  1
  Si  Si13  1  0.252397  0.137041  0.353115  1
  N  N14  1  0.278553  0.687578  0.916014  1
  N  N15  1  0.312422  0.721447  0.416014  1
  N  N16  1  0.786176  0.524254  0.772798  1
  N  N17  1  0.475746  0.213824  0.272798  1
  N  N18  1  0.847741  0.179854  0.435265  1
  N  N19  1  0.820146  0.152259  0.935265  1
  N  N20  1  0.977930  0.015533  0.717521  1
  N  N21  1  0.984467  0.022070  0.217521  1
  N  N22  1  0.550876  0.944232  0.675990  1
  N  N23  1  0.055768  0.449124  0.175990  1
  N  N24  1  0.037170  0.446592  0.669719  1
  N  N25  1  0.553408  0.962830  0.169719  1
  N  N26  1  0.139474  0.882161  0.496790  1
  N  N27  1  0.117839  0.860526  0.996790  1
  N  N28  1  0.348330  0.374784  0.429836  1
  N  N29  1  0.625216  0.651670  0.929836  1
