# generated using pymatgen
data_ErB4
_symmetry_space_group_name_H-M   'P 1'
_cell_length_a   7.06972816
_cell_length_b   7.06972816
_cell_length_c   3.99707892
_cell_angle_alpha   90.00000000
_cell_angle_beta   90.00000000
_cell_angle_gamma   90.00000000
_symmetry_Int_Tables_number   1
_chemical_formula_structural   ErB4
_chemical_formula_sum   'Er4 B16'
_cell_volume   199.77822636
_cell_formula_units_Z   4
loop_
 _symmetry_equiv_pos_site_id
 _symmetry_equiv_pos_as_xyz
  1  'x, y, z'
loop_
 _atom_site_type_symbol
 _atom_site_label
 _atom_site_symmetry_multiplicity
 _atom_site_fract_x
 _atom_site_fract_y
 _atom_site_fract_z
 _atom_site_occupancy
  Er  Er0  1  0.181793  0.681793  0.000000  1
  Er  Er1  1  0.681793  0.818207  0.000000  1
  Er  Er2  1  0.318207  0.181793  0.000000  1
  Er  Er3  1  0.818207  0.318207  0.000000  1
  B  B4  1  0.323483  0.461282  0.500000  1
  B  B5  1  0.676517  0.538718  0.500000  1
  B  B6  1  0.538718  0.323483  0.500000  1
  B  B7  1  0.461282  0.676517  0.500000  1
  B  B8  1  0.000000  0.000000  0.202632  1
  B  B9  1  0.500000  0.500000  0.797368  1
  B  B10  1  0.000000  0.000000  0.797368  1
  B  B11  1  0.500000  0.500000  0.202632  1
  B  B12  1  0.586903  0.086903  0.500000  1
  B  B13  1  0.086903  0.413097  0.500000  1
  B  B14  1  0.913097  0.586903  0.500000  1
  B  B15  1  0.413097  0.913097  0.500000  1
  B  B16  1  0.038718  0.176517  0.500000  1
  B  B17  1  0.176517  0.961282  0.500000  1
  B  B18  1  0.823483  0.038718  0.500000  1
  B  B19  1  0.961282  0.823483  0.500000  1
