# generated using pymatgen
data_Ba7Ir6O19
_symmetry_space_group_name_H-M   'P 1'
_cell_length_a   8.06173577
_cell_length_b   8.06173577
_cell_length_c   11.19623553
_cell_angle_alpha   81.61352370
_cell_angle_beta   98.38647630
_cell_angle_gamma   137.61849176
_symmetry_Int_Tables_number   1
_chemical_formula_structural   Ba7Ir6O19
_chemical_formula_sum   'Ba7 Ir6 O19'
_cell_volume   484.45200274
_cell_formula_units_Z   1
loop_
 _symmetry_equiv_pos_site_id
 _symmetry_equiv_pos_as_xyz
  1  'x, y, z'
loop_
 _atom_site_type_symbol
 _atom_site_label
 _atom_site_symmetry_multiplicity
 _atom_site_fract_x
 _atom_site_fract_y
 _atom_site_fract_z
 _atom_site_occupancy
  Ba  Ba0  1  0.500000  0.500000  0.500000  1
  Ba  Ba1  1  0.855574  0.144426  0.054748  1
  Ba  Ba2  1  0.144426  0.855574  0.945252  1
  Ba  Ba3  1  0.573877  0.426123  0.162497  1
  Ba  Ba4  1  0.426123  0.573877  0.837503  1
  Ba  Ba5  1  0.804776  0.195224  0.410223  1
  Ba  Ba6  1  0.195224  0.804776  0.589777  1
  Ir  Ir7  1  0.183230  0.816770  0.265509  1
  Ir  Ir8  1  0.816770  0.183230  0.734491  1
  Ir  Ir9  1  0.345352  0.654648  0.218472  1
  Ir  Ir10  1  0.654648  0.345352  0.781528  1
  Ir  Ir11  1  0.023389  0.976611  0.322655  1
  Ir  Ir12  1  0.976611  0.023389  0.677345  1
  O  O13  1  0.000000  1.000000  0.500000  1
  O  O14  1  0.702109  0.297891  0.613458  1
  O  O15  1  0.297891  0.702109  0.386542  1
  O  O16  1  0.057755  0.942245  0.150473  1
  O  O17  1  0.942245  0.057755  0.849527  1
  O  O18  1  0.397562  0.602438  0.064358  1
  O  O19  1  0.602438  0.397562  0.935642  1
  O  O20  1  0.822165  0.679874  0.706148  1
  O  O21  1  0.679874  0.822165  0.293852  1
  O  O22  1  0.177835  0.320126  0.293852  1
  O  O23  1  0.320126  0.177835  0.706148  1
  O  O24  1  0.527007  0.014731  0.836909  1
  O  O25  1  0.014731  0.527007  0.163091  1
  O  O26  1  0.642076  0.892575  0.632649  1
  O  O27  1  0.892575  0.642076  0.367351  1
  O  O28  1  0.357924  0.107425  0.367351  1
  O  O29  1  0.107425  0.357924  0.632649  1
  O  O30  1  0.985269  0.472993  0.836909  1
  O  O31  1  0.472993  0.985269  0.163091  1
