# generated using pymatgen
data_LiTi2(PO4)3
_symmetry_space_group_name_H-M   'P 1'
_cell_length_a   8.60880970
_cell_length_b   8.70179274
_cell_length_c   14.73068994
_cell_angle_alpha   90.00000000
_cell_angle_beta   125.09301307
_cell_angle_gamma   90.00000000
_symmetry_Int_Tables_number   1
_chemical_formula_structural   LiTi2(PO4)3
_chemical_formula_sum   'Li4 Ti8 P12 O48'
_cell_volume   902.91097516
_cell_formula_units_Z   4
loop_
 _symmetry_equiv_pos_site_id
 _symmetry_equiv_pos_as_xyz
  1  'x, y, z'
loop_
 _atom_site_type_symbol
 _atom_site_label
 _atom_site_symmetry_multiplicity
 _atom_site_fract_x
 _atom_site_fract_y
 _atom_site_fract_z
 _atom_site_occupancy
  Li  Li0  1  0.026087  0.219746  0.820781  1
  Li  Li1  1  0.973913  0.719746  0.679219  1
  Li  Li2  1  0.026087  0.280254  0.320781  1
  Li  Li3  1  0.973913  0.780254  0.179219  1
  Ti  Ti4  1  0.629696  0.471565  0.379845  1
  Ti  Ti5  1  0.370304  0.971565  0.120155  1
  Ti  Ti6  1  0.855862  0.040106  0.609964  1
  Ti  Ti7  1  0.144138  0.540106  0.890036  1
  Ti  Ti8  1  0.855862  0.459894  0.109964  1
  Ti  Ti9  1  0.144138  0.959894  0.390036  1
  Ti  Ti10  1  0.629696  0.028435  0.879845  1
  Ti  Ti11  1  0.370304  0.528435  0.620155  1
  P  P12  1  0.538890  0.749236  0.506992  1
  P  P13  1  0.250609  0.618119  0.147483  1
  P  P14  1  0.964726  0.893510  0.856173  1
  P  P15  1  0.749391  0.118119  0.352517  1
  P  P16  1  0.035274  0.393510  0.643827  1
  P  P17  1  0.461110  0.249236  0.993008  1
  P  P18  1  0.538890  0.750764  0.006992  1
  P  P19  1  0.964726  0.606490  0.356173  1
  P  P20  1  0.250609  0.881881  0.647483  1
  P  P21  1  0.035274  0.106490  0.143827  1
  P  P22  1  0.749391  0.381881  0.852517  1
  P  P23  1  0.461110  0.250764  0.493008  1
  O  O24  1  0.625091  0.136082  0.566358  1
  O  O25  1  0.208612  0.108042  0.138879  1
  O  O26  1  0.484742  0.327474  0.408148  1
  O  O27  1  0.915225  0.409549  0.841113  1
  O  O28  1  0.543008  0.634034  0.429666  1
  O  O29  1  0.297511  0.790754  0.168340  1
  O  O30  1  0.183712  0.576215  0.027382  1
  O  O31  1  0.931202  0.010759  0.766682  1
  O  O32  1  0.732356  0.835669  0.572232  1
  O  O33  1  0.992151  0.731331  0.822066  1
  O  O34  1  0.146294  0.942150  0.966615  1
  O  O35  1  0.418992  0.514026  0.228088  1
  O  O36  1  0.581008  0.014026  0.271912  1
  O  O37  1  0.853706  0.442150  0.533385  1
  O  O38  1  0.007849  0.231331  0.677934  1
  O  O39  1  0.267644  0.335669  0.927768  1
  O  O40  1  0.068798  0.510759  0.733318  1
  O  O41  1  0.816288  0.076215  0.472618  1
  O  O42  1  0.702489  0.290754  0.331660  1
  O  O43  1  0.456992  0.134034  0.070334  1
  O  O44  1  0.515258  0.827474  0.091852  1
  O  O45  1  0.791388  0.608042  0.361121  1
  O  O46  1  0.084775  0.909549  0.658887  1
  O  O47  1  0.374909  0.636082  0.933642  1
  O  O48  1  0.625091  0.363918  0.066358  1
  O  O49  1  0.915225  0.090451  0.341113  1
  O  O50  1  0.208612  0.391958  0.638879  1
  O  O51  1  0.484742  0.172526  0.908148  1
  O  O52  1  0.543008  0.865966  0.929666  1
  O  O53  1  0.297511  0.709246  0.668340  1
  O  O54  1  0.183712  0.923785  0.527382  1
  O  O55  1  0.931202  0.489241  0.266682  1
  O  O56  1  0.732356  0.664331  0.072232  1
  O  O57  1  0.992151  0.768669  0.322066  1
  O  O58  1  0.146294  0.557850  0.466615  1
  O  O59  1  0.418992  0.985974  0.728088  1
  O  O60  1  0.581008  0.485974  0.771912  1
  O  O61  1  0.853706  0.057850  0.033385  1
  O  O62  1  0.007849  0.268669  0.177934  1
  O  O63  1  0.267644  0.164331  0.427768  1
  O  O64  1  0.068798  0.989241  0.233318  1
  O  O65  1  0.816288  0.423785  0.972618  1
  O  O66  1  0.702489  0.209246  0.831660  1
  O  O67  1  0.456992  0.365966  0.570334  1
  O  O68  1  0.084775  0.590451  0.158887  1
  O  O69  1  0.515258  0.672526  0.591852  1
  O  O70  1  0.791388  0.891958  0.861121  1
  O  O71  1  0.374909  0.863918  0.433642  1
