# generated using pymatgen
data_K4I2O9
_symmetry_space_group_name_H-M   'P 1'
_cell_length_a   6.29357493
_cell_length_b   6.29357493
_cell_length_c   15.71482239
_cell_angle_alpha   90.00000000
_cell_angle_beta   90.00000000
_cell_angle_gamma   120.00000000
_symmetry_Int_Tables_number   1
_chemical_formula_structural   K4I2O9
_chemical_formula_sum   'K8 I4 O18'
_cell_volume   539.05728944
_cell_formula_units_Z   2
loop_
 _symmetry_equiv_pos_site_id
 _symmetry_equiv_pos_as_xyz
  1  'x, y, z'
loop_
 _atom_site_type_symbol
 _atom_site_label
 _atom_site_symmetry_multiplicity
 _atom_site_fract_x
 _atom_site_fract_y
 _atom_site_fract_z
 _atom_site_occupancy
  K  K0  1  0.000000  0.000000  0.000000  1
  K  K1  1  0.000000  0.000000  0.500000  1
  K  K2  1  0.000000  0.000000  0.250000  1
  K  K3  1  0.000000  0.000000  0.750000  1
  K  K4  1  0.333333  0.666667  0.408862  1
  K  K5  1  0.666667  0.333333  0.908862  1
  K  K6  1  0.666667  0.333333  0.591138  1
  K  K7  1  0.333333  0.666667  0.091138  1
  I  I8  1  0.333333  0.666667  0.657496  1
  I  I9  1  0.666667  0.333333  0.157496  1
  I  I10  1  0.666667  0.333333  0.342504  1
  I  I11  1  0.333333  0.666667  0.842504  1
  O  O12  1  0.186330  0.813670  0.898273  1
  O  O13  1  0.186330  0.372660  0.898273  1
  O  O14  1  0.627340  0.813670  0.898273  1
  O  O15  1  0.372660  0.186330  0.398273  1
  O  O16  1  0.813670  0.627340  0.101727  1
  O  O17  1  0.813670  0.186330  0.398273  1
  O  O18  1  0.813670  0.627340  0.398273  1
  O  O19  1  0.186330  0.813670  0.601727  1
  O  O20  1  0.627340  0.813670  0.601727  1
  O  O21  1  0.372660  0.186330  0.101727  1
  O  O22  1  0.813670  0.186330  0.101727  1
  O  O23  1  0.186330  0.372660  0.601727  1
  O  O24  1  0.533666  0.067331  0.250000  1
  O  O25  1  0.466334  0.533666  0.750000  1
  O  O26  1  0.067331  0.533666  0.750000  1
  O  O27  1  0.932669  0.466334  0.250000  1
  O  O28  1  0.533666  0.466334  0.250000  1
  O  O29  1  0.466334  0.932669  0.750000  1
