# generated using pymatgen
data_Fe2PO5
_symmetry_space_group_name_H-M   'P 1'
_cell_length_a   6.53132100
_cell_length_b   7.47524062
_cell_length_c   7.58891998
_cell_angle_alpha   90.00000000
_cell_angle_beta   90.00000000
_cell_angle_gamma   90.00000000
_symmetry_Int_Tables_number   1
_chemical_formula_structural   Fe2PO5
_chemical_formula_sum   'Fe8 P4 O20'
_cell_volume   370.51532793
_cell_formula_units_Z   4
loop_
 _symmetry_equiv_pos_site_id
 _symmetry_equiv_pos_as_xyz
  1  'x, y, z'
loop_
 _atom_site_type_symbol
 _atom_site_label
 _atom_site_symmetry_multiplicity
 _atom_site_fract_x
 _atom_site_fract_y
 _atom_site_fract_z
 _atom_site_occupancy
  Fe  Fe0  1  0.750000  0.849325  0.715040  1
  Fe  Fe1  1  0.250000  0.150675  0.284960  1
  Fe  Fe2  1  0.750000  0.349325  0.784960  1
  Fe  Fe3  1  0.250000  0.650675  0.215040  1
  Fe  Fe4  1  0.000000  0.500000  0.500000  1
  Fe  Fe5  1  0.500000  0.500000  0.500000  1
  Fe  Fe6  1  0.500000  0.000000  0.000000  1
  Fe  Fe7  1  0.000000  0.000000  0.000000  1
  P  P8  1  0.250000  0.877508  0.628027  1
  P  P9  1  0.750000  0.122492  0.371973  1
  P  P10  1  0.250000  0.377508  0.871973  1
  P  P11  1  0.750000  0.622492  0.128027  1
  O  O12  1  0.559495  0.631596  0.250359  1
  O  O13  1  0.059495  0.368404  0.749641  1
  O  O14  1  0.940505  0.131596  0.249641  1
  O  O15  1  0.440505  0.868404  0.750359  1
  O  O16  1  0.440505  0.368404  0.749641  1
  O  O17  1  0.940505  0.631596  0.250359  1
  O  O18  1  0.059495  0.868404  0.750359  1
  O  O19  1  0.559495  0.131596  0.249641  1
  O  O20  1  0.250000  0.549835  0.980373  1
  O  O21  1  0.750000  0.450165  0.019627  1
  O  O22  1  0.250000  0.049835  0.519627  1
  O  O23  1  0.750000  0.950165  0.480373  1
  O  O24  1  0.250000  0.901313  0.142478  1
  O  O25  1  0.750000  0.098687  0.857522  1
  O  O26  1  0.250000  0.401313  0.357522  1
  O  O27  1  0.750000  0.598687  0.642478  1
  O  O28  1  0.250000  0.209669  0.995393  1
  O  O29  1  0.750000  0.790331  0.004607  1
  O  O30  1  0.250000  0.709669  0.504607  1
  O  O31  1  0.750000  0.290331  0.495393  1
