# generated using pymatgen
data_Hf5Ga3
_symmetry_space_group_name_H-M   'P 1'
_cell_length_a   8.01641727
_cell_length_b   8.01641727
_cell_length_c   5.69615722
_cell_angle_alpha   90.00000000
_cell_angle_beta   90.00000000
_cell_angle_gamma   120.00000000
_symmetry_Int_Tables_number   1
_chemical_formula_structural   Hf5Ga3
_chemical_formula_sum   'Hf10 Ga6'
_cell_volume   317.01019509
_cell_formula_units_Z   2
loop_
 _symmetry_equiv_pos_site_id
 _symmetry_equiv_pos_as_xyz
  1  'x, y, z'
loop_
 _atom_site_type_symbol
 _atom_site_label
 _atom_site_symmetry_multiplicity
 _atom_site_fract_x
 _atom_site_fract_y
 _atom_site_fract_z
 _atom_site_occupancy
  Hf  Hf0  1  0.333333  0.666667  0.500000  1
  Hf  Hf1  1  0.666667  0.333333  0.500000  1
  Hf  Hf2  1  0.666667  0.333333  0.000000  1
  Hf  Hf3  1  0.333333  0.666667  0.000000  1
  Hf  Hf4  1  0.242517  0.000000  0.750000  1
  Hf  Hf5  1  0.757483  0.757483  0.750000  1
  Hf  Hf6  1  0.000000  0.242517  0.750000  1
  Hf  Hf7  1  0.757483  0.000000  0.250000  1
  Hf  Hf8  1  0.242517  0.242517  0.250000  1
  Hf  Hf9  1  0.000000  0.757483  0.250000  1
  Ga  Ga10  1  0.608435  0.000000  0.750000  1
  Ga  Ga11  1  0.391565  0.391565  0.750000  1
  Ga  Ga12  1  0.000000  0.608435  0.750000  1
  Ga  Ga13  1  0.391565  0.000000  0.250000  1
  Ga  Ga14  1  0.608435  0.608435  0.250000  1
  Ga  Ga15  1  0.000000  0.391565  0.250000  1
