# generated using pymatgen
data_BCl
_symmetry_space_group_name_H-M   'P 1'
_cell_length_a   8.26791660
_cell_length_b   13.56922558
_cell_length_c   14.58882497
_cell_angle_alpha   90.00000000
_cell_angle_beta   90.00000000
_cell_angle_gamma   90.00000000
_symmetry_Int_Tables_number   1
_chemical_formula_structural   BCl
_chemical_formula_sum   'B32 Cl32'
_cell_volume   1636.70897320
_cell_formula_units_Z   32
loop_
 _symmetry_equiv_pos_site_id
 _symmetry_equiv_pos_as_xyz
  1  'x, y, z'
loop_
 _atom_site_type_symbol
 _atom_site_label
 _atom_site_symmetry_multiplicity
 _atom_site_fract_x
 _atom_site_fract_y
 _atom_site_fract_z
 _atom_site_occupancy
  B  B0  1  0.486365  0.062673  0.353253  1
  B  B1  1  0.986365  0.437327  0.646747  1
  B  B2  1  0.513635  0.562673  0.146747  1
  B  B3  1  0.013635  0.937327  0.853253  1
  B  B4  1  0.623984  0.101871  0.431716  1
  B  B5  1  0.123984  0.398129  0.568284  1
  B  B6  1  0.376016  0.601871  0.068284  1
  B  B7  1  0.876016  0.898129  0.931716  1
  B  B8  1  0.864041  0.111206  0.930790  1
  B  B9  1  0.364041  0.388794  0.069210  1
  B  B10  1  0.135959  0.611206  0.569210  1
  B  B11  1  0.635959  0.888794  0.430790  1
  B  B12  1  0.743046  0.071687  0.844090  1
  B  B13  1  0.243046  0.428313  0.155910  1
  B  B14  1  0.256954  0.571687  0.655910  1
  B  B15  1  0.756954  0.928313  0.344090  1
  B  B16  1  0.987373  0.005257  0.955089  1
  B  B17  1  0.487373  0.494743  0.044911  1
  B  B18  1  0.012627  0.505257  0.544911  1
  B  B19  1  0.512627  0.994743  0.455089  1
  B  B20  1  0.693514  0.053765  0.327062  1
  B  B21  1  0.193514  0.446235  0.672938  1
  B  B22  1  0.306486  0.553765  0.172938  1
  B  B23  1  0.806486  0.946235  0.827062  1
  B  B24  1  0.747974  0.003897  0.946803  1
  B  B25  1  0.247974  0.496103  0.053197  1
  B  B26  1  0.252026  0.503897  0.553197  1
  B  B27  1  0.752026  0.996103  0.446803  1
  B  B28  1  0.953766  0.062540  0.831322  1
  B  B29  1  0.453766  0.437460  0.168678  1
  B  B30  1  0.046234  0.562540  0.668678  1
  B  B31  1  0.546234  0.937460  0.331322  1
  Cl  Cl32  1  0.324759  0.124821  0.305459  1
  Cl  Cl33  1  0.824759  0.375179  0.694541  1
  Cl  Cl34  1  0.675241  0.624821  0.194541  1
  Cl  Cl35  1  0.175241  0.875179  0.805459  1
  Cl  Cl36  1  0.640093  0.215352  0.484543  1
  Cl  Cl37  1  0.140093  0.284648  0.515457  1
  Cl  Cl38  1  0.359907  0.715352  0.015457  1
  Cl  Cl39  1  0.859907  0.784648  0.984543  1
  Cl  Cl40  1  0.871088  0.224900  0.983767  1
  Cl  Cl41  1  0.371088  0.275100  0.016233  1
  Cl  Cl42  1  0.128912  0.724900  0.516233  1
  Cl  Cl43  1  0.628912  0.775100  0.483767  1
  Cl  Cl44  1  0.592108  0.133801  0.785927  1
  Cl  Cl45  1  0.092108  0.366199  0.214073  1
  Cl  Cl46  1  0.407892  0.633801  0.714073  1
  Cl  Cl47  1  0.907892  0.866199  0.285927  1
  Cl  Cl48  1  0.127244  0.025999  0.044175  1
  Cl  Cl49  1  0.627244  0.474001  0.955825  1
  Cl  Cl50  1  0.872756  0.525999  0.455825  1
  Cl  Cl51  1  0.372756  0.974001  0.544175  1
  Cl  Cl52  1  0.804907  0.114012  0.240702  1
  Cl  Cl53  1  0.304907  0.385988  0.759298  1
  Cl  Cl54  1  0.195093  0.614012  0.259298  1
  Cl  Cl55  1  0.695093  0.885988  0.740702  1
  Cl  Cl56  1  0.910470  0.017833  0.524886  1
  Cl  Cl57  1  0.410470  0.482167  0.475114  1
  Cl  Cl58  1  0.089530  0.517833  0.975114  1
  Cl  Cl59  1  0.589530  0.982167  0.024886  1
  Cl  Cl60  1  0.081700  0.121652  0.751950  1
  Cl  Cl61  1  0.581700  0.378348  0.248050  1
  Cl  Cl62  1  0.918300  0.621652  0.748050  1
  Cl  Cl63  1  0.418300  0.878348  0.251950  1
