# generated using pymatgen
data_Al10Si2O19
_symmetry_space_group_name_H-M   'P 1'
_cell_length_a   15.43225665
_cell_length_b   15.43225665
_cell_length_c   7.68831279
_cell_angle_alpha   90.00000000
_cell_angle_beta   90.00000000
_cell_angle_gamma   157.88576062
_symmetry_Int_Tables_number   1
_chemical_formula_structural   Al10Si2O19
_chemical_formula_sum   'Al20 Si4 O38'
_cell_volume   689.29071786
_cell_formula_units_Z   2
loop_
 _symmetry_equiv_pos_site_id
 _symmetry_equiv_pos_as_xyz
  1  'x, y, z'
loop_
 _atom_site_type_symbol
 _atom_site_label
 _atom_site_symmetry_multiplicity
 _atom_site_fract_x
 _atom_site_fract_y
 _atom_site_fract_z
 _atom_site_occupancy
  Al  Al0  1  0.302081  0.183451  0.993181  1
  Al  Al1  1  0.697919  0.816549  0.493181  1
  Al  Al2  1  0.816549  0.697919  0.993181  1
  Al  Al3  1  0.183451  0.302081  0.493181  1
  Al  Al4  1  0.970275  0.029725  0.838670  1
  Al  Al5  1  0.029725  0.970275  0.338670  1
  Al  Al6  1  0.475477  0.524523  0.820228  1
  Al  Al7  1  0.524523  0.475477  0.320228  1
  Al  Al8  1  0.219113  0.780887  0.824329  1
  Al  Al9  1  0.780887  0.219113  0.324329  1
  Al  Al10  1  0.144873  0.855127  0.188762  1
  Al  Al11  1  0.855127  0.144873  0.688762  1
  Al  Al12  1  0.398733  0.601267  0.162869  1
  Al  Al13  1  0.601267  0.398733  0.662869  1
  Al  Al14  1  0.898400  0.101600  0.169761  1
  Al  Al15  1  0.101600  0.898400  0.669761  1
  Al  Al16  1  0.935273  0.557406  0.508390  1
  Al  Al17  1  0.064727  0.442594  0.008390  1
  Al  Al18  1  0.442594  0.064727  0.508390  1
  Al  Al19  1  0.557406  0.935273  0.008390  1
  Si  Si20  1  0.380707  0.619293  0.784102  1
  Si  Si21  1  0.619293  0.380707  0.284102  1
  Si  Si22  1  0.242559  0.757441  0.185880  1
  Si  Si23  1  0.757441  0.242559  0.685880  1
  O  O24  1  0.076316  0.923684  0.471053  1
  O  O25  1  0.923684  0.076316  0.971053  1
  O  O26  1  0.803823  0.196177  0.552933  1
  O  O27  1  0.196177  0.803823  0.052933  1
  O  O28  1  0.579603  0.420397  0.438565  1
  O  O29  1  0.420397  0.579603  0.938565  1
  O  O30  1  0.721540  0.784609  0.709910  1
  O  O31  1  0.278460  0.215391  0.209910  1
  O  O32  1  0.215391  0.278460  0.709910  1
  O  O33  1  0.784609  0.721540  0.209910  1
  O  O34  1  0.973065  0.514256  0.703446  1
  O  O35  1  0.026935  0.485744  0.203446  1
  O  O36  1  0.485744  0.026935  0.703446  1
  O  O37  1  0.514256  0.973065  0.203446  1
  O  O38  1  0.883236  0.581456  0.306919  1
  O  O39  1  0.116764  0.418544  0.806919  1
  O  O40  1  0.418544  0.116764  0.306919  1
  O  O41  1  0.581456  0.883236  0.806919  1
  O  O42  1  0.163788  0.346665  0.280280  1
  O  O43  1  0.836212  0.653335  0.780280  1
  O  O44  1  0.653335  0.836212  0.280280  1
  O  O45  1  0.346665  0.163788  0.780280  1
  O  O46  1  0.024678  0.975322  0.919213  1
  O  O47  1  0.975322  0.024678  0.419213  1
  O  O48  1  0.163952  0.836048  0.638496  1
  O  O49  1  0.836048  0.163952  0.138496  1
  O  O50  1  0.657077  0.342923  0.595164  1
  O  O51  1  0.342923  0.657077  0.095164  1
  O  O52  1  0.401196  0.598804  0.590370  1
  O  O53  1  0.598804  0.401196  0.090370  1
  O  O54  1  0.901868  0.098132  0.565212  1
  O  O55  1  0.098132  0.901868  0.065212  1
  O  O56  1  0.215993  0.784007  0.381641  1
  O  O57  1  0.784007  0.215993  0.881641  1
  O  O58  1  0.728595  0.271405  0.446803  1
  O  O59  1  0.271405  0.728595  0.946803  1
  O  O60  1  0.474197  0.525803  0.426695  1
  O  O61  1  0.525803  0.474197  0.926695  1
