# generated using pymatgen
data_CeReB4
_symmetry_space_group_name_H-M   'P 1'
_cell_length_a   3.67941389
_cell_length_b   6.01276945
_cell_length_c   11.65361405
_cell_angle_alpha   90.00000000
_cell_angle_beta   90.00000000
_cell_angle_gamma   90.00000000
_symmetry_Int_Tables_number   1
_chemical_formula_structural   CeReB4
_chemical_formula_sum   'Ce4 Re4 B16'
_cell_volume   257.81835090
_cell_formula_units_Z   4
loop_
 _symmetry_equiv_pos_site_id
 _symmetry_equiv_pos_as_xyz
  1  'x, y, z'
loop_
 _atom_site_type_symbol
 _atom_site_label
 _atom_site_symmetry_multiplicity
 _atom_site_fract_x
 _atom_site_fract_y
 _atom_site_fract_z
 _atom_site_occupancy
  Ce  Ce0  1  0.000000  0.126865  0.150276  1
  Ce  Ce1  1  0.000000  0.873135  0.849724  1
  Ce  Ce2  1  0.000000  0.626865  0.349724  1
  Ce  Ce3  1  0.000000  0.373135  0.650276  1
  Re  Re4  1  0.000000  0.135909  0.409020  1
  Re  Re5  1  0.000000  0.864091  0.590980  1
  Re  Re6  1  0.000000  0.635909  0.090980  1
  Re  Re7  1  0.000000  0.364091  0.909020  1
  B  B8  1  0.500000  0.524517  0.809460  1
  B  B9  1  0.500000  0.475483  0.190540  1
  B  B10  1  0.500000  0.024517  0.690540  1
  B  B11  1  0.500000  0.975483  0.309460  1
  B  B12  1  0.500000  0.388051  0.046101  1
  B  B13  1  0.500000  0.611949  0.953899  1
  B  B14  1  0.500000  0.888051  0.453899  1
  B  B15  1  0.500000  0.111949  0.546101  1
  B  B16  1  0.500000  0.214213  0.815013  1
  B  B17  1  0.500000  0.785787  0.184987  1
  B  B18  1  0.500000  0.714213  0.684987  1
  B  B19  1  0.500000  0.285787  0.315013  1
  B  B20  1  0.500000  0.137845  0.968618  1
  B  B21  1  0.500000  0.862155  0.031382  1
  B  B22  1  0.500000  0.637845  0.531382  1
  B  B23  1  0.500000  0.362155  0.468618  1
