# generated using pymatgen
data_Tb3In5S12
_symmetry_space_group_name_H-M   'P 1'
_cell_length_a   11.01067770
_cell_length_b   3.92361696
_cell_length_c   21.44114215
_cell_angle_alpha   90.00000000
_cell_angle_beta   95.95842623
_cell_angle_gamma   90.00000000
_symmetry_Int_Tables_number   1
_chemical_formula_structural   Tb3In5S12
_chemical_formula_sum   'Tb6 In10 S24'
_cell_volume   921.28908071
_cell_formula_units_Z   2
loop_
 _symmetry_equiv_pos_site_id
 _symmetry_equiv_pos_as_xyz
  1  'x, y, z'
loop_
 _atom_site_type_symbol
 _atom_site_label
 _atom_site_symmetry_multiplicity
 _atom_site_fract_x
 _atom_site_fract_y
 _atom_site_fract_z
 _atom_site_occupancy
  Tb  Tb0  1  0.715708  0.250000  0.715744  1
  Tb  Tb1  1  0.284292  0.750000  0.284256  1
  Tb  Tb2  1  0.913135  0.250000  0.234924  1
  Tb  Tb3  1  0.086865  0.750000  0.765076  1
  Tb  Tb4  1  0.028071  0.250000  0.411639  1
  Tb  Tb5  1  0.971929  0.750000  0.588361  1
  In  In6  1  0.835903  0.250000  0.887521  1
  In  In7  1  0.349220  0.750000  0.472449  1
  In  In8  1  0.650780  0.250000  0.527551  1
  In  In9  1  0.457423  0.750000  0.826884  1
  In  In10  1  0.542577  0.250000  0.173116  1
  In  In11  1  0.647327  0.750000  0.332336  1
  In  In12  1  0.352673  0.250000  0.667664  1
  In  In13  1  0.758924  0.750000  0.058804  1
  In  In14  1  0.241076  0.250000  0.941196  1
  In  In15  1  0.164097  0.750000  0.112479  1
  S  S16  1  0.610451  0.250000  0.841731  1
  S  S17  1  0.869649  0.750000  0.963471  1
  S  S18  1  0.130351  0.250000  0.036529  1
  S  S19  1  0.938365  0.750000  0.141196  1
  S  S20  1  0.061635  0.250000  0.858804  1
  S  S21  1  0.382121  0.750000  0.939515  1
  S  S22  1  0.617879  0.250000  0.060485  1
  S  S23  1  0.722994  0.750000  0.613514  1
  S  S24  1  0.277006  0.250000  0.386486  1
  S  S25  1  0.837982  0.750000  0.789751  1
  S  S26  1  0.965000  0.250000  0.684516  1
  S  S27  1  0.035000  0.750000  0.315484  1
  S  S28  1  0.292397  0.250000  0.783750  1
  S  S29  1  0.707603  0.750000  0.216250  1
  S  S30  1  0.484034  0.250000  0.288864  1
  S  S31  1  0.515966  0.750000  0.711136  1
  S  S32  1  0.797531  0.250000  0.348351  1
  S  S33  1  0.202469  0.750000  0.651649  1
  S  S34  1  0.421283  0.250000  0.552476  1
  S  S35  1  0.578717  0.750000  0.447524  1
  S  S36  1  0.123256  0.750000  0.490712  1
  S  S37  1  0.389549  0.750000  0.158269  1
  S  S38  1  0.876744  0.250000  0.509288  1
  S  S39  1  0.162018  0.250000  0.210249  1
