# generated using pymatgen
data_CuTe
_symmetry_space_group_name_H-M   'P 1'
_cell_length_a   3.19556064
_cell_length_b   4.04086384
_cell_length_c   7.12886761
_cell_angle_alpha   90.00000000
_cell_angle_beta   90.00000000
_cell_angle_gamma   90.00000000
_symmetry_Int_Tables_number   1
_chemical_formula_structural   CuTe
_chemical_formula_sum   'Cu2 Te2'
_cell_volume   92.05382302
_cell_formula_units_Z   2
loop_
 _symmetry_equiv_pos_site_id
 _symmetry_equiv_pos_as_xyz
  1  'x, y, z'
loop_
 _atom_site_type_symbol
 _atom_site_label
 _atom_site_symmetry_multiplicity
 _atom_site_fract_x
 _atom_site_fract_y
 _atom_site_fract_z
 _atom_site_occupancy
  Cu  Cu0  1  0.000000  0.500000  0.458629  1
  Cu  Cu1  1  0.500000  0.000000  0.541371  1
  Te  Te2  1  0.000000  0.000000  0.227207  1
  Te  Te3  1  0.500000  0.500000  0.772793  1
