# generated using pymatgen
data_CsNbO3
_symmetry_space_group_name_H-M   'P 1'
_cell_length_a   5.20611614
_cell_length_b   16.19646497
_cell_length_c   9.41493317
_cell_angle_alpha   90.00000000
_cell_angle_beta   93.05334694
_cell_angle_gamma   90.00000000
_symmetry_Int_Tables_number   1
_chemical_formula_structural   CsNbO3
_chemical_formula_sum   'Cs8 Nb8 O24'
_cell_volume   792.74654056
_cell_formula_units_Z   8
loop_
 _symmetry_equiv_pos_site_id
 _symmetry_equiv_pos_as_xyz
  1  'x, y, z'
loop_
 _atom_site_type_symbol
 _atom_site_label
 _atom_site_symmetry_multiplicity
 _atom_site_fract_x
 _atom_site_fract_y
 _atom_site_fract_z
 _atom_site_occupancy
  Cs  Cs0  1  0.113595  0.393696  0.987711  1
  Cs  Cs1  1  0.886405  0.893696  0.512289  1
  Cs  Cs2  1  0.886405  0.606304  0.012289  1
  Cs  Cs3  1  0.113595  0.106304  0.487711  1
  Cs  Cs4  1  0.596320  0.242368  0.206514  1
  Cs  Cs5  1  0.403680  0.742368  0.293486  1
  Cs  Cs6  1  0.403680  0.757632  0.793486  1
  Cs  Cs7  1  0.596320  0.257632  0.706514  1
  Nb  Nb8  1  0.528640  0.502226  0.315840  1
  Nb  Nb9  1  0.471360  0.002226  0.184160  1
  Nb  Nb10  1  0.471360  0.497774  0.684160  1
  Nb  Nb11  1  0.528640  0.997774  0.815840  1
  Nb  Nb12  1  0.038545  0.395456  0.447087  1
  Nb  Nb13  1  0.961455  0.895456  0.052913  1
  Nb  Nb14  1  0.961455  0.604544  0.552913  1
  Nb  Nb15  1  0.038545  0.104544  0.947087  1
  O  O16  1  0.252077  0.399213  0.628872  1
  O  O17  1  0.747923  0.899213  0.871128  1
  O  O18  1  0.747923  0.600787  0.371128  1
  O  O19  1  0.252077  0.100787  0.128872  1
  O  O20  1  0.938107  0.287831  0.455414  1
  O  O21  1  0.061893  0.787831  0.044586  1
  O  O22  1  0.061893  0.712169  0.544586  1
  O  O23  1  0.938107  0.212169  0.955414  1
  O  O24  1  0.821396  0.435359  0.266184  1
  O  O25  1  0.178604  0.935359  0.233816  1
  O  O26  1  0.178604  0.564641  0.733816  1
  O  O27  1  0.821396  0.064641  0.766184  1
  O  O28  1  0.749371  0.463922  0.540483  1
  O  O29  1  0.250629  0.963922  0.959517  1
  O  O30  1  0.250629  0.536078  0.459517  1
  O  O31  1  0.749371  0.036078  0.040483  1
  O  O32  1  0.326955  0.108143  0.825044  1
  O  O33  1  0.673045  0.608143  0.674956  1
  O  O34  1  0.673045  0.891857  0.174956  1
  O  O35  1  0.326955  0.391857  0.325044  1
  O  O36  1  0.394572  0.954650  0.649867  1
  O  O37  1  0.605428  0.454650  0.850133  1
  O  O38  1  0.605428  0.045350  0.350133  1
  O  O39  1  0.394572  0.545350  0.149867  1
