# generated using pymatgen
data_FeCu2GeS4
_symmetry_space_group_name_H-M   'P 1'
_cell_length_a   6.45308499
_cell_length_b   6.45308499
_cell_length_c   6.45308499
_cell_angle_alpha   131.13062075
_cell_angle_beta   131.13062075
_cell_angle_gamma   71.60563212
_symmetry_Int_Tables_number   1
_chemical_formula_structural   FeCu2GeS4
_chemical_formula_sum   'Fe1 Cu2 Ge1 S4'
_cell_volume   149.16943996
_cell_formula_units_Z   1
loop_
 _symmetry_equiv_pos_site_id
 _symmetry_equiv_pos_as_xyz
  1  'x, y, z'
loop_
 _atom_site_type_symbol
 _atom_site_label
 _atom_site_symmetry_multiplicity
 _atom_site_fract_x
 _atom_site_fract_y
 _atom_site_fract_z
 _atom_site_occupancy
  Fe  Fe0  1  0.000000  0.000000  0.000000  1
  Cu  Cu1  1  0.750000  0.250000  0.500000  1
  Cu  Cu2  1  0.250000  0.750000  0.500000  1
  Ge  Ge3  1  0.500000  0.500000  0.000000  1
  S  S4  1  0.876222  0.375738  0.000000  1
  S  S5  1  0.375738  0.876222  0.000000  1
  S  S6  1  0.123778  0.123778  0.499517  1
  S  S7  1  0.624262  0.624262  0.500483  1
