# generated using pymatgen
data_Tl2PS3
_symmetry_space_group_name_H-M   'P 1'
_cell_length_a   11.72750657
_cell_length_b   13.89630764
_cell_length_c   16.75785761
_cell_angle_alpha   90.00000000
_cell_angle_beta   90.00000000
_cell_angle_gamma   90.00000000
_symmetry_Int_Tables_number   1
_chemical_formula_structural   Tl2PS3
_chemical_formula_sum   'Tl32 P16 S48'
_cell_volume   2731.01195286
_cell_formula_units_Z   16
loop_
 _symmetry_equiv_pos_site_id
 _symmetry_equiv_pos_as_xyz
  1  'x, y, z'
loop_
 _atom_site_type_symbol
 _atom_site_label
 _atom_site_symmetry_multiplicity
 _atom_site_fract_x
 _atom_site_fract_y
 _atom_site_fract_z
 _atom_site_occupancy
  Tl  Tl0  1  0.610905  0.939177  0.435699  1
  Tl  Tl1  1  0.110905  0.060823  0.064301  1
  Tl  Tl2  1  0.889095  0.439177  0.564301  1
  Tl  Tl3  1  0.389095  0.560823  0.935699  1
  Tl  Tl4  1  0.389095  0.060823  0.564301  1
  Tl  Tl5  1  0.889095  0.939177  0.935699  1
  Tl  Tl6  1  0.110905  0.560823  0.435699  1
  Tl  Tl7  1  0.610905  0.439177  0.064301  1
  Tl  Tl8  1  0.664077  0.750557  0.196858  1
  Tl  Tl9  1  0.164077  0.249443  0.303142  1
  Tl  Tl10  1  0.835923  0.250557  0.803142  1
  Tl  Tl11  1  0.335923  0.749443  0.696858  1
  Tl  Tl12  1  0.335923  0.249443  0.803142  1
  Tl  Tl13  1  0.835923  0.750557  0.696858  1
  Tl  Tl14  1  0.164077  0.749443  0.196858  1
  Tl  Tl15  1  0.664077  0.250557  0.303142  1
  Tl  Tl16  1  0.399808  0.838155  0.044904  1
  Tl  Tl17  1  0.899808  0.161845  0.455096  1
  Tl  Tl18  1  0.100192  0.338155  0.955096  1
  Tl  Tl19  1  0.600192  0.661845  0.544904  1
  Tl  Tl20  1  0.600192  0.161845  0.955096  1
  Tl  Tl21  1  0.100192  0.838155  0.544904  1
  Tl  Tl22  1  0.899808  0.661845  0.044904  1
  Tl  Tl23  1  0.399808  0.338155  0.455096  1
  Tl  Tl24  1  0.570037  0.937995  0.808865  1
  Tl  Tl25  1  0.070037  0.062005  0.691135  1
  Tl  Tl26  1  0.929963  0.437995  0.191135  1
  Tl  Tl27  1  0.429963  0.562005  0.308865  1
  Tl  Tl28  1  0.429963  0.062005  0.191135  1
  Tl  Tl29  1  0.929963  0.937995  0.308865  1
  Tl  Tl30  1  0.070037  0.562005  0.808865  1
  Tl  Tl31  1  0.570037  0.437995  0.691135  1
  P  P32  1  0.291980  0.851343  0.376933  1
  P  P33  1  0.791980  0.148657  0.123067  1
  P  P34  1  0.208020  0.351343  0.623067  1
  P  P35  1  0.708020  0.648657  0.876933  1
  P  P36  1  0.708020  0.148657  0.623067  1
  P  P37  1  0.208020  0.851343  0.876933  1
  P  P38  1  0.791980  0.648657  0.376933  1
  P  P39  1  0.291980  0.351343  0.123067  1
  P  P40  1  0.755757  0.989735  0.630171  1
  P  P41  1  0.255757  0.010265  0.869829  1
  P  P42  1  0.744243  0.489735  0.369829  1
  P  P43  1  0.244243  0.510265  0.130171  1
  P  P44  1  0.244243  0.010265  0.369829  1
  P  P45  1  0.744243  0.989735  0.130171  1
  P  P46  1  0.255757  0.510265  0.630171  1
  P  P47  1  0.755757  0.489735  0.869829  1
  S  S48  1  0.608056  0.911367  0.625407  1
  S  S49  1  0.108056  0.088633  0.874593  1
  S  S50  1  0.891944  0.411367  0.374593  1
  S  S51  1  0.391944  0.588633  0.125407  1
  S  S52  1  0.391944  0.088633  0.374593  1
  S  S53  1  0.891944  0.911367  0.125407  1
  S  S54  1  0.108056  0.588633  0.625407  1
  S  S55  1  0.608056  0.411367  0.874593  1
  S  S56  1  0.364477  0.784209  0.874715  1
  S  S57  1  0.864477  0.215791  0.625285  1
  S  S58  1  0.135523  0.284209  0.125285  1
  S  S59  1  0.635523  0.715791  0.374715  1
  S  S60  1  0.635523  0.215791  0.125285  1
  S  S61  1  0.135523  0.784209  0.374715  1
  S  S62  1  0.864477  0.715791  0.874715  1
  S  S63  1  0.364477  0.284209  0.625285  1
  S  S64  1  0.384535  0.819094  0.278706  1
  S  S65  1  0.884535  0.180906  0.221294  1
  S  S66  1  0.115465  0.319094  0.721294  1
  S  S67  1  0.615465  0.680906  0.778706  1
  S  S68  1  0.615465  0.180906  0.721294  1
  S  S69  1  0.115465  0.819094  0.778706  1
  S  S70  1  0.884535  0.680906  0.278706  1
  S  S71  1  0.384535  0.319094  0.221294  1
  S  S72  1  0.664123  0.971071  0.237178  1
  S  S73  1  0.164123  0.028929  0.262822  1
  S  S74  1  0.835877  0.471071  0.762822  1
  S  S75  1  0.335877  0.528929  0.737178  1
  S  S76  1  0.335877  0.028929  0.762822  1
  S  S77  1  0.835877  0.971071  0.737178  1
  S  S78  1  0.164123  0.528929  0.237178  1
  S  S79  1  0.664123  0.471071  0.262822  1
  S  S80  1  0.371321  0.836244  0.483643  1
  S  S81  1  0.871321  0.163756  0.016357  1
  S  S82  1  0.128679  0.336244  0.516357  1
  S  S83  1  0.628679  0.663756  0.983643  1
  S  S84  1  0.628679  0.163756  0.516357  1
  S  S85  1  0.128679  0.836244  0.983643  1
  S  S86  1  0.871321  0.663756  0.483643  1
  S  S87  1  0.371321  0.336244  0.016357  1
  S  S88  1  0.642138  0.963773  0.034624  1
  S  S89  1  0.142138  0.036227  0.465376  1
  S  S90  1  0.857862  0.463773  0.965376  1
  S  S91  1  0.357862  0.536227  0.534624  1
  S  S92  1  0.357862  0.036227  0.965376  1
  S  S93  1  0.857862  0.963773  0.534624  1
  S  S94  1  0.142138  0.536227  0.034624  1
  S  S95  1  0.642138  0.463773  0.465376  1
