# generated using pymatgen
data_Sr(HO)2
_symmetry_space_group_name_H-M   'P 1'
_cell_length_a   3.95947280
_cell_length_b   6.07935020
_cell_length_c   10.02662462
_cell_angle_alpha   90.00000000
_cell_angle_beta   90.00000000
_cell_angle_gamma   90.00000000
_symmetry_Int_Tables_number   1
_chemical_formula_structural   Sr(HO)2
_chemical_formula_sum   'Sr4 H8 O8'
_cell_volume   241.35109939
_cell_formula_units_Z   4
loop_
 _symmetry_equiv_pos_site_id
 _symmetry_equiv_pos_as_xyz
  1  'x, y, z'
loop_
 _atom_site_type_symbol
 _atom_site_label
 _atom_site_symmetry_multiplicity
 _atom_site_fract_x
 _atom_site_fract_y
 _atom_site_fract_z
 _atom_site_occupancy
  Sr  Sr0  1  0.750000  0.599717  0.340965  1
  Sr  Sr1  1  0.250000  0.400283  0.659035  1
  Sr  Sr2  1  0.250000  0.099717  0.159035  1
  Sr  Sr3  1  0.750000  0.900283  0.840965  1
  H  H4  1  0.750000  0.372554  0.032008  1
  H  H5  1  0.250000  0.627446  0.967992  1
  H  H6  1  0.250000  0.872554  0.467992  1
  H  H7  1  0.750000  0.127446  0.532008  1
  H  H8  1  0.250000  0.186674  0.407177  1
  H  H9  1  0.750000  0.813326  0.592823  1
  H  H10  1  0.750000  0.686674  0.092823  1
  H  H11  1  0.250000  0.313326  0.907177  1
  O  O12  1  0.750000  0.129627  0.629200  1
  O  O13  1  0.250000  0.870373  0.370800  1
  O  O14  1  0.250000  0.629627  0.870800  1
  O  O15  1  0.750000  0.370373  0.129200  1
  O  O16  1  0.250000  0.347528  0.395764  1
  O  O17  1  0.750000  0.652472  0.604236  1
  O  O18  1  0.750000  0.847528  0.104236  1
  O  O19  1  0.250000  0.152472  0.895764  1
