# generated using pymatgen
data_Li4Cu(PO4)2
_symmetry_space_group_name_H-M   'P 1'
_cell_length_a   5.24729247
_cell_length_b   6.38317132
_cell_length_c   9.94556582
_cell_angle_alpha   90.43582465
_cell_angle_beta   90.30012962
_cell_angle_gamma   90.45566880
_symmetry_Int_Tables_number   1
_chemical_formula_structural   Li4Cu(PO4)2
_chemical_formula_sum   'Li8 Cu2 P4 O16'
_cell_volume   333.09558100
_cell_formula_units_Z   2
loop_
 _symmetry_equiv_pos_site_id
 _symmetry_equiv_pos_as_xyz
  1  'x, y, z'
loop_
 _atom_site_type_symbol
 _atom_site_label
 _atom_site_symmetry_multiplicity
 _atom_site_fract_x
 _atom_site_fract_y
 _atom_site_fract_z
 _atom_site_occupancy
  Li  Li0  1  0.317956  0.762983  0.508754  1
  Li  Li1  1  0.671487  0.246494  0.748523  1
  Li  Li2  1  0.325991  0.243287  0.996104  1
  Li  Li3  1  0.670476  0.242569  0.249649  1
  Li  Li4  1  0.323187  0.240942  0.502772  1
  Li  Li5  1  0.843072  0.490241  0.995654  1
  Li  Li6  1  0.684078  0.753377  0.745974  1
  Li  Li7  1  0.842185  0.497185  0.508676  1
  Cu  Cu8  1  0.321667  0.767368  0.990499  1
  Cu  Cu9  1  0.677437  0.747479  0.260390  1
  P  P10  1  0.822689  0.001766  0.500029  1
  P  P11  1  0.184757  0.493714  0.249221  1
  P  P12  1  0.180593  0.497149  0.750835  1
  P  P13  1  0.819744  0.004705  0.990129  1
  O  O14  1  0.104443  0.000824  0.034113  1
  O  O15  1  0.321347  0.704565  0.801207  1
  O  O16  1  0.106401  0.002579  0.533763  1
  O  O17  1  0.183085  0.496341  0.091353  1
  O  O18  1  0.316472  0.698069  0.303605  1
  O  O19  1  0.897635  0.496034  0.298241  1
  O  O20  1  0.692298  0.200675  0.052990  1
  O  O21  1  0.321664  0.302633  0.303334  1
  O  O22  1  0.691916  0.793465  0.048907  1
  O  O23  1  0.786368  0.000076  0.838691  1
  O  O24  1  0.787240  0.002501  0.341682  1
  O  O25  1  0.188263  0.502797  0.594401  1
  O  O26  1  0.324972  0.309202  0.806642  1
  O  O27  1  0.690044  0.204076  0.551866  1
  O  O28  1  0.897734  0.500821  0.798857  1
  O  O29  1  0.688860  0.797560  0.550530  1
