# generated using pymatgen
data_YbGePt
_symmetry_space_group_name_H-M   'P 1'
_cell_length_a   4.42194662
_cell_length_b   7.06352104
_cell_length_c   7.48807966
_cell_angle_alpha   90.00000000
_cell_angle_beta   90.00000000
_cell_angle_gamma   90.00000000
_symmetry_Int_Tables_number   1
_chemical_formula_structural   YbGePt
_chemical_formula_sum   'Yb4 Ge4 Pt4'
_cell_volume   233.88652140
_cell_formula_units_Z   4
loop_
 _symmetry_equiv_pos_site_id
 _symmetry_equiv_pos_as_xyz
  1  'x, y, z'
loop_
 _atom_site_type_symbol
 _atom_site_label
 _atom_site_symmetry_multiplicity
 _atom_site_fract_x
 _atom_site_fract_y
 _atom_site_fract_z
 _atom_site_occupancy
  Yb  Yb0  1  0.750000  0.490575  0.799318  1
  Yb  Yb1  1  0.250000  0.009425  0.299318  1
  Yb  Yb2  1  0.750000  0.990575  0.700682  1
  Yb  Yb3  1  0.250000  0.509425  0.200682  1
  Ge  Ge4  1  0.250000  0.683691  0.582744  1
  Ge  Ge5  1  0.250000  0.183691  0.917256  1
  Ge  Ge6  1  0.750000  0.316309  0.417256  1
  Ge  Ge7  1  0.750000  0.816309  0.082744  1
  Pt  Pt8  1  0.250000  0.797222  0.907872  1
  Pt  Pt9  1  0.250000  0.297222  0.592128  1
  Pt  Pt10  1  0.750000  0.702778  0.407872  1
  Pt  Pt11  1  0.750000  0.202778  0.092128  1
