# generated using pymatgen
data_Dy(HO)3
_symmetry_space_group_name_H-M   'P 1'
_cell_length_a   6.35839594
_cell_length_b   6.35839594
_cell_length_c   3.54361970
_cell_angle_alpha   90.00000000
_cell_angle_beta   90.00000000
_cell_angle_gamma   120.00000000
_symmetry_Int_Tables_number   1
_chemical_formula_structural   Dy(HO)3
_chemical_formula_sum   'Dy2 H6 O6'
_cell_volume   124.07174068
_cell_formula_units_Z   2
loop_
 _symmetry_equiv_pos_site_id
 _symmetry_equiv_pos_as_xyz
  1  'x, y, z'
loop_
 _atom_site_type_symbol
 _atom_site_label
 _atom_site_symmetry_multiplicity
 _atom_site_fract_x
 _atom_site_fract_y
 _atom_site_fract_z
 _atom_site_occupancy
  Dy  Dy0  1  0.666667  0.333333  0.750000  1
  Dy  Dy1  1  0.333333  0.666667  0.250000  1
  H  H2  1  0.719673  0.860463  0.750000  1
  H  H3  1  0.859210  0.719673  0.250000  1
  H  H4  1  0.140790  0.280327  0.750000  1
  H  H5  1  0.280327  0.139537  0.250000  1
  H  H6  1  0.860463  0.140790  0.250000  1
  H  H7  1  0.139537  0.859210  0.750000  1
  O  O8  1  0.914930  0.602306  0.250000  1
  O  O9  1  0.602306  0.687376  0.750000  1
  O  O10  1  0.085070  0.397694  0.750000  1
  O  O11  1  0.397694  0.312624  0.250000  1
  O  O12  1  0.687376  0.085070  0.250000  1
  O  O13  1  0.312624  0.914930  0.750000  1
