# generated using pymatgen
data_KIn4
_symmetry_space_group_name_H-M   'P 1'
_cell_length_a   7.33230960
_cell_length_b   7.33230960
_cell_length_c   7.33230960
_cell_angle_alpha   140.44531484
_cell_angle_beta   140.44531484
_cell_angle_gamma   57.17777179
_symmetry_Int_Tables_number   1
_chemical_formula_structural   KIn4
_chemical_formula_sum   'K1 In4'
_cell_volume   158.52120963
_cell_formula_units_Z   1
loop_
 _symmetry_equiv_pos_site_id
 _symmetry_equiv_pos_as_xyz
  1  'x, y, z'
loop_
 _atom_site_type_symbol
 _atom_site_label
 _atom_site_symmetry_multiplicity
 _atom_site_fract_x
 _atom_site_fract_y
 _atom_site_fract_z
 _atom_site_occupancy
  K  K0  1  0.000000  0.000000  0.000000  1
  In  In1  1  0.250000  0.750000  0.500000  1
  In  In2  1  0.750000  0.250000  0.500000  1
  In  In3  1  0.386992  0.386992  0.000000  1
  In  In4  1  0.613008  0.613008  0.000000  1
