# generated using pymatgen
data_NaInTe2
_symmetry_space_group_name_H-M   'P 1'
_cell_length_a   6.97963131
_cell_length_b   6.97963131
_cell_length_c   6.97963131
_cell_angle_alpha   105.78909425
_cell_angle_beta   105.78909425
_cell_angle_gamma   117.11679380
_symmetry_Int_Tables_number   1
_chemical_formula_structural   NaInTe2
_chemical_formula_sum   'Na2 In2 Te4'
_cell_volume   258.20392937
_cell_formula_units_Z   2
loop_
 _symmetry_equiv_pos_site_id
 _symmetry_equiv_pos_as_xyz
  1  'x, y, z'
loop_
 _atom_site_type_symbol
 _atom_site_label
 _atom_site_symmetry_multiplicity
 _atom_site_fract_x
 _atom_site_fract_y
 _atom_site_fract_z
 _atom_site_occupancy
  Na  Na0  1  0.250000  0.250000  0.000000  1
  Na  Na1  1  0.750000  0.750000  0.000000  1
  In  In2  1  0.250000  0.750000  0.500000  1
  In  In3  1  0.750000  0.250000  0.500000  1
  Te  Te4  1  0.184529  0.684529  0.869058  1
  Te  Te5  1  0.315471  0.184529  0.500000  1
  Te  Te6  1  0.684529  0.815471  0.500000  1
  Te  Te7  1  0.815471  0.315471  0.130942  1
