# generated using pymatgen
data_CrH17N4Cl2O3
_symmetry_space_group_name_H-M   'P 1'
_cell_length_a   6.83627722
_cell_length_b   7.93084076
_cell_length_c   10.44820073
_cell_angle_alpha   92.58304533
_cell_angle_beta   106.13991884
_cell_angle_gamma   105.67435622
_symmetry_Int_Tables_number   1
_chemical_formula_structural   CrH17N4Cl2O3
_chemical_formula_sum   'Cr2 H34 N8 Cl4 O6'
_cell_volume   519.47071631
_cell_formula_units_Z   2
loop_
 _symmetry_equiv_pos_site_id
 _symmetry_equiv_pos_as_xyz
  1  'x, y, z'
loop_
 _atom_site_type_symbol
 _atom_site_label
 _atom_site_symmetry_multiplicity
 _atom_site_fract_x
 _atom_site_fract_y
 _atom_site_fract_z
 _atom_site_occupancy
  Cr  Cr0  1  0.988955  0.992345  0.850391  1
  Cr  Cr1  1  0.011045  0.007655  0.149609  1
  H  H2  1  0.539721  0.328055  0.592711  1
  H  H3  1  0.460279  0.671945  0.407289  1
  H  H4  1  0.744554  0.390147  0.548077  1
  H  H5  1  0.255446  0.609853  0.451923  1
  H  H6  1  0.606080  0.327684  0.158707  1
  H  H7  1  0.393920  0.672316  0.841293  1
  H  H8  1  0.672250  0.427614  0.306589  1
  H  H9  1  0.327750  0.572386  0.693411  1
  H  H10  1  0.255964  0.886671  0.734218  1
  H  H11  1  0.744036  0.113329  0.265782  1
  H  H12  1  0.191239  0.057699  0.663843  1
  H  H13  1  0.808761  0.942301  0.336157  1
  H  H14  1  0.362861  0.091621  0.814848  1
  H  H15  1  0.637139  0.908379  0.185152  1
  H  H16  1  0.711714  0.083305  0.642493  1
  H  H17  1  0.288286  0.916695  0.357507  1
  H  H18  1  0.761592  0.900245  0.592051  1
  H  H19  1  0.238408  0.099755  0.407949  1
  H  H20  1  0.604098  0.886211  0.687281  1
  H  H21  1  0.395902  0.113789  0.312719  1
  H  H22  1  0.267827  0.913362  0.040005  1
  H  H23  1  0.732173  0.086638  0.959995  1
  H  H24  1  0.110505  0.331105  0.279296  1
  H  H25  1  0.889495  0.668895  0.720704  1
  H  H26  1  0.243375  0.345099  0.169435  1
  H  H27  1  0.756625  0.654901  0.830565  1
  H  H28  1  0.985956  0.335094  0.119192  1
  H  H29  1  0.014044  0.664906  0.880808  1
  H  H30  1  0.922696  0.700478  0.242470  1
  H  H31  1  0.077304  0.299522  0.757530  1
  H  H32  1  0.786611  0.662799  0.081497  1
  H  H33  1  0.213389  0.337201  0.918503  1
  H  H34  1  0.045830  0.681291  0.129047  1
  H  H35  1  0.954170  0.318709  0.870953  1
  N  N36  1  0.224097  0.004041  0.752301  1
  N  N37  1  0.775903  0.995959  0.247699  1
  N  N38  1  0.739188  0.966504  0.671396  1
  N  N39  1  0.260812  0.033496  0.328604  1
  N  N40  1  0.068789  0.269295  0.851038  1
  N  N41  1  0.931211  0.730705  0.148962  1
  N  N42  1  0.902288  0.712706  0.817657  1
  N  N43  1  0.097712  0.287294  0.182343  1
  Cl  Cl44  1  0.808908  0.674205  0.452794  1
  Cl  Cl45  1  0.191092  0.325795  0.547206  1
  Cl  Cl46  1  0.651739  0.330051  0.957667  1
  Cl  Cl47  1  0.348261  0.669949  0.042333  1
  O  O48  1  0.680673  0.310404  0.604131  1
  O  O49  1  0.319327  0.689596  0.395869  1
  O  O50  1  0.604296  0.310615  0.251733  1
  O  O51  1  0.395704  0.689385  0.748267  1
  O  O52  1  0.800045  0.990195  0.967695  1
  O  O53  1  0.199955  0.009805  0.032305  1
