# generated using pymatgen
data_Ba5AlIr2O11
_symmetry_space_group_name_H-M   'P 1'
_cell_length_a   5.83672530
_cell_length_b   11.25660717
_cell_length_c   18.97110635
_cell_angle_alpha   90.00000000
_cell_angle_beta   90.00000000
_cell_angle_gamma   90.00000000
_symmetry_Int_Tables_number   1
_chemical_formula_structural   Ba5AlIr2O11
_chemical_formula_sum   'Ba20 Al4 Ir8 O44'
_cell_volume   1246.43439075
_cell_formula_units_Z   4
loop_
 _symmetry_equiv_pos_site_id
 _symmetry_equiv_pos_as_xyz
  1  'x, y, z'
loop_
 _atom_site_type_symbol
 _atom_site_label
 _atom_site_symmetry_multiplicity
 _atom_site_fract_x
 _atom_site_fract_y
 _atom_site_fract_z
 _atom_site_occupancy
  Ba  Ba0  1  0.750000  0.604524  0.026584  1
  Ba  Ba1  1  0.250000  0.874314  0.252771  1
  Ba  Ba2  1  0.750000  0.045825  0.328068  1
  Ba  Ba3  1  0.750000  0.895476  0.526584  1
  Ba  Ba4  1  0.250000  0.473001  0.426505  1
  Ba  Ba5  1  0.750000  0.454175  0.828068  1
  Ba  Ba6  1  0.250000  0.395476  0.973416  1
  Ba  Ba7  1  0.750000  0.125686  0.747229  1
  Ba  Ba8  1  0.250000  0.625686  0.752771  1
  Ba  Ba9  1  0.750000  0.973001  0.073495  1
  Ba  Ba10  1  0.250000  0.104524  0.473416  1
  Ba  Ba11  1  0.750000  0.692201  0.360859  1
  Ba  Ba12  1  0.750000  0.807799  0.860859  1
  Ba  Ba13  1  0.250000  0.192201  0.139141  1
  Ba  Ba14  1  0.750000  0.374314  0.247229  1
  Ba  Ba15  1  0.750000  0.526999  0.573495  1
  Ba  Ba16  1  0.250000  0.545825  0.171932  1
  Ba  Ba17  1  0.250000  0.307799  0.639141  1
  Ba  Ba18  1  0.250000  0.954175  0.671932  1
  Ba  Ba19  1  0.250000  0.026999  0.926505  1
  Al  Al20  1  0.750000  0.739797  0.187647  1
  Al  Al21  1  0.250000  0.239797  0.312353  1
  Al  Al22  1  0.750000  0.760203  0.687647  1
  Al  Al23  1  0.250000  0.260203  0.812353  1
  Ir  Ir24  1  0.750000  0.288583  0.062366  1
  Ir  Ir25  1  0.250000  0.794708  0.063408  1
  Ir  Ir26  1  0.250000  0.788583  0.437634  1
  Ir  Ir27  1  0.750000  0.205292  0.936592  1
  Ir  Ir28  1  0.750000  0.294708  0.436592  1
  Ir  Ir29  1  0.250000  0.711417  0.937634  1
  Ir  Ir30  1  0.750000  0.211417  0.562366  1
  Ir  Ir31  1  0.250000  0.705292  0.563408  1
  O  O32  1  0.250000  0.881731  0.531419  1
  O  O33  1  0.501620  0.250350  0.365140  1
  O  O34  1  0.750000  0.599666  0.228414  1
  O  O35  1  0.515274  0.326423  0.513649  1
  O  O36  1  0.250000  0.359554  0.253439  1
  O  O37  1  0.498380  0.750350  0.134860  1
  O  O38  1  0.001620  0.749650  0.634860  1
  O  O39  1  0.515480  0.104626  0.600413  1
  O  O40  1  0.484726  0.826423  0.986351  1
  O  O41  1  0.015274  0.673577  0.486351  1
  O  O42  1  0.750000  0.900334  0.728414  1
  O  O43  1  0.250000  0.400334  0.771586  1
  O  O44  1  0.750000  0.118269  0.468581  1
  O  O45  1  0.250000  0.542366  0.599544  1
  O  O46  1  0.484726  0.673577  0.486351  1
  O  O47  1  0.250000  0.618269  0.031419  1
  O  O48  1  0.001620  0.750350  0.134860  1
  O  O49  1  0.484520  0.604626  0.899587  1
  O  O50  1  0.984520  0.395374  0.100413  1
  O  O51  1  0.015480  0.895374  0.399587  1
  O  O52  1  0.250000  0.140446  0.753439  1
  O  O53  1  0.750000  0.457634  0.400456  1
  O  O54  1  0.750000  0.309618  0.649555  1
  O  O55  1  0.015480  0.604626  0.899587  1
  O  O56  1  0.515274  0.173577  0.013649  1
  O  O57  1  0.250000  0.957634  0.099544  1
  O  O58  1  0.750000  0.381731  0.968581  1
  O  O59  1  0.750000  0.042366  0.900456  1
  O  O60  1  0.750000  0.190382  0.149555  1
  O  O61  1  0.984726  0.173577  0.013649  1
  O  O62  1  0.250000  0.690382  0.350445  1
  O  O63  1  0.250000  0.809618  0.850445  1
  O  O64  1  0.984520  0.104626  0.600413  1
  O  O65  1  0.998380  0.250350  0.365140  1
  O  O66  1  0.750000  0.640446  0.746561  1
  O  O67  1  0.501620  0.249650  0.865140  1
  O  O68  1  0.250000  0.099666  0.271586  1
  O  O69  1  0.984726  0.326423  0.513649  1
  O  O70  1  0.750000  0.859554  0.246561  1
  O  O71  1  0.484520  0.895374  0.399587  1
  O  O72  1  0.015274  0.826423  0.986351  1
  O  O73  1  0.515480  0.395374  0.100413  1
  O  O74  1  0.498380  0.749650  0.634860  1
  O  O75  1  0.998380  0.249650  0.865140  1
