# generated using pymatgen
data_K2NaAlH6
_symmetry_space_group_name_H-M   'P 1'
_cell_length_a   5.74650757
_cell_length_b   5.74650757
_cell_length_c   5.74650757
_cell_angle_alpha   60.00000000
_cell_angle_beta   60.00000000
_cell_angle_gamma   60.00000000
_symmetry_Int_Tables_number   1
_chemical_formula_structural   K2NaAlH6
_chemical_formula_sum   'K2 Na1 Al1 H6'
_cell_volume   134.18283156
_cell_formula_units_Z   1
loop_
 _symmetry_equiv_pos_site_id
 _symmetry_equiv_pos_as_xyz
  1  'x, y, z'
loop_
 _atom_site_type_symbol
 _atom_site_label
 _atom_site_symmetry_multiplicity
 _atom_site_fract_x
 _atom_site_fract_y
 _atom_site_fract_z
 _atom_site_occupancy
  K  K0  1  0.750000  0.750000  0.750000  1
  K  K1  1  0.250000  0.250000  0.250000  1
  Na  Na2  1  0.500000  0.500000  0.500000  1
  Al  Al3  1  0.000000  0.000000  0.000000  1
  H  H4  1  0.781674  0.218326  0.781674  1
  H  H5  1  0.218326  0.218326  0.781674  1
  H  H6  1  0.218326  0.781674  0.218326  1
  H  H7  1  0.781674  0.781674  0.218326  1
  H  H8  1  0.781674  0.218326  0.218326  1
  H  H9  1  0.218326  0.781674  0.781674  1
