# generated using pymatgen
data_K2Ge2Se5
_symmetry_space_group_name_H-M   'P 1'
_cell_length_a   10.07485519
_cell_length_b   11.91312318
_cell_length_c   10.43443054
_cell_angle_alpha   90.00000000
_cell_angle_beta   90.15168028
_cell_angle_gamma   90.00000000
_symmetry_Int_Tables_number   1
_chemical_formula_structural   K2Ge2Se5
_chemical_formula_sum   'K8 Ge8 Se20'
_cell_volume   1252.36717334
_cell_formula_units_Z   4
loop_
 _symmetry_equiv_pos_site_id
 _symmetry_equiv_pos_as_xyz
  1  'x, y, z'
loop_
 _atom_site_type_symbol
 _atom_site_label
 _atom_site_symmetry_multiplicity
 _atom_site_fract_x
 _atom_site_fract_y
 _atom_site_fract_z
 _atom_site_occupancy
  K  K0  1  0.638359  0.492519  0.333949  1
  K  K1  1  0.361641  0.992519  0.666051  1
  K  K2  1  0.361641  0.507481  0.666051  1
  K  K3  1  0.638359  0.007481  0.333949  1
  K  K4  1  0.040777  0.750000  0.418502  1
  K  K5  1  0.959223  0.250000  0.581498  1
  K  K6  1  0.406220  0.750000  0.107405  1
  K  K7  1  0.593780  0.250000  0.892595  1
  Ge  Ge8  1  0.232949  0.087891  0.263188  1
  Ge  Ge9  1  0.767051  0.587891  0.736812  1
  Ge  Ge10  1  0.767051  0.912109  0.736812  1
  Ge  Ge11  1  0.232949  0.412109  0.263188  1
  Ge  Ge12  1  0.088648  0.750000  0.820787  1
  Ge  Ge13  1  0.911352  0.250000  0.179213  1
  Ge  Ge14  1  0.798646  0.750000  0.053949  1
  Ge  Ge15  1  0.201354  0.250000  0.946051  1
  Se  Se16  1  0.316289  0.574098  0.356290  1
  Se  Se17  1  0.683711  0.074098  0.643710  1
  Se  Se18  1  0.683711  0.425902  0.643710  1
  Se  Se19  1  0.316289  0.925902  0.356290  1
  Se  Se20  1  0.296290  0.083387  0.040960  1
  Se  Se21  1  0.703710  0.583387  0.959040  1
  Se  Se22  1  0.703710  0.916613  0.959040  1
  Se  Se23  1  0.296290  0.416613  0.040960  1
  Se  Se24  1  0.994839  0.084872  0.288907  1
  Se  Se25  1  0.005161  0.584872  0.711093  1
  Se  Se26  1  0.005161  0.915128  0.711093  1
  Se  Se27  1  0.994839  0.415128  0.288907  1
  Se  Se28  1  0.315850  0.750000  0.800446  1
  Se  Se29  1  0.684150  0.250000  0.199554  1
  Se  Se30  1  0.734516  0.750000  0.266681  1
  Se  Se31  1  0.265484  0.250000  0.733319  1
  Se  Se32  1  0.035858  0.750000  0.044335  1
  Se  Se33  1  0.964142  0.250000  0.955665  1
  Se  Se34  1  0.674756  0.750000  0.627404  1
  Se  Se35  1  0.325244  0.250000  0.372596  1
