# generated using pymatgen
data_LiBPt3
_symmetry_space_group_name_H-M   'P 1'
_cell_length_a   9.33617805
_cell_length_b   9.33617805
_cell_length_c   2.80586244
_cell_angle_alpha   90.00000000
_cell_angle_beta   90.00000000
_cell_angle_gamma   120.00000000
_symmetry_Int_Tables_number   1
_chemical_formula_structural   LiBPt3
_chemical_formula_sum   'Li3 B3 Pt9'
_cell_volume   211.80453661
_cell_formula_units_Z   3
loop_
 _symmetry_equiv_pos_site_id
 _symmetry_equiv_pos_as_xyz
  1  'x, y, z'
loop_
 _atom_site_type_symbol
 _atom_site_label
 _atom_site_symmetry_multiplicity
 _atom_site_fract_x
 _atom_site_fract_y
 _atom_site_fract_z
 _atom_site_occupancy
  Li  Li0  1  0.000000  0.362294  0.000000  1
  Li  Li1  1  0.637706  0.637706  0.000000  1
  Li  Li2  1  0.362294  0.000000  0.000000  1
  B  B3  1  0.000000  0.000000  0.500000  1
  B  B4  1  0.666667  0.333333  0.000000  1
  B  B5  1  0.333333  0.666667  0.000000  1
  Pt  Pt6  1  0.681656  0.165334  0.500000  1
  Pt  Pt7  1  0.483678  0.318344  0.500000  1
  Pt  Pt8  1  0.834666  0.516322  0.500000  1
  Pt  Pt9  1  0.165334  0.681656  0.500000  1
  Pt  Pt10  1  0.318344  0.483678  0.500000  1
  Pt  Pt11  1  0.516322  0.834666  0.500000  1
  Pt  Pt12  1  0.000000  0.822662  0.000000  1
  Pt  Pt13  1  0.177338  0.177338  0.000000  1
  Pt  Pt14  1  0.822662  0.000000  0.000000  1
