# generated using pymatgen
data_CaNb2O4
_symmetry_space_group_name_H-M   'P 1'
_cell_length_a   5.11701909
_cell_length_b   5.91216335
_cell_length_c   12.00524764
_cell_angle_alpha   90.00000000
_cell_angle_beta   90.00000000
_cell_angle_gamma   90.00000000
_symmetry_Int_Tables_number   1
_chemical_formula_structural   CaNb2O4
_chemical_formula_sum   'Ca4 Nb8 O16'
_cell_volume   363.19058773
_cell_formula_units_Z   4
loop_
 _symmetry_equiv_pos_site_id
 _symmetry_equiv_pos_as_xyz
  1  'x, y, z'
loop_
 _atom_site_type_symbol
 _atom_site_label
 _atom_site_symmetry_multiplicity
 _atom_site_fract_x
 _atom_site_fract_y
 _atom_site_fract_z
 _atom_site_occupancy
  Ca  Ca0  1  0.692067  0.250000  0.495968  1
  Ca  Ca1  1  0.692067  0.750000  0.004032  1
  Ca  Ca2  1  0.307933  0.750000  0.504032  1
  Ca  Ca3  1  0.307933  0.250000  0.995968  1
  Nb  Nb4  1  0.844252  0.000000  0.250000  1
  Nb  Nb5  1  0.155748  0.500000  0.750000  1
  Nb  Nb6  1  0.155748  0.000000  0.750000  1
  Nb  Nb7  1  0.844252  0.500000  0.250000  1
  Nb  Nb8  1  0.659278  0.750000  0.746314  1
  Nb  Nb9  1  0.659278  0.250000  0.753686  1
  Nb  Nb10  1  0.340722  0.250000  0.253686  1
  Nb  Nb11  1  0.340722  0.750000  0.246314  1
  O  O12  1  0.985530  0.750000  0.857027  1
  O  O13  1  0.985530  0.250000  0.642973  1
  O  O14  1  0.014470  0.250000  0.142973  1
  O  O15  1  0.014470  0.750000  0.357027  1
  O  O16  1  0.993827  0.750000  0.639507  1
  O  O17  1  0.993827  0.250000  0.860493  1
  O  O18  1  0.006173  0.250000  0.360493  1
  O  O19  1  0.006173  0.750000  0.139507  1
  O  O20  1  0.507775  0.995584  0.362702  1
  O  O21  1  0.507775  0.004416  0.137298  1
  O  O22  1  0.492225  0.495584  0.637298  1
  O  O23  1  0.492225  0.504416  0.862702  1
  O  O24  1  0.507775  0.495584  0.137298  1
  O  O25  1  0.507775  0.504416  0.362702  1
  O  O26  1  0.492225  0.995584  0.862702  1
  O  O27  1  0.492225  0.004416  0.637298  1
