# generated using pymatgen
data_In6TeO12
_symmetry_space_group_name_H-M   'P 1'
_cell_length_a   6.32853561
_cell_length_b   6.32853561
_cell_length_c   6.32853561
_cell_angle_alpha   98.72077487
_cell_angle_beta   98.72077487
_cell_angle_gamma   98.72077487
_symmetry_Int_Tables_number   1
_chemical_formula_structural   In6TeO12
_chemical_formula_sum   'In6 Te1 O12'
_cell_volume   243.64678137
_cell_formula_units_Z   1
loop_
 _symmetry_equiv_pos_site_id
 _symmetry_equiv_pos_as_xyz
  1  'x, y, z'
loop_
 _atom_site_type_symbol
 _atom_site_label
 _atom_site_symmetry_multiplicity
 _atom_site_fract_x
 _atom_site_fract_y
 _atom_site_fract_z
 _atom_site_occupancy
  In  In0  1  0.606915  0.140429  0.318897  1
  In  In1  1  0.393085  0.859571  0.681103  1
  In  In2  1  0.681103  0.393085  0.859571  1
  In  In3  1  0.318897  0.606915  0.140429  1
  In  In4  1  0.140429  0.318897  0.606915  1
  In  In5  1  0.859571  0.681103  0.393085  1
  Te  Te6  1  0.000000  0.000000  0.000000  1
  O  O7  1  0.913752  0.699358  0.040670  1
  O  O8  1  0.300642  0.959330  0.086248  1
  O  O9  1  0.040670  0.913752  0.699358  1
  O  O10  1  0.418904  0.175732  0.595469  1
  O  O11  1  0.824268  0.404531  0.581096  1
  O  O12  1  0.595469  0.418904  0.175732  1
  O  O13  1  0.175732  0.595469  0.418904  1
  O  O14  1  0.699358  0.040670  0.913752  1
  O  O15  1  0.959330  0.086248  0.300642  1
  O  O16  1  0.404531  0.581096  0.824268  1
  O  O17  1  0.086248  0.300642  0.959330  1
  O  O18  1  0.581096  0.824268  0.404531  1
