# generated using pymatgen
data_Ce2C3
_symmetry_space_group_name_H-M   'P 1'
_cell_length_a   7.27931057
_cell_length_b   7.27931057
_cell_length_c   7.27931057
_cell_angle_alpha   109.47122063
_cell_angle_beta   109.47122063
_cell_angle_gamma   109.47122063
_symmetry_Int_Tables_number   1
_chemical_formula_structural   Ce2C3
_chemical_formula_sum   'Ce8 C12'
_cell_volume   296.92642877
_cell_formula_units_Z   4
loop_
 _symmetry_equiv_pos_site_id
 _symmetry_equiv_pos_as_xyz
  1  'x, y, z'
loop_
 _atom_site_type_symbol
 _atom_site_label
 _atom_site_symmetry_multiplicity
 _atom_site_fract_x
 _atom_site_fract_y
 _atom_site_fract_z
 _atom_site_occupancy
  Ce  Ce0  1  0.599329  0.599329  0.599329  1
  Ce  Ce1  1  0.400671  0.500000  0.000000  1
  Ce  Ce2  1  0.500000  1.000000  0.400671  1
  Ce  Ce3  1  1.000000  0.400671  0.500000  1
  Ce  Ce4  1  0.500000  1.000000  0.900671  1
  Ce  Ce5  1  1.000000  0.900671  0.500000  1
  Ce  Ce6  1  0.900671  0.500000  1.000000  1
  Ce  Ce7  1  0.099329  0.099329  0.099329  1
  C  C8  1  0.750000  0.793281  0.043281  1
  C  C9  1  0.750000  0.956719  0.206719  1
  C  C10  1  0.293281  0.250000  0.543281  1
  C  C11  1  0.543281  0.293281  0.250000  1
  C  C12  1  0.206719  0.750000  0.956719  1
  C  C13  1  0.956719  0.206719  0.750000  1
  C  C14  1  0.250000  0.706719  0.456719  1
  C  C15  1  0.706719  0.456719  0.250000  1
  C  C16  1  0.250000  0.543281  0.293281  1
  C  C17  1  0.456719  0.250000  0.706719  1
  C  C18  1  0.043281  0.750000  0.793281  1
  C  C19  1  0.793281  0.043281  0.750000  1
