# generated using pymatgen
data_Y3IrI3
_symmetry_space_group_name_H-M   'P 1'
_cell_length_a   8.91247960
_cell_length_b   4.28271267
_cell_length_c   12.35048081
_cell_angle_alpha   90.00000000
_cell_angle_beta   93.58238356
_cell_angle_gamma   90.00000000
_symmetry_Int_Tables_number   1
_chemical_formula_structural   Y3IrI3
_chemical_formula_sum   'Y6 Ir2 I6'
_cell_volume   470.49163355
_cell_formula_units_Z   2
loop_
 _symmetry_equiv_pos_site_id
 _symmetry_equiv_pos_as_xyz
  1  'x, y, z'
loop_
 _atom_site_type_symbol
 _atom_site_label
 _atom_site_symmetry_multiplicity
 _atom_site_fract_x
 _atom_site_fract_y
 _atom_site_fract_z
 _atom_site_occupancy
  Y  Y0  1  0.141476  0.750000  0.870161  1
  Y  Y1  1  0.858524  0.250000  0.129839  1
  Y  Y2  1  0.096521  0.750000  0.315750  1
  Y  Y3  1  0.903479  0.250000  0.684250  1
  Y  Y4  1  0.250170  0.250000  0.099418  1
  Y  Y5  1  0.749830  0.750000  0.900582  1
  Ir  Ir6  1  0.049235  0.750000  0.092553  1
  Ir  Ir7  1  0.950765  0.250000  0.907447  1
  I  I8  1  0.427440  0.250000  0.867049  1
  I  I9  1  0.572560  0.750000  0.132951  1
  I  I10  1  0.348761  0.250000  0.361239  1
  I  I11  1  0.651239  0.750000  0.638761  1
  I  I12  1  0.141187  0.750000  0.605885  1
  I  I13  1  0.858813  0.250000  0.394115  1
