# generated using pymatgen
data_Ca9Zn4Sb9
_symmetry_space_group_name_H-M   'P 1'
_cell_length_a   4.56106343
_cell_length_b   12.50654961
_cell_length_c   21.91858604
_cell_angle_alpha   90.00000000
_cell_angle_beta   90.00000000
_cell_angle_gamma   90.00000000
_symmetry_Int_Tables_number   1
_chemical_formula_structural   Ca9Zn4Sb9
_chemical_formula_sum   'Ca18 Zn8 Sb18'
_cell_volume   1250.30554332
_cell_formula_units_Z   2
loop_
 _symmetry_equiv_pos_site_id
 _symmetry_equiv_pos_as_xyz
  1  'x, y, z'
loop_
 _atom_site_type_symbol
 _atom_site_label
 _atom_site_symmetry_multiplicity
 _atom_site_fract_x
 _atom_site_fract_y
 _atom_site_fract_z
 _atom_site_occupancy
  Ca  Ca0  1  0.500000  0.000000  0.000000  1
  Ca  Ca1  1  0.500000  0.500000  0.500000  1
  Ca  Ca2  1  0.000000  0.865945  0.862789  1
  Ca  Ca3  1  0.000000  0.134055  0.137211  1
  Ca  Ca4  1  0.000000  0.365945  0.637211  1
  Ca  Ca5  1  0.000000  0.634055  0.362789  1
  Ca  Ca6  1  0.000000  0.563916  0.909301  1
  Ca  Ca7  1  0.000000  0.436084  0.090699  1
  Ca  Ca8  1  0.000000  0.063916  0.590699  1
  Ca  Ca9  1  0.000000  0.936084  0.409301  1
  Ca  Ca10  1  0.000000  0.621625  0.736682  1
  Ca  Ca11  1  0.000000  0.378375  0.263318  1
  Ca  Ca12  1  0.000000  0.121625  0.763318  1
  Ca  Ca13  1  0.000000  0.878375  0.236682  1
  Ca  Ca14  1  0.500000  0.787306  0.602149  1
  Ca  Ca15  1  0.500000  0.212694  0.397851  1
  Ca  Ca16  1  0.500000  0.287306  0.897851  1
  Ca  Ca17  1  0.500000  0.712694  0.102149  1
  Zn  Zn18  1  0.500000  0.723314  0.954004  1
  Zn  Zn19  1  0.500000  0.276686  0.045996  1
  Zn  Zn20  1  0.500000  0.223314  0.545996  1
  Zn  Zn21  1  0.500000  0.776686  0.454004  1
  Zn  Zn22  1  0.500000  0.883183  0.762511  1
  Zn  Zn23  1  0.500000  0.116817  0.237489  1
  Zn  Zn24  1  0.500000  0.383183  0.737489  1
  Zn  Zn25  1  0.500000  0.616817  0.262511  1
  Sb  Sb26  1  0.500000  0.500000  0.000000  1
  Sb  Sb27  1  0.500000  0.000000  0.500000  1
  Sb  Sb28  1  0.000000  0.693724  0.506033  1
  Sb  Sb29  1  0.000000  0.306276  0.493967  1
  Sb  Sb30  1  0.000000  0.193724  0.993967  1
  Sb  Sb31  1  0.000000  0.806276  0.006033  1
  Sb  Sb32  1  0.000000  0.879621  0.694743  1
  Sb  Sb33  1  0.000000  0.120379  0.305257  1
  Sb  Sb34  1  0.000000  0.379621  0.805257  1
  Sb  Sb35  1  0.000000  0.620379  0.194743  1
  Sb  Sb36  1  0.500000  0.540580  0.646800  1
  Sb  Sb37  1  0.500000  0.459420  0.353200  1
  Sb  Sb38  1  0.500000  0.040580  0.853200  1
  Sb  Sb39  1  0.500000  0.959420  0.146800  1
  Sb  Sb40  1  0.500000  0.690307  0.831907  1
  Sb  Sb41  1  0.500000  0.309693  0.168093  1
  Sb  Sb42  1  0.500000  0.190307  0.668093  1
  Sb  Sb43  1  0.500000  0.809693  0.331907  1
