# generated using pymatgen
data_RuS3Cl8
_symmetry_space_group_name_H-M   'P 1'
_cell_length_a   8.18314528
_cell_length_b   8.40546735
_cell_length_c   11.21327147
_cell_angle_alpha   104.25385830
_cell_angle_beta   98.87386233
_cell_angle_gamma   108.69477208
_symmetry_Int_Tables_number   1
_chemical_formula_structural   RuS3Cl8
_chemical_formula_sum   'Ru2 S6 Cl16'
_cell_volume   684.87908116
_cell_formula_units_Z   2
loop_
 _symmetry_equiv_pos_site_id
 _symmetry_equiv_pos_as_xyz
  1  'x, y, z'
loop_
 _atom_site_type_symbol
 _atom_site_label
 _atom_site_symmetry_multiplicity
 _atom_site_fract_x
 _atom_site_fract_y
 _atom_site_fract_z
 _atom_site_occupancy
  Ru  Ru0  1  0.885494  0.846376  0.832466  1
  Ru  Ru1  1  0.114506  0.153624  0.167534  1
  S  S2  1  0.031484  0.361774  0.281482  1
  S  S3  1  0.675082  0.808465  0.663728  1
  S  S4  1  0.324918  0.191535  0.336272  1
  S  S5  1  0.968516  0.638226  0.718518  1
  S  S6  1  0.683879  0.669262  0.908808  1
  S  S7  1  0.316121  0.330738  0.091192  1
  Cl  Cl8  1  0.891997  0.124205  0.973508  1
  Cl  Cl9  1  0.108003  0.875795  0.026492  1
  Cl  Cl10  1  0.505251  0.231651  0.040296  1
  Cl  Cl11  1  0.494749  0.768349  0.959704  1
  Cl  Cl12  1  0.489370  0.555660  0.237992  1
  Cl  Cl13  1  0.510630  0.444340  0.762008  1
  Cl  Cl14  1  0.527780  0.959813  0.714229  1
  Cl  Cl15  1  0.131812  0.029047  0.773219  1
  Cl  Cl16  1  0.214948  0.524540  0.454429  1
  Cl  Cl17  1  0.785052  0.475460  0.545571  1
  Cl  Cl18  1  0.034054  0.550612  0.192707  1
  Cl  Cl19  1  0.965946  0.449388  0.807293  1
  Cl  Cl20  1  0.868188  0.970953  0.226781  1
  Cl  Cl21  1  0.472220  0.040187  0.285771  1
  Cl  Cl22  1  0.226013  0.087209  0.472227  1
  Cl  Cl23  1  0.773987  0.912791  0.527773  1
