# generated using pymatgen
data_CrInBr3
_symmetry_space_group_name_H-M   'P 1'
_cell_length_a   4.29588544
_cell_length_b   15.15506058
_cell_length_c   9.53244596
_cell_angle_alpha   90.00000000
_cell_angle_beta   96.13911471
_cell_angle_gamma   90.00000000
_symmetry_Int_Tables_number   1
_chemical_formula_structural   CrInBr3
_chemical_formula_sum   'Cr4 In4 Br12'
_cell_volume   617.04515239
_cell_formula_units_Z   4
loop_
 _symmetry_equiv_pos_site_id
 _symmetry_equiv_pos_as_xyz
  1  'x, y, z'
loop_
 _atom_site_type_symbol
 _atom_site_label
 _atom_site_symmetry_multiplicity
 _atom_site_fract_x
 _atom_site_fract_y
 _atom_site_fract_z
 _atom_site_occupancy
  Cr  Cr0  1  0.231252  0.951534  0.659765  1
  Cr  Cr1  1  0.768748  0.451534  0.840235  1
  Cr  Cr2  1  0.768748  0.048466  0.340235  1
  Cr  Cr3  1  0.231252  0.548466  0.159765  1
  In  In4  1  0.757086  0.665044  0.534981  1
  In  In5  1  0.242914  0.165044  0.965019  1
  In  In6  1  0.242914  0.334956  0.465019  1
  In  In7  1  0.757086  0.834956  0.034981  1
  Br  Br8  1  0.252202  0.698190  0.273958  1
  Br  Br9  1  0.747798  0.198190  0.226042  1
  Br  Br10  1  0.747798  0.301810  0.726042  1
  Br  Br11  1  0.252202  0.801810  0.773958  1
  Br  Br12  1  0.199926  0.400702  0.029281  1
  Br  Br13  1  0.800074  0.900702  0.470719  1
  Br  Br14  1  0.800074  0.599298  0.970719  1
  Br  Br15  1  0.199926  0.099298  0.529281  1
  Br  Br16  1  0.692464  0.492522  0.325918  1
  Br  Br17  1  0.307536  0.992522  0.174082  1
  Br  Br18  1  0.307536  0.507478  0.674082  1
  Br  Br19  1  0.692464  0.007478  0.825918  1
