# generated using pymatgen
data_Zr3AlN
_symmetry_space_group_name_H-M   'P 1'
_cell_length_a   6.02805706
_cell_length_b   6.02805706
_cell_length_c   9.03158651
_cell_angle_alpha   90.00000000
_cell_angle_beta   90.00000000
_cell_angle_gamma   147.37426277
_symmetry_Int_Tables_number   1
_chemical_formula_structural   Zr3AlN
_chemical_formula_sum   'Zr6 Al2 N2'
_cell_volume   176.94067867
_cell_formula_units_Z   2
loop_
 _symmetry_equiv_pos_site_id
 _symmetry_equiv_pos_as_xyz
  1  'x, y, z'
loop_
 _atom_site_type_symbol
 _atom_site_label
 _atom_site_symmetry_multiplicity
 _atom_site_fract_x
 _atom_site_fract_y
 _atom_site_fract_z
 _atom_site_occupancy
  Zr  Zr0  1  0.954857  0.045143  0.750000  1
  Zr  Zr1  1  0.045143  0.954857  0.250000  1
  Zr  Zr2  1  0.626934  0.373066  0.542437  1
  Zr  Zr3  1  0.373066  0.626934  0.457563  1
  Zr  Zr4  1  0.373066  0.626934  0.042437  1
  Zr  Zr5  1  0.626934  0.373066  0.957563  1
  Al  Al6  1  0.747686  0.252314  0.250000  1
  Al  Al7  1  0.252314  0.747686  0.750000  1
  N  N8  1  0.000000  0.000000  0.500000  1
  N  N9  1  0.000000  0.000000  0.000000  1
