# generated using pymatgen
data_GdCl3
_symmetry_space_group_name_H-M   'P 1'
_cell_length_a   7.56146413
_cell_length_b   7.56146413
_cell_length_c   4.07412516
_cell_angle_alpha   90.00000000
_cell_angle_beta   90.00000000
_cell_angle_gamma   120.00000000
_symmetry_Int_Tables_number   1
_chemical_formula_structural   GdCl3
_chemical_formula_sum   'Gd2 Cl6'
_cell_volume   201.73292749
_cell_formula_units_Z   2
loop_
 _symmetry_equiv_pos_site_id
 _symmetry_equiv_pos_as_xyz
  1  'x, y, z'
loop_
 _atom_site_type_symbol
 _atom_site_label
 _atom_site_symmetry_multiplicity
 _atom_site_fract_x
 _atom_site_fract_y
 _atom_site_fract_z
 _atom_site_occupancy
  Gd  Gd0  1  0.333333  0.666667  0.250000  1
  Gd  Gd1  1  0.666667  0.333333  0.750000  1
  Cl  Cl2  1  0.395781  0.304445  0.250000  1
  Cl  Cl3  1  0.091336  0.395781  0.750000  1
  Cl  Cl4  1  0.304445  0.908664  0.750000  1
  Cl  Cl5  1  0.695555  0.091336  0.250000  1
  Cl  Cl6  1  0.908664  0.604219  0.250000  1
  Cl  Cl7  1  0.604219  0.695555  0.750000  1
