# generated using pymatgen
data_Li21Si5
_symmetry_space_group_name_H-M   'P 1'
_cell_length_a   13.10445289
_cell_length_b   13.10445289
_cell_length_c   13.10445289
_cell_angle_alpha   60.00000000
_cell_angle_beta   60.00000000
_cell_angle_gamma   60.00000000
_symmetry_Int_Tables_number   1
_chemical_formula_structural   Li21Si5
_chemical_formula_sum   'Li84 Si20'
_cell_volume   1591.26197262
_cell_formula_units_Z   4
loop_
 _symmetry_equiv_pos_site_id
 _symmetry_equiv_pos_as_xyz
  1  'x, y, z'
loop_
 _atom_site_type_symbol
 _atom_site_label
 _atom_site_symmetry_multiplicity
 _atom_site_fract_x
 _atom_site_fract_y
 _atom_site_fract_z
 _atom_site_occupancy
  Li  Li0  1  0.243407  0.578537  0.243407  1
  Li  Li1  1  0.934649  0.243407  0.243407  1
  Li  Li2  1  0.243407  0.243407  0.934649  1
  Li  Li3  1  0.578537  0.934649  0.243407  1
  Li  Li4  1  0.243407  0.934649  0.578537  1
  Li  Li5  1  0.578537  0.243407  0.934649  1
  Li  Li6  1  0.934649  0.243407  0.578537  1
  Li  Li7  1  0.243407  0.243407  0.578537  1
  Li  Li8  1  0.934649  0.578537  0.243407  1
  Li  Li9  1  0.243407  0.578537  0.934649  1
  Li  Li10  1  0.578537  0.243407  0.243407  1
  Li  Li11  1  0.243407  0.934649  0.243407  1
  Li  Li12  1  0.730047  0.079593  0.730047  1
  Li  Li13  1  0.460313  0.730047  0.730047  1
  Li  Li14  1  0.730047  0.730047  0.460313  1
  Li  Li15  1  0.079593  0.460313  0.730047  1
  Li  Li16  1  0.730047  0.460313  0.079593  1
  Li  Li17  1  0.079593  0.730047  0.460313  1
  Li  Li18  1  0.460313  0.730047  0.079593  1
  Li  Li19  1  0.730047  0.730047  0.079593  1
  Li  Li20  1  0.947220  0.158340  0.947220  1
  Li  Li21  1  0.947220  0.947220  0.947220  1
  Li  Li22  1  0.947220  0.947220  0.158340  1
  Li  Li23  1  0.158340  0.947220  0.947220  1
  Li  Li24  1  0.831567  0.505299  0.831567  1
  Li  Li25  1  0.831567  0.831567  0.831567  1
  Li  Li26  1  0.831567  0.831567  0.505299  1
  Li  Li27  1  0.505299  0.831567  0.831567  1
  Li  Li28  1  0.693000  0.921000  0.693000  1
  Li  Li29  1  0.693000  0.693000  0.693000  1
  Li  Li30  1  0.693000  0.693000  0.921000  1
  Li  Li31  1  0.921000  0.693000  0.693000  1
  Li  Li32  1  0.563761  0.308717  0.563761  1
  Li  Li33  1  0.563761  0.563761  0.563761  1
  Li  Li34  1  0.563761  0.563761  0.308717  1
  Li  Li35  1  0.308717  0.563761  0.563761  1
  Li  Li36  1  0.419889  0.740333  0.419889  1
  Li  Li37  1  0.419889  0.419889  0.419889  1
  Li  Li38  1  0.419889  0.419889  0.740333  1
  Li  Li39  1  0.740333  0.419889  0.419889  1
  Li  Li40  1  0.193916  0.418252  0.193916  1
  Li  Li41  1  0.193916  0.193916  0.193916  1
  Li  Li42  1  0.193916  0.193916  0.418252  1
  Li  Li43  1  0.418252  0.193916  0.193916  1
  Li  Li44  1  0.824675  0.175325  0.175325  1
  Li  Li45  1  0.824675  0.175325  0.824675  1
  Li  Li46  1  0.175325  0.824675  0.175325  1
  Li  Li47  1  0.175325  0.824675  0.824675  1
  Li  Li48  1  0.175325  0.175325  0.824675  1
  Li  Li49  1  0.824675  0.824675  0.175325  1
  Li  Li50  1  0.422760  0.077240  0.077240  1
  Li  Li51  1  0.422760  0.077240  0.422760  1
  Li  Li52  1  0.077240  0.422760  0.077240  1
  Li  Li53  1  0.077240  0.422760  0.422760  1
  Li  Li54  1  0.077240  0.077240  0.422760  1
  Li  Li55  1  0.422760  0.422760  0.077240  1
  Li  Li56  1  0.987249  0.694675  0.987249  1
  Li  Li57  1  0.330827  0.987249  0.987249  1
  Li  Li58  1  0.987249  0.330827  0.694675  1
  Li  Li59  1  0.694675  0.330827  0.987249  1
  Li  Li60  1  0.987249  0.987249  0.330827  1
  Li  Li61  1  0.694675  0.987249  0.330827  1
  Li  Li62  1  0.330827  0.987249  0.694675  1
  Li  Li63  1  0.987249  0.694675  0.330827  1
  Li  Li64  1  0.330827  0.694675  0.987249  1
  Li  Li65  1  0.987249  0.987249  0.694675  1
  Li  Li66  1  0.694675  0.987249  0.987249  1
  Li  Li67  1  0.987249  0.330827  0.987249  1
  Li  Li68  1  0.488776  0.830215  0.488776  1
  Li  Li69  1  0.192233  0.488776  0.488776  1
  Li  Li70  1  0.488776  0.192233  0.830215  1
  Li  Li71  1  0.830215  0.192233  0.488776  1
  Li  Li72  1  0.488776  0.488776  0.192233  1
  Li  Li73  1  0.830215  0.488776  0.192233  1
  Li  Li74  1  0.192233  0.488776  0.830215  1
  Li  Li75  1  0.488776  0.830215  0.192233  1
  Li  Li76  1  0.192233  0.830215  0.488776  1
  Li  Li77  1  0.488776  0.488776  0.830215  1
  Li  Li78  1  0.830215  0.488776  0.488776  1
  Li  Li79  1  0.488776  0.192233  0.488776  1
  Li  Li80  1  0.730047  0.460313  0.730047  1
  Li  Li81  1  0.079593  0.730047  0.730047  1
  Li  Li82  1  0.730047  0.079593  0.460313  1
  Li  Li83  1  0.460313  0.079593  0.730047  1
  Si  Si84  1  0.928092  0.928092  0.571908  1
  Si  Si85  1  0.571908  0.571908  0.928092  1
  Si  Si86  1  0.571908  0.928092  0.928092  1
  Si  Si87  1  0.571908  0.928092  0.571908  1
  Si  Si88  1  0.928092  0.571908  0.928092  1
  Si  Si89  1  0.928092  0.571908  0.571908  1
  Si  Si90  1  0.679815  0.679815  0.320185  1
  Si  Si91  1  0.320185  0.320185  0.679815  1
  Si  Si92  1  0.320185  0.679815  0.679815  1
  Si  Si93  1  0.320185  0.679815  0.320185  1
  Si  Si94  1  0.679815  0.320185  0.679815  1
  Si  Si95  1  0.679815  0.320185  0.320185  1
  Si  Si96  1  0.994712  0.335096  0.335096  1
  Si  Si97  1  0.335096  0.335096  0.994712  1
  Si  Si98  1  0.335096  0.335096  0.335096  1
  Si  Si99  1  0.335096  0.994712  0.335096  1
  Si  Si100  1  0.730498  0.089834  0.089834  1
  Si  Si101  1  0.089834  0.089834  0.730498  1
  Si  Si102  1  0.089834  0.089834  0.089834  1
  Si  Si103  1  0.089834  0.730498  0.089834  1
