# generated using pymatgen
data_Ho2Ni12P7
_symmetry_space_group_name_H-M   'P 1'
_cell_length_a   9.02199673
_cell_length_b   9.02199673
_cell_length_c   3.67767598
_cell_angle_alpha   90.00000000
_cell_angle_beta   90.00000000
_cell_angle_gamma   120.00000000
_symmetry_Int_Tables_number   1
_chemical_formula_structural   Ho2Ni12P7
_chemical_formula_sum   'Ho2 Ni12 P7'
_cell_volume   259.24442505
_cell_formula_units_Z   1
loop_
 _symmetry_equiv_pos_site_id
 _symmetry_equiv_pos_as_xyz
  1  'x, y, z'
loop_
 _atom_site_type_symbol
 _atom_site_label
 _atom_site_symmetry_multiplicity
 _atom_site_fract_x
 _atom_site_fract_y
 _atom_site_fract_z
 _atom_site_occupancy
  Ho  Ho0  1  0.666667  0.333333  0.500000  1
  Ho  Ho1  1  0.333333  0.666667  0.000000  1
  Ni  Ni2  1  0.618402  0.569257  0.000000  1
  Ni  Ni3  1  0.847816  0.725277  0.500000  1
  Ni  Ni4  1  0.950855  0.381598  0.000000  1
  Ni  Ni5  1  0.274723  0.122539  0.500000  1
  Ni  Ni6  1  0.121527  0.214932  0.000000  1
  Ni  Ni7  1  0.093405  0.878473  0.000000  1
  Ni  Ni8  1  0.785068  0.906595  0.000000  1
  Ni  Ni9  1  0.372972  0.434091  0.500000  1
  Ni  Ni10  1  0.565909  0.938881  0.500000  1
  Ni  Ni11  1  0.061119  0.627028  0.500000  1
  Ni  Ni12  1  0.877461  0.152184  0.500000  1
  Ni  Ni13  1  0.430743  0.049145  0.000000  1
  P  P14  1  0.000000  0.000000  0.500000  1
  P  P15  1  0.705374  0.110835  0.000000  1
  P  P16  1  0.113100  0.407570  0.500000  1
  P  P17  1  0.592430  0.705530  0.500000  1
  P  P18  1  0.294470  0.886900  0.500000  1
  P  P19  1  0.889165  0.594539  0.000000  1
  P  P20  1  0.405461  0.294626  0.000000  1
