# generated using pymatgen
data_DyVO3
_symmetry_space_group_name_H-M   'P 1'
_cell_length_a   5.33421059
_cell_length_b   5.74309969
_cell_length_c   7.63590426
_cell_angle_alpha   90.00000000
_cell_angle_beta   90.00000000
_cell_angle_gamma   90.00000000
_symmetry_Int_Tables_number   1
_chemical_formula_structural   DyVO3
_chemical_formula_sum   'Dy4 V4 O12'
_cell_volume   233.92518774
_cell_formula_units_Z   4
loop_
 _symmetry_equiv_pos_site_id
 _symmetry_equiv_pos_as_xyz
  1  'x, y, z'
loop_
 _atom_site_type_symbol
 _atom_site_label
 _atom_site_symmetry_multiplicity
 _atom_site_fract_x
 _atom_site_fract_y
 _atom_site_fract_z
 _atom_site_occupancy
  Dy  Dy0  1  0.020193  0.070389  0.750000  1
  Dy  Dy1  1  0.520193  0.429611  0.250000  1
  Dy  Dy2  1  0.479807  0.570389  0.750000  1
  Dy  Dy3  1  0.979807  0.929611  0.250000  1
  V  V4  1  0.500000  0.000000  0.500000  1
  V  V5  1  0.000000  0.500000  0.500000  1
  V  V6  1  0.000000  0.500000  0.000000  1
  V  V7  1  0.500000  0.000000  0.000000  1
  O  O8  1  0.694823  0.689119  0.440606  1
  O  O9  1  0.194823  0.810881  0.559394  1
  O  O10  1  0.805177  0.189119  0.059394  1
  O  O11  1  0.305177  0.310881  0.940606  1
  O  O12  1  0.305177  0.310881  0.559394  1
  O  O13  1  0.805177  0.189119  0.440606  1
  O  O14  1  0.194823  0.810881  0.940606  1
  O  O15  1  0.694823  0.689119  0.059394  1
  O  O16  1  0.118774  0.546236  0.250000  1
  O  O17  1  0.618774  0.953764  0.750000  1
  O  O18  1  0.381226  0.046236  0.250000  1
  O  O19  1  0.881226  0.453764  0.750000  1
