# generated using pymatgen
data_Hf3P3Pd4
_symmetry_space_group_name_H-M   'P 1'
_cell_length_a   3.80818126
_cell_length_b   10.05877721
_cell_length_c   16.47941851
_cell_angle_alpha   90.00000000
_cell_angle_beta   90.00000000
_cell_angle_gamma   90.00000000
_symmetry_Int_Tables_number   1
_chemical_formula_structural   Hf3P3Pd4
_chemical_formula_sum   'Hf12 P12 Pd16'
_cell_volume   631.25478606
_cell_formula_units_Z   4
loop_
 _symmetry_equiv_pos_site_id
 _symmetry_equiv_pos_as_xyz
  1  'x, y, z'
loop_
 _atom_site_type_symbol
 _atom_site_label
 _atom_site_symmetry_multiplicity
 _atom_site_fract_x
 _atom_site_fract_y
 _atom_site_fract_z
 _atom_site_occupancy
  Hf  Hf0  1  0.250000  0.912054  0.061105  1
  Hf  Hf1  1  0.750000  0.087946  0.938895  1
  Hf  Hf2  1  0.750000  0.412054  0.438895  1
  Hf  Hf3  1  0.250000  0.587946  0.561105  1
  Hf  Hf4  1  0.250000  0.618150  0.952230  1
  Hf  Hf5  1  0.750000  0.381850  0.047770  1
  Hf  Hf6  1  0.750000  0.118150  0.547770  1
  Hf  Hf7  1  0.250000  0.881850  0.452230  1
  Hf  Hf8  1  0.250000  0.478799  0.760397  1
  Hf  Hf9  1  0.750000  0.521201  0.239603  1
  Hf  Hf10  1  0.750000  0.978799  0.739603  1
  Hf  Hf11  1  0.250000  0.021201  0.260397  1
  P  P12  1  0.250000  0.109847  0.823176  1
  P  P13  1  0.750000  0.890153  0.176824  1
  P  P14  1  0.750000  0.609847  0.676824  1
  P  P15  1  0.250000  0.390153  0.323176  1
  P  P16  1  0.250000  0.966759  0.613515  1
  P  P17  1  0.750000  0.033241  0.386485  1
  P  P18  1  0.750000  0.466759  0.886485  1
  P  P19  1  0.250000  0.533241  0.113515  1
  P  P20  1  0.250000  0.320464  0.543163  1
  P  P21  1  0.750000  0.679536  0.456837  1
  P  P22  1  0.750000  0.820464  0.956837  1
  P  P23  1  0.250000  0.179536  0.043163  1
  Pd  Pd24  1  0.250000  0.310880  0.175769  1
  Pd  Pd25  1  0.750000  0.689120  0.824231  1
  Pd  Pd26  1  0.750000  0.810880  0.324231  1
  Pd  Pd27  1  0.250000  0.189120  0.675769  1
  Pd  Pd28  1  0.250000  0.731714  0.205757  1
  Pd  Pd29  1  0.750000  0.268286  0.794243  1
  Pd  Pd30  1  0.750000  0.231714  0.294243  1
  Pd  Pd31  1  0.250000  0.768286  0.705757  1
  Pd  Pd32  1  0.250000  0.617424  0.371813  1
  Pd  Pd33  1  0.750000  0.382576  0.628187  1
  Pd  Pd34  1  0.750000  0.117424  0.128187  1
  Pd  Pd35  1  0.250000  0.882576  0.871813  1
  Pd  Pd36  1  0.250000  0.181179  0.419498  1
  Pd  Pd37  1  0.750000  0.818821  0.580502  1
  Pd  Pd38  1  0.750000  0.681179  0.080502  1
  Pd  Pd39  1  0.250000  0.318821  0.919498  1
