# generated using pymatgen
data_BiSBr
_symmetry_space_group_name_H-M   'P 1'
_cell_length_a   4.08866297
_cell_length_b   8.46763868
_cell_length_c   10.57737491
_cell_angle_alpha   90.00000000
_cell_angle_beta   90.00000000
_cell_angle_gamma   90.00000000
_symmetry_Int_Tables_number   1
_chemical_formula_structural   BiSBr
_chemical_formula_sum   'Bi4 S4 Br4'
_cell_volume   366.20268907
_cell_formula_units_Z   4
loop_
 _symmetry_equiv_pos_site_id
 _symmetry_equiv_pos_as_xyz
  1  'x, y, z'
loop_
 _atom_site_type_symbol
 _atom_site_label
 _atom_site_symmetry_multiplicity
 _atom_site_fract_x
 _atom_site_fract_y
 _atom_site_fract_z
 _atom_site_occupancy
  Bi  Bi0  1  0.250000  0.383900  0.631771  1
  Bi  Bi1  1  0.750000  0.616100  0.368229  1
  Bi  Bi2  1  0.250000  0.883900  0.868229  1
  Bi  Bi3  1  0.750000  0.116100  0.131771  1
  S  S4  1  0.750000  0.329971  0.462029  1
  S  S5  1  0.250000  0.170029  0.962029  1
  S  S6  1  0.750000  0.829971  0.037971  1
  S  S7  1  0.250000  0.670029  0.537971  1
  Br  Br8  1  0.250000  0.473286  0.189443  1
  Br  Br9  1  0.750000  0.026714  0.689443  1
  Br  Br10  1  0.250000  0.973286  0.310557  1
  Br  Br11  1  0.750000  0.526714  0.810557  1
