# generated using pymatgen
data_YbGa2
_symmetry_space_group_name_H-M   'P 1'
_cell_length_a   4.46099497
_cell_length_b   4.46099497
_cell_length_c   7.18104413
_cell_angle_alpha   90.00000000
_cell_angle_beta   90.00000000
_cell_angle_gamma   120.00000000
_symmetry_Int_Tables_number   1
_chemical_formula_structural   YbGa2
_chemical_formula_sum   'Yb2 Ga4'
_cell_volume   123.76039710
_cell_formula_units_Z   2
loop_
 _symmetry_equiv_pos_site_id
 _symmetry_equiv_pos_as_xyz
  1  'x, y, z'
loop_
 _atom_site_type_symbol
 _atom_site_label
 _atom_site_symmetry_multiplicity
 _atom_site_fract_x
 _atom_site_fract_y
 _atom_site_fract_z
 _atom_site_occupancy
  Yb  Yb0  1  0.000000  0.000000  0.750000  1
  Yb  Yb1  1  0.000000  0.000000  0.250000  1
  Ga  Ga2  1  0.333333  0.666667  0.045338  1
  Ga  Ga3  1  0.666667  0.333333  0.545338  1
  Ga  Ga4  1  0.333333  0.666667  0.454662  1
  Ga  Ga5  1  0.666667  0.333333  0.954662  1
