# generated using pymatgen
data_Cd3P2
_symmetry_space_group_name_H-M   'P 1'
_cell_length_a   8.87946165
_cell_length_b   8.87946165
_cell_length_c   12.48326012
_cell_angle_alpha   90.00000000
_cell_angle_beta   90.00000000
_cell_angle_gamma   90.00000000
_symmetry_Int_Tables_number   1
_chemical_formula_structural   Cd3P2
_chemical_formula_sum   'Cd24 P16'
_cell_volume   984.24063678
_cell_formula_units_Z   8
loop_
 _symmetry_equiv_pos_site_id
 _symmetry_equiv_pos_as_xyz
  1  'x, y, z'
loop_
 _atom_site_type_symbol
 _atom_site_label
 _atom_site_symmetry_multiplicity
 _atom_site_fract_x
 _atom_site_fract_y
 _atom_site_fract_z
 _atom_site_occupancy
  Cd  Cd0  1  0.710514  0.000000  0.883078  1
  Cd  Cd1  1  0.500000  0.210514  0.383078  1
  Cd  Cd2  1  0.500000  0.789486  0.383078  1
  Cd  Cd3  1  0.210514  0.500000  0.616922  1
  Cd  Cd4  1  0.789486  0.500000  0.616922  1
  Cd  Cd5  1  0.289486  0.000000  0.883078  1
  Cd  Cd6  1  0.000000  0.710514  0.116922  1
  Cd  Cd7  1  0.000000  0.289486  0.116922  1
  Cd  Cd8  1  0.756402  0.000000  0.150505  1
  Cd  Cd9  1  0.243598  0.000000  0.150505  1
  Cd  Cd10  1  0.000000  0.756402  0.849495  1
  Cd  Cd11  1  0.500000  0.743598  0.650505  1
  Cd  Cd12  1  0.500000  0.256402  0.650505  1
  Cd  Cd13  1  0.743598  0.500000  0.349495  1
  Cd  Cd14  1  0.256402  0.500000  0.349495  1
  Cd  Cd15  1  0.000000  0.243598  0.849495  1
  Cd  Cd16  1  0.500000  0.285577  0.101314  1
  Cd  Cd17  1  0.500000  0.714423  0.101314  1
  Cd  Cd18  1  0.285577  0.500000  0.898686  1
  Cd  Cd19  1  0.785577  0.000000  0.601314  1
  Cd  Cd20  1  0.214423  0.000000  0.601314  1
  Cd  Cd21  1  0.000000  0.785577  0.398686  1
  Cd  Cd22  1  0.000000  0.214423  0.398686  1
  Cd  Cd23  1  0.714423  0.500000  0.898686  1
  P  P24  1  0.000000  0.500000  0.258469  1
  P  P25  1  0.000000  0.500000  0.758469  1
  P  P26  1  0.500000  0.000000  0.241531  1
  P  P27  1  0.500000  0.000000  0.741531  1
  P  P28  1  0.000000  0.000000  0.257292  1
  P  P29  1  0.500000  0.500000  0.757292  1
  P  P30  1  0.500000  0.500000  0.242708  1
  P  P31  1  0.000000  0.000000  0.742708  1
  P  P32  1  0.257546  0.742454  0.500000  1
  P  P33  1  0.757546  0.757546  0.000000  1
  P  P34  1  0.242454  0.242454  0.000000  1
  P  P35  1  0.742454  0.257546  0.500000  1
  P  P36  1  0.242454  0.757546  0.000000  1
  P  P37  1  0.742454  0.742454  0.500000  1
  P  P38  1  0.257546  0.257546  0.500000  1
  P  P39  1  0.757546  0.242454  0.000000  1
