# generated using pymatgen
data_CsB9H14
_symmetry_space_group_name_H-M   'P 1'
_cell_length_a   5.88278852
_cell_length_b   8.85134050
_cell_length_c   10.10432837
_cell_angle_alpha   87.65503552
_cell_angle_beta   82.43597733
_cell_angle_gamma   81.49496719
_symmetry_Int_Tables_number   1
_chemical_formula_structural   CsB9H14
_chemical_formula_sum   'Cs2 B18 H28'
_cell_volume   515.70072618
_cell_formula_units_Z   2
loop_
 _symmetry_equiv_pos_site_id
 _symmetry_equiv_pos_as_xyz
  1  'x, y, z'
loop_
 _atom_site_type_symbol
 _atom_site_label
 _atom_site_symmetry_multiplicity
 _atom_site_fract_x
 _atom_site_fract_y
 _atom_site_fract_z
 _atom_site_occupancy
  Cs  Cs0  1  0.916318  0.728742  0.207807  1
  Cs  Cs1  1  0.083682  0.271258  0.792193  1
  B  B2  1  0.747922  0.864626  0.583537  1
  B  B3  1  0.252078  0.135374  0.416463  1
  B  B4  1  0.656592  0.000908  0.727523  1
  B  B5  1  0.343408  0.999092  0.272477  1
  B  B6  1  0.715179  0.884125  0.879160  1
  B  B7  1  0.284821  0.115875  0.120840  1
  B  B8  1  0.531270  0.727518  0.913687  1
  B  B9  1  0.468730  0.272482  0.086313  1
  B  B10  1  0.612361  0.615846  0.747300  1
  B  B11  1  0.387639  0.384154  0.252700  1
  B  B12  1  0.597251  0.701629  0.585688  1
  B  B13  1  0.402749  0.298371  0.414312  1
  B  B14  1  0.885160  0.853326  0.726365  1
  B  B15  1  0.114840  0.146674  0.273635  1
  B  B16  1  0.814245  0.693104  0.827625  1
  B  B17  1  0.185755  0.306896  0.172375  1
  B  B18  1  0.855477  0.679548  0.649645  1
  B  B19  1  0.144523  0.320452  0.350355  1
  H  H20  1  0.527544  0.850855  0.574294  1
  H  H21  1  0.472456  0.149145  0.425706  1
  H  H22  1  0.432481  0.690170  0.684173  1
  H  H23  1  0.567519  0.309830  0.315827  1
  H  H24  1  0.828489  0.910238  0.477007  1
  H  H25  1  0.171511  0.089762  0.522993  1
  H  H26  1  0.450774  0.002151  0.730772  1
  H  H27  1  0.549226  0.997849  0.269228  1
  H  H28  1  0.713931  0.126714  0.711258  1
  H  H29  1  0.286069  0.873286  0.288742  1
  H  H30  1  0.494343  0.884037  0.914980  1
  H  H31  1  0.505657  0.115963  0.085020  1
  H  H32  1  0.798835  0.929725  0.969578  1
  H  H33  1  0.201165  0.070275  0.030422  1
  H  H34  1  0.339801  0.739116  0.878181  1
  H  H35  1  0.660199  0.260884  0.121819  1
  H  H36  1  0.530191  0.667588  0.022993  1
  H  H37  1  0.469809  0.332412  0.977007  1
  H  H38  1  0.573201  0.486601  0.760972  1
  H  H39  1  0.426799  0.513399  0.239028  1
  H  H40  1  0.979828  0.403048  0.402169  1
  H  H41  1  0.020172  0.596952  0.597831  1
  H  H42  1  0.050326  0.389558  0.112923  1
  H  H43  1  0.949674  0.610442  0.887077  1
  H  H44  1  0.925942  0.107967  0.282588  1
  H  H45  1  0.074058  0.892033  0.717412  1
  H  H46  1  0.445039  0.361822  0.508211  1
  H  H47  1  0.554961  0.638178  0.491789  1
