# generated using pymatgen
data_K2TeBr6
_symmetry_space_group_name_H-M   'P 1'
_cell_length_a   7.70141543
_cell_length_b   7.70141543
_cell_length_c   11.09744470
_cell_angle_alpha   90.00000000
_cell_angle_beta   90.00000000
_cell_angle_gamma   90.00000000
_symmetry_Int_Tables_number   1
_chemical_formula_structural   K2TeBr6
_chemical_formula_sum   'K4 Te2 Br12'
_cell_volume   658.20941640
_cell_formula_units_Z   2
loop_
 _symmetry_equiv_pos_site_id
 _symmetry_equiv_pos_as_xyz
  1  'x, y, z'
loop_
 _atom_site_type_symbol
 _atom_site_label
 _atom_site_symmetry_multiplicity
 _atom_site_fract_x
 _atom_site_fract_y
 _atom_site_fract_z
 _atom_site_occupancy
  K  K0  1  0.000000  0.500000  0.250000  1
  K  K1  1  0.500000  0.000000  0.750000  1
  K  K2  1  0.000000  0.500000  0.750000  1
  K  K3  1  0.500000  0.000000  0.250000  1
  Te  Te4  1  0.500000  0.500000  0.500000  1
  Te  Te5  1  0.000000  0.000000  0.000000  1
  Br  Br6  1  0.207517  0.298379  0.500000  1
  Br  Br7  1  0.792483  0.701621  0.500000  1
  Br  Br8  1  0.000000  0.000000  0.246491  1
  Br  Br9  1  0.500000  0.500000  0.253509  1
  Br  Br10  1  0.000000  0.000000  0.753509  1
  Br  Br11  1  0.500000  0.500000  0.746491  1
  Br  Br12  1  0.201621  0.292483  0.000000  1
  Br  Br13  1  0.707517  0.201621  0.000000  1
  Br  Br14  1  0.292483  0.798379  0.000000  1
  Br  Br15  1  0.701621  0.207517  0.500000  1
  Br  Br16  1  0.298379  0.792483  0.500000  1
  Br  Br17  1  0.798379  0.707517  0.000000  1
