# generated using pymatgen
data_LiSn2(PO4)3
_symmetry_space_group_name_H-M   'P 1'
_cell_length_a   8.58806549
_cell_length_b   8.86695259
_cell_length_c   14.89129030
_cell_angle_alpha   90.00000000
_cell_angle_beta   124.72334221
_cell_angle_gamma   90.00000000
_symmetry_Int_Tables_number   1
_chemical_formula_structural   LiSn2(PO4)3
_chemical_formula_sum   'Li4 Sn8 P12 O48'
_cell_volume   932.02467789
_cell_formula_units_Z   4
loop_
 _symmetry_equiv_pos_site_id
 _symmetry_equiv_pos_as_xyz
  1  'x, y, z'
loop_
 _atom_site_type_symbol
 _atom_site_label
 _atom_site_symmetry_multiplicity
 _atom_site_fract_x
 _atom_site_fract_y
 _atom_site_fract_z
 _atom_site_occupancy
  Li  Li0  1  0.011066  0.212442  0.822918  1
  Li  Li1  1  0.988934  0.712442  0.677082  1
  Li  Li2  1  0.011066  0.287558  0.322918  1
  Li  Li3  1  0.988934  0.787558  0.177082  1
  Sn  Sn4  1  0.630401  0.469428  0.382103  1
  Sn  Sn5  1  0.369599  0.969428  0.117897  1
  Sn  Sn6  1  0.857014  0.036094  0.609286  1
  Sn  Sn7  1  0.142986  0.536094  0.890714  1
  Sn  Sn8  1  0.857014  0.463906  0.109286  1
  Sn  Sn9  1  0.142986  0.963906  0.390714  1
  Sn  Sn10  1  0.630401  0.030572  0.882103  1
  Sn  Sn11  1  0.369599  0.530572  0.617897  1
  P  P12  1  0.542426  0.748829  0.507017  1
  P  P13  1  0.253667  0.620048  0.149785  1
  P  P14  1  0.965805  0.889946  0.854208  1
  P  P15  1  0.034195  0.389946  0.645792  1
  P  P16  1  0.746333  0.120048  0.350215  1
  P  P17  1  0.457574  0.248829  0.992983  1
  P  P18  1  0.542426  0.751171  0.007017  1
  P  P19  1  0.253667  0.879952  0.649785  1
  P  P20  1  0.965805  0.610054  0.354208  1
  P  P21  1  0.034195  0.110054  0.145792  1
  P  P22  1  0.746333  0.379952  0.850215  1
  P  P23  1  0.457574  0.251171  0.492983  1
  O  O24  1  0.186394  0.119645  0.122009  1
  O  O25  1  0.605187  0.127005  0.558668  1
  O  O26  1  0.467710  0.316275  0.400390  1
  O  O27  1  0.896595  0.412360  0.824711  1
  O  O28  1  0.515195  0.631333  0.423795  1
  O  O29  1  0.288358  0.791936  0.171888  1
  O  O30  1  0.163220  0.587307  0.028530  1
  O  O31  1  0.906213  0.008736  0.762652  1
  O  O32  1  0.988548  0.733879  0.814062  1
  O  O33  1  0.745518  0.819444  0.564379  1
  O  O34  1  0.429574  0.520859  0.220484  1
  O  O35  1  0.157936  0.944169  0.953273  1
  O  O36  1  0.842064  0.444169  0.546727  1
  O  O37  1  0.570426  0.020859  0.279516  1
  O  O38  1  0.254482  0.319444  0.935621  1
  O  O39  1  0.011452  0.233879  0.685938  1
  O  O40  1  0.093787  0.508736  0.737348  1
  O  O41  1  0.836780  0.087307  0.471470  1
  O  O42  1  0.711642  0.291936  0.328112  1
  O  O43  1  0.484805  0.131333  0.076205  1
  O  O44  1  0.103405  0.912360  0.675289  1
  O  O45  1  0.532290  0.816275  0.099610  1
  O  O46  1  0.813606  0.619645  0.377991  1
  O  O47  1  0.394813  0.627005  0.941332  1
  O  O48  1  0.605187  0.372995  0.058668  1
  O  O49  1  0.186394  0.380355  0.622009  1
  O  O50  1  0.467710  0.183725  0.900390  1
  O  O51  1  0.896595  0.087640  0.324711  1
  O  O52  1  0.515195  0.868667  0.923795  1
  O  O53  1  0.288358  0.708064  0.671888  1
  O  O54  1  0.163220  0.912693  0.528530  1
  O  O55  1  0.906213  0.491264  0.262652  1
  O  O56  1  0.988548  0.766121  0.314062  1
  O  O57  1  0.745518  0.680556  0.064379  1
  O  O58  1  0.429574  0.979141  0.720484  1
  O  O59  1  0.157936  0.555831  0.453273  1
  O  O60  1  0.842064  0.055831  0.046727  1
  O  O61  1  0.570426  0.479141  0.779516  1
  O  O62  1  0.254482  0.180556  0.435621  1
  O  O63  1  0.011452  0.266121  0.185938  1
  O  O64  1  0.093787  0.991264  0.237348  1
  O  O65  1  0.836780  0.412693  0.971470  1
  O  O66  1  0.711642  0.208064  0.828112  1
  O  O67  1  0.484805  0.368667  0.576205  1
  O  O68  1  0.103405  0.587640  0.175289  1
  O  O69  1  0.532290  0.683725  0.599610  1
  O  O70  1  0.394813  0.872995  0.441332  1
  O  O71  1  0.813606  0.880355  0.877991  1
