# generated using pymatgen
data_Sc3(NiGe)4
_symmetry_space_group_name_H-M   'P 1'
_cell_length_a   7.53759066
_cell_length_b   7.53759066
_cell_length_c   7.53759066
_cell_angle_alpha   149.86643674
_cell_angle_beta   127.76906402
_cell_angle_gamma   61.48832499
_symmetry_Int_Tables_number   1
_chemical_formula_structural   Sc3(NiGe)4
_chemical_formula_sum   'Sc3 Ni4 Ge4'
_cell_volume   168.45946385
_cell_formula_units_Z   1
loop_
 _symmetry_equiv_pos_site_id
 _symmetry_equiv_pos_as_xyz
  1  'x, y, z'
loop_
 _atom_site_type_symbol
 _atom_site_label
 _atom_site_symmetry_multiplicity
 _atom_site_fract_x
 _atom_site_fract_y
 _atom_site_fract_z
 _atom_site_occupancy
  Sc  Sc0  1  0.873471  0.373471  0.500000  1
  Sc  Sc1  1  0.126529  0.626529  0.500000  1
  Sc  Sc2  1  0.500000  0.500000  0.000000  1
  Ni  Ni3  1  0.480781  0.177291  0.303490  1
  Ni  Ni4  1  0.126198  0.822709  0.303490  1
  Ni  Ni5  1  0.519219  0.822709  0.696510  1
  Ni  Ni6  1  0.873802  0.177291  0.696510  1
  Ge  Ge7  1  0.281140  0.281140  0.000000  1
  Ge  Ge8  1  0.718860  0.718860  0.000000  1
  Ge  Ge9  1  0.804263  0.000000  0.804263  1
  Ge  Ge10  1  0.195737  0.000000  0.195737  1
