# generated using pymatgen
data_GePt2
_symmetry_space_group_name_H-M   'P 1'
_cell_length_a   6.78576534
_cell_length_b   6.78576534
_cell_length_c   3.57498009
_cell_angle_alpha   90.00000000
_cell_angle_beta   90.00000000
_cell_angle_gamma   120.00000000
_symmetry_Int_Tables_number   1
_chemical_formula_structural   GePt2
_chemical_formula_sum   'Ge3 Pt6'
_cell_volume   142.56139405
_cell_formula_units_Z   3
loop_
 _symmetry_equiv_pos_site_id
 _symmetry_equiv_pos_as_xyz
  1  'x, y, z'
loop_
 _atom_site_type_symbol
 _atom_site_label
 _atom_site_symmetry_multiplicity
 _atom_site_fract_x
 _atom_site_fract_y
 _atom_site_fract_z
 _atom_site_occupancy
  Ge  Ge0  1  0.666667  0.333333  0.000000  1
  Ge  Ge1  1  0.333333  0.666667  0.000000  1
  Ge  Ge2  1  0.000000  0.000000  0.500000  1
  Pt  Pt3  1  0.619238  0.000000  0.500000  1
  Pt  Pt4  1  0.380762  0.380762  0.500000  1
  Pt  Pt5  1  0.000000  0.619238  0.500000  1
  Pt  Pt6  1  0.000000  0.280558  0.000000  1
  Pt  Pt7  1  0.719442  0.719442  0.000000  1
  Pt  Pt8  1  0.280558  0.000000  0.000000  1
