# generated using pymatgen
data_Cs3CoBr5
_symmetry_space_group_name_H-M   'P 1'
_cell_length_a   10.38093311
_cell_length_b   10.38093311
_cell_length_c   10.38093311
_cell_angle_alpha   122.87050568
_cell_angle_beta   122.87050568
_cell_angle_gamma   85.09612377
_symmetry_Int_Tables_number   1
_chemical_formula_structural   Cs3CoBr5
_chemical_formula_sum   'Cs6 Co2 Br10'
_cell_volume   753.69756233
_cell_formula_units_Z   2
loop_
 _symmetry_equiv_pos_site_id
 _symmetry_equiv_pos_as_xyz
  1  'x, y, z'
loop_
 _atom_site_type_symbol
 _atom_site_label
 _atom_site_symmetry_multiplicity
 _atom_site_fract_x
 _atom_site_fract_y
 _atom_site_fract_z
 _atom_site_occupancy
  Cs  Cs0  1  0.250000  0.250000  0.000000  1
  Cs  Cs1  1  0.833342  0.333342  0.166684  1
  Cs  Cs2  1  0.333342  0.166658  0.500000  1
  Cs  Cs3  1  0.666658  0.833342  0.500000  1
  Cs  Cs4  1  0.166658  0.666658  0.833316  1
  Cs  Cs5  1  0.750000  0.750000  0.000000  1
  Co  Co6  1  0.750000  0.250000  0.500000  1
  Co  Co7  1  0.250000  0.750000  0.500000  1
  Br  Br8  1  0.480769  0.980769  0.774202  1
  Br  Br9  1  0.519231  0.019231  0.225798  1
  Br  Br10  1  0.206567  0.706567  0.225798  1
  Br  Br11  1  0.500000  0.500000  0.000000  1
  Br  Br12  1  0.980769  0.206567  0.500000  1
  Br  Br13  1  0.706567  0.480769  0.500000  1
  Br  Br14  1  0.000000  0.000000  0.000000  1
  Br  Br15  1  0.793433  0.293433  0.774202  1
  Br  Br16  1  0.293433  0.519231  0.500000  1
  Br  Br17  1  0.019231  0.793433  0.500000  1
