# generated using pymatgen
data_Zr3P
_symmetry_space_group_name_H-M   'P 1'
_cell_length_a   10.85866253
_cell_length_b   10.85866253
_cell_length_c   5.38075208
_cell_angle_alpha   90.00000000
_cell_angle_beta   90.00000000
_cell_angle_gamma   90.00000000
_symmetry_Int_Tables_number   1
_chemical_formula_structural   Zr3P
_chemical_formula_sum   'Zr24 P8'
_cell_volume   634.44744761
_cell_formula_units_Z   8
loop_
 _symmetry_equiv_pos_site_id
 _symmetry_equiv_pos_as_xyz
  1  'x, y, z'
loop_
 _atom_site_type_symbol
 _atom_site_label
 _atom_site_symmetry_multiplicity
 _atom_site_fract_x
 _atom_site_fract_y
 _atom_site_fract_z
 _atom_site_occupancy
  Zr  Zr0  1  0.027291  0.862832  0.278179  1
  Zr  Zr1  1  0.362832  0.472709  0.778179  1
  Zr  Zr2  1  0.637168  0.527291  0.778179  1
  Zr  Zr3  1  0.972709  0.137168  0.278179  1
  Zr  Zr4  1  0.472709  0.637168  0.221821  1
  Zr  Zr5  1  0.137168  0.027291  0.721821  1
  Zr  Zr6  1  0.862832  0.972709  0.721821  1
  Zr  Zr7  1  0.527291  0.362832  0.221821  1
  Zr  Zr8  1  0.284806  0.820550  0.984898  1
  Zr  Zr9  1  0.320550  0.215194  0.484898  1
  Zr  Zr10  1  0.679450  0.784806  0.484898  1
  Zr  Zr11  1  0.715194  0.179450  0.984898  1
  Zr  Zr12  1  0.215194  0.679450  0.515102  1
  Zr  Zr13  1  0.179450  0.284806  0.015102  1
  Zr  Zr14  1  0.820550  0.715194  0.015102  1
  Zr  Zr15  1  0.784806  0.320550  0.515102  1
  Zr  Zr16  1  0.892652  0.415210  0.037077  1
  Zr  Zr17  1  0.915210  0.607348  0.537077  1
  Zr  Zr18  1  0.084790  0.392652  0.537077  1
  Zr  Zr19  1  0.107348  0.584790  0.037077  1
  Zr  Zr20  1  0.607348  0.084790  0.462923  1
  Zr  Zr21  1  0.584790  0.892652  0.962923  1
  Zr  Zr22  1  0.415210  0.107348  0.962923  1
  Zr  Zr23  1  0.392652  0.915210  0.462923  1
  P  P24  1  0.540769  0.293531  0.713373  1
  P  P25  1  0.793531  0.959231  0.213373  1
  P  P26  1  0.206469  0.040769  0.213373  1
  P  P27  1  0.459231  0.706469  0.713373  1
  P  P28  1  0.959231  0.206469  0.786627  1
  P  P29  1  0.706469  0.540769  0.286627  1
  P  P30  1  0.293531  0.459231  0.286627  1
  P  P31  1  0.040769  0.793531  0.786627  1
