# generated using pymatgen
data_Na4Ga3Si3ClO12
_symmetry_space_group_name_H-M   'P 1'
_cell_length_a   9.05200533
_cell_length_b   9.05200533
_cell_length_c   9.05200533
_cell_angle_alpha   90.00000000
_cell_angle_beta   90.00000000
_cell_angle_gamma   90.00000000
_symmetry_Int_Tables_number   1
_chemical_formula_structural   Na4Ga3Si3ClO12
_chemical_formula_sum   'Na8 Ga6 Si6 Cl2 O24'
_cell_volume   741.71045881
_cell_formula_units_Z   2
loop_
 _symmetry_equiv_pos_site_id
 _symmetry_equiv_pos_as_xyz
  1  'x, y, z'
loop_
 _atom_site_type_symbol
 _atom_site_label
 _atom_site_symmetry_multiplicity
 _atom_site_fract_x
 _atom_site_fract_y
 _atom_site_fract_z
 _atom_site_occupancy
  Na  Na0  1  0.673261  0.326739  0.326739  1
  Na  Na1  1  0.326739  0.326739  0.673261  1
  Na  Na2  1  0.326739  0.673261  0.326739  1
  Na  Na3  1  0.173261  0.173261  0.173261  1
  Na  Na4  1  0.673261  0.673261  0.673261  1
  Na  Na5  1  0.826739  0.173261  0.826739  1
  Na  Na6  1  0.826739  0.826739  0.173261  1
  Na  Na7  1  0.173261  0.826739  0.826739  1
  Ga  Ga8  1  0.500000  0.250000  0.000000  1
  Ga  Ga9  1  0.500000  0.750000  0.000000  1
  Ga  Ga10  1  0.750000  0.000000  0.500000  1
  Ga  Ga11  1  0.000000  0.500000  0.250000  1
  Ga  Ga12  1  0.000000  0.500000  0.750000  1
  Ga  Ga13  1  0.250000  0.000000  0.500000  1
  Si  Si14  1  0.250000  0.500000  0.000000  1
  Si  Si15  1  0.500000  0.000000  0.750000  1
  Si  Si16  1  0.500000  0.000000  0.250000  1
  Si  Si17  1  0.750000  0.500000  0.000000  1
  Si  Si18  1  0.000000  0.250000  0.500000  1
  Si  Si19  1  0.000000  0.750000  0.500000  1
  Cl  Cl20  1  0.000000  0.000000  0.000000  1
  Cl  Cl21  1  0.500000  0.500000  0.500000  1
  O  O22  1  0.848509  0.427392  0.865657  1
  O  O23  1  0.634343  0.927392  0.651491  1
  O  O24  1  0.634343  0.072608  0.348509  1
  O  O25  1  0.927392  0.651491  0.634343  1
  O  O26  1  0.072608  0.651491  0.365657  1
  O  O27  1  0.651491  0.634343  0.927392  1
  O  O28  1  0.348509  0.365657  0.927392  1
  O  O29  1  0.865657  0.848509  0.427392  1
  O  O30  1  0.865657  0.151491  0.572608  1
  O  O31  1  0.134343  0.848509  0.572608  1
  O  O32  1  0.151491  0.572608  0.865657  1
  O  O33  1  0.572608  0.134343  0.848509  1
  O  O34  1  0.134343  0.151491  0.427392  1
  O  O35  1  0.365657  0.927392  0.348509  1
  O  O36  1  0.365657  0.072608  0.651491  1
  O  O37  1  0.072608  0.348509  0.634343  1
  O  O38  1  0.927392  0.348509  0.365657  1
  O  O39  1  0.651491  0.365657  0.072608  1
  O  O40  1  0.348509  0.634343  0.072608  1
  O  O41  1  0.572608  0.865657  0.151491  1
  O  O42  1  0.151491  0.427392  0.134343  1
  O  O43  1  0.848509  0.572608  0.134343  1
  O  O44  1  0.427392  0.865657  0.848509  1
  O  O45  1  0.427392  0.134343  0.151491  1
