# generated using pymatgen
data_UCl4
_symmetry_space_group_name_H-M   'P 1'
_cell_length_a   7.08209586
_cell_length_b   7.08209586
_cell_length_c   7.08209586
_cell_angle_alpha   107.58358752
_cell_angle_beta   107.58358752
_cell_angle_gamma   113.31627227
_symmetry_Int_Tables_number   1
_chemical_formula_structural   UCl4
_chemical_formula_sum   'U2 Cl8'
_cell_volume   272.51075942
_cell_formula_units_Z   2
loop_
 _symmetry_equiv_pos_site_id
 _symmetry_equiv_pos_as_xyz
  1  'x, y, z'
loop_
 _atom_site_type_symbol
 _atom_site_label
 _atom_site_symmetry_multiplicity
 _atom_site_fract_x
 _atom_site_fract_y
 _atom_site_fract_z
 _atom_site_occupancy
  U  U0  1  0.250000  0.750000  0.500000  1
  U  U1  1  0.000000  0.000000  0.000000  1
  Cl  Cl2  1  0.376896  0.066179  0.310718  1
  Cl  Cl3  1  0.316179  0.505461  0.189282  1
  Cl  Cl4  1  0.933821  0.244539  0.310718  1
  Cl  Cl5  1  0.873104  0.683821  0.189282  1
  Cl  Cl6  1  0.494539  0.683821  0.810718  1
  Cl  Cl7  1  0.933821  0.623104  0.689282  1
  Cl  Cl8  1  0.755461  0.066179  0.689282  1
  Cl  Cl9  1  0.316179  0.126896  0.810718  1
