# generated using pymatgen
data_Gd3(MnC3)2
_symmetry_space_group_name_H-M   'P 1'
_cell_length_a   8.08703116
_cell_length_b   8.08703116
_cell_length_c   5.07225973
_cell_angle_alpha   90.00000000
_cell_angle_beta   90.00000000
_cell_angle_gamma   120.00000000
_symmetry_Int_Tables_number   1
_chemical_formula_structural   Gd3(MnC3)2
_chemical_formula_sum   'Gd6 Mn4 C12'
_cell_volume   287.28327863
_cell_formula_units_Z   2
loop_
 _symmetry_equiv_pos_site_id
 _symmetry_equiv_pos_as_xyz
  1  'x, y, z'
loop_
 _atom_site_type_symbol
 _atom_site_label
 _atom_site_symmetry_multiplicity
 _atom_site_fract_x
 _atom_site_fract_y
 _atom_site_fract_z
 _atom_site_occupancy
  Gd  Gd0  1  0.620373  0.688543  0.750000  1
  Gd  Gd1  1  0.931830  0.620373  0.250000  1
  Gd  Gd2  1  0.688543  0.068170  0.250000  1
  Gd  Gd3  1  0.311457  0.931830  0.750000  1
  Gd  Gd4  1  0.068170  0.379627  0.750000  1
  Gd  Gd5  1  0.379627  0.311457  0.250000  1
  Mn  Mn6  1  0.000000  0.000000  0.500000  1
  Mn  Mn7  1  0.000000  0.000000  0.000000  1
  Mn  Mn8  1  0.666667  0.333333  0.750000  1
  Mn  Mn9  1  0.333333  0.666667  0.250000  1
  C  C10  1  0.959552  0.775497  0.750000  1
  C  C11  1  0.184055  0.959552  0.250000  1
  C  C12  1  0.775497  0.815945  0.250000  1
  C  C13  1  0.224503  0.184055  0.750000  1
  C  C14  1  0.815945  0.040448  0.750000  1
  C  C15  1  0.040448  0.224503  0.250000  1
  C  C16  1  0.862922  0.579750  0.750000  1
  C  C17  1  0.283171  0.862922  0.250000  1
  C  C18  1  0.579750  0.716829  0.250000  1
  C  C19  1  0.420250  0.283171  0.750000  1
  C  C20  1  0.137078  0.420250  0.250000  1
  C  C21  1  0.716829  0.137078  0.750000  1
