# generated using pymatgen
data_MgH2SO5
_symmetry_space_group_name_H-M   'P 1'
_cell_length_a   5.20429232
_cell_length_b   5.20429232
_cell_length_c   7.65709130
_cell_angle_alpha   73.50420073
_cell_angle_beta   106.49579927
_cell_angle_gamma   82.14817411
_symmetry_Int_Tables_number   1
_chemical_formula_structural   MgH2SO5
_chemical_formula_sum   'Mg2 H4 S2 O10'
_cell_volume   185.26983556
_cell_formula_units_Z   2
loop_
 _symmetry_equiv_pos_site_id
 _symmetry_equiv_pos_as_xyz
  1  'x, y, z'
loop_
 _atom_site_type_symbol
 _atom_site_label
 _atom_site_symmetry_multiplicity
 _atom_site_fract_x
 _atom_site_fract_y
 _atom_site_fract_z
 _atom_site_occupancy
  Mg  Mg0  1  0.500000  1.000000  0.500000  1
  Mg  Mg1  1  1.000000  0.500000  0.000000  1
  H  H2  1  0.952611  0.133467  0.292075  1
  H  H3  1  0.133467  0.952611  0.207925  1
  H  H4  1  0.047389  0.866533  0.707925  1
  H  H5  1  0.866533  0.047389  0.792075  1
  S  S6  1  0.410427  0.410427  0.750000  1
  S  S7  1  0.589573  0.589573  0.250000  1
  O  O8  1  0.273298  0.332176  0.894729  1
  O  O9  1  0.332176  0.273298  0.605271  1
  O  O10  1  0.726702  0.667824  0.105271  1
  O  O11  1  0.667824  0.726702  0.394729  1
  O  O12  1  0.325621  0.717915  0.653600  1
  O  O13  1  0.717915  0.325621  0.846400  1
  O  O14  1  0.674379  0.282085  0.346400  1
  O  O15  1  0.282085  0.674379  0.153600  1
  O  O16  1  0.882258  0.882258  0.750000  1
  O  O17  1  0.117742  0.117742  0.250000  1
