# generated using pymatgen
data_RbBiO2
_symmetry_space_group_name_H-M   'P 1'
_cell_length_a   6.00871623
_cell_length_b   6.00871623
_cell_length_c   6.09947397
_cell_angle_alpha   67.47566330
_cell_angle_beta   112.52433670
_cell_angle_gamma   86.17370635
_symmetry_Int_Tables_number   1
_chemical_formula_structural   RbBiO2
_chemical_formula_sum   'Rb2 Bi2 O4'
_cell_volume   181.92680697
_cell_formula_units_Z   2
loop_
 _symmetry_equiv_pos_site_id
 _symmetry_equiv_pos_as_xyz
  1  'x, y, z'
loop_
 _atom_site_type_symbol
 _atom_site_label
 _atom_site_symmetry_multiplicity
 _atom_site_fract_x
 _atom_site_fract_y
 _atom_site_fract_z
 _atom_site_occupancy
  Rb  Rb0  1  0.365301  0.365301  0.750000  1
  Rb  Rb1  1  0.634699  0.634699  0.250000  1
  Bi  Bi2  1  0.091264  0.091264  0.250000  1
  Bi  Bi3  1  0.908736  0.908736  0.750000  1
  O  O4  1  0.121926  0.753918  0.215085  1
  O  O5  1  0.753918  0.121926  0.284915  1
  O  O6  1  0.246082  0.878074  0.715085  1
  O  O7  1  0.878074  0.246082  0.784915  1
