# generated using pymatgen
data_Dy2(Ga3Ru)3
_symmetry_space_group_name_H-M   'P 1'
_cell_length_a   7.47974184
_cell_length_b   7.47974184
_cell_length_c   9.72756648
_cell_angle_alpha   90.00000000
_cell_angle_beta   90.00000000
_cell_angle_gamma   119.04164391
_symmetry_Int_Tables_number   1
_chemical_formula_structural   Dy2(Ga3Ru)3
_chemical_formula_sum   'Dy4 Ga18 Ru6'
_cell_volume   475.79685038
_cell_formula_units_Z   2
loop_
 _symmetry_equiv_pos_site_id
 _symmetry_equiv_pos_as_xyz
  1  'x, y, z'
loop_
 _atom_site_type_symbol
 _atom_site_label
 _atom_site_symmetry_multiplicity
 _atom_site_fract_x
 _atom_site_fract_y
 _atom_site_fract_z
 _atom_site_occupancy
  Dy  Dy0  1  0.324284  0.002167  0.750000  1
  Dy  Dy1  1  0.675716  0.997833  0.250000  1
  Dy  Dy2  1  0.002167  0.324284  0.750000  1
  Dy  Dy3  1  0.997833  0.675716  0.250000  1
  Ga  Ga4  1  0.866735  0.866735  0.750000  1
  Ga  Ga5  1  0.133265  0.133265  0.250000  1
  Ga  Ga6  1  0.662320  0.662320  0.438665  1
  Ga  Ga7  1  0.337680  0.337680  0.938665  1
  Ga  Ga8  1  0.662320  0.662320  0.061335  1
  Ga  Ga9  1  0.337680  0.337680  0.561335  1
  Ga  Ga10  1  0.444433  0.659769  0.750000  1
  Ga  Ga11  1  0.555567  0.340231  0.250000  1
  Ga  Ga12  1  0.659769  0.444433  0.750000  1
  Ga  Ga13  1  0.340231  0.555567  0.250000  1
  Ga  Ga14  1  0.009415  0.338193  0.077266  1
  Ga  Ga15  1  0.990585  0.661807  0.577266  1
  Ga  Ga16  1  0.338193  0.009415  0.422734  1
  Ga  Ga17  1  0.661807  0.990585  0.922734  1
  Ga  Ga18  1  0.990585  0.661807  0.922734  1
  Ga  Ga19  1  0.009415  0.338193  0.422734  1
  Ga  Ga20  1  0.661807  0.990585  0.577266  1
  Ga  Ga21  1  0.338193  0.009415  0.077266  1
  Ru  Ru22  1  0.000000  0.000000  0.500000  1
  Ru  Ru23  1  0.000000  0.000000  0.000000  1
  Ru  Ru24  1  0.676320  0.323680  0.500000  1
  Ru  Ru25  1  0.323680  0.676320  1.000000  1
  Ru  Ru26  1  0.323680  0.676320  0.500000  1
  Ru  Ru27  1  0.676320  0.323680  0.000000  1
