# generated using pymatgen
data_CsUCuTe3
_symmetry_space_group_name_H-M   'P 1'
_cell_length_a   8.95449684
_cell_length_b   8.95449684
_cell_length_c   11.29624323
_cell_angle_alpha   90.00000000
_cell_angle_beta   90.00000000
_cell_angle_gamma   151.73504857
_symmetry_Int_Tables_number   1
_chemical_formula_structural   CsUCuTe3
_chemical_formula_sum   'Cs2 U2 Cu2 Te6'
_cell_volume   428.92544601
_cell_formula_units_Z   2
loop_
 _symmetry_equiv_pos_site_id
 _symmetry_equiv_pos_as_xyz
  1  'x, y, z'
loop_
 _atom_site_type_symbol
 _atom_site_label
 _atom_site_symmetry_multiplicity
 _atom_site_fract_x
 _atom_site_fract_y
 _atom_site_fract_z
 _atom_site_occupancy
  Cs  Cs0  1  0.256506  0.743494  0.750000  1
  Cs  Cs1  1  0.743494  0.256506  0.250000  1
  U  U2  1  0.000000  0.000000  0.500000  1
  U  U3  1  0.000000  0.000000  0.000000  1
  Cu  Cu4  1  0.533149  0.466851  0.750000  1
  Cu  Cu5  1  0.466851  0.533149  0.250000  1
  Te  Te6  1  0.616805  0.383195  0.940870  1
  Te  Te7  1  0.383195  0.616805  0.440870  1
  Te  Te8  1  0.383195  0.616805  0.059130  1
  Te  Te9  1  0.616805  0.383195  0.559130  1
  Te  Te10  1  0.056585  0.943415  0.250000  1
  Te  Te11  1  0.943415  0.056585  0.750000  1
