# generated using pymatgen
data_MgH10(SeO5)2
_symmetry_space_group_name_H-M   'P 1'
_cell_length_a   8.33060244
_cell_length_b   8.33060244
_cell_length_c   11.19873227
_cell_angle_alpha   57.02995809
_cell_angle_beta   122.97004191
_cell_angle_gamma   125.35585839
_symmetry_Int_Tables_number   1
_chemical_formula_structural   MgH10(SeO5)2
_chemical_formula_sum   'Mg2 H20 Se4 O20'
_cell_volume   501.02107826
_cell_formula_units_Z   2
loop_
 _symmetry_equiv_pos_site_id
 _symmetry_equiv_pos_as_xyz
  1  'x, y, z'
loop_
 _atom_site_type_symbol
 _atom_site_label
 _atom_site_symmetry_multiplicity
 _atom_site_fract_x
 _atom_site_fract_y
 _atom_site_fract_z
 _atom_site_occupancy
  Mg  Mg0  1  0.964627  0.964627  0.250000  1
  Mg  Mg1  1  0.035373  0.035373  0.750000  1
  H  H2  1  0.743863  0.397521  0.056205  1
  H  H3  1  0.397521  0.743863  0.443795  1
  H  H4  1  0.256137  0.602479  0.943795  1
  H  H5  1  0.602479  0.256137  0.556205  1
  H  H6  1  0.742151  0.286320  0.975896  1
  H  H7  1  0.286320  0.742151  0.524104  1
  H  H8  1  0.438506  0.320073  0.833315  1
  H  H9  1  0.320073  0.438506  0.666685  1
  H  H10  1  0.561494  0.679927  0.166685  1
  H  H11  1  0.679927  0.561494  0.333315  1
  H  H12  1  0.751221  0.626648  0.830804  1
  H  H13  1  0.626648  0.751221  0.669196  1
  H  H14  1  0.248779  0.373352  0.169196  1
  H  H15  1  0.373352  0.248779  0.330804  1
  H  H16  1  0.588092  0.947668  0.278412  1
  H  H17  1  0.947668  0.588092  0.221588  1
  H  H18  1  0.411908  0.052332  0.721588  1
  H  H19  1  0.052332  0.411908  0.778412  1
  H  H20  1  0.257849  0.713680  0.024104  1
  H  H21  1  0.713680  0.257849  0.475896  1
  Se  Se22  1  0.734788  0.009427  0.885202  1
  Se  Se23  1  0.009427  0.734788  0.614798  1
  Se  Se24  1  0.990573  0.265212  0.385202  1
  Se  Se25  1  0.265212  0.990573  0.114798  1
  O  O26  1  0.698180  0.698180  0.250000  1
  O  O27  1  0.301820  0.301820  0.750000  1
  O  O28  1  0.617912  0.310771  0.457435  1
  O  O29  1  0.310771  0.617912  0.042565  1
  O  O30  1  0.382088  0.689229  0.542565  1
  O  O31  1  0.689229  0.382088  0.957435  1
  O  O32  1  0.434704  0.855918  0.269980  1
  O  O33  1  0.855918  0.434704  0.230020  1
  O  O34  1  0.565296  0.144082  0.730020  1
  O  O35  1  0.144082  0.565296  0.769980  1
  O  O36  1  0.178981  0.891458  0.982178  1
  O  O37  1  0.891458  0.178981  0.517822  1
  O  O38  1  0.821019  0.108542  0.017822  1
  O  O39  1  0.108542  0.821019  0.482178  1
  O  O40  1  0.157392  0.932780  0.687544  1
  O  O41  1  0.932780  0.157392  0.812456  1
  O  O42  1  0.842608  0.067220  0.312456  1
  O  O43  1  0.067220  0.842608  0.187544  1
  O  O44  1  0.766677  0.766677  0.750000  1
  O  O45  1  0.233323  0.233323  0.250000  1
