# generated using pymatgen
data_PWO4F
_symmetry_space_group_name_H-M   'P 1'
_cell_length_a   5.38158661
_cell_length_b   5.38506819
_cell_length_c   7.72598663
_cell_angle_alpha   106.32328627
_cell_angle_beta   109.04388743
_cell_angle_gamma   94.97538706
_symmetry_Int_Tables_number   1
_chemical_formula_structural   PWO4F
_chemical_formula_sum   'P2 W2 O8 F2'
_cell_volume   199.14728544
_cell_formula_units_Z   2
loop_
 _symmetry_equiv_pos_site_id
 _symmetry_equiv_pos_as_xyz
  1  'x, y, z'
loop_
 _atom_site_type_symbol
 _atom_site_label
 _atom_site_symmetry_multiplicity
 _atom_site_fract_x
 _atom_site_fract_y
 _atom_site_fract_z
 _atom_site_occupancy
  P  P0  1  0.885040  0.574863  0.238035  1
  P  P1  1  0.114960  0.425137  0.761965  1
  W  W2  1  0.000000  0.000000  0.000000  1
  W  W3  1  0.500000  0.500000  0.500000  1
  O  O4  1  0.186420  0.721676  0.884330  1
  O  O5  1  0.155696  0.260398  0.899168  1
  O  O6  1  0.821212  0.346445  0.615507  1
  O  O7  1  0.304180  0.364363  0.650234  1
  O  O8  1  0.844304  0.739602  0.100832  1
  O  O9  1  0.178788  0.653555  0.384493  1
  O  O10  1  0.695820  0.635637  0.349766  1
  O  O11  1  0.813580  0.278324  0.115670  1
  F  F12  1  0.671099  0.853309  0.735201  1
  F  F13  1  0.328901  0.146691  0.264799  1
