# generated using pymatgen
data_Cs(SO2)2
_symmetry_space_group_name_H-M   'P 1'
_cell_length_a   7.84812731
_cell_length_b   16.00406500
_cell_length_c   9.85507915
_cell_angle_alpha   90.00000000
_cell_angle_beta   98.40710825
_cell_angle_gamma   90.00000000
_symmetry_Int_Tables_number   1
_chemical_formula_structural   Cs(SO2)2
_chemical_formula_sum   'Cs8 S16 O32'
_cell_volume   1224.51572403
_cell_formula_units_Z   8
loop_
 _symmetry_equiv_pos_site_id
 _symmetry_equiv_pos_as_xyz
  1  'x, y, z'
loop_
 _atom_site_type_symbol
 _atom_site_label
 _atom_site_symmetry_multiplicity
 _atom_site_fract_x
 _atom_site_fract_y
 _atom_site_fract_z
 _atom_site_occupancy
  Cs  Cs0  1  0.838029  0.399423  0.590496  1
  Cs  Cs1  1  0.661971  0.899423  0.409504  1
  Cs  Cs2  1  0.161971  0.600577  0.409504  1
  Cs  Cs3  1  0.338029  0.100577  0.590496  1
  Cs  Cs4  1  0.285412  0.600052  0.919995  1
  Cs  Cs5  1  0.214588  0.100052  0.080005  1
  Cs  Cs6  1  0.714588  0.399948  0.080005  1
  Cs  Cs7  1  0.785412  0.899948  0.919995  1
  S  S8  1  0.268387  0.826091  0.678602  1
  S  S9  1  0.231613  0.326091  0.321398  1
  S  S10  1  0.731613  0.173909  0.321398  1
  S  S11  1  0.768387  0.673909  0.678602  1
  S  S12  1  0.372886  0.398078  0.679029  1
  S  S13  1  0.127114  0.898078  0.320971  1
  S  S14  1  0.627114  0.601922  0.320971  1
  S  S15  1  0.872886  0.101922  0.679029  1
  S  S16  1  0.251764  0.301698  0.781682  1
  S  S17  1  0.248236  0.801698  0.218318  1
  S  S18  1  0.748236  0.698302  0.218318  1
  S  S19  1  0.751764  0.198302  0.781682  1
  S  S20  1  0.165699  0.365737  0.952701  1
  S  S21  1  0.334301  0.865737  0.047299  1
  S  S22  1  0.834301  0.634263  0.047299  1
  S  S23  1  0.665699  0.134263  0.952701  1
  O  O24  1  0.407705  0.884052  0.663428  1
  O  O25  1  0.092295  0.384052  0.336572  1
  O  O26  1  0.592295  0.115948  0.336572  1
  O  O27  1  0.907705  0.615948  0.663428  1
  O  O28  1  0.302337  0.738335  0.654332  1
  O  O29  1  0.197663  0.238335  0.345668  1
  O  O30  1  0.697663  0.261665  0.345668  1
  O  O31  1  0.802337  0.761665  0.654332  1
  O  O32  1  0.525592  0.426731  0.770112  1
  O  O33  1  0.974408  0.926731  0.229888  1
  O  O34  1  0.474408  0.573269  0.229888  1
  O  O35  1  0.025592  0.073269  0.770112  1
  O  O36  1  0.416423  0.349730  0.560842  1
  O  O37  1  0.083577  0.849730  0.439158  1
  O  O38  1  0.583577  0.650270  0.439158  1
  O  O39  1  0.916423  0.150270  0.560842  1
  O  O40  1  0.243552  0.463644  0.642247  1
  O  O41  1  0.256448  0.963644  0.357753  1
  O  O42  1  0.756448  0.536356  0.357753  1
  O  O43  1  0.743552  0.036356  0.642247  1
  O  O44  1  0.313105  0.413362  0.020152  1
  O  O45  1  0.186895  0.913362  0.979848  1
  O  O46  1  0.686895  0.586638  0.979848  1
  O  O47  1  0.813105  0.086638  0.020152  1
  O  O48  1  0.519799  0.082267  0.893626  1
  O  O49  1  0.980201  0.582267  0.106374  1
  O  O50  1  0.480201  0.917733  0.106374  1
  O  O51  1  0.019799  0.417733  0.893626  1
  O  O52  1  0.617070  0.205421  0.033131  1
  O  O53  1  0.882930  0.705421  0.966869  1
  O  O54  1  0.382930  0.794579  0.966869  1
  O  O55  1  0.117070  0.294579  0.033131  1
