# generated using pymatgen
data_PtCl2
_symmetry_space_group_name_H-M   'P 1'
_cell_length_a   8.62061374
_cell_length_b   8.62061374
_cell_length_c   8.62061374
_cell_angle_alpha   108.12969156
_cell_angle_beta   108.12969156
_cell_angle_gamma   108.12969156
_symmetry_Int_Tables_number   1
_chemical_formula_structural   PtCl2
_chemical_formula_sum   'Pt6 Cl12'
_cell_volume   516.20821103
_cell_formula_units_Z   6
loop_
 _symmetry_equiv_pos_site_id
 _symmetry_equiv_pos_as_xyz
  1  'x, y, z'
loop_
 _atom_site_type_symbol
 _atom_site_label
 _atom_site_symmetry_multiplicity
 _atom_site_fract_x
 _atom_site_fract_y
 _atom_site_fract_z
 _atom_site_occupancy
  Pt  Pt0  1  0.687790  0.928969  0.928969  1
  Pt  Pt1  1  0.928969  0.687790  0.928969  1
  Pt  Pt2  1  0.928969  0.928969  0.687790  1
  Pt  Pt3  1  0.071031  0.071031  0.312210  1
  Pt  Pt4  1  0.312210  0.071031  0.071031  1
  Pt  Pt5  1  0.071031  0.312210  0.071031  1
  Cl  Cl6  1  0.764771  0.000000  0.235229  1
  Cl  Cl7  1  0.235229  0.764771  0.000000  1
  Cl  Cl8  1  0.000000  0.235229  0.764771  1
  Cl  Cl9  1  0.235229  0.000000  0.764771  1
  Cl  Cl10  1  0.764771  0.235229  0.000000  1
  Cl  Cl11  1  0.000000  0.764771  0.235229  1
  Cl  Cl12  1  0.373882  0.137479  0.373882  1
  Cl  Cl13  1  0.137479  0.373882  0.373882  1
  Cl  Cl14  1  0.373882  0.373882  0.137479  1
  Cl  Cl15  1  0.626118  0.626118  0.862521  1
  Cl  Cl16  1  0.626118  0.862521  0.626118  1
  Cl  Cl17  1  0.862521  0.626118  0.626118  1
