# generated using pymatgen
data_P4SO6
_symmetry_space_group_name_H-M   'P 1'
_cell_length_a   8.48213211
_cell_length_b   9.78681719
_cell_length_c   10.31065895
_cell_angle_alpha   90.00000000
_cell_angle_beta   90.11266935
_cell_angle_gamma   90.00000000
_symmetry_Int_Tables_number   1
_chemical_formula_structural   P4SO6
_chemical_formula_sum   'P16 S4 O24'
_cell_volume   855.91786329
_cell_formula_units_Z   4
loop_
 _symmetry_equiv_pos_site_id
 _symmetry_equiv_pos_as_xyz
  1  'x, y, z'
loop_
 _atom_site_type_symbol
 _atom_site_label
 _atom_site_symmetry_multiplicity
 _atom_site_fract_x
 _atom_site_fract_y
 _atom_site_fract_z
 _atom_site_occupancy
  P  P0  1  0.185090  0.489747  0.879575  1
  P  P1  1  0.814910  0.989747  0.620425  1
  P  P2  1  0.814910  0.510253  0.120425  1
  P  P3  1  0.185090  0.010253  0.379575  1
  P  P4  1  0.195647  0.300681  0.654282  1
  P  P5  1  0.804353  0.800681  0.845718  1
  P  P6  1  0.804353  0.699319  0.345718  1
  P  P7  1  0.195647  0.199319  0.154282  1
  P  P8  1  0.205658  0.601653  0.611689  1
  P  P9  1  0.794342  0.101653  0.888311  1
  P  P10  1  0.794342  0.398347  0.388311  1
  P  P11  1  0.205658  0.898347  0.111689  1
  P  P12  1  0.473401  0.458986  0.728209  1
  P  P13  1  0.526599  0.958986  0.771791  1
  P  P14  1  0.526599  0.541014  0.271791  1
  P  P15  1  0.473401  0.041014  0.228209  1
  S  S16  1  0.696671  0.453819  0.739099  1
  S  S17  1  0.303329  0.953819  0.760901  1
  S  S18  1  0.303329  0.546181  0.260901  1
  S  S19  1  0.696671  0.046181  0.239099  1
  O  O20  1  0.154763  0.442640  0.572779  1
  O  O21  1  0.845237  0.942640  0.927221  1
  O  O22  1  0.845237  0.557360  0.427221  1
  O  O23  1  0.154763  0.057360  0.072779  1
  O  O24  1  0.145617  0.604431  0.765546  1
  O  O25  1  0.854383  0.104431  0.734454  1
  O  O26  1  0.854383  0.395569  0.234454  1
  O  O27  1  0.145617  0.895569  0.265546  1
  O  O28  1  0.138013  0.345835  0.802472  1
  O  O29  1  0.861987  0.845835  0.697528  1
  O  O30  1  0.861987  0.654165  0.197528  1
  O  O31  1  0.138013  0.154165  0.302472  1
  O  O32  1  0.392412  0.321561  0.672022  1
  O  O33  1  0.607588  0.821561  0.827978  1
  O  O34  1  0.607588  0.678439  0.327978  1
  O  O35  1  0.392412  0.178439  0.172022  1
  O  O36  1  0.383157  0.482292  0.864424  1
  O  O37  1  0.616843  0.982292  0.635576  1
  O  O38  1  0.616843  0.517708  0.135576  1
  O  O39  1  0.383157  0.017708  0.364424  1
  O  O40  1  0.401092  0.922492  0.136497  1
  O  O41  1  0.598908  0.422492  0.363503  1
  O  O42  1  0.598908  0.077508  0.863503  1
  O  O43  1  0.401092  0.577508  0.636497  1
