# generated using pymatgen
data_K2Si2O5
_symmetry_space_group_name_H-M   'P 1'
_cell_length_a   10.10588920
_cell_length_b   10.10588920
_cell_length_c   10.10100442
_cell_angle_alpha   68.61792177
_cell_angle_beta   111.38207823
_cell_angle_gamma   111.18243668
_symmetry_Int_Tables_number   1
_chemical_formula_structural   K2Si2O5
_chemical_formula_sum   'K12 Si12 O30'
_cell_volume   862.88677739
_cell_formula_units_Z   6
loop_
 _symmetry_equiv_pos_site_id
 _symmetry_equiv_pos_as_xyz
  1  'x, y, z'
loop_
 _atom_site_type_symbol
 _atom_site_label
 _atom_site_symmetry_multiplicity
 _atom_site_fract_x
 _atom_site_fract_y
 _atom_site_fract_z
 _atom_site_occupancy
  K  K0  1  0.900815  0.615235  0.929918  1
  K  K1  1  0.384765  0.099185  0.429918  1
  K  K2  1  0.165391  0.286227  0.623912  1
  K  K3  1  0.713773  0.834609  0.123912  1
  K  K4  1  0.797366  0.231052  0.021207  1
  K  K5  1  0.768948  0.202634  0.521207  1
  K  K6  1  0.038754  0.435129  0.783306  1
  K  K7  1  0.564871  0.961246  0.283306  1
  K  K8  1  0.316270  0.637935  0.966439  1
  K  K9  1  0.362065  0.683730  0.466439  1
  K  K10  1  0.855894  0.675997  0.520560  1
  K  K11  1  0.324003  0.144106  0.020560  1
  Si  Si12  1  0.513202  0.514000  0.325960  1
  Si  Si13  1  0.615106  0.845773  0.736909  1
  Si  Si14  1  0.154227  0.384894  0.236909  1
  Si  Si15  1  0.954739  0.993970  0.874851  1
  Si  Si16  1  0.006030  0.045261  0.374851  1
  Si  Si17  1  0.090176  0.874304  0.221074  1
  Si  Si18  1  0.125696  0.909824  0.721074  1
  Si  Si19  1  0.477928  0.026028  0.824169  1
  Si  Si20  1  0.973972  0.522072  0.324169  1
  Si  Si21  1  0.639264  0.396850  0.167067  1
  Si  Si22  1  0.603150  0.360736  0.667067  1
  Si  Si23  1  0.486000  0.486798  0.825960  1
  O  O24  1  0.525453  0.883556  0.823748  1
  O  O25  1  0.518224  0.030280  0.989792  1
  O  O26  1  0.969720  0.481776  0.489792  1
  O  O27  1  0.823137  0.436080  0.217180  1
  O  O28  1  0.563920  0.176863  0.717180  1
  O  O29  1  0.076568  0.938414  0.847093  1
  O  O30  1  0.061586  0.923432  0.347093  1
  O  O31  1  0.560379  0.234116  0.242749  1
  O  O32  1  0.765884  0.439621  0.742749  1
  O  O33  1  0.584058  0.929762  0.566901  1
  O  O34  1  0.070238  0.415942  0.066901  1
  O  O35  1  0.261694  0.904718  0.246360  1
  O  O36  1  0.127450  0.209479  0.339163  1
  O  O37  1  0.790521  0.872550  0.839163  1
  O  O38  1  0.034418  0.998755  0.557748  1
  O  O39  1  0.001245  0.965582  0.057748  1
  O  O40  1  0.567386  0.393653  0.484613  1
  O  O41  1  0.606347  0.432614  0.984613  1
  O  O42  1  0.478938  0.407285  0.702600  1
  O  O43  1  0.592715  0.521062  0.202600  1
  O  O44  1  0.840321  0.041365  0.286207  1
  O  O45  1  0.958635  0.159679  0.786207  1
  O  O46  1  0.555333  0.676928  0.339169  1
  O  O47  1  0.323072  0.444667  0.839169  1
  O  O48  1  0.335240  0.442080  0.263280  1
  O  O49  1  0.557920  0.664760  0.763280  1
  O  O50  1  0.116444  0.474547  0.323748  1
  O  O51  1  0.992119  0.699470  0.233357  1
  O  O52  1  0.300530  0.007881  0.733357  1
  O  O53  1  0.095282  0.738306  0.746360  1
