# generated using pymatgen
data_WBr5
_symmetry_space_group_name_H-M   'P 1'
_cell_length_a   14.15930120
_cell_length_b   14.15930120
_cell_length_c   6.46925022
_cell_angle_alpha   89.80895735
_cell_angle_beta   90.19104265
_cell_angle_gamma   94.22115666
_symmetry_Int_Tables_number   1
_chemical_formula_structural   WBr5
_chemical_formula_sum   'W6 Br30'
_cell_volume   1293.46121211
_cell_formula_units_Z   6
loop_
 _symmetry_equiv_pos_site_id
 _symmetry_equiv_pos_as_xyz
  1  'x, y, z'
loop_
 _atom_site_type_symbol
 _atom_site_label
 _atom_site_symmetry_multiplicity
 _atom_site_fract_x
 _atom_site_fract_y
 _atom_site_fract_z
 _atom_site_occupancy
  W  W0  1  0.440065  0.773549  0.519113  1
  W  W1  1  0.773549  0.440065  0.480887  1
  W  W2  1  0.559935  0.226451  0.480887  1
  W  W3  1  0.226451  0.559935  0.519113  1
  W  W4  1  0.106529  0.106529  0.000000  1
  W  W5  1  0.893471  0.893471  0.000000  1
  Br  Br6  1  0.526678  0.666865  0.737657  1
  Br  Br7  1  0.666865  0.526678  0.262343  1
  Br  Br8  1  0.473322  0.333135  0.262343  1
  Br  Br9  1  0.333135  0.473322  0.737657  1
  Br  Br10  1  0.572836  0.803698  0.284568  1
  Br  Br11  1  0.803698  0.572836  0.715432  1
  Br  Br12  1  0.047815  0.952185  0.220070  1
  Br  Br13  1  0.952185  0.047815  0.779930  1
  Br  Br14  1  0.861786  0.760054  0.234136  1
  Br  Br15  1  0.760054  0.861786  0.765864  1
  Br  Br16  1  0.138214  0.239946  0.765864  1
  Br  Br17  1  0.239946  0.138214  0.234136  1
  Br  Br18  1  0.000688  0.807829  0.784239  1
  Br  Br19  1  0.807829  0.000688  0.215761  1
  Br  Br20  1  0.999312  0.192171  0.215761  1
  Br  Br21  1  0.192171  0.999312  0.784239  1
  Br  Br22  1  0.285843  0.714157  0.736447  1
  Br  Br23  1  0.714157  0.285843  0.263553  1
  Br  Br24  1  0.092626  0.528980  0.750013  1
  Br  Br25  1  0.528980  0.092626  0.249987  1
  Br  Br26  1  0.907374  0.471020  0.249987  1
  Br  Br27  1  0.471020  0.907374  0.750013  1
  Br  Br28  1  0.140500  0.666992  0.299451  1
  Br  Br29  1  0.666992  0.140500  0.700549  1
  Br  Br30  1  0.859500  0.333008  0.700549  1
  Br  Br31  1  0.333008  0.859500  0.299451  1
  Br  Br32  1  0.380686  0.619314  0.302121  1
  Br  Br33  1  0.619314  0.380686  0.697879  1
  Br  Br34  1  0.196302  0.427164  0.284568  1
  Br  Br35  1  0.427164  0.196302  0.715432  1
