# generated using pymatgen
data_KClO4
_symmetry_space_group_name_H-M   'P 1'
_cell_length_a   5.79013448
_cell_length_b   7.41812879
_cell_length_c   9.02232637
_cell_angle_alpha   90.00000000
_cell_angle_beta   90.00000000
_cell_angle_gamma   90.00000000
_symmetry_Int_Tables_number   1
_chemical_formula_structural   KClO4
_chemical_formula_sum   'K4 Cl4 O16'
_cell_volume   387.52663098
_cell_formula_units_Z   4
loop_
 _symmetry_equiv_pos_site_id
 _symmetry_equiv_pos_as_xyz
  1  'x, y, z'
loop_
 _atom_site_type_symbol
 _atom_site_label
 _atom_site_symmetry_multiplicity
 _atom_site_fract_x
 _atom_site_fract_y
 _atom_site_fract_z
 _atom_site_occupancy
  K  K0  1  0.250000  0.161165  0.680139  1
  K  K1  1  0.750000  0.838835  0.319861  1
  K  K2  1  0.750000  0.661165  0.819861  1
  K  K3  1  0.250000  0.338835  0.180139  1
  Cl  Cl4  1  0.250000  0.688429  0.569517  1
  Cl  Cl5  1  0.750000  0.311571  0.430483  1
  Cl  Cl6  1  0.750000  0.188429  0.930483  1
  Cl  Cl7  1  0.250000  0.811571  0.069517  1
  O  O8  1  0.250000  0.595432  0.427938  1
  O  O9  1  0.750000  0.404568  0.572062  1
  O  O10  1  0.750000  0.095432  0.072062  1
  O  O11  1  0.250000  0.904568  0.927938  1
  O  O12  1  0.543948  0.196443  0.419195  1
  O  O13  1  0.043948  0.803557  0.580805  1
  O  O14  1  0.456052  0.696443  0.080805  1
  O  O15  1  0.956052  0.303557  0.919195  1
  O  O16  1  0.250000  0.940607  0.191849  1
  O  O17  1  0.750000  0.059393  0.808151  1
  O  O18  1  0.750000  0.440607  0.308151  1
  O  O19  1  0.250000  0.559393  0.691849  1
  O  O20  1  0.043948  0.696443  0.080805  1
  O  O21  1  0.543948  0.303557  0.919195  1
  O  O22  1  0.956052  0.196443  0.419195  1
  O  O23  1  0.456052  0.803557  0.580805  1
