# generated using pymatgen
data_Sm2SCl4
_symmetry_space_group_name_H-M   'P 1'
_cell_length_a   8.33265919
_cell_length_b   8.33265919
_cell_length_c   7.05648711
_cell_angle_alpha   82.58814414
_cell_angle_beta   97.41185586
_cell_angle_gamma   134.20753188
_symmetry_Int_Tables_number   1
_chemical_formula_structural   Sm2SCl4
_chemical_formula_sum   'Sm4 S2 Cl8'
_cell_volume   347.74814203
_cell_formula_units_Z   2
loop_
 _symmetry_equiv_pos_site_id
 _symmetry_equiv_pos_as_xyz
  1  'x, y, z'
loop_
 _atom_site_type_symbol
 _atom_site_label
 _atom_site_symmetry_multiplicity
 _atom_site_fract_x
 _atom_site_fract_y
 _atom_site_fract_z
 _atom_site_occupancy
  Sm  Sm0  1  0.314551  0.100801  0.577281  1
  Sm  Sm1  1  0.100801  0.314551  0.922719  1
  Sm  Sm2  1  0.685449  0.899199  0.422719  1
  Sm  Sm3  1  0.899199  0.685449  0.077281  1
  S  S4  1  0.063051  0.063051  0.250000  1
  S  S5  1  0.936949  0.936949  0.750000  1
  Cl  Cl6  1  0.691743  0.515705  0.423925  1
  Cl  Cl7  1  0.515705  0.691743  0.076075  1
  Cl  Cl8  1  0.308257  0.484295  0.576075  1
  Cl  Cl9  1  0.484295  0.308257  0.923925  1
  Cl  Cl10  1  0.299686  0.860787  0.321053  1
  Cl  Cl11  1  0.860787  0.299686  0.178947  1
  Cl  Cl12  1  0.700314  0.139213  0.678947  1
  Cl  Cl13  1  0.139213  0.700314  0.821053  1
