# generated using pymatgen
data_Gd2B5
_symmetry_space_group_name_H-M   'P 1'
_cell_length_a   7.14948177
_cell_length_b   7.14988599
_cell_length_c   7.17729630
_cell_angle_alpha   90.00000000
_cell_angle_beta   102.58117652
_cell_angle_gamma   90.00000000
_symmetry_Int_Tables_number   1
_chemical_formula_structural   Gd2B5
_chemical_formula_sum   'Gd8 B20'
_cell_volume   358.07928739
_cell_formula_units_Z   4
loop_
 _symmetry_equiv_pos_site_id
 _symmetry_equiv_pos_as_xyz
  1  'x, y, z'
loop_
 _atom_site_type_symbol
 _atom_site_label
 _atom_site_symmetry_multiplicity
 _atom_site_fract_x
 _atom_site_fract_y
 _atom_site_fract_z
 _atom_site_occupancy
  Gd  Gd0  1  0.758504  0.315554  0.744438  1
  Gd  Gd1  1  0.241496  0.815554  0.755562  1
  Gd  Gd2  1  0.241496  0.684446  0.255562  1
  Gd  Gd3  1  0.758504  0.184446  0.244438  1
  Gd  Gd4  1  0.766922  0.691401  0.371548  1
  Gd  Gd5  1  0.233078  0.191401  0.128452  1
  Gd  Gd6  1  0.233078  0.308599  0.628452  1
  Gd  Gd7  1  0.766922  0.808599  0.871548  1
  B  B8  1  0.315168  0.501715  0.960806  1
  B  B9  1  0.684832  0.001715  0.539194  1
  B  B10  1  0.684832  0.498285  0.039194  1
  B  B11  1  0.315168  0.998285  0.460806  1
  B  B12  1  0.923200  0.491684  0.071036  1
  B  B13  1  0.076800  0.991684  0.428964  1
  B  B14  1  0.076800  0.508316  0.928964  1
  B  B15  1  0.923200  0.008316  0.571036  1
  B  B16  1  0.496998  0.326640  0.959995  1
  B  B17  1  0.503002  0.826640  0.540005  1
  B  B18  1  0.503002  0.673360  0.040005  1
  B  B19  1  0.496998  0.173360  0.459995  1
  B  B20  1  0.499849  0.910116  0.090024  1
  B  B21  1  0.500151  0.410116  0.409976  1
  B  B22  1  0.500151  0.089884  0.909976  1
  B  B23  1  0.499849  0.589884  0.590024  1
  B  B24  1  0.496918  0.961162  0.326106  1
  B  B25  1  0.503082  0.461162  0.173894  1
  B  B26  1  0.503082  0.038838  0.673894  1
  B  B27  1  0.496918  0.538838  0.826106  1
