# generated using pymatgen
data_CdAs2HF13
_symmetry_space_group_name_H-M   'P 1'
_cell_length_a   9.63407676
_cell_length_b   9.55856873
_cell_length_c   10.79596986
_cell_angle_alpha   90.00000000
_cell_angle_beta   104.55292805
_cell_angle_gamma   90.00000000
_symmetry_Int_Tables_number   1
_chemical_formula_structural   CdAs2HF13
_chemical_formula_sum   'Cd4 As8 H4 F52'
_cell_volume   962.28180033
_cell_formula_units_Z   4
loop_
 _symmetry_equiv_pos_site_id
 _symmetry_equiv_pos_as_xyz
  1  'x, y, z'
loop_
 _atom_site_type_symbol
 _atom_site_label
 _atom_site_symmetry_multiplicity
 _atom_site_fract_x
 _atom_site_fract_y
 _atom_site_fract_z
 _atom_site_occupancy
  Cd  Cd0  1  0.249247  0.171109  0.513944  1
  Cd  Cd1  1  0.750753  0.671109  0.986056  1
  Cd  Cd2  1  0.750753  0.828891  0.486056  1
  Cd  Cd3  1  0.249247  0.328891  0.013944  1
  As  As4  1  0.006995  0.861544  0.301676  1
  As  As5  1  0.993005  0.361544  0.198324  1
  As  As6  1  0.993005  0.138456  0.698324  1
  As  As7  1  0.006995  0.638456  0.801676  1
  As  As8  1  0.509542  0.160098  0.320195  1
  As  As9  1  0.490458  0.660098  0.179805  1
  As  As10  1  0.490458  0.839902  0.679805  1
  As  As11  1  0.509542  0.339902  0.820195  1
  H  H12  1  0.209364  0.476473  0.585451  1
  H  H13  1  0.790636  0.976473  0.914549  1
  H  H14  1  0.790636  0.523527  0.414549  1
  H  H15  1  0.209364  0.023527  0.085451  1
  F  F16  1  0.047555  0.957327  0.176727  1
  F  F17  1  0.952445  0.457327  0.323273  1
  F  F18  1  0.952445  0.042673  0.823273  1
  F  F19  1  0.047555  0.542673  0.676727  1
  F  F20  1  0.152135  0.751114  0.316203  1
  F  F21  1  0.847865  0.251114  0.183797  1
  F  F22  1  0.847865  0.248886  0.683797  1
  F  F23  1  0.152135  0.748886  0.816203  1
  F  F24  1  0.959158  0.765252  0.431031  1
  F  F25  1  0.040842  0.265252  0.068969  1
  F  F26  1  0.040842  0.234748  0.568969  1
  F  F27  1  0.959158  0.734748  0.931031  1
  F  F28  1  0.854575  0.964641  0.299752  1
  F  F29  1  0.145425  0.464641  0.200248  1
  F  F30  1  0.145425  0.035359  0.700248  1
  F  F31  1  0.854575  0.535359  0.799752  1
  F  F32  1  0.893872  0.743608  0.190353  1
  F  F33  1  0.106128  0.243608  0.309647  1
  F  F34  1  0.106128  0.256392  0.809647  1
  F  F35  1  0.893872  0.756392  0.690353  1
  F  F36  1  0.111646  0.977102  0.420607  1
  F  F37  1  0.888354  0.477102  0.079393  1
  F  F38  1  0.888354  0.022898  0.579393  1
  F  F39  1  0.111646  0.522898  0.920607  1
  F  F40  1  0.559756  0.084868  0.192309  1
  F  F41  1  0.440244  0.584868  0.307691  1
  F  F42  1  0.440244  0.915132  0.807691  1
  F  F43  1  0.559756  0.415132  0.692309  1
  F  F44  1  0.651521  0.277416  0.353972  1
  F  F45  1  0.348479  0.777416  0.146028  1
  F  F46  1  0.348479  0.722584  0.646028  1
  F  F47  1  0.651521  0.222584  0.853972  1
  F  F48  1  0.449221  0.237682  0.452115  1
  F  F49  1  0.550779  0.737682  0.047885  1
  F  F50  1  0.550779  0.762318  0.547885  1
  F  F51  1  0.449221  0.262318  0.952115  1
  F  F52  1  0.357105  0.050411  0.299447  1
  F  F53  1  0.642895  0.550411  0.200553  1
  F  F54  1  0.642895  0.949589  0.700553  1
  F  F55  1  0.357105  0.449589  0.799447  1
  F  F56  1  0.612117  0.036362  0.431843  1
  F  F57  1  0.387883  0.536362  0.068157  1
  F  F58  1  0.387883  0.963638  0.568157  1
  F  F59  1  0.612117  0.463638  0.931843  1
  F  F60  1  0.398083  0.287276  0.216476  1
  F  F61  1  0.601917  0.787276  0.283524  1
  F  F62  1  0.601917  0.712724  0.783524  1
  F  F63  1  0.398083  0.212724  0.716476  1
  F  F64  1  0.242583  0.425519  0.522872  1
  F  F65  1  0.757417  0.925519  0.977128  1
  F  F66  1  0.757417  0.574481  0.477128  1
  F  F67  1  0.242583  0.074481  0.022872  1
