# generated using pymatgen
data_P2H8O9
_symmetry_space_group_name_H-M   'P 1'
_cell_length_a   7.53541276
_cell_length_b   13.05573139
_cell_length_c   7.98883601
_cell_angle_alpha   90.00000000
_cell_angle_beta   109.66923924
_cell_angle_gamma   90.00000000
_symmetry_Int_Tables_number   1
_chemical_formula_structural   P2H8O9
_chemical_formula_sum   'P8 H32 O36'
_cell_volume   740.08552395
_cell_formula_units_Z   4
loop_
 _symmetry_equiv_pos_site_id
 _symmetry_equiv_pos_as_xyz
  1  'x, y, z'
loop_
 _atom_site_type_symbol
 _atom_site_label
 _atom_site_symmetry_multiplicity
 _atom_site_fract_x
 _atom_site_fract_y
 _atom_site_fract_z
 _atom_site_occupancy
  P  P0  1  0.360073  0.364232  0.920783  1
  P  P1  1  0.639927  0.864232  0.579217  1
  P  P2  1  0.639927  0.635768  0.079217  1
  P  P3  1  0.360073  0.135768  0.420783  1
  P  P4  1  0.745651  0.102805  0.052804  1
  P  P5  1  0.254349  0.602805  0.447196  1
  P  P6  1  0.254349  0.897195  0.947196  1
  P  P7  1  0.745651  0.397195  0.552804  1
  H  H8  1  0.871022  0.407927  0.089849  1
  H  H9  1  0.128978  0.907927  0.410151  1
  H  H10  1  0.128978  0.592073  0.910151  1
  H  H11  1  0.871022  0.092073  0.589849  1
  H  H12  1  0.399167  0.300338  0.416641  1
  H  H13  1  0.600833  0.800338  0.083359  1
  H  H14  1  0.600833  0.699662  0.583359  1
  H  H15  1  0.399167  0.199662  0.916641  1
  H  H16  1  0.552116  0.371191  0.207307  1
  H  H17  1  0.447884  0.871191  0.292693  1
  H  H18  1  0.447884  0.628809  0.792693  1
  H  H19  1  0.552116  0.128809  0.707307  1
  H  H20  1  0.121581  0.398056  0.023115  1
  H  H21  1  0.878419  0.898056  0.476885  1
  H  H22  1  0.878419  0.601944  0.976885  1
  H  H23  1  0.121581  0.101944  0.523115  1
  H  H24  1  0.044485  0.119372  0.758493  1
  H  H25  1  0.955515  0.619372  0.741507  1
  H  H26  1  0.955515  0.880628  0.241507  1
  H  H27  1  0.044485  0.380628  0.258493  1
  H  H28  1  0.933429  0.261001  0.585597  1
  H  H29  1  0.066571  0.761001  0.914403  1
  H  H30  1  0.066571  0.738999  0.414403  1
  H  H31  1  0.933429  0.238999  0.085597  1
  H  H32  1  0.593538  0.391089  0.746310  1
  H  H33  1  0.406462  0.891089  0.753690  1
  H  H34  1  0.406462  0.608911  0.253690  1
  H  H35  1  0.593538  0.108911  0.246310  1
  H  H36  1  0.266349  0.452394  0.580194  1
  H  H37  1  0.733651  0.952394  0.919806  1
  H  H38  1  0.733651  0.547606  0.419806  1
  H  H39  1  0.266349  0.047606  0.080194  1
  O  O40  1  0.706831  0.750337  0.087507  1
  O  O41  1  0.198608  0.488053  0.461426  1
  O  O42  1  0.198608  0.011947  0.961426  1
  O  O43  1  0.801392  0.511947  0.538574  1
  O  O44  1  0.394740  0.098924  0.254970  1
  O  O45  1  0.605260  0.598924  0.245030  1
  O  O46  1  0.983361  0.135977  0.631904  1
  O  O47  1  0.394740  0.401076  0.754970  1
  O  O48  1  0.198918  0.071164  0.452852  1
  O  O49  1  0.801082  0.571164  0.047148  1
  O  O50  1  0.801082  0.928836  0.547148  1
  O  O51  1  0.198918  0.428836  0.952853  1
  O  O52  1  0.551221  0.124139  0.578146  1
  O  O53  1  0.448779  0.624139  0.921854  1
  O  O54  1  0.448779  0.875861  0.421854  1
  O  O55  1  0.551221  0.375861  0.078146  1
  O  O56  1  0.293169  0.250337  0.412493  1
  O  O57  1  0.801392  0.988053  0.038574  1
  O  O58  1  0.706831  0.749663  0.587507  1
  O  O59  1  0.293169  0.249663  0.912493  1
  O  O60  1  0.726899  0.119447  0.239769  1
  O  O61  1  0.273101  0.619447  0.260231  1
  O  O62  1  0.273101  0.880553  0.760231  1
  O  O63  1  0.726899  0.380553  0.739769  1
  O  O64  1  0.924447  0.164193  0.052944  1
  O  O65  1  0.075553  0.664193  0.447056  1
  O  O66  1  0.075553  0.835807  0.947056  1
  O  O67  1  0.924447  0.335807  0.552944  1
  O  O68  1  0.566393  0.131986  0.902516  1
  O  O69  1  0.433607  0.631986  0.597484  1
  O  O70  1  0.433607  0.868014  0.097484  1
  O  O71  1  0.566393  0.368014  0.402516  1
  O  O72  1  0.983361  0.364023  0.131904  1
  O  O73  1  0.016639  0.864023  0.368096  1
  O  O74  1  0.016639  0.635977  0.868096  1
  O  O75  1  0.605260  0.901076  0.745030  1
