# generated using pymatgen
data_InGaTe2
_symmetry_space_group_name_H-M   'P 1'
_cell_length_a   6.95358957
_cell_length_b   6.95358957
_cell_length_c   6.95358957
_cell_angle_alpha   103.91398859
_cell_angle_beta   103.91398859
_cell_angle_gamma   121.26988520
_symmetry_Int_Tables_number   1
_chemical_formula_structural   InGaTe2
_chemical_formula_sum   'In2 Ga2 Te4'
_cell_volume   250.45568493
_cell_formula_units_Z   2
loop_
 _symmetry_equiv_pos_site_id
 _symmetry_equiv_pos_as_xyz
  1  'x, y, z'
loop_
 _atom_site_type_symbol
 _atom_site_label
 _atom_site_symmetry_multiplicity
 _atom_site_fract_x
 _atom_site_fract_y
 _atom_site_fract_z
 _atom_site_occupancy
  In  In0  1  0.250000  0.250000  0.000000  1
  In  In1  1  0.750000  0.750000  0.000000  1
  Ga  Ga2  1  0.250000  0.750000  0.500000  1
  Ga  Ga3  1  0.750000  0.250000  0.500000  1
  Te  Te4  1  0.171327  0.328673  0.500000  1
  Te  Te5  1  0.328673  0.828673  0.157346  1
  Te  Te6  1  0.671327  0.171327  0.842654  1
  Te  Te7  1  0.828673  0.671327  0.500000  1
