# generated using pymatgen
data_UTe5
_symmetry_space_group_name_H-M   'P 1'
_cell_length_a   4.26654904
_cell_length_b   10.50694173
_cell_length_c   17.95024096
_cell_angle_alpha   90.00000000
_cell_angle_beta   90.00000000
_cell_angle_gamma   90.00000000
_symmetry_Int_Tables_number   1
_chemical_formula_structural   UTe5
_chemical_formula_sum   'U4 Te20'
_cell_volume   804.68026147
_cell_formula_units_Z   4
loop_
 _symmetry_equiv_pos_site_id
 _symmetry_equiv_pos_as_xyz
  1  'x, y, z'
loop_
 _atom_site_type_symbol
 _atom_site_label
 _atom_site_symmetry_multiplicity
 _atom_site_fract_x
 _atom_site_fract_y
 _atom_site_fract_z
 _atom_site_occupancy
  U  U0  1  0.895296  0.250000  0.586258  1
  U  U1  1  0.104704  0.750000  0.413742  1
  U  U2  1  0.395296  0.750000  0.913742  1
  U  U3  1  0.604704  0.250000  0.086258  1
  Te  Te4  1  0.387255  0.430478  0.660241  1
  Te  Te5  1  0.380871  0.250000  0.461500  1
  Te  Te6  1  0.500000  0.500000  0.000000  1
  Te  Te7  1  0.619129  0.750000  0.538500  1
  Te  Te8  1  0.323652  0.750000  0.243804  1
  Te  Te9  1  0.176348  0.750000  0.743804  1
  Te  Te10  1  0.119129  0.250000  0.961500  1
  Te  Te11  1  0.676348  0.250000  0.756196  1
  Te  Te12  1  0.387255  0.069522  0.660241  1
  Te  Te13  1  0.823652  0.250000  0.256196  1
  Te  Te14  1  0.000000  0.000000  0.500000  1
  Te  Te15  1  0.112745  0.430478  0.160241  1
  Te  Te16  1  0.000000  0.500000  0.500000  1
  Te  Te17  1  0.612745  0.569522  0.339759  1
  Te  Te18  1  0.880871  0.750000  0.038500  1
  Te  Te19  1  0.500000  0.000000  0.000000  1
  Te  Te20  1  0.112745  0.069522  0.160241  1
  Te  Te21  1  0.887255  0.569522  0.839759  1
  Te  Te22  1  0.612745  0.930478  0.339759  1
  Te  Te23  1  0.887255  0.930478  0.839759  1
