# generated using pymatgen
data_Na3H5(CO4)2
_symmetry_space_group_name_H-M   'P 1'
_cell_length_a   10.35080941
_cell_length_b   10.35080941
_cell_length_c   10.43678282
_cell_angle_alpha   73.44302070
_cell_angle_beta   106.55697930
_cell_angle_gamma   160.13237430
_symmetry_Int_Tables_number   1
_chemical_formula_structural   Na3H5(CO4)2
_chemical_formula_sum   'Na6 H10 C4 O16'
_cell_volume   363.76386364
_cell_formula_units_Z   2
loop_
 _symmetry_equiv_pos_site_id
 _symmetry_equiv_pos_as_xyz
  1  'x, y, z'
loop_
 _atom_site_type_symbol
 _atom_site_label
 _atom_site_symmetry_multiplicity
 _atom_site_fract_x
 _atom_site_fract_y
 _atom_site_fract_z
 _atom_site_occupancy
  Na  Na0  1  0.313805  0.008820  0.927598  1
  Na  Na1  1  0.008820  0.313805  0.572402  1
  Na  Na2  1  0.686195  0.991180  0.072402  1
  Na  Na3  1  0.991180  0.686195  0.427598  1
  Na  Na4  1  0.746732  0.746732  0.750000  1
  Na  Na5  1  0.253268  0.253268  0.250000  1
  H  H6  1  0.464894  0.984804  0.637126  1
  H  H7  1  0.984804  0.464894  0.862874  1
  H  H8  1  0.535106  0.015196  0.362874  1
  H  H9  1  0.015196  0.535106  0.137126  1
  H  H10  1  0.772535  0.390013  0.757396  1
  H  H11  1  0.390013  0.772535  0.742604  1
  H  H12  1  0.000000  0.000000  0.500000  1
  H  H13  1  0.609987  0.227465  0.257396  1
  H  H14  1  0.227465  0.609987  0.242604  1
  H  H15  1  0.000000  0.000000  0.000000  1
  C  C16  1  0.353355  0.166538  0.605478  1
  C  C17  1  0.833462  0.646645  0.105478  1
  C  C18  1  0.646645  0.833462  0.394522  1
  C  C19  1  0.166538  0.353355  0.894522  1
  O  O20  1  0.674457  0.819900  0.290037  1
  O  O21  1  0.825107  0.933721  0.509738  1
  O  O22  1  0.066279  0.174893  0.009738  1
  O  O23  1  0.174893  0.066279  0.490262  1
  O  O24  1  0.819900  0.674457  0.209963  1
  O  O25  1  0.756664  0.452386  0.104007  1
  O  O26  1  0.180100  0.325543  0.790037  1
  O  O27  1  0.325543  0.180100  0.709963  1
  O  O28  1  0.552779  0.129140  0.353144  1
  O  O29  1  0.129140  0.552779  0.146856  1
  O  O30  1  0.447221  0.870860  0.646856  1
  O  O31  1  0.870860  0.447221  0.853144  1
  O  O32  1  0.243336  0.547614  0.895993  1
  O  O33  1  0.452386  0.756664  0.395993  1
  O  O34  1  0.933721  0.825107  0.990262  1
  O  O35  1  0.547614  0.243336  0.604007  1
