# generated using pymatgen
data_Ga3Ni5Ge2
_symmetry_space_group_name_H-M   'P 1'
_cell_length_a   6.37413868
_cell_length_b   6.37413868
_cell_length_c   11.15499113
_cell_angle_alpha   90.00000000
_cell_angle_beta   90.00000000
_cell_angle_gamma   144.32750874
_symmetry_Int_Tables_number   1
_chemical_formula_structural   Ga3Ni5Ge2
_chemical_formula_sum   'Ga6 Ni10 Ge4'
_cell_volume   264.29774357
_cell_formula_units_Z   2
loop_
 _symmetry_equiv_pos_site_id
 _symmetry_equiv_pos_as_xyz
  1  'x, y, z'
loop_
 _atom_site_type_symbol
 _atom_site_label
 _atom_site_symmetry_multiplicity
 _atom_site_fract_x
 _atom_site_fract_y
 _atom_site_fract_z
 _atom_site_occupancy
  Ga  Ga0  1  0.168729  0.831271  0.976789  1
  Ga  Ga1  1  0.831271  0.168729  0.023211  1
  Ga  Ga2  1  0.831271  0.168729  0.476789  1
  Ga  Ga3  1  0.168729  0.831271  0.523211  1
  Ga  Ga4  1  0.500000  0.500000  1.000000  1
  Ga  Ga5  1  0.500000  0.500000  0.500000  1
  Ni  Ni6  1  0.340748  0.659252  0.868070  1
  Ni  Ni7  1  0.659252  0.340748  0.131930  1
  Ni  Ni8  1  0.659252  0.340748  0.368070  1
  Ni  Ni9  1  0.340748  0.659252  0.631930  1
  Ni  Ni10  1  0.979495  0.020505  0.868118  1
  Ni  Ni11  1  0.020505  0.979495  0.131882  1
  Ni  Ni12  1  0.020505  0.979495  0.368118  1
  Ni  Ni13  1  0.979495  0.020505  0.631882  1
  Ni  Ni14  1  0.160427  0.839573  0.750000  1
  Ni  Ni15  1  0.839573  0.160427  0.250000  1
  Ge  Ge16  1  0.789339  0.210661  0.750000  1
  Ge  Ge17  1  0.210661  0.789339  0.250000  1
  Ge  Ge18  1  0.537408  0.462592  0.750000  1
  Ge  Ge19  1  0.462592  0.537408  0.250000  1
