# generated using pymatgen
data_Bi2(PO4)3
_symmetry_space_group_name_H-M   'P 1'
_cell_length_a   9.49041187
_cell_length_b   9.49041187
_cell_length_c   9.49041187
_cell_angle_alpha   54.88978424
_cell_angle_beta   54.88978424
_cell_angle_gamma   54.88978424
_symmetry_Int_Tables_number   1
_chemical_formula_structural   Bi2(PO4)3
_chemical_formula_sum   'Bi4 P6 O24'
_cell_volume   532.52428037
_cell_formula_units_Z   2
loop_
 _symmetry_equiv_pos_site_id
 _symmetry_equiv_pos_as_xyz
  1  'x, y, z'
loop_
 _atom_site_type_symbol
 _atom_site_label
 _atom_site_symmetry_multiplicity
 _atom_site_fract_x
 _atom_site_fract_y
 _atom_site_fract_z
 _atom_site_occupancy
  Bi  Bi0  1  0.346153  0.346153  0.346153  1
  Bi  Bi1  1  0.856059  0.856059  0.856059  1
  Bi  Bi2  1  0.143941  0.143941  0.143941  1
  Bi  Bi3  1  0.653847  0.653847  0.653847  1
  P  P4  1  0.046661  0.745807  0.452030  1
  P  P5  1  0.547970  0.953339  0.254193  1
  P  P6  1  0.452030  0.046661  0.745807  1
  P  P7  1  0.953339  0.254193  0.547970  1
  P  P8  1  0.254193  0.547970  0.953339  1
  P  P9  1  0.745807  0.452030  0.046661  1
  O  O10  1  0.832396  0.464929  0.506503  1
  O  O11  1  0.862185  0.251511  0.138180  1
  O  O12  1  0.791464  0.467670  0.852014  1
  O  O13  1  0.535071  0.493497  0.167604  1
  O  O14  1  0.137815  0.748489  0.861820  1
  O  O15  1  0.208536  0.532330  0.147986  1
  O  O16  1  0.464929  0.506503  0.832396  1
  O  O17  1  0.147986  0.208536  0.532330  1
  O  O18  1  0.032071  0.792786  0.591114  1
  O  O19  1  0.532330  0.147986  0.208536  1
  O  O20  1  0.138180  0.862185  0.251511  1
  O  O21  1  0.207214  0.408886  0.967929  1
  O  O22  1  0.506503  0.832396  0.464929  1
  O  O23  1  0.748489  0.861820  0.137815  1
  O  O24  1  0.967929  0.207214  0.408886  1
  O  O25  1  0.408886  0.967929  0.207214  1
  O  O26  1  0.591114  0.032071  0.792786  1
  O  O27  1  0.167604  0.535071  0.493497  1
  O  O28  1  0.251511  0.138180  0.862185  1
  O  O29  1  0.493497  0.167604  0.535071  1
  O  O30  1  0.792786  0.591114  0.032071  1
  O  O31  1  0.861820  0.137815  0.748489  1
  O  O32  1  0.467670  0.852014  0.791464  1
  O  O33  1  0.852014  0.791464  0.467670  1
