# generated using pymatgen
data_Fe4P3(HO5)3
_symmetry_space_group_name_H-M   'P 1'
_cell_length_a   10.62396229
_cell_length_b   10.62396229
_cell_length_c   7.56410337
_cell_angle_alpha   78.35073379
_cell_angle_beta   101.64926621
_cell_angle_gamma   138.63239746
_symmetry_Int_Tables_number   1
_chemical_formula_structural   Fe4P3(HO5)3
_chemical_formula_sum   'Fe8 P6 H6 O30'
_cell_volume   550.93386757
_cell_formula_units_Z   2
loop_
 _symmetry_equiv_pos_site_id
 _symmetry_equiv_pos_as_xyz
  1  'x, y, z'
loop_
 _atom_site_type_symbol
 _atom_site_label
 _atom_site_symmetry_multiplicity
 _atom_site_fract_x
 _atom_site_fract_y
 _atom_site_fract_z
 _atom_site_occupancy
  Fe  Fe0  1  0.179536  0.841586  0.851830  1
  Fe  Fe1  1  0.841586  0.179536  0.648170  1
  Fe  Fe2  1  0.820464  0.158414  0.148170  1
  Fe  Fe3  1  0.158414  0.820464  0.351830  1
  Fe  Fe4  1  0.648230  0.800237  0.844287  1
  Fe  Fe5  1  0.800237  0.648230  0.655713  1
  Fe  Fe6  1  0.351770  0.199763  0.155713  1
  Fe  Fe7  1  0.199763  0.351770  0.344287  1
  P  P8  1  0.886823  0.886823  0.250000  1
  P  P9  1  0.113177  0.113177  0.750000  1
  P  P10  1  0.467057  0.804729  0.413468  1
  P  P11  1  0.804729  0.467057  0.086532  1
  P  P12  1  0.532943  0.195271  0.586532  1
  P  P13  1  0.195271  0.532943  0.913468  1
  H  H14  1  0.491769  0.491769  0.750000  1
  H  H15  1  0.508231  0.508231  0.250000  1
  H  H16  1  0.411693  0.004625  0.123721  1
  H  H17  1  0.004625  0.411693  0.376279  1
  H  H18  1  0.588307  0.995375  0.876279  1
  H  H19  1  0.995375  0.588307  0.623721  1
  O  O20  1  0.228937  0.697376  0.936355  1
  O  O21  1  0.697376  0.228937  0.563645  1
  O  O22  1  0.771063  0.302624  0.063645  1
  O  O23  1  0.302624  0.771063  0.436355  1
  O  O24  1  0.053119  0.927742  0.739772  1
  O  O25  1  0.927742  0.053119  0.760228  1
  O  O26  1  0.946881  0.072258  0.260228  1
  O  O27  1  0.072258  0.946881  0.239772  1
  O  O28  1  0.377568  0.377568  0.250000  1
  O  O29  1  0.622432  0.622432  0.750000  1
  O  O30  1  0.291140  0.964444  0.099206  1
  O  O31  1  0.964444  0.291140  0.400794  1
  O  O32  1  0.708860  0.035556  0.900794  1
  O  O33  1  0.035556  0.708860  0.599206  1
  O  O34  1  0.747478  0.786930  0.083467  1
  O  O35  1  0.786930  0.747478  0.416533  1
  O  O36  1  0.252522  0.213070  0.916533  1
  O  O37  1  0.213070  0.252522  0.583467  1
  O  O38  1  0.389110  0.614751  0.394991  1
  O  O39  1  0.614751  0.389110  0.105009  1
  O  O40  1  0.610890  0.385249  0.605009  1
  O  O41  1  0.385249  0.610890  0.894991  1
  O  O42  1  0.946011  0.573558  0.253300  1
  O  O43  1  0.573558  0.946011  0.246700  1
  O  O44  1  0.053989  0.426442  0.746700  1
  O  O45  1  0.426442  0.053989  0.753300  1
  O  O46  1  0.103710  0.387526  0.085051  1
  O  O47  1  0.387526  0.103710  0.414949  1
  O  O48  1  0.896290  0.612474  0.914949  1
  O  O49  1  0.612474  0.896290  0.585051  1
