# generated using pymatgen
data_Mn4Al11
_symmetry_space_group_name_H-M   'P 1'
_cell_length_a   5.02630547
_cell_length_b   5.04655548
_cell_length_c   8.77362890
_cell_angle_alpha   105.29860421
_cell_angle_beta   90.08295169
_cell_angle_gamma   100.41452021
_symmetry_Int_Tables_number   1
_chemical_formula_structural   Mn4Al11
_chemical_formula_sum   'Mn4 Al11'
_cell_volume   210.84164121
_cell_formula_units_Z   1
loop_
 _symmetry_equiv_pos_site_id
 _symmetry_equiv_pos_as_xyz
  1  'x, y, z'
loop_
 _atom_site_type_symbol
 _atom_site_label
 _atom_site_symmetry_multiplicity
 _atom_site_fract_x
 _atom_site_fract_y
 _atom_site_fract_z
 _atom_site_occupancy
  Mn  Mn0  1  0.285827  0.149717  0.598618  1
  Mn  Mn1  1  0.714173  0.850283  0.401382  1
  Mn  Mn2  1  0.664607  0.610986  0.866796  1
  Mn  Mn3  1  0.335393  0.389014  0.133204  1
  Al  Al4  1  0.000000  0.000000  0.000000  1
  Al  Al5  1  0.948751  0.819413  0.675115  1
  Al  Al6  1  0.051249  0.180587  0.324885  1
  Al  Al7  1  0.800897  0.269584  0.632497  1
  Al  Al8  1  0.844793  0.531145  0.126747  1
  Al  Al9  1  0.155207  0.468855  0.873253  1
  Al  Al10  1  0.493457  0.892370  0.125154  1
  Al  Al11  1  0.506543  0.107630  0.874846  1
  Al  Al12  1  0.566953  0.328339  0.373932  1
  Al  Al13  1  0.433047  0.671661  0.626068  1
  Al  Al14  1  0.199103  0.730416  0.367503  1
