# generated using pymatgen
data_Ca3Al2Ge3
_symmetry_space_group_name_H-M   'P 1'
_cell_length_a   4.36935705
_cell_length_b   11.43867321
_cell_length_c   14.84085922
_cell_angle_alpha   90.00000000
_cell_angle_beta   90.00000000
_cell_angle_gamma   90.00000000
_symmetry_Int_Tables_number   1
_chemical_formula_structural   Ca3Al2Ge3
_chemical_formula_sum   'Ca12 Al8 Ge12'
_cell_volume   741.74091141
_cell_formula_units_Z   4
loop_
 _symmetry_equiv_pos_site_id
 _symmetry_equiv_pos_as_xyz
  1  'x, y, z'
loop_
 _atom_site_type_symbol
 _atom_site_label
 _atom_site_symmetry_multiplicity
 _atom_site_fract_x
 _atom_site_fract_y
 _atom_site_fract_z
 _atom_site_occupancy
  Ca  Ca0  1  0.250000  0.394479  0.933947  1
  Ca  Ca1  1  0.750000  0.605521  0.066053  1
  Ca  Ca2  1  0.250000  0.894479  0.566053  1
  Ca  Ca3  1  0.750000  0.105521  0.433947  1
  Ca  Ca4  1  0.250000  0.105065  0.062431  1
  Ca  Ca5  1  0.750000  0.894935  0.937569  1
  Ca  Ca6  1  0.250000  0.605065  0.437569  1
  Ca  Ca7  1  0.750000  0.394935  0.562431  1
  Ca  Ca8  1  0.750000  0.877476  0.203165  1
  Ca  Ca9  1  0.250000  0.122524  0.796835  1
  Ca  Ca10  1  0.750000  0.377476  0.296835  1
  Ca  Ca11  1  0.250000  0.622524  0.703165  1
  Al  Al12  1  0.750000  0.357009  0.791036  1
  Al  Al13  1  0.250000  0.642991  0.208964  1
  Al  Al14  1  0.750000  0.857009  0.708964  1
  Al  Al15  1  0.250000  0.142991  0.291036  1
  Al  Al16  1  0.250000  0.183532  0.588052  1
  Al  Al17  1  0.750000  0.816468  0.411948  1
  Al  Al18  1  0.250000  0.683532  0.911948  1
  Al  Al19  1  0.750000  0.316468  0.088052  1
  Ge  Ge20  1  0.250000  0.428755  0.138951  1
  Ge  Ge21  1  0.750000  0.571245  0.861049  1
  Ge  Ge22  1  0.250000  0.928755  0.361049  1
  Ge  Ge23  1  0.750000  0.071245  0.638951  1
  Ge  Ge24  1  0.250000  0.359779  0.700260  1
  Ge  Ge25  1  0.750000  0.640221  0.299740  1
  Ge  Ge26  1  0.250000  0.859779  0.799740  1
  Ge  Ge27  1  0.750000  0.140221  0.200260  1
  Ge  Ge28  1  0.250000  0.801012  0.066179  1
  Ge  Ge29  1  0.750000  0.198988  0.933821  1
  Ge  Ge30  1  0.250000  0.301012  0.433821  1
  Ge  Ge31  1  0.750000  0.698988  0.566179  1
