# generated using pymatgen
data_Au2Se4O11
_symmetry_space_group_name_H-M   'P 1'
_cell_length_a   10.63831653
_cell_length_b   10.63831653
_cell_length_c   13.85126725
_cell_angle_alpha   66.10400716
_cell_angle_beta   113.89599284
_cell_angle_gamma   156.62757019
_symmetry_Int_Tables_number   1
_chemical_formula_structural   Au2Se4O11
_chemical_formula_sum   'Au4 Se8 O22'
_cell_volume   566.17843732
_cell_formula_units_Z   2
loop_
 _symmetry_equiv_pos_site_id
 _symmetry_equiv_pos_as_xyz
  1  'x, y, z'
loop_
 _atom_site_type_symbol
 _atom_site_label
 _atom_site_symmetry_multiplicity
 _atom_site_fract_x
 _atom_site_fract_y
 _atom_site_fract_z
 _atom_site_occupancy
  Au  Au0  1  0.500000  0.000000  0.500000  1
  Au  Au1  1  0.000000  0.500000  0.000000  1
  Au  Au2  1  0.000000  0.000000  0.500000  1
  Au  Au3  1  0.000000  0.000000  0.000000  1
  Se  Se4  1  0.316052  0.165184  0.744600  1
  Se  Se5  1  0.165184  0.316052  0.755400  1
  Se  Se6  1  0.683948  0.834816  0.255400  1
  Se  Se7  1  0.834816  0.683948  0.244600  1
  Se  Se8  1  0.928127  0.595647  0.584474  1
  Se  Se9  1  0.595647  0.928127  0.915526  1
  Se  Se10  1  0.071873  0.404353  0.415526  1
  Se  Se11  1  0.404353  0.071873  0.084474  1
  O  O12  1  0.017441  0.017441  0.750000  1
  O  O13  1  0.982559  0.982559  0.250000  1
  O  O14  1  0.070453  0.816535  0.749612  1
  O  O15  1  0.816535  0.070453  0.750388  1
  O  O16  1  0.929547  0.183465  0.250388  1
  O  O17  1  0.183465  0.929547  0.249612  1
  O  O18  1  0.383528  0.313100  0.608983  1
  O  O19  1  0.313100  0.383528  0.891017  1
  O  O20  1  0.616472  0.686900  0.391017  1
  O  O21  1  0.686900  0.616472  0.108983  1
  O  O22  1  0.277959  0.813955  0.620032  1
  O  O23  1  0.813955  0.277959  0.879968  1
  O  O24  1  0.113652  0.921825  0.996486  1
  O  O25  1  0.921825  0.113652  0.503514  1
  O  O26  1  0.886348  0.078175  0.003514  1
  O  O27  1  0.078175  0.886348  0.496486  1
  O  O28  1  0.595041  0.242853  0.977198  1
  O  O29  1  0.242853  0.595041  0.522802  1
  O  O30  1  0.404959  0.757147  0.022802  1
  O  O31  1  0.757147  0.404959  0.477198  1
  O  O32  1  0.186045  0.722041  0.120032  1
  O  O33  1  0.722041  0.186045  0.379968  1
