# generated using pymatgen
data_Rb2CdO2
_symmetry_space_group_name_H-M   'P 1'
_cell_length_a   6.38626330
_cell_length_b   6.51181162
_cell_length_c   10.73777785
_cell_angle_alpha   90.00000000
_cell_angle_beta   90.00000000
_cell_angle_gamma   90.00000000
_symmetry_Int_Tables_number   1
_chemical_formula_structural   Rb2CdO2
_chemical_formula_sum   'Rb8 Cd4 O8'
_cell_volume   446.54277124
_cell_formula_units_Z   4
loop_
 _symmetry_equiv_pos_site_id
 _symmetry_equiv_pos_as_xyz
  1  'x, y, z'
loop_
 _atom_site_type_symbol
 _atom_site_label
 _atom_site_symmetry_multiplicity
 _atom_site_fract_x
 _atom_site_fract_y
 _atom_site_fract_z
 _atom_site_occupancy
  Rb  Rb0  1  0.397359  0.109188  0.343908  1
  Rb  Rb1  1  0.602641  0.390812  0.843908  1
  Rb  Rb2  1  0.897359  0.890812  0.343908  1
  Rb  Rb3  1  0.102641  0.609188  0.843908  1
  Rb  Rb4  1  0.602641  0.890812  0.656092  1
  Rb  Rb5  1  0.397359  0.609188  0.156092  1
  Rb  Rb6  1  0.897359  0.390812  0.156092  1
  Rb  Rb7  1  0.102641  0.109188  0.656092  1
  Cd  Cd8  1  0.750000  0.465059  0.500000  1
  Cd  Cd9  1  0.250000  0.534941  0.500000  1
  Cd  Cd10  1  0.750000  0.965059  0.000000  1
  Cd  Cd11  1  0.250000  0.034941  0.000000  1
  O  O12  1  0.516679  0.189636  0.096021  1
  O  O13  1  0.016679  0.810364  0.096021  1
  O  O14  1  0.516679  0.689636  0.403979  1
  O  O15  1  0.483321  0.310364  0.596021  1
  O  O16  1  0.483321  0.810364  0.903979  1
  O  O17  1  0.983321  0.189636  0.903979  1
  O  O18  1  0.016679  0.310364  0.403979  1
  O  O19  1  0.983321  0.689636  0.596021  1
