# generated using pymatgen
data_CaSi2O5
_symmetry_space_group_name_H-M   'P 1'
_cell_length_a   6.62684199
_cell_length_b   7.31331129
_cell_length_c   7.62781461
_cell_angle_alpha   69.50773545
_cell_angle_beta   81.40642784
_cell_angle_gamma   84.86474178
_symmetry_Int_Tables_number   1
_chemical_formula_structural   CaSi2O5
_chemical_formula_sum   'Ca4 Si8 O20'
_cell_volume   342.11845670
_cell_formula_units_Z   4
loop_
 _symmetry_equiv_pos_site_id
 _symmetry_equiv_pos_as_xyz
  1  'x, y, z'
loop_
 _atom_site_type_symbol
 _atom_site_label
 _atom_site_symmetry_multiplicity
 _atom_site_fract_x
 _atom_site_fract_y
 _atom_site_fract_z
 _atom_site_occupancy
  Ca  Ca0  1  0.610195  0.028757  0.213698  1
  Ca  Ca1  1  0.389805  0.971243  0.786302  1
  Ca  Ca2  1  0.816245  0.458110  0.320969  1
  Ca  Ca3  1  0.183755  0.541890  0.679031  1
  Si  Si4  1  0.660665  0.683741  0.579362  1
  Si  Si5  1  0.339335  0.316259  0.420638  1
  Si  Si6  1  0.125936  0.198598  0.070193  1
  Si  Si7  1  0.874064  0.801402  0.929807  1
  Si  Si8  1  0.802026  0.247126  0.779428  1
  Si  Si9  1  0.197974  0.752874  0.220572  1
  Si  Si10  1  0.000000  0.000000  0.500000  1
  Si  Si11  1  0.500000  0.500000  0.000000  1
  O  O12  1  0.751984  0.601068  0.986449  1
  O  O13  1  0.248016  0.398932  0.013551  1
  O  O14  1  0.476106  0.652390  0.758294  1
  O  O15  1  0.523894  0.347610  0.241706  1
  O  O16  1  0.620764  0.304749  0.934630  1
  O  O17  1  0.379236  0.695251  0.065370  1
  O  O18  1  0.248786  0.100258  0.460155  1
  O  O19  1  0.751214  0.899742  0.539845  1
  O  O20  1  0.021637  0.226623  0.877533  1
  O  O21  1  0.978363  0.773377  0.122467  1
  O  O22  1  0.884491  0.189976  0.581470  1
  O  O23  1  0.115509  0.810024  0.418530  1
  O  O24  1  0.281322  0.003788  0.097641  1
  O  O25  1  0.718678  0.996212  0.902359  1
  O  O26  1  0.172584  0.501839  0.365469  1
  O  O27  1  0.827416  0.498161  0.634531  1
  O  O28  1  0.050155  0.842412  0.744274  1
  O  O29  1  0.949845  0.157588  0.255726  1
  O  O30  1  0.426175  0.300621  0.612387  1
  O  O31  1  0.573825  0.699379  0.387613  1
