# generated using pymatgen
data_CaCrO3
_symmetry_space_group_name_H-M   'P 1'
_cell_length_a   5.31962874
_cell_length_b   5.44217664
_cell_length_c   7.56502979
_cell_angle_alpha   90.00000000
_cell_angle_beta   90.00000000
_cell_angle_gamma   90.00000000
_symmetry_Int_Tables_number   1
_chemical_formula_structural   CaCrO3
_chemical_formula_sum   'Ca4 Cr4 O12'
_cell_volume   219.01033035
_cell_formula_units_Z   4
loop_
 _symmetry_equiv_pos_site_id
 _symmetry_equiv_pos_as_xyz
  1  'x, y, z'
loop_
 _atom_site_type_symbol
 _atom_site_label
 _atom_site_symmetry_multiplicity
 _atom_site_fract_x
 _atom_site_fract_y
 _atom_site_fract_z
 _atom_site_occupancy
  Ca  Ca0  1  0.490696  0.043358  0.750000  1
  Ca  Ca1  1  0.990696  0.456642  0.250000  1
  Ca  Ca2  1  0.009304  0.543358  0.750000  1
  Ca  Ca3  1  0.509304  0.956642  0.250000  1
  Cr  Cr4  1  0.000000  0.000000  0.500000  1
  Cr  Cr5  1  0.500000  0.500000  0.500000  1
  Cr  Cr6  1  0.500000  0.500000  0.000000  1
  Cr  Cr7  1  0.000000  0.000000  0.000000  1
  O  O8  1  0.424802  0.517773  0.250000  1
  O  O9  1  0.924802  0.982227  0.750000  1
  O  O10  1  0.075198  0.017773  0.250000  1
  O  O11  1  0.575198  0.482227  0.750000  1
  O  O12  1  0.209419  0.292816  0.960573  1
  O  O13  1  0.709419  0.207184  0.039427  1
  O  O14  1  0.290581  0.792816  0.539427  1
  O  O15  1  0.790581  0.707184  0.460573  1
  O  O16  1  0.209419  0.292816  0.539427  1
  O  O17  1  0.709419  0.207184  0.460573  1
  O  O18  1  0.790581  0.707184  0.039427  1
  O  O19  1  0.290581  0.792816  0.960573  1
