# generated using pymatgen
data_Y2Cu2O5
_symmetry_space_group_name_H-M   'P 1'
_cell_length_a   3.54321188
_cell_length_b   10.92873359
_cell_length_c   12.58126509
_cell_angle_alpha   90.00000000
_cell_angle_beta   90.00000000
_cell_angle_gamma   90.00000000
_symmetry_Int_Tables_number   1
_chemical_formula_structural   Y2Cu2O5
_chemical_formula_sum   'Y8 Cu8 O20'
_cell_volume   487.18204696
_cell_formula_units_Z   4
loop_
 _symmetry_equiv_pos_site_id
 _symmetry_equiv_pos_as_xyz
  1  'x, y, z'
loop_
 _atom_site_type_symbol
 _atom_site_label
 _atom_site_symmetry_multiplicity
 _atom_site_fract_x
 _atom_site_fract_y
 _atom_site_fract_z
 _atom_site_occupancy
  Y  Y0  1  0.777231  0.457381  0.827639  1
  Y  Y1  1  0.222769  0.542619  0.327639  1
  Y  Y2  1  0.722769  0.957381  0.827639  1
  Y  Y3  1  0.277231  0.042619  0.327639  1
  Y  Y4  1  0.778511  0.292466  0.500563  1
  Y  Y5  1  0.221489  0.707534  0.000563  1
  Y  Y6  1  0.721489  0.792466  0.500563  1
  Y  Y7  1  0.278511  0.207534  0.000563  1
  Cu  Cu8  1  0.341707  0.237943  0.716625  1
  Cu  Cu9  1  0.658293  0.762057  0.216625  1
  Cu  Cu10  1  0.158293  0.737943  0.716625  1
  Cu  Cu11  1  0.841707  0.262057  0.216625  1
  Cu  Cu12  1  0.162312  0.011776  0.611112  1
  Cu  Cu13  1  0.837688  0.988224  0.111112  1
  Cu  Cu14  1  0.337688  0.511776  0.611112  1
  Cu  Cu15  1  0.662312  0.488224  0.111112  1
  O  O16  1  0.771384  0.076180  0.972261  1
  O  O17  1  0.228616  0.923820  0.472261  1
  O  O18  1  0.728616  0.576180  0.972261  1
  O  O19  1  0.271384  0.423820  0.472261  1
  O  O20  1  0.225829  0.071999  0.761543  1
  O  O21  1  0.774171  0.928001  0.261543  1
  O  O22  1  0.274171  0.571999  0.761543  1
  O  O23  1  0.725829  0.428001  0.261543  1
  O  O24  1  0.646136  0.375332  0.664023  1
  O  O25  1  0.353864  0.624668  0.164023  1
  O  O26  1  0.853864  0.875332  0.664023  1
  O  O27  1  0.146136  0.124668  0.164023  1
  O  O28  1  0.279850  0.177577  0.565837  1
  O  O29  1  0.720150  0.822423  0.065837  1
  O  O30  1  0.220150  0.677577  0.565837  1
  O  O31  1  0.779850  0.322423  0.065837  1
  O  O32  1  0.773556  0.174004  0.355397  1
  O  O33  1  0.226444  0.825996  0.855397  1
  O  O34  1  0.726444  0.674004  0.355397  1
  O  O35  1  0.273556  0.325996  0.855397  1
