# generated using pymatgen
data_Sn4B3Ir7
_symmetry_space_group_name_H-M   'P 1'
_cell_length_a   9.38437876
_cell_length_b   9.38437876
_cell_length_c   5.69291211
_cell_angle_alpha   90.00000000
_cell_angle_beta   90.00000000
_cell_angle_gamma   120.00000000
_symmetry_Int_Tables_number   1
_chemical_formula_structural   Sn4B3Ir7
_chemical_formula_sum   'Sn8 B6 Ir14'
_cell_volume   434.18635041
_cell_formula_units_Z   2
loop_
 _symmetry_equiv_pos_site_id
 _symmetry_equiv_pos_as_xyz
  1  'x, y, z'
loop_
 _atom_site_type_symbol
 _atom_site_label
 _atom_site_symmetry_multiplicity
 _atom_site_fract_x
 _atom_site_fract_y
 _atom_site_fract_z
 _atom_site_occupancy
  Sn  Sn0  1  0.502223  0.091731  0.750000  1
  Sn  Sn1  1  0.091731  0.589508  0.250000  1
  Sn  Sn2  1  0.908269  0.410492  0.750000  1
  Sn  Sn3  1  0.589508  0.497777  0.750000  1
  Sn  Sn4  1  0.497777  0.908269  0.250000  1
  Sn  Sn5  1  0.333333  0.666667  0.750000  1
  Sn  Sn6  1  0.410492  0.502223  0.250000  1
  Sn  Sn7  1  0.666667  0.333333  0.250000  1
  B  B8  1  0.827747  0.790542  0.250000  1
  B  B9  1  0.962795  0.172253  0.250000  1
  B  B10  1  0.209458  0.037205  0.250000  1
  B  B11  1  0.790542  0.962795  0.750000  1
  B  B12  1  0.037205  0.827747  0.750000  1
  B  B13  1  0.172253  0.209458  0.750000  1
  Ir  Ir14  1  0.123615  0.354130  0.999009  1
  Ir  Ir15  1  0.769486  0.123615  0.499009  1
  Ir  Ir16  1  0.769486  0.123615  0.000991  1
  Ir  Ir17  1  0.645870  0.769486  0.500991  1
  Ir  Ir18  1  0.123615  0.354130  0.500991  1
  Ir  Ir19  1  0.876385  0.645870  0.000991  1
  Ir  Ir20  1  0.354130  0.230514  0.000991  1
  Ir  Ir21  1  0.230514  0.876385  0.500991  1
  Ir  Ir22  1  0.876385  0.645870  0.499009  1
  Ir  Ir23  1  0.354130  0.230514  0.499009  1
  Ir  Ir24  1  0.230514  0.876385  0.999009  1
  Ir  Ir25  1  0.000000  0.000000  0.500000  1
  Ir  Ir26  1  0.000000  0.000000  0.000000  1
  Ir  Ir27  1  0.645870  0.769486  0.999009  1
