# generated using pymatgen
data_NaSbO3
_symmetry_space_group_name_H-M   'P 1'
_cell_length_a   7.34393806
_cell_length_b   7.34393806
_cell_length_c   7.34393806
_cell_angle_alpha   60.00000000
_cell_angle_beta   60.00000000
_cell_angle_gamma   60.00000000
_symmetry_Int_Tables_number   1
_chemical_formula_structural   NaSbO3
_chemical_formula_sum   'Na4 Sb4 O12'
_cell_volume   280.07349914
_cell_formula_units_Z   4
loop_
 _symmetry_equiv_pos_site_id
 _symmetry_equiv_pos_as_xyz
  1  'x, y, z'
loop_
 _atom_site_type_symbol
 _atom_site_label
 _atom_site_symmetry_multiplicity
 _atom_site_fract_x
 _atom_site_fract_y
 _atom_site_fract_z
 _atom_site_occupancy
  Na  Na0  1  0.625000  0.625000  0.625000  1
  Na  Na1  1  0.125000  0.625000  0.625000  1
  Na  Na2  1  0.625000  0.625000  0.125000  1
  Na  Na3  1  0.625000  0.125000  0.625000  1
  Sb  Sb4  1  0.125000  0.125000  0.125000  1
  Sb  Sb5  1  0.625000  0.125000  0.125000  1
  Sb  Sb6  1  0.125000  0.125000  0.625000  1
  Sb  Sb7  1  0.125000  0.625000  0.125000  1
  O  O8  1  0.797075  0.202925  0.202925  1
  O  O9  1  0.202925  0.797075  0.797075  1
  O  O10  1  0.202925  0.202925  0.797075  1
  O  O11  1  0.797075  0.797075  0.202925  1
  O  O12  1  0.797075  0.202925  0.797075  1
  O  O13  1  0.202925  0.797075  0.202925  1
  O  O14  1  0.452925  0.047075  0.047075  1
  O  O15  1  0.047075  0.452925  0.452925  1
  O  O16  1  0.047075  0.047075  0.452925  1
  O  O17  1  0.452925  0.452925  0.047075  1
  O  O18  1  0.452925  0.047075  0.452925  1
  O  O19  1  0.047075  0.452925  0.047075  1
