# generated using pymatgen
data_K2PuCl5
_symmetry_space_group_name_H-M   'P 1'
_cell_length_a   8.03115856
_cell_length_b   8.57491972
_cell_length_c   13.06594712
_cell_angle_alpha   90.00000000
_cell_angle_beta   90.00000000
_cell_angle_gamma   90.00000000
_symmetry_Int_Tables_number   1
_chemical_formula_structural   K2PuCl5
_chemical_formula_sum   'K8 Pu4 Cl20'
_cell_volume   899.80656881
_cell_formula_units_Z   4
loop_
 _symmetry_equiv_pos_site_id
 _symmetry_equiv_pos_as_xyz
  1  'x, y, z'
loop_
 _atom_site_type_symbol
 _atom_site_label
 _atom_site_symmetry_multiplicity
 _atom_site_fract_x
 _atom_site_fract_y
 _atom_site_fract_z
 _atom_site_occupancy
  K  K0  1  0.537963  0.492310  0.322598  1
  K  K1  1  0.962037  0.492310  0.822598  1
  K  K2  1  0.037963  0.507690  0.177402  1
  K  K3  1  0.537963  0.007690  0.322598  1
  K  K4  1  0.462037  0.507690  0.677402  1
  K  K5  1  0.462037  0.992310  0.677402  1
  K  K6  1  0.962037  0.007690  0.822598  1
  K  K7  1  0.037963  0.992310  0.177402  1
  Pu  Pu8  1  0.066038  0.250000  0.494134  1
  Pu  Pu9  1  0.433962  0.250000  0.994134  1
  Pu  Pu10  1  0.566038  0.750000  0.005866  1
  Pu  Pu11  1  0.933962  0.750000  0.505866  1
  Cl  Cl12  1  0.824662  0.750000  0.306191  1
  Cl  Cl13  1  0.159416  0.957918  0.420182  1
  Cl  Cl14  1  0.659416  0.457918  0.079818  1
  Cl  Cl15  1  0.128928  0.750000  0.677238  1
  Cl  Cl16  1  0.082561  0.250000  0.982358  1
  Cl  Cl17  1  0.371072  0.750000  0.177238  1
  Cl  Cl18  1  0.175338  0.250000  0.693809  1
  Cl  Cl19  1  0.417439  0.250000  0.482358  1
  Cl  Cl20  1  0.340584  0.542082  0.920182  1
  Cl  Cl21  1  0.340584  0.957918  0.920182  1
  Cl  Cl22  1  0.675338  0.750000  0.806191  1
  Cl  Cl23  1  0.628928  0.250000  0.822762  1
  Cl  Cl24  1  0.659416  0.042082  0.079818  1
  Cl  Cl25  1  0.871072  0.250000  0.322762  1
  Cl  Cl26  1  0.840584  0.457918  0.579818  1
  Cl  Cl27  1  0.324662  0.250000  0.193809  1
  Cl  Cl28  1  0.159416  0.542082  0.420182  1
  Cl  Cl29  1  0.582561  0.750000  0.517642  1
  Cl  Cl30  1  0.840584  0.042082  0.579818  1
  Cl  Cl31  1  0.917439  0.750000  0.017642  1
