# generated using pymatgen
data_Si3Cl8
_symmetry_space_group_name_H-M   'P 1'
_cell_length_a   12.93189588
_cell_length_b   12.93189588
_cell_length_c   12.93189588
_cell_angle_alpha   60.00000000
_cell_angle_beta   60.00000000
_cell_angle_gamma   60.00000000
_symmetry_Int_Tables_number   1
_chemical_formula_structural   Si3Cl8
_chemical_formula_sum   'Si12 Cl32'
_cell_volume   1529.22574120
_cell_formula_units_Z   4
loop_
 _symmetry_equiv_pos_site_id
 _symmetry_equiv_pos_as_xyz
  1  'x, y, z'
loop_
 _atom_site_type_symbol
 _atom_site_label
 _atom_site_symmetry_multiplicity
 _atom_site_fract_x
 _atom_site_fract_y
 _atom_site_fract_z
 _atom_site_occupancy
  Si  Si0  1  0.000000  0.000000  0.000000  1
  Si  Si1  1  0.500000  0.500000  0.500000  1
  Si  Si2  1  0.824650  0.526050  0.824650  1
  Si  Si3  1  0.324650  0.324650  0.324650  1
  Si  Si4  1  0.324650  0.324650  0.026050  1
  Si  Si5  1  0.026050  0.324650  0.324650  1
  Si  Si6  1  0.824650  0.824650  0.526050  1
  Si  Si7  1  0.526050  0.824650  0.824650  1
  Si  Si8  1  0.824650  0.824650  0.824650  1
  Si  Si9  1  0.324650  0.026050  0.324650  1
  Si  Si10  1  0.750000  0.750000  0.750000  1
  Si  Si11  1  0.250000  0.250000  0.250000  1
  Cl  Cl12  1  0.064205  0.807385  0.064205  1
  Cl  Cl13  1  0.564205  0.564205  0.564205  1
  Cl  Cl14  1  0.564205  0.564205  0.307385  1
  Cl  Cl15  1  0.307385  0.564205  0.564205  1
  Cl  Cl16  1  0.064205  0.064205  0.807385  1
  Cl  Cl17  1  0.807385  0.064205  0.064205  1
  Cl  Cl18  1  0.064205  0.064205  0.064205  1
  Cl  Cl19  1  0.564205  0.307385  0.564205  1
  Cl  Cl20  1  0.816842  0.458854  0.008484  1
  Cl  Cl21  1  0.215820  0.508484  0.316842  1
  Cl  Cl22  1  0.508484  0.215820  0.958854  1
  Cl  Cl23  1  0.958854  0.215820  0.316842  1
  Cl  Cl24  1  0.508484  0.316842  0.215820  1
  Cl  Cl25  1  0.958854  0.508484  0.215820  1
  Cl  Cl26  1  0.215820  0.316842  0.958854  1
  Cl  Cl27  1  0.008484  0.458854  0.715820  1
  Cl  Cl28  1  0.715820  0.458854  0.816842  1
  Cl  Cl29  1  0.008484  0.816842  0.458854  1
  Cl  Cl30  1  0.458854  0.008484  0.816842  1
  Cl  Cl31  1  0.816842  0.715820  0.458854  1
  Cl  Cl32  1  0.816842  0.008484  0.715820  1
  Cl  Cl33  1  0.715820  0.816842  0.008484  1
  Cl  Cl34  1  0.458854  0.715820  0.008484  1
  Cl  Cl35  1  0.458854  0.816842  0.715820  1
  Cl  Cl36  1  0.715820  0.008484  0.458854  1
  Cl  Cl37  1  0.008484  0.715820  0.816842  1
  Cl  Cl38  1  0.316842  0.508484  0.958854  1
  Cl  Cl39  1  0.958854  0.316842  0.508484  1
  Cl  Cl40  1  0.316842  0.215820  0.508484  1
  Cl  Cl41  1  0.508484  0.958854  0.316842  1
  Cl  Cl42  1  0.316842  0.958854  0.215820  1
  Cl  Cl43  1  0.215820  0.958854  0.508484  1
