# generated using pymatgen
data_Bi3ClO4
_symmetry_space_group_name_H-M   'P 1'
_cell_length_a   10.22250800
_cell_length_b   10.22250800
_cell_length_c   5.79233321
_cell_angle_alpha   73.94127579
_cell_angle_beta   106.05872421
_cell_angle_gamma   147.05028365
_symmetry_Int_Tables_number   1
_chemical_formula_structural   Bi3ClO4
_chemical_formula_sum   'Bi6 Cl2 O8'
_cell_volume   315.22750889
_cell_formula_units_Z   2
loop_
 _symmetry_equiv_pos_site_id
 _symmetry_equiv_pos_as_xyz
  1  'x, y, z'
loop_
 _atom_site_type_symbol
 _atom_site_label
 _atom_site_symmetry_multiplicity
 _atom_site_fract_x
 _atom_site_fract_y
 _atom_site_fract_z
 _atom_site_occupancy
  Bi  Bi0  1  0.651982  0.941441  0.561358  1
  Bi  Bi1  1  0.058559  0.348018  0.061358  1
  Bi  Bi2  1  0.348018  0.058559  0.438642  1
  Bi  Bi3  1  0.941441  0.651982  0.938642  1
  Bi  Bi4  1  0.704775  0.704775  0.250000  1
  Bi  Bi5  1  0.295225  0.295225  0.750000  1
  Cl  Cl6  1  1.000000  0.500000  0.500000  1
  Cl  Cl7  1  0.500000  0.000000  0.000000  1
  O  O8  1  0.632586  0.500006  0.992933  1
  O  O9  1  0.500006  0.632586  0.507067  1
  O  O10  1  0.367414  0.499994  0.007067  1
  O  O11  1  0.499994  0.367414  0.492933  1
  O  O12  1  0.048698  0.868875  0.602459  1
  O  O13  1  0.951302  0.131125  0.397541  1
  O  O14  1  0.868875  0.048698  0.897541  1
  O  O15  1  0.131125  0.951302  0.102459  1
