# generated using pymatgen
data_V2C
_symmetry_space_group_name_H-M   'P 1'
_cell_length_a   4.55693564
_cell_length_b   5.04307549
_cell_length_c   5.73379898
_cell_angle_alpha   90.00000000
_cell_angle_beta   90.00000000
_cell_angle_gamma   90.00000000
_symmetry_Int_Tables_number   1
_chemical_formula_structural   V2C
_chemical_formula_sum   'V8 C4'
_cell_volume   131.76826484
_cell_formula_units_Z   4
loop_
 _symmetry_equiv_pos_site_id
 _symmetry_equiv_pos_as_xyz
  1  'x, y, z'
loop_
 _atom_site_type_symbol
 _atom_site_label
 _atom_site_symmetry_multiplicity
 _atom_site_fract_x
 _atom_site_fract_y
 _atom_site_fract_z
 _atom_site_occupancy
  V  V0  1  0.245984  0.076375  0.881873  1
  V  V1  1  0.745984  0.923625  0.618127  1
  V  V2  1  0.254016  0.576375  0.618127  1
  V  V3  1  0.754016  0.423625  0.881873  1
  V  V4  1  0.245984  0.576375  0.118127  1
  V  V5  1  0.745984  0.423625  0.381873  1
  V  V6  1  0.254016  0.076375  0.381873  1
  V  V7  1  0.754016  0.923625  0.118127  1
  C  C8  1  0.500000  0.750000  0.872762  1
  C  C9  1  0.000000  0.250000  0.627238  1
  C  C10  1  0.500000  0.250000  0.127238  1
  C  C11  1  0.000000  0.750000  0.372762  1
