# generated using pymatgen
data_Li2MnBr4
_symmetry_space_group_name_H-M   'P 1'
_cell_length_a   6.82735452
_cell_length_b   6.82735452
_cell_length_c   3.90197198
_cell_angle_alpha   90.00000000
_cell_angle_beta   90.00000000
_cell_angle_gamma   109.80180454
_symmetry_Int_Tables_number   1
_chemical_formula_structural   Li2MnBr4
_chemical_formula_sum   'Li2 Mn1 Br4'
_cell_volume   171.12707321
_cell_formula_units_Z   1
loop_
 _symmetry_equiv_pos_site_id
 _symmetry_equiv_pos_as_xyz
  1  'x, y, z'
loop_
 _atom_site_type_symbol
 _atom_site_label
 _atom_site_symmetry_multiplicity
 _atom_site_fract_x
 _atom_site_fract_y
 _atom_site_fract_z
 _atom_site_occupancy
  Li  Li0  1  1.000000  0.500000  0.500000  1
  Li  Li1  1  0.500000  1.000000  0.500000  1
  Mn  Mn2  1  0.000000  0.000000  0.000000  1
  Br  Br3  1  0.760253  0.760253  0.500000  1
  Br  Br4  1  0.239747  0.239747  0.500000  1
  Br  Br5  1  0.241951  0.758049  0.000000  1
  Br  Br6  1  0.758049  0.241951  0.000000  1
