# generated using pymatgen
data_Th6CBr14
_symmetry_space_group_name_H-M   'P 1'
_cell_length_a   10.88443865
_cell_length_b   10.88443865
_cell_length_c   13.31753756
_cell_angle_alpha   90.00000000
_cell_angle_beta   90.00000000
_cell_angle_gamma   96.03421574
_symmetry_Int_Tables_number   1
_chemical_formula_structural   Th6CBr14
_chemical_formula_sum   'Th12 C2 Br28'
_cell_volume   1569.00025486
_cell_formula_units_Z   2
loop_
 _symmetry_equiv_pos_site_id
 _symmetry_equiv_pos_as_xyz
  1  'x, y, z'
loop_
 _atom_site_type_symbol
 _atom_site_label
 _atom_site_symmetry_multiplicity
 _atom_site_fract_x
 _atom_site_fract_y
 _atom_site_fract_z
 _atom_site_occupancy
  Th  Th0  1  0.647038  0.647038  0.894267  1
  Th  Th1  1  0.852962  0.852962  0.394267  1
  Th  Th2  1  0.147038  0.147038  0.605733  1
  Th  Th3  1  0.352962  0.352962  0.105733  1
  Th  Th4  1  0.454751  0.686219  0.116878  1
  Th  Th5  1  0.045249  0.813781  0.616878  1
  Th  Th6  1  0.186219  0.954751  0.383122  1
  Th  Th7  1  0.313781  0.545249  0.883122  1
  Th  Th8  1  0.545249  0.313781  0.883122  1
  Th  Th9  1  0.954751  0.186219  0.383122  1
  Th  Th10  1  0.813781  0.045249  0.616878  1
  Th  Th11  1  0.686219  0.454751  0.116878  1
  C  C12  1  0.500000  0.500000  1.000000  1
  C  C13  1  0.000000  0.000000  0.500000  1
  Br  Br14  1  0.400853  0.900853  0.250000  1
  Br  Br15  1  0.099147  0.599147  0.750000  1
  Br  Br16  1  0.599147  0.099147  0.750000  1
  Br  Br17  1  0.900853  0.400853  0.250000  1
  Br  Br18  1  0.379750  0.129634  0.990077  1
  Br  Br19  1  0.120250  0.370366  0.490077  1
  Br  Br20  1  0.629634  0.879750  0.509923  1
  Br  Br21  1  0.870366  0.620250  0.009923  1
  Br  Br22  1  0.620250  0.870366  0.009923  1
  Br  Br23  1  0.879750  0.629634  0.509923  1
  Br  Br24  1  0.536849  0.285644  0.249087  1
  Br  Br25  1  0.963151  0.214356  0.749087  1
  Br  Br26  1  0.785644  0.036849  0.250913  1
  Br  Br27  1  0.714356  0.463151  0.750913  1
  Br  Br28  1  0.463151  0.714356  0.750913  1
  Br  Br29  1  0.036849  0.785644  0.250913  1
  Br  Br30  1  0.214356  0.963151  0.749087  1
  Br  Br31  1  0.285644  0.536849  0.249087  1
  Br  Br32  1  0.157695  0.157695  0.234830  1
  Br  Br33  1  0.342305  0.342305  0.734830  1
  Br  Br34  1  0.657695  0.657695  0.265170  1
  Br  Br35  1  0.842305  0.842305  0.765170  1
  Br  Br36  1  0.753285  0.246715  1.000000  1
  Br  Br37  1  0.746715  0.253285  0.500000  1
  Br  Br38  1  0.246715  0.753285  1.000000  1
  Br  Br39  1  0.253285  0.746715  0.500000  1
  Br  Br40  1  0.129634  0.379750  0.990077  1
  Br  Br41  1  0.370366  0.120250  0.490077  1
