# generated using pymatgen
data_NiH12(N3O2)2
_symmetry_space_group_name_H-M   'P 1'
_cell_length_a   7.18520014
_cell_length_b   7.18520014
_cell_length_c   6.78431055
_cell_angle_alpha   67.87580372
_cell_angle_beta   112.12419628
_cell_angle_gamma   132.97722128
_symmetry_Int_Tables_number   1
_chemical_formula_structural   NiH12(N3O2)2
_chemical_formula_sum   'Ni1 H12 N6 O4'
_cell_volume   233.64405233
_cell_formula_units_Z   1
loop_
 _symmetry_equiv_pos_site_id
 _symmetry_equiv_pos_as_xyz
  1  'x, y, z'
loop_
 _atom_site_type_symbol
 _atom_site_label
 _atom_site_symmetry_multiplicity
 _atom_site_fract_x
 _atom_site_fract_y
 _atom_site_fract_z
 _atom_site_occupancy
  Ni  Ni0  1  0.000000  0.000000  0.000000  1
  H  H1  1  0.296878  0.434200  0.280292  1
  H  H2  1  0.434200  0.296878  0.719708  1
  H  H3  1  0.703122  0.565800  0.719708  1
  H  H4  1  0.565800  0.703122  0.280292  1
  H  H5  1  0.588592  0.143428  0.190437  1
  H  H6  1  0.143428  0.588592  0.809563  1
  H  H7  1  0.411408  0.856572  0.809563  1
  H  H8  1  0.856572  0.411408  0.190437  1
  H  H9  1  0.302499  0.056062  0.401496  1
  H  H10  1  0.056062  0.302499  0.598504  1
  H  H11  1  0.697501  0.943938  0.598504  1
  H  H12  1  0.943938  0.697501  0.401496  1
  N  N13  1  0.069126  0.155224  0.679594  1
  N  N14  1  0.135213  0.864787  0.057589  1
  N  N15  1  0.864787  0.135213  0.942411  1
  N  N16  1  0.930874  0.844776  0.320406  1
  N  N17  1  0.155224  0.069126  0.320406  1
  N  N18  1  0.844776  0.930874  0.679594  1
  O  O19  1  0.728010  0.271990  0.283739  1
  O  O20  1  0.385421  0.614579  0.281358  1
  O  O21  1  0.614579  0.385421  0.718642  1
  O  O22  1  0.271990  0.728010  0.716261  1
