# generated using pymatgen
data_Ba2(SnSb2)3
_symmetry_space_group_name_H-M   'P 1'
_cell_length_a   4.49358460
_cell_length_b   13.61560809
_cell_length_c   25.00857953
_cell_angle_alpha   90.00000000
_cell_angle_beta   90.00000000
_cell_angle_gamma   90.00000000
_symmetry_Int_Tables_number   1
_chemical_formula_structural   Ba2(SnSb2)3
_chemical_formula_sum   'Ba8 Sn12 Sb24'
_cell_volume   1530.09709123
_cell_formula_units_Z   4
loop_
 _symmetry_equiv_pos_site_id
 _symmetry_equiv_pos_as_xyz
  1  'x, y, z'
loop_
 _atom_site_type_symbol
 _atom_site_label
 _atom_site_symmetry_multiplicity
 _atom_site_fract_x
 _atom_site_fract_y
 _atom_site_fract_z
 _atom_site_occupancy
  Ba  Ba0  1  0.250000  0.548564  0.920769  1
  Ba  Ba1  1  0.750000  0.451436  0.079231  1
  Ba  Ba2  1  0.250000  0.048564  0.579231  1
  Ba  Ba3  1  0.750000  0.951436  0.420769  1
  Ba  Ba4  1  0.250000  0.630235  0.608491  1
  Ba  Ba5  1  0.750000  0.369765  0.391509  1
  Ba  Ba6  1  0.250000  0.130235  0.891509  1
  Ba  Ba7  1  0.750000  0.869765  0.108491  1
  Sn  Sn8  1  0.250000  0.319723  0.598025  1
  Sn  Sn9  1  0.250000  0.819723  0.901975  1
  Sn  Sn10  1  0.750000  0.180277  0.098025  1
  Sn  Sn11  1  0.750000  0.680277  0.401975  1
  Sn  Sn12  1  0.250000  0.694631  0.265779  1
  Sn  Sn13  1  0.750000  0.305369  0.734221  1
  Sn  Sn14  1  0.250000  0.194631  0.234221  1
  Sn  Sn15  1  0.750000  0.805369  0.765779  1
  Sn  Sn16  1  0.750000  0.958502  0.249471  1
  Sn  Sn17  1  0.250000  0.041498  0.750529  1
  Sn  Sn18  1  0.750000  0.458502  0.250529  1
  Sn  Sn19  1  0.250000  0.541498  0.749471  1
  Sb  Sb20  1  0.750000  0.570383  0.502930  1
  Sb  Sb21  1  0.250000  0.429617  0.497070  1
  Sb  Sb22  1  0.750000  0.070383  0.997070  1
  Sb  Sb23  1  0.250000  0.929617  0.002930  1
  Sb  Sb24  1  0.750000  0.434848  0.644085  1
  Sb  Sb25  1  0.250000  0.065152  0.144085  1
  Sb  Sb26  1  0.250000  0.565152  0.355915  1
  Sb  Sb27  1  0.750000  0.934848  0.855915  1
  Sb  Sb28  1  0.750000  0.838840  0.577984  1
  Sb  Sb29  1  0.250000  0.161160  0.422016  1
  Sb  Sb30  1  0.750000  0.338840  0.922016  1
  Sb  Sb31  1  0.250000  0.661160  0.077984  1
  Sb  Sb32  1  0.750000  0.699040  0.002362  1
  Sb  Sb33  1  0.250000  0.300960  0.997638  1
  Sb  Sb34  1  0.750000  0.199040  0.497638  1
  Sb  Sb35  1  0.250000  0.800960  0.502362  1
  Sb  Sb36  1  0.750000  0.651032  0.196662  1
  Sb  Sb37  1  0.250000  0.348968  0.803338  1
  Sb  Sb38  1  0.750000  0.151032  0.303338  1
  Sb  Sb39  1  0.250000  0.848968  0.696662  1
  Sb  Sb40  1  0.750000  0.615983  0.815033  1
  Sb  Sb41  1  0.250000  0.384017  0.184967  1
  Sb  Sb42  1  0.750000  0.115983  0.684967  1
  Sb  Sb43  1  0.250000  0.884017  0.315033  1
