# generated using pymatgen
data_NaTa3N5
_symmetry_space_group_name_H-M   'P 1'
_cell_length_a   5.51374153
_cell_length_b   5.51374153
_cell_length_c   10.42433878
_cell_angle_alpha   90.00000000
_cell_angle_beta   90.00000000
_cell_angle_gamma   137.02676655
_symmetry_Int_Tables_number   1
_chemical_formula_structural   NaTa3N5
_chemical_formula_sum   'Na2 Ta6 N10'
_cell_volume   216.02647732
_cell_formula_units_Z   2
loop_
 _symmetry_equiv_pos_site_id
 _symmetry_equiv_pos_as_xyz
  1  'x, y, z'
loop_
 _atom_site_type_symbol
 _atom_site_label
 _atom_site_symmetry_multiplicity
 _atom_site_fract_x
 _atom_site_fract_y
 _atom_site_fract_z
 _atom_site_occupancy
  Na  Na0  1  0.503917  0.496084  0.750000  1
  Na  Na1  1  0.496084  0.503916  0.250000  1
  Ta  Ta2  1  0.139803  0.860197  0.546819  1
  Ta  Ta3  1  0.796558  0.203442  0.750000  1
  Ta  Ta4  1  0.860197  0.139803  0.046819  1
  Ta  Ta5  1  0.860197  0.139803  0.453181  1
  Ta  Ta6  1  0.203442  0.796558  0.250000  1
  Ta  Ta7  1  0.139803  0.860197  0.953181  1
  N  N8  1  0.320982  0.679018  0.078887  1
  N  N9  1  0.954695  0.045305  0.878516  1
  N  N10  1  0.954695  0.045305  0.621484  1
  N  N11  1  0.045305  0.954695  0.378516  1
  N  N12  1  0.320982  0.679018  0.421113  1
  N  N13  1  0.253467  0.746533  0.750000  1
  N  N14  1  0.679018  0.320982  0.578887  1
  N  N15  1  0.746533  0.253467  0.250000  1
  N  N16  1  0.045305  0.954695  0.121484  1
  N  N17  1  0.679018  0.320982  0.921113  1
