# generated using pymatgen
data_Sr2FeN2
_symmetry_space_group_name_H-M   'P 1'
_cell_length_a   6.55185397
_cell_length_b   8.66721287
_cell_length_c   8.89040514
_cell_angle_alpha   90.12804340
_cell_angle_beta   109.55065452
_cell_angle_gamma   102.25496291
_symmetry_Int_Tables_number   1
_chemical_formula_structural   Sr2FeN2
_chemical_formula_sum   'Sr10 Fe5 N10'
_cell_volume   463.43177208
_cell_formula_units_Z   5
loop_
 _symmetry_equiv_pos_site_id
 _symmetry_equiv_pos_as_xyz
  1  'x, y, z'
loop_
 _atom_site_type_symbol
 _atom_site_label
 _atom_site_symmetry_multiplicity
 _atom_site_fract_x
 _atom_site_fract_y
 _atom_site_fract_z
 _atom_site_occupancy
  Sr  Sr0  1  0.109335  0.849152  0.180097  1
  Sr  Sr1  1  0.890665  0.150848  0.819903  1
  Sr  Sr2  1  0.230697  0.565423  0.935128  1
  Sr  Sr3  1  0.856151  0.135494  0.356936  1
  Sr  Sr4  1  0.143849  0.864506  0.643064  1
  Sr  Sr5  1  0.630571  0.702124  0.732602  1
  Sr  Sr6  1  0.369429  0.297876  0.267398  1
  Sr  Sr7  1  0.617527  0.697901  0.332195  1
  Sr  Sr8  1  0.382473  0.302099  0.667805  1
  Sr  Sr9  1  0.769303  0.434577  0.064872  1
  Fe  Fe10  1  0.500000  0.000000  0.500000  1
  Fe  Fe11  1  0.899524  0.470406  0.592121  1
  Fe  Fe12  1  0.413912  0.107217  0.979396  1
  Fe  Fe13  1  0.586088  0.892783  0.020604  1
  Fe  Fe14  1  0.100476  0.529594  0.407879  1
  N  N15  1  0.761813  0.931022  0.568789  1
  N  N16  1  0.679040  0.713656  0.044531  1
  N  N17  1  0.320960  0.286344  0.955469  1
  N  N18  1  0.293718  0.893641  0.959164  1
  N  N19  1  0.706282  0.106359  0.040836  1
  N  N20  1  0.238187  0.068978  0.431211  1
  N  N21  1  0.802345  0.443576  0.761349  1
  N  N22  1  0.197655  0.556424  0.238651  1
  N  N23  1  0.799931  0.440388  0.368398  1
  N  N24  1  0.200069  0.559612  0.631602  1
