# generated using pymatgen
data_Li7TaO6
_symmetry_space_group_name_H-M   'P 1'
_cell_length_a   5.88489157
_cell_length_b   5.88489157
_cell_length_c   5.88489157
_cell_angle_alpha   56.84763991
_cell_angle_beta   56.84763991
_cell_angle_gamma   56.84763991
_symmetry_Int_Tables_number   1
_chemical_formula_structural   Li7TaO6
_chemical_formula_sum   'Li7 Ta1 O6'
_cell_volume   133.62927869
_cell_formula_units_Z   1
loop_
 _symmetry_equiv_pos_site_id
 _symmetry_equiv_pos_as_xyz
  1  'x, y, z'
loop_
 _atom_site_type_symbol
 _atom_site_label
 _atom_site_symmetry_multiplicity
 _atom_site_fract_x
 _atom_site_fract_y
 _atom_site_fract_z
 _atom_site_occupancy
  Li  Li0  1  0.878198  0.273953  0.501934  1
  Li  Li1  1  0.501934  0.878198  0.273953  1
  Li  Li2  1  0.273953  0.501934  0.878198  1
  Li  Li3  1  0.068658  0.765071  0.510935  1
  Li  Li4  1  0.510935  0.068658  0.765071  1
  Li  Li5  1  0.765071  0.510935  0.068658  1
  Li  Li6  1  0.345410  0.345410  0.345410  1
  Ta  Ta7  1  0.998667  0.998667  0.998667  1
  O  O8  1  0.357329  0.768665  0.114767  1
  O  O9  1  0.768665  0.114767  0.357329  1
  O  O10  1  0.114767  0.357329  0.768665  1
  O  O11  1  0.927768  0.625030  0.202115  1
  O  O12  1  0.202115  0.927768  0.625030  1
  O  O13  1  0.625030  0.202115  0.927768  1
