# generated using pymatgen
data_HfSn
_symmetry_space_group_name_H-M   'P 1'
_cell_length_a   5.66802257
_cell_length_b   5.66802257
_cell_length_c   5.66802257
_cell_angle_alpha   90.00000000
_cell_angle_beta   90.00000000
_cell_angle_gamma   90.00000000
_symmetry_Int_Tables_number   1
_chemical_formula_structural   HfSn
_chemical_formula_sum   'Hf4 Sn4'
_cell_volume   182.09361291
_cell_formula_units_Z   4
loop_
 _symmetry_equiv_pos_site_id
 _symmetry_equiv_pos_as_xyz
  1  'x, y, z'
loop_
 _atom_site_type_symbol
 _atom_site_label
 _atom_site_symmetry_multiplicity
 _atom_site_fract_x
 _atom_site_fract_y
 _atom_site_fract_z
 _atom_site_occupancy
  Hf  Hf0  1  0.857069  0.642931  0.357069  1
  Hf  Hf1  1  0.642931  0.357069  0.857069  1
  Hf  Hf2  1  0.357069  0.857069  0.642931  1
  Hf  Hf3  1  0.142931  0.142931  0.142931  1
  Sn  Sn4  1  0.156365  0.343635  0.656365  1
  Sn  Sn5  1  0.343635  0.656365  0.156365  1
  Sn  Sn6  1  0.656365  0.156365  0.343635  1
  Sn  Sn7  1  0.843635  0.843635  0.843635  1
