# generated using pymatgen
data_H6CN3ClO
_symmetry_space_group_name_H-M   'P 1'
_cell_length_a   4.68143778
_cell_length_b   7.55762986
_cell_length_c   13.88605261
_cell_angle_alpha   90.00000000
_cell_angle_beta   90.00000000
_cell_angle_gamma   90.00000000
_symmetry_Int_Tables_number   1
_chemical_formula_structural   H6CN3ClO
_chemical_formula_sum   'H24 C4 N12 Cl4 O4'
_cell_volume   491.29651130
_cell_formula_units_Z   4
loop_
 _symmetry_equiv_pos_site_id
 _symmetry_equiv_pos_as_xyz
  1  'x, y, z'
loop_
 _atom_site_type_symbol
 _atom_site_label
 _atom_site_symmetry_multiplicity
 _atom_site_fract_x
 _atom_site_fract_y
 _atom_site_fract_z
 _atom_site_occupancy
  H  H0  1  0.050223  0.460854  0.494152  1
  H  H1  1  0.550223  0.039146  0.505848  1
  H  H2  1  0.949777  0.960854  0.005848  1
  H  H3  1  0.449777  0.539146  0.994152  1
  H  H4  1  0.216253  0.596655  0.577330  1
  H  H5  1  0.716253  0.903345  0.422670  1
  H  H6  1  0.783747  0.096655  0.922670  1
  H  H7  1  0.283747  0.403345  0.077330  1
  H  H8  1  0.857447  0.568494  0.583953  1
  H  H9  1  0.357447  0.931506  0.416047  1
  H  H10  1  0.142553  0.068494  0.916047  1
  H  H11  1  0.642553  0.431506  0.083953  1
  H  H12  1  0.320419  0.328775  0.629665  1
  H  H13  1  0.626992  0.037587  0.165618  1
  H  H14  1  0.679581  0.828775  0.870335  1
  H  H15  1  0.179581  0.671225  0.129665  1
  H  H16  1  0.207760  0.056044  0.691695  1
  H  H17  1  0.707760  0.443956  0.308305  1
  H  H18  1  0.792240  0.556044  0.808305  1
  H  H19  1  0.292240  0.943956  0.191695  1
  H  H20  1  0.873008  0.962413  0.665618  1
  H  H21  1  0.373008  0.537587  0.334382  1
  H  H22  1  0.126992  0.462413  0.834382  1
  H  H23  1  0.820419  0.171225  0.370335  1
  C  C24  1  0.584630  0.780255  0.124552  1
  C  C25  1  0.415370  0.280255  0.375448  1
  C  C26  1  0.084630  0.719745  0.875448  1
  C  C27  1  0.915370  0.219745  0.624552  1
  N  N28  1  0.449604  0.496678  0.065647  1
  N  N29  1  0.550396  0.996678  0.434353  1
  N  N30  1  0.949604  0.003322  0.934353  1
  N  N31  1  0.050396  0.503322  0.565647  1
  N  N32  1  0.105785  0.360629  0.629810  1
  N  N33  1  0.605785  0.139371  0.370190  1
  N  N34  1  0.894215  0.860629  0.870190  1
  N  N35  1  0.394215  0.639371  0.129810  1
  N  N36  1  0.489977  0.932213  0.162296  1
  N  N37  1  0.510023  0.432213  0.337704  1
  N  N38  1  0.010023  0.067787  0.662296  1
  N  N39  1  0.989977  0.567787  0.837704  1
  Cl  Cl40  1  0.546882  0.740074  0.634154  1
  Cl  Cl41  1  0.046882  0.759926  0.365846  1
  Cl  Cl42  1  0.453118  0.240074  0.865846  1
  Cl  Cl43  1  0.953118  0.259926  0.134154  1
  O  O44  1  0.670958  0.238711  0.588010  1
  O  O45  1  0.170958  0.261289  0.411990  1
  O  O46  1  0.329042  0.738711  0.911990  1
  O  O47  1  0.829042  0.761289  0.088010  1
