# generated using pymatgen
data_Li6Si2O7
_symmetry_space_group_name_H-M   'P 1'
_cell_length_a   7.76932653
_cell_length_b   7.76932653
_cell_length_c   4.90626177
_cell_angle_alpha   90.00000000
_cell_angle_beta   90.00000000
_cell_angle_gamma   90.00000000
_symmetry_Int_Tables_number   1
_chemical_formula_structural   Li6Si2O7
_chemical_formula_sum   'Li12 Si4 O14'
_cell_volume   296.15390586
_cell_formula_units_Z   2
loop_
 _symmetry_equiv_pos_site_id
 _symmetry_equiv_pos_as_xyz
  1  'x, y, z'
loop_
 _atom_site_type_symbol
 _atom_site_label
 _atom_site_symmetry_multiplicity
 _atom_site_fract_x
 _atom_site_fract_y
 _atom_site_fract_z
 _atom_site_occupancy
  Li  Li0  1  0.636560  0.417548  0.703350  1
  Li  Li1  1  0.363440  0.582452  0.703350  1
  Li  Li2  1  0.417548  0.363440  0.296650  1
  Li  Li3  1  0.582452  0.636560  0.296650  1
  Li  Li4  1  0.136560  0.082452  0.296650  1
  Li  Li5  1  0.082452  0.863440  0.703350  1
  Li  Li6  1  0.889228  0.610772  0.685707  1
  Li  Li7  1  0.389228  0.889228  0.314293  1
  Li  Li8  1  0.610772  0.110772  0.314293  1
  Li  Li9  1  0.110772  0.389228  0.685707  1
  Li  Li10  1  0.917548  0.136560  0.703350  1
  Li  Li11  1  0.863440  0.917548  0.296650  1
  Si  Si12  1  0.644004  0.855996  0.820510  1
  Si  Si13  1  0.144004  0.644004  0.179490  1
  Si  Si14  1  0.855996  0.355996  0.179490  1
  Si  Si15  1  0.355996  0.144004  0.820510  1
  O  O16  1  0.164255  0.097459  0.708659  1
  O  O17  1  0.902541  0.164255  0.291341  1
  O  O18  1  0.597459  0.664255  0.708659  1
  O  O19  1  0.402541  0.335745  0.708659  1
  O  O20  1  0.335745  0.597459  0.291341  1
  O  O21  1  0.664255  0.402541  0.291341  1
  O  O22  1  0.630568  0.869432  0.153754  1
  O  O23  1  0.130568  0.630568  0.846246  1
  O  O24  1  0.869432  0.369432  0.846246  1
  O  O25  1  0.369432  0.130568  0.153754  1
  O  O26  1  0.500000  0.000000  0.683212  1
  O  O27  1  0.000000  0.500000  0.316788  1
  O  O28  1  0.835745  0.902541  0.708659  1
  O  O29  1  0.097459  0.835745  0.291341  1
