# generated using pymatgen
data_Sn3(PO4)2
_symmetry_space_group_name_H-M   'P 1'
_cell_length_a   11.45524092
_cell_length_b   4.96016796
_cell_length_c   16.82636068
_cell_angle_alpha   90.00000000
_cell_angle_beta   94.67489395
_cell_angle_gamma   90.00000000
_symmetry_Int_Tables_number   1
_chemical_formula_structural   Sn3(PO4)2
_chemical_formula_sum   'Sn12 P8 O32'
_cell_volume   952.89178381
_cell_formula_units_Z   4
loop_
 _symmetry_equiv_pos_site_id
 _symmetry_equiv_pos_as_xyz
  1  'x, y, z'
loop_
 _atom_site_type_symbol
 _atom_site_label
 _atom_site_symmetry_multiplicity
 _atom_site_fract_x
 _atom_site_fract_y
 _atom_site_fract_z
 _atom_site_occupancy
  Sn  Sn0  1  0.142729  0.879603  0.963516  1
  Sn  Sn1  1  0.857271  0.379603  0.536484  1
  Sn  Sn2  1  0.857271  0.120397  0.036484  1
  Sn  Sn3  1  0.142729  0.620397  0.463516  1
  Sn  Sn4  1  0.480813  0.722235  0.632304  1
  Sn  Sn5  1  0.519187  0.222235  0.867696  1
  Sn  Sn6  1  0.519187  0.277765  0.367696  1
  Sn  Sn7  1  0.480813  0.777765  0.132304  1
  Sn  Sn8  1  0.807388  0.753483  0.783917  1
  Sn  Sn9  1  0.192612  0.253483  0.716083  1
  Sn  Sn10  1  0.192612  0.246517  0.216083  1
  Sn  Sn11  1  0.807388  0.746517  0.283917  1
  P  P12  1  0.649493  0.695895  0.973193  1
  P  P13  1  0.350507  0.195895  0.526807  1
  P  P14  1  0.350507  0.304105  0.026807  1
  P  P15  1  0.649493  0.804105  0.473193  1
  P  P16  1  0.022001  0.785199  0.647564  1
  P  P17  1  0.977999  0.285199  0.852436  1
  P  P18  1  0.977999  0.214801  0.352436  1
  P  P19  1  0.022001  0.714801  0.147564  1
  O  O20  1  0.648873  0.386333  0.955312  1
  O  O21  1  0.351127  0.886333  0.544688  1
  O  O22  1  0.351127  0.613667  0.044688  1
  O  O23  1  0.648873  0.113667  0.455312  1
  O  O24  1  0.625868  0.748090  0.061319  1
  O  O25  1  0.374132  0.248090  0.438681  1
  O  O26  1  0.374132  0.251910  0.938681  1
  O  O27  1  0.625868  0.751910  0.561319  1
  O  O28  1  0.554631  0.823967  0.913427  1
  O  O29  1  0.445369  0.323967  0.586573  1
  O  O30  1  0.445369  0.176033  0.086573  1
  O  O31  1  0.554631  0.676033  0.413427  1
  O  O32  1  0.773543  0.807964  0.960239  1
  O  O33  1  0.226457  0.307964  0.539761  1
  O  O34  1  0.226457  0.192036  0.039761  1
  O  O35  1  0.773543  0.692036  0.460239  1
  O  O36  1  0.040922  0.094405  0.647383  1
  O  O37  1  0.959078  0.594405  0.852617  1
  O  O38  1  0.959078  0.905595  0.352617  1
  O  O39  1  0.040922  0.405595  0.147383  1
  O  O40  1  0.127735  0.841876  0.197423  1
  O  O41  1  0.872265  0.341876  0.302577  1
  O  O42  1  0.872265  0.158124  0.802577  1
  O  O43  1  0.127735  0.658124  0.697423  1
  O  O44  1  0.014185  0.825759  0.059413  1
  O  O45  1  0.985815  0.325759  0.440587  1
  O  O46  1  0.985815  0.174241  0.940587  1
  O  O47  1  0.014185  0.674241  0.559413  1
  O  O48  1  0.901675  0.791572  0.176713  1
  O  O49  1  0.098325  0.291572  0.323287  1
  O  O50  1  0.098325  0.208428  0.823287  1
  O  O51  1  0.901675  0.708428  0.676713  1
