# generated using pymatgen
data_RbB10H9
_symmetry_space_group_name_H-M   'P 1'
_cell_length_a   7.30088936
_cell_length_b   12.71810641
_cell_length_c   19.06721549
_cell_angle_alpha   90.00000000
_cell_angle_beta   90.00000000
_cell_angle_gamma   90.00000000
_symmetry_Int_Tables_number   1
_chemical_formula_structural   RbB10H9
_chemical_formula_sum   'Rb8 B80 H72'
_cell_volume   1770.45746027
_cell_formula_units_Z   8
loop_
 _symmetry_equiv_pos_site_id
 _symmetry_equiv_pos_as_xyz
  1  'x, y, z'
loop_
 _atom_site_type_symbol
 _atom_site_label
 _atom_site_symmetry_multiplicity
 _atom_site_fract_x
 _atom_site_fract_y
 _atom_site_fract_z
 _atom_site_occupancy
  Rb  Rb0  1  0.170223  0.126565  0.419333  1
  Rb  Rb1  1  0.829777  0.873435  0.919333  1
  Rb  Rb2  1  0.329777  0.626565  0.419333  1
  Rb  Rb3  1  0.670223  0.373435  0.919333  1
  Rb  Rb4  1  0.824856  0.866091  0.581580  1
  Rb  Rb5  1  0.175144  0.133909  0.081580  1
  Rb  Rb6  1  0.675144  0.366091  0.581580  1
  Rb  Rb7  1  0.324856  0.633909  0.081580  1
  B  B8  1  0.433773  0.300026  0.182740  1
  B  B9  1  0.566227  0.699974  0.682740  1
  B  B10  1  0.066227  0.800026  0.182740  1
  B  B11  1  0.933773  0.199974  0.682740  1
  B  B12  1  0.639917  0.310276  0.221990  1
  B  B13  1  0.360083  0.689724  0.721990  1
  B  B14  1  0.860083  0.810276  0.221990  1
  B  B15  1  0.139917  0.189724  0.721990  1
  B  B16  1  0.601570  0.217787  0.150906  1
  B  B17  1  0.398430  0.782213  0.650906  1
  B  B18  1  0.898430  0.717787  0.150906  1
  B  B19  1  0.101570  0.282213  0.650906  1
  B  B20  1  0.507348  0.327086  0.099741  1
  B  B21  1  0.492652  0.672914  0.599741  1
  B  B22  1  0.992652  0.827086  0.099741  1
  B  B23  1  0.007348  0.172914  0.599741  1
  B  B24  1  0.542830  0.417666  0.171482  1
  B  B25  1  0.457170  0.582334  0.671482  1
  B  B26  1  0.957170  0.917666  0.171482  1
  B  B27  1  0.042830  0.082334  0.671482  1
  B  B28  1  0.830599  0.264129  0.169914  1
  B  B29  1  0.169401  0.735871  0.669914  1
  B  B30  1  0.669401  0.764129  0.169914  1
  B  B31  1  0.330599  0.235871  0.669914  1
  B  B32  1  0.736745  0.278612  0.082764  1
  B  B33  1  0.263255  0.721388  0.582764  1
  B  B34  1  0.763255  0.778612  0.082764  1
  B  B35  1  0.236745  0.221388  0.582764  1
  B  B36  1  0.695790  0.419403  0.097028  1
  B  B37  1  0.304210  0.580597  0.597028  1
  B  B38  1  0.804210  0.919403  0.097028  1
  B  B39  1  0.195790  0.080597  0.597028  1
  B  B40  1  0.787316  0.402957  0.184892  1
  B  B41  1  0.212684  0.597043  0.684892  1
  B  B42  1  0.712684  0.902957  0.184892  1
  B  B43  1  0.287316  0.097043  0.684892  1
  B  B44  1  0.903476  0.360555  0.113840  1
  B  B45  1  0.096524  0.639445  0.613840  1
  B  B46  1  0.596524  0.860555  0.113840  1
  B  B47  1  0.403476  0.139445  0.613840  1
  B  B48  1  0.603241  0.398571  0.390130  1
  B  B49  1  0.396759  0.601429  0.890130  1
  B  B50  1  0.896759  0.898571  0.390130  1
  B  B51  1  0.103241  0.101429  0.890130  1
  B  B52  1  0.675724  0.495595  0.334578  1
  B  B53  1  0.324276  0.504405  0.834578  1
  B  B54  1  0.824276  0.995595  0.334578  1
  B  B55  1  0.175724  0.004405  0.834578  1
  B  B56  1  0.770195  0.479844  0.421805  1
  B  B57  1  0.229805  0.520156  0.921805  1
  B  B58  1  0.729805  0.979844  0.421805  1
  B  B59  1  0.270195  0.020156  0.921805  1
  B  B60  1  0.810901  0.339387  0.406453  1
  B  B61  1  0.189099  0.660613  0.906453  1
  B  B62  1  0.689099  0.839387  0.406453  1
  B  B63  1  0.310901  0.160613  0.906453  1
  B  B64  1  0.719177  0.356958  0.318827  1
  B  B65  1  0.280823  0.643042  0.818827  1
  B  B66  1  0.780823  0.856958  0.318827  1
  B  B67  1  0.219177  0.143042  0.818827  1
  B  B68  1  0.904653  0.541709  0.353876  1
  B  B69  1  0.095347  0.458291  0.853876  1
  B  B70  1  0.595347  0.041709  0.353876  1
  B  B71  1  0.404653  0.958291  0.853876  1
  B  B72  1  0.999536  0.431788  0.404482  1
  B  B73  1  0.000464  0.568212  0.904482  1
  B  B74  1  0.500464  0.931788  0.404482  1
  B  B75  1  0.499536  0.068212  0.904482  1
  B  B76  1  0.963682  0.342250  0.332043  1
  B  B77  1  0.036318  0.657750  0.832043  1
  B  B78  1  0.536318  0.842250  0.332043  1
  B  B79  1  0.463682  0.157750  0.832043  1
  B  B80  1  0.866341  0.450063  0.282150  1
  B  B81  1  0.133659  0.549937  0.782150  1
  B  B82  1  0.633659  0.950063  0.282150  1
  B  B83  1  0.366341  0.049937  0.782150  1
  B  B84  1  0.072426  0.460056  0.321519  1
  B  B85  1  0.927574  0.539944  0.821519  1
  B  B86  1  0.427574  0.960056  0.321519  1
  B  B87  1  0.572426  0.039944  0.821519  1
  H  H88  1  0.616768  0.284953  0.288276  1
  H  H89  1  0.383232  0.715047  0.788276  1
  H  H90  1  0.883232  0.784953  0.288276  1
  H  H91  1  0.116768  0.215047  0.788276  1
  H  H92  1  0.888517  0.475433  0.215739  1
  H  H93  1  0.111483  0.524567  0.715739  1
  H  H94  1  0.611483  0.975433  0.215739  1
  H  H95  1  0.388517  0.024567  0.715739  1
  H  H96  1  0.285692  0.281102  0.205956  1
  H  H97  1  0.714308  0.718898  0.705956  1
  H  H98  1  0.214308  0.781102  0.205956  1
  H  H99  1  0.785692  0.218898  0.705956  1
  H  H100  1  0.576035  0.124725  0.149123  1
  H  H101  1  0.423965  0.875275  0.649123  1
  H  H102  1  0.923965  0.624725  0.149123  1
  H  H103  1  0.076035  0.375275  0.649123  1
  H  H104  1  0.396877  0.329171  0.052904  1
  H  H105  1  0.603123  0.670829  0.552904  1
  H  H106  1  0.103123  0.829171  0.052904  1
  H  H107  1  0.896877  0.170829  0.552904  1
  H  H108  1  0.471077  0.497473  0.190193  1
  H  H109  1  0.528923  0.502527  0.690193  1
  H  H110  1  0.028923  0.997473  0.190193  1
  H  H111  1  0.971077  0.002527  0.690193  1
  H  H112  1  0.935933  0.204044  0.196440  1
  H  H113  1  0.064067  0.795956  0.696440  1
  H  H114  1  0.564067  0.704044  0.196440  1
  H  H115  1  0.435933  0.295956  0.696440  1
  H  H116  1  0.766256  0.228121  0.030507  1
  H  H117  1  0.233744  0.771879  0.530507  1
  H  H118  1  0.733744  0.728121  0.030507  1
  H  H119  1  0.266256  0.271879  0.530507  1
  H  H120  1  0.690460  0.493763  0.058131  1
  H  H121  1  0.309540  0.506237  0.558131  1
  H  H122  1  0.809540  0.993763  0.058131  1
  H  H123  1  0.190460  0.006237  0.558131  1
  H  H124  1  0.053238  0.380499  0.092425  1
  H  H125  1  0.946762  0.619501  0.592425  1
  H  H126  1  0.446762  0.880499  0.092425  1
  H  H127  1  0.553238  0.119501  0.592425  1
  H  H128  1  0.453275  0.377893  0.411295  1
  H  H129  1  0.546725  0.622107  0.911295  1
  H  H130  1  0.046725  0.877893  0.411295  1
  H  H131  1  0.953275  0.122107  0.911295  1
  H  H132  1  0.570631  0.555876  0.308093  1
  H  H133  1  0.429369  0.444124  0.808093  1
  H  H134  1  0.929369  0.055876  0.308093  1
  H  H135  1  0.070631  0.944124  0.808093  1
  H  H136  1  0.742094  0.529285  0.474555  1
  H  H137  1  0.257906  0.470715  0.974555  1
  H  H138  1  0.757906  0.029285  0.474555  1
  H  H139  1  0.242094  0.970715  0.974555  1
  H  H140  1  0.816086  0.264321  0.444634  1
  H  H141  1  0.183914  0.735679  0.944634  1
  H  H142  1  0.683914  0.764321  0.444634  1
  H  H143  1  0.316086  0.235679  0.944634  1
  H  H144  1  0.929525  0.634863  0.356218  1
  H  H145  1  0.070475  0.365137  0.856218  1
  H  H146  1  0.570475  0.134863  0.356218  1
  H  H147  1  0.429525  0.865137  0.856218  1
  H  H148  1  0.108892  0.429333  0.451596  1
  H  H149  1  0.891108  0.570667  0.951596  1
  H  H150  1  0.391108  0.929333  0.451596  1
  H  H151  1  0.608892  0.070667  0.951596  1
  H  H152  1  0.035729  0.263007  0.312504  1
  H  H153  1  0.964271  0.736993  0.812504  1
  H  H154  1  0.464271  0.763007  0.312504  1
  H  H155  1  0.535729  0.236993  0.812504  1
  H  H156  1  0.220464  0.479323  0.298340  1
  H  H157  1  0.779536  0.520677  0.798340  1
  H  H158  1  0.279536  0.979323  0.298340  1
  H  H159  1  0.720464  0.020677  0.798340  1
