# generated using pymatgen
data_Ba3NaIr2O9
_symmetry_space_group_name_H-M   'P 1'
_cell_length_a   5.96074888
_cell_length_b   5.96074888
_cell_length_c   14.87373544
_cell_angle_alpha   88.89565794
_cell_angle_beta   91.10434206
_cell_angle_gamma   60.22205422
_symmetry_Int_Tables_number   1
_chemical_formula_structural   Ba3NaIr2O9
_chemical_formula_sum   'Ba6 Na2 Ir4 O18'
_cell_volume   458.35189281
_cell_formula_units_Z   2
loop_
 _symmetry_equiv_pos_site_id
 _symmetry_equiv_pos_as_xyz
  1  'x, y, z'
loop_
 _atom_site_type_symbol
 _atom_site_label
 _atom_site_symmetry_multiplicity
 _atom_site_fract_x
 _atom_site_fract_y
 _atom_site_fract_z
 _atom_site_occupancy
  Ba  Ba0  1  0.328044  0.339990  0.415252  1
  Ba  Ba1  1  0.998575  0.998575  0.250000  1
  Ba  Ba2  1  0.339990  0.328044  0.084748  1
  Ba  Ba3  1  0.671956  0.660010  0.584748  1
  Ba  Ba4  1  0.001425  0.001425  0.750000  1
  Ba  Ba5  1  0.660010  0.671956  0.915252  1
  Na  Na6  1  0.000000  0.000000  0.000000  1
  Na  Na7  1  1.000000  0.000000  0.500000  1
  Ir  Ir8  1  0.684150  0.652288  0.157450  1
  Ir  Ir9  1  0.347712  0.315850  0.657450  1
  Ir  Ir10  1  0.315850  0.347712  0.842550  1
  Ir  Ir11  1  0.652288  0.684150  0.342550  1
  O  O12  1  0.146168  0.670040  0.902056  1
  O  O13  1  0.670040  0.146168  0.597944  1
  O  O14  1  0.853832  0.329960  0.097944  1
  O  O15  1  0.329960  0.853832  0.402056  1
  O  O16  1  0.794125  0.857223  0.409263  1
  O  O17  1  0.857223  0.794125  0.090737  1
  O  O18  1  0.205875  0.142777  0.590737  1
  O  O19  1  0.142777  0.205875  0.909263  1
  O  O20  1  0.794425  0.389442  0.423097  1
  O  O21  1  0.389442  0.794425  0.076903  1
  O  O22  1  0.205575  0.610558  0.576903  1
  O  O23  1  0.610558  0.205575  0.923097  1
  O  O24  1  0.035849  0.480793  0.739608  1
  O  O25  1  0.480793  0.035849  0.760392  1
  O  O26  1  0.964151  0.519207  0.260392  1
  O  O27  1  0.519207  0.964151  0.239608  1
  O  O28  1  0.481282  0.481282  0.750000  1
  O  O29  1  0.518718  0.518718  0.250000  1
