# generated using pymatgen
data_Ca3Sc2(GeO4)3
_symmetry_space_group_name_H-M   'P 1'
_cell_length_a   10.95559767
_cell_length_b   10.95559767
_cell_length_c   10.95559767
_cell_angle_alpha   109.47122063
_cell_angle_beta   109.47122063
_cell_angle_gamma   109.47122063
_symmetry_Int_Tables_number   1
_chemical_formula_structural   Ca3Sc2(GeO4)3
_chemical_formula_sum   'Ca12 Sc8 Ge12 O48'
_cell_volume   1012.24661755
_cell_formula_units_Z   4
loop_
 _symmetry_equiv_pos_site_id
 _symmetry_equiv_pos_as_xyz
  1  'x, y, z'
loop_
 _atom_site_type_symbol
 _atom_site_label
 _atom_site_symmetry_multiplicity
 _atom_site_fract_x
 _atom_site_fract_y
 _atom_site_fract_z
 _atom_site_occupancy
  Ca  Ca0  1  0.250000  0.375000  0.125000  1
  Ca  Ca1  1  0.375000  0.750000  0.125000  1
  Ca  Ca2  1  0.125000  0.250000  0.375000  1
  Ca  Ca3  1  0.375000  0.125000  0.250000  1
  Ca  Ca4  1  0.125000  0.375000  0.750000  1
  Ca  Ca5  1  0.750000  0.125000  0.375000  1
  Ca  Ca6  1  0.750000  0.625000  0.875000  1
  Ca  Ca7  1  0.625000  0.250000  0.875000  1
  Ca  Ca8  1  0.875000  0.750000  0.625000  1
  Ca  Ca9  1  0.625000  0.875000  0.750000  1
  Ca  Ca10  1  0.875000  0.625000  0.250000  1
  Ca  Ca11  1  0.250000  0.875000  0.625000  1
  Sc  Sc12  1  0.000000  0.000000  0.000000  1
  Sc  Sc13  1  0.000000  0.500000  0.000000  1
  Sc  Sc14  1  0.000000  0.000000  0.500000  1
  Sc  Sc15  1  0.500000  0.000000  0.000000  1
  Sc  Sc16  1  0.000000  0.500000  0.500000  1
  Sc  Sc17  1  0.500000  1.000000  0.500000  1
  Sc  Sc18  1  0.500000  0.500000  0.000000  1
  Sc  Sc19  1  0.500000  0.500000  0.500000  1
  Ge  Ge20  1  0.250000  0.625000  0.375000  1
  Ge  Ge21  1  0.625000  0.750000  0.375000  1
  Ge  Ge22  1  0.875000  0.250000  0.125000  1
  Ge  Ge23  1  0.125000  0.875000  0.250000  1
  Ge  Ge24  1  0.375000  0.625000  0.750000  1
  Ge  Ge25  1  0.750000  0.375000  0.625000  1
  Ge  Ge26  1  0.875000  0.125000  0.750000  1
  Ge  Ge27  1  0.125000  0.750000  0.875000  1
  Ge  Ge28  1  0.625000  0.375000  0.250000  1
  Ge  Ge29  1  0.375000  0.250000  0.625000  1
  Ge  Ge30  1  0.750000  0.875000  0.125000  1
  Ge  Ge31  1  0.250000  0.125000  0.875000  1
  O  O32  1  0.792600  0.413304  0.810475  1
  O  O33  1  0.086696  0.879296  0.397171  1
  O  O34  1  0.689525  0.102829  0.982125  1
  O  O35  1  0.707400  0.517875  0.620704  1
  O  O36  1  0.707400  0.689525  0.086696  1
  O  O37  1  0.517875  0.620704  0.707400  1
  O  O38  1  0.102829  0.620704  0.413304  1
  O  O39  1  0.620704  0.707400  0.517875  1
  O  O40  1  0.397171  0.810475  0.517875  1
  O  O41  1  0.879296  0.982125  0.792600  1
  O  O42  1  0.982125  0.792600  0.879296  1
  O  O43  1  0.086696  0.707400  0.689525  1
  O  O44  1  0.620704  0.413304  0.102829  1
  O  O45  1  0.517875  0.397171  0.810475  1
  O  O46  1  0.689525  0.086696  0.707400  1
  O  O47  1  0.413304  0.102829  0.620704  1
  O  O48  1  0.810475  0.517875  0.397171  1
  O  O49  1  0.397171  0.086696  0.879296  1
  O  O50  1  0.102829  0.982125  0.689525  1
  O  O51  1  0.602829  0.189525  0.482125  1
  O  O52  1  0.982125  0.689525  0.102829  1
  O  O53  1  0.810475  0.792600  0.413304  1
  O  O54  1  0.879296  0.397171  0.086696  1
  O  O55  1  0.792600  0.879296  0.982125  1
  O  O56  1  0.207400  0.586696  0.189525  1
  O  O57  1  0.913304  0.120704  0.602829  1
  O  O58  1  0.310475  0.897171  0.017875  1
  O  O59  1  0.292600  0.482125  0.379296  1
  O  O60  1  0.292600  0.310475  0.913304  1
  O  O61  1  0.482125  0.379296  0.292600  1
  O  O62  1  0.897171  0.379296  0.586696  1
  O  O63  1  0.379296  0.292600  0.482125  1
  O  O64  1  0.207400  0.120704  0.017875  1
  O  O65  1  0.120704  0.602829  0.913304  1
  O  O66  1  0.189525  0.207400  0.586696  1
  O  O67  1  0.586696  0.189525  0.207400  1
  O  O68  1  0.017875  0.310475  0.897171  1
  O  O69  1  0.897171  0.017875  0.310475  1
  O  O70  1  0.602829  0.913304  0.120704  1
  O  O71  1  0.189525  0.482125  0.602829  1
  O  O72  1  0.586696  0.897171  0.379296  1
  O  O73  1  0.310475  0.913304  0.292600  1
  O  O74  1  0.482125  0.602829  0.189525  1
  O  O75  1  0.379296  0.586696  0.897171  1
  O  O76  1  0.913304  0.292600  0.310475  1
  O  O77  1  0.017875  0.207400  0.120704  1
  O  O78  1  0.120704  0.017875  0.207400  1
  O  O79  1  0.413304  0.810475  0.792600  1
