# generated using pymatgen
data_Na2InCuF7
_symmetry_space_group_name_H-M   'P 1'
_cell_length_a   7.36060211
_cell_length_b   7.83559469
_cell_length_c   10.72965672
_cell_angle_alpha   90.00000000
_cell_angle_beta   90.00000000
_cell_angle_gamma   90.00000000
_symmetry_Int_Tables_number   1
_chemical_formula_structural   Na2InCuF7
_chemical_formula_sum   'Na8 In4 Cu4 F28'
_cell_volume   618.82967672
_cell_formula_units_Z   4
loop_
 _symmetry_equiv_pos_site_id
 _symmetry_equiv_pos_as_xyz
  1  'x, y, z'
loop_
 _atom_site_type_symbol
 _atom_site_label
 _atom_site_symmetry_multiplicity
 _atom_site_fract_x
 _atom_site_fract_y
 _atom_site_fract_z
 _atom_site_occupancy
  Na  Na0  1  0.250000  0.217528  0.762244  1
  Na  Na1  1  0.250000  0.282472  0.262244  1
  Na  Na2  1  0.750000  0.782472  0.237756  1
  Na  Na3  1  0.500000  0.000000  0.500000  1
  Na  Na4  1  0.750000  0.717528  0.737756  1
  Na  Na5  1  0.000000  0.000000  0.500000  1
  Na  Na6  1  0.000000  0.500000  0.000000  1
  Na  Na7  1  0.500000  0.500000  0.000000  1
  In  In8  1  0.250000  0.725479  0.767328  1
  In  In9  1  0.750000  0.274521  0.232672  1
  In  In10  1  0.250000  0.774521  0.267328  1
  In  In11  1  0.750000  0.225479  0.732672  1
  Cu  Cu12  1  0.000000  0.000000  0.000000  1
  Cu  Cu13  1  0.500000  0.000000  0.000000  1
  Cu  Cu14  1  0.000000  0.500000  0.500000  1
  Cu  Cu15  1  0.500000  0.500000  0.500000  1
  F  F16  1  0.018599  0.734570  0.377831  1
  F  F17  1  0.250000  0.544384  0.166933  1
  F  F18  1  0.250000  0.955616  0.666933  1
  F  F19  1  0.518599  0.234570  0.122169  1
  F  F20  1  0.750000  0.960184  0.033094  1
  F  F21  1  0.481401  0.734570  0.377831  1
  F  F22  1  0.045531  0.849722  0.140193  1
  F  F23  1  0.250000  0.460184  0.466906  1
  F  F24  1  0.750000  0.455616  0.833067  1
  F  F25  1  0.250000  0.482956  0.858479  1
  F  F26  1  0.018599  0.765430  0.877831  1
  F  F27  1  0.750000  0.044384  0.333067  1
  F  F28  1  0.750000  0.539816  0.533094  1
  F  F29  1  0.750000  0.982956  0.641521  1
  F  F30  1  0.981401  0.265430  0.622169  1
  F  F31  1  0.545531  0.349722  0.359807  1
  F  F32  1  0.481401  0.765430  0.877831  1
  F  F33  1  0.518599  0.265430  0.622169  1
  F  F34  1  0.750000  0.517044  0.141521  1
  F  F35  1  0.250000  0.039816  0.966906  1
  F  F36  1  0.045531  0.650278  0.640193  1
  F  F37  1  0.545531  0.150278  0.859807  1
  F  F38  1  0.954469  0.150278  0.859807  1
  F  F39  1  0.954469  0.349722  0.359807  1
  F  F40  1  0.250000  0.017044  0.358479  1
  F  F41  1  0.981401  0.234570  0.122169  1
  F  F42  1  0.454469  0.849722  0.140193  1
  F  F43  1  0.454469  0.650278  0.640193  1
