# generated using pymatgen
data_Ag3AuS2
_symmetry_space_group_name_H-M   'P 1'
_cell_length_a   9.87438493
_cell_length_b   9.87438493
_cell_length_c   9.87438493
_cell_angle_alpha   90.00000000
_cell_angle_beta   90.00000000
_cell_angle_gamma   90.00000000
_symmetry_Int_Tables_number   1
_chemical_formula_structural   Ag3AuS2
_chemical_formula_sum   'Ag24 Au8 S16'
_cell_volume   962.78687128
_cell_formula_units_Z   8
loop_
 _symmetry_equiv_pos_site_id
 _symmetry_equiv_pos_as_xyz
  1  'x, y, z'
loop_
 _atom_site_type_symbol
 _atom_site_label
 _atom_site_symmetry_multiplicity
 _atom_site_fract_x
 _atom_site_fract_y
 _atom_site_fract_z
 _atom_site_occupancy
  Ag  Ag0  1  0.251497  0.384222  0.000940  1
  Ag  Ag1  1  0.499060  0.748503  0.884222  1
  Ag  Ag2  1  0.751497  0.115778  0.999060  1
  Ag  Ag3  1  0.000940  0.251497  0.384222  1
  Ag  Ag4  1  0.248503  0.615778  0.500940  1
  Ag  Ag5  1  0.748503  0.884222  0.499060  1
  Ag  Ag6  1  0.500940  0.248503  0.615778  1
  Ag  Ag7  1  0.884222  0.499060  0.748503  1
  Ag  Ag8  1  0.615778  0.500940  0.248503  1
  Ag  Ag9  1  0.115778  0.999060  0.751497  1
  Ag  Ag10  1  0.750940  0.634222  0.998503  1
  Ag  Ag11  1  0.749060  0.365778  0.498503  1
  Ag  Ag12  1  0.501497  0.249060  0.134222  1
  Ag  Ag13  1  0.498503  0.749060  0.365778  1
  Ag  Ag14  1  0.865778  0.001497  0.250940  1
  Ag  Ag15  1  0.365778  0.498503  0.749060  1
  Ag  Ag16  1  0.249060  0.134222  0.501497  1
  Ag  Ag17  1  0.998503  0.750940  0.634222  1
  Ag  Ag18  1  0.001497  0.250940  0.865778  1
  Ag  Ag19  1  0.134222  0.501497  0.249060  1
  Ag  Ag20  1  0.634222  0.998503  0.750940  1
  Ag  Ag21  1  0.384222  0.000940  0.251497  1
  Ag  Ag22  1  0.999060  0.751497  0.115778  1
  Ag  Ag23  1  0.250940  0.865778  0.001497  1
  Au  Au24  1  0.622056  0.622056  0.622056  1
  Au  Au25  1  0.872056  0.627944  0.372056  1
  Au  Au26  1  0.627944  0.372056  0.872056  1
  Au  Au27  1  0.372056  0.872056  0.627944  1
  Au  Au28  1  0.122056  0.877944  0.377944  1
  Au  Au29  1  0.877944  0.377944  0.122056  1
  Au  Au30  1  0.377944  0.122056  0.877944  1
  Au  Au31  1  0.127944  0.127944  0.127944  1
  S  S32  1  0.760829  0.760829  0.760829  1
  S  S33  1  0.010829  0.489171  0.510829  1
  S  S34  1  0.489171  0.510829  0.010829  1
  S  S35  1  0.510829  0.010829  0.489171  1
  S  S36  1  0.260829  0.739171  0.239171  1
  S  S37  1  0.739171  0.239171  0.260829  1
  S  S38  1  0.239171  0.260829  0.739171  1
  S  S39  1  0.989171  0.989171  0.989171  1
  S  S40  1  0.766471  0.233529  0.733529  1
  S  S41  1  0.233529  0.733529  0.766471  1
  S  S42  1  0.983529  0.016471  0.516471  1
  S  S43  1  0.016471  0.516471  0.983529  1
  S  S44  1  0.516471  0.983529  0.016471  1
  S  S45  1  0.266471  0.266471  0.266471  1
  S  S46  1  0.483529  0.483529  0.483529  1
  S  S47  1  0.733529  0.766471  0.233529  1
