# generated using pymatgen
data_NaCu3F7
_symmetry_space_group_name_H-M   'P 1'
_cell_length_a   7.16633046
_cell_length_b   7.16633046
_cell_length_c   6.99487402
_cell_angle_alpha   64.51879512
_cell_angle_beta   115.48120488
_cell_angle_gamma   117.37726004
_symmetry_Int_Tables_number   1
_chemical_formula_structural   NaCu3F7
_chemical_formula_sum   'Na2 Cu6 F14'
_cell_volume   275.60100249
_cell_formula_units_Z   2
loop_
 _symmetry_equiv_pos_site_id
 _symmetry_equiv_pos_as_xyz
  1  'x, y, z'
loop_
 _atom_site_type_symbol
 _atom_site_label
 _atom_site_symmetry_multiplicity
 _atom_site_fract_x
 _atom_site_fract_y
 _atom_site_fract_z
 _atom_site_occupancy
  Na  Na0  1  0.500000  0.500000  0.000000  1
  Na  Na1  1  0.500000  0.500000  0.500000  1
  Cu  Cu2  1  1.000000  0.500000  0.500000  1
  Cu  Cu3  1  0.500000  1.000000  0.000000  1
  Cu  Cu4  1  0.000000  0.000000  0.500000  1
  Cu  Cu5  1  1.000000  1.000000  0.000000  1
  Cu  Cu6  1  0.500000  1.000000  0.500000  1
  Cu  Cu7  1  1.000000  0.500000  0.000000  1
  F  F8  1  0.106342  0.106342  0.250000  1
  F  F9  1  0.893658  0.893658  0.750000  1
  F  F10  1  0.307974  0.615535  0.105082  1
  F  F11  1  0.615535  0.307974  0.394918  1
  F  F12  1  0.692026  0.384465  0.894918  1
  F  F13  1  0.384465  0.692026  0.605082  1
  F  F14  1  0.970488  0.622805  0.184629  1
  F  F15  1  0.622805  0.970488  0.315371  1
  F  F16  1  0.701919  0.893231  0.002205  1
  F  F17  1  0.893231  0.701919  0.497795  1
  F  F18  1  0.298081  0.106769  0.997795  1
  F  F19  1  0.106769  0.298081  0.502205  1
  F  F20  1  0.377195  0.029512  0.684629  1
  F  F21  1  0.029512  0.377195  0.815371  1
