# generated using pymatgen
data_Cu5P3O13
_symmetry_space_group_name_H-M   'P 1'
_cell_length_a   8.09309599
_cell_length_b   6.18595120
_cell_length_c   9.95559263
_cell_angle_alpha   90.00000000
_cell_angle_beta   92.14272103
_cell_angle_gamma   90.00000000
_symmetry_Int_Tables_number   1
_chemical_formula_structural   Cu5P3O13
_chemical_formula_sum   'Cu10 P6 O26'
_cell_volume   498.06328737
_cell_formula_units_Z   2
loop_
 _symmetry_equiv_pos_site_id
 _symmetry_equiv_pos_as_xyz
  1  'x, y, z'
loop_
 _atom_site_type_symbol
 _atom_site_label
 _atom_site_symmetry_multiplicity
 _atom_site_fract_x
 _atom_site_fract_y
 _atom_site_fract_z
 _atom_site_occupancy
  Cu  Cu0  1  0.864246  0.500518  0.222303  1
  Cu  Cu1  1  0.771488  0.750000  0.538822  1
  Cu  Cu2  1  0.228512  0.250000  0.461178  1
  Cu  Cu3  1  0.135754  0.499482  0.777697  1
  Cu  Cu4  1  0.135754  0.000518  0.777697  1
  Cu  Cu5  1  0.150211  0.250000  0.078256  1
  Cu  Cu6  1  0.571393  0.750000  0.112780  1
  Cu  Cu7  1  0.428607  0.250000  0.887220  1
  Cu  Cu8  1  0.864246  0.999482  0.222303  1
  Cu  Cu9  1  0.849789  0.750000  0.921744  1
  P  P10  1  0.867718  0.250000  0.495426  1
  P  P11  1  0.132282  0.750000  0.504574  1
  P  P12  1  0.489256  0.750000  0.770656  1
  P  P13  1  0.841053  0.250000  0.887897  1
  P  P14  1  0.158947  0.750000  0.112103  1
  P  P15  1  0.510744  0.250000  0.229344  1
  O  O16  1  0.042355  0.250000  0.570944  1
  O  O17  1  0.089237  0.750000  0.660918  1
  O  O18  1  0.375469  0.954516  0.781823  1
  O  O19  1  0.098241  0.542742  0.187119  1
  O  O20  1  0.610232  0.750000  0.897343  1
  O  O21  1  0.901759  0.042742  0.812881  1
  O  O22  1  0.237388  0.945835  0.469311  1
  O  O23  1  0.098241  0.957258  0.187119  1
  O  O24  1  0.389768  0.250000  0.102657  1
  O  O25  1  0.910982  0.250000  0.036327  1
  O  O26  1  0.344576  0.750000  0.112840  1
  O  O27  1  0.624531  0.454516  0.218177  1
  O  O28  1  0.423625  0.250000  0.360469  1
  O  O29  1  0.193981  0.250000  0.880684  1
  O  O30  1  0.375469  0.545484  0.781823  1
  O  O31  1  0.762612  0.445835  0.530689  1
  O  O32  1  0.957645  0.750000  0.429056  1
  O  O33  1  0.901759  0.457258  0.812881  1
  O  O34  1  0.910763  0.250000  0.339082  1
  O  O35  1  0.576375  0.750000  0.639531  1
  O  O36  1  0.237388  0.554165  0.469311  1
  O  O37  1  0.762612  0.054165  0.530689  1
  O  O38  1  0.089018  0.750000  0.963673  1
  O  O39  1  0.806019  0.750000  0.119316  1
  O  O40  1  0.624531  0.045484  0.218177  1
  O  O41  1  0.655424  0.250000  0.887160  1
