# generated using pymatgen
data_Rb2CoH8(CO5)2
_symmetry_space_group_name_H-M   'P 1'
_cell_length_a   7.17916354
_cell_length_b   6.48362613
_cell_length_c   12.43993977
_cell_angle_alpha   90.00000000
_cell_angle_beta   115.24735472
_cell_angle_gamma   90.00000000
_symmetry_Int_Tables_number   1
_chemical_formula_structural   Rb2CoH8(CO5)2
_chemical_formula_sum   'Rb4 Co2 H16 C4 O20'
_cell_volume   523.72894603
_cell_formula_units_Z   2
loop_
 _symmetry_equiv_pos_site_id
 _symmetry_equiv_pos_as_xyz
  1  'x, y, z'
loop_
 _atom_site_type_symbol
 _atom_site_label
 _atom_site_symmetry_multiplicity
 _atom_site_fract_x
 _atom_site_fract_y
 _atom_site_fract_z
 _atom_site_occupancy
  Rb  Rb0  1  0.246338  0.654041  0.323260  1
  Rb  Rb1  1  0.753662  0.154041  0.176740  1
  Rb  Rb2  1  0.753662  0.345959  0.676740  1
  Rb  Rb3  1  0.246338  0.845959  0.823260  1
  Co  Co4  1  0.000000  0.500000  0.000000  1
  Co  Co5  1  0.000000  0.000000  0.500000  1
  H  H6  1  0.800345  0.661917  0.129935  1
  H  H7  1  0.199655  0.161917  0.370065  1
  H  H8  1  0.199655  0.338083  0.870065  1
  H  H9  1  0.800345  0.838083  0.629935  1
  H  H10  1  0.800714  0.798373  0.017005  1
  H  H11  1  0.199286  0.298373  0.482995  1
  H  H12  1  0.199286  0.201627  0.982995  1
  H  H13  1  0.800714  0.701627  0.517005  1
  H  H14  1  0.289522  0.824758  0.084150  1
  H  H15  1  0.424737  0.880336  0.618623  1
  H  H16  1  0.710478  0.175242  0.915850  1
  H  H17  1  0.289522  0.675242  0.584150  1
  H  H18  1  0.424737  0.619664  0.118623  1
  H  H19  1  0.575263  0.119664  0.381377  1
  H  H20  1  0.575263  0.380336  0.881377  1
  H  H21  1  0.710478  0.324758  0.415850  1
  C  C22  1  0.751088  0.658172  0.320154  1
  C  C23  1  0.248912  0.158172  0.179846  1
  C  C24  1  0.751088  0.841828  0.820154  1
  C  C25  1  0.248912  0.341828  0.679846  1
  O  O26  1  0.285974  0.826046  0.564297  1
  O  O27  1  0.714026  0.326046  0.935703  1
  O  O28  1  0.714026  0.173954  0.435703  1
  O  O29  1  0.285974  0.673954  0.064297  1
  O  O30  1  0.887897  0.788670  0.589640  1
  O  O31  1  0.112103  0.288670  0.910360  1
  O  O32  1  0.881174  0.689865  0.849327  1
  O  O33  1  0.118826  0.189865  0.650673  1
  O  O34  1  0.118826  0.310135  0.150673  1
  O  O35  1  0.881174  0.810135  0.349327  1
  O  O36  1  0.681225  0.918099  0.713340  1
  O  O37  1  0.318775  0.418099  0.786660  1
  O  O38  1  0.318775  0.081901  0.286660  1
  O  O39  1  0.112103  0.211330  0.410360  1
  O  O40  1  0.690158  0.919323  0.896829  1
  O  O41  1  0.309842  0.419323  0.603171  1
  O  O42  1  0.309842  0.080677  0.103171  1
  O  O43  1  0.690158  0.580677  0.396829  1
  O  O44  1  0.887897  0.711330  0.089640  1
  O  O45  1  0.681225  0.581901  0.213340  1
