# generated using pymatgen
data_Nd2Tl
_symmetry_space_group_name_H-M   'P 1'
_cell_length_a   5.58904693
_cell_length_b   5.58904693
_cell_length_c   6.97181798
_cell_angle_alpha   90.00000000
_cell_angle_beta   90.00000000
_cell_angle_gamma   120.00000000
_symmetry_Int_Tables_number   1
_chemical_formula_structural   Nd2Tl
_chemical_formula_sum   'Nd4 Tl2'
_cell_volume   188.60455835
_cell_formula_units_Z   2
loop_
 _symmetry_equiv_pos_site_id
 _symmetry_equiv_pos_as_xyz
  1  'x, y, z'
loop_
 _atom_site_type_symbol
 _atom_site_label
 _atom_site_symmetry_multiplicity
 _atom_site_fract_x
 _atom_site_fract_y
 _atom_site_fract_z
 _atom_site_occupancy
  Nd  Nd0  1  0.000000  0.000000  0.000000  1
  Nd  Nd1  1  0.000000  0.000000  0.500000  1
  Nd  Nd2  1  0.333333  0.666667  0.750000  1
  Nd  Nd3  1  0.666667  0.333333  0.250000  1
  Tl  Tl4  1  0.333333  0.666667  0.250000  1
  Tl  Tl5  1  0.666667  0.333333  0.750000  1
