# generated using pymatgen
data_TaTe4
_symmetry_space_group_name_H-M   'P 1'
_cell_length_a   9.37401816
_cell_length_b   9.37401816
_cell_length_c   20.90990554
_cell_angle_alpha   90.00000000
_cell_angle_beta   90.00000000
_cell_angle_gamma   90.00000000
_symmetry_Int_Tables_number   1
_chemical_formula_structural   TaTe4
_chemical_formula_sum   'Ta12 Te48'
_cell_volume   1837.39974585
_cell_formula_units_Z   12
loop_
 _symmetry_equiv_pos_site_id
 _symmetry_equiv_pos_as_xyz
  1  'x, y, z'
loop_
 _atom_site_type_symbol
 _atom_site_label
 _atom_site_symmetry_multiplicity
 _atom_site_fract_x
 _atom_site_fract_y
 _atom_site_fract_z
 _atom_site_occupancy
  Ta  Ta0  1  0.500000  0.000000  0.931216  1
  Ta  Ta1  1  0.000000  0.500000  0.568784  1
  Ta  Ta2  1  0.000000  0.500000  0.068784  1
  Ta  Ta3  1  0.500000  0.000000  0.431216  1
  Ta  Ta4  1  0.500000  0.000000  0.236346  1
  Ta  Ta5  1  0.000000  0.500000  0.263654  1
  Ta  Ta6  1  0.000000  0.500000  0.763654  1
  Ta  Ta7  1  0.500000  0.000000  0.736346  1
  Ta  Ta8  1  0.500000  0.000000  0.084480  1
  Ta  Ta9  1  0.000000  0.500000  0.415520  1
  Ta  Ta10  1  0.000000  0.500000  0.915520  1
  Ta  Ta11  1  0.500000  0.000000  0.584480  1
  Te  Te12  1  0.737091  0.908235  0.003348  1
  Te  Te13  1  0.262909  0.091765  0.003348  1
  Te  Te14  1  0.908235  0.737091  0.496652  1
  Te  Te15  1  0.408235  0.762909  0.003348  1
  Te  Te16  1  0.591765  0.237091  0.003348  1
  Te  Te17  1  0.762909  0.408235  0.496652  1
  Te  Te18  1  0.237091  0.591765  0.496652  1
  Te  Te19  1  0.091765  0.262909  0.496652  1
  Te  Te20  1  0.762909  0.591765  0.996652  1
  Te  Te21  1  0.237091  0.408235  0.996652  1
  Te  Te22  1  0.591765  0.762909  0.503348  1
  Te  Te23  1  0.091765  0.737091  0.996652  1
  Te  Te24  1  0.259023  0.084538  0.664432  1
  Te  Te25  1  0.415462  0.759023  0.664432  1
  Te  Te26  1  0.584538  0.240977  0.664432  1
  Te  Te27  1  0.759023  0.415462  0.835568  1
  Te  Te28  1  0.240977  0.584538  0.835568  1
  Te  Te29  1  0.740977  0.915462  0.664432  1
  Te  Te30  1  0.084538  0.259023  0.835568  1
  Te  Te31  1  0.915462  0.740977  0.835568  1
  Te  Te32  1  0.240977  0.415462  0.335568  1
  Te  Te33  1  0.084538  0.740977  0.335568  1
  Te  Te34  1  0.915462  0.259023  0.335568  1
  Te  Te35  1  0.740977  0.084538  0.164432  1
  Te  Te36  1  0.259023  0.915462  0.164432  1
  Te  Te37  1  0.759023  0.584538  0.335568  1
  Te  Te38  1  0.415462  0.240977  0.164432  1
  Te  Te39  1  0.584538  0.759023  0.164432  1
  Te  Te40  1  0.713246  0.095894  0.833930  1
  Te  Te41  1  0.404106  0.213246  0.833930  1
  Te  Te42  1  0.595894  0.786754  0.833930  1
  Te  Te43  1  0.213246  0.404106  0.666070  1
  Te  Te44  1  0.786754  0.595894  0.666070  1
  Te  Te45  1  0.286754  0.904106  0.833930  1
  Te  Te46  1  0.095894  0.713246  0.666070  1
  Te  Te47  1  0.904106  0.286754  0.666070  1
  Te  Te48  1  0.786754  0.404106  0.166070  1
  Te  Te49  1  0.095894  0.286754  0.166070  1
  Te  Te50  1  0.904106  0.713246  0.166070  1
  Te  Te51  1  0.286754  0.095894  0.333930  1
  Te  Te52  1  0.713246  0.904106  0.333930  1
  Te  Te53  1  0.213246  0.595894  0.166070  1
  Te  Te54  1  0.404106  0.786754  0.333930  1
  Te  Te55  1  0.595894  0.213246  0.333930  1
  Te  Te56  1  0.408235  0.237091  0.503348  1
  Te  Te57  1  0.262909  0.908235  0.503348  1
  Te  Te58  1  0.737091  0.091765  0.503348  1
  Te  Te59  1  0.908235  0.262909  0.996652  1
