# generated using pymatgen
data_Fe2MoP12
_symmetry_space_group_name_H-M   'P 1'
_cell_length_a   5.68667250
_cell_length_b   11.13436134
_cell_length_c   13.76985573
_cell_angle_alpha   90.00000000
_cell_angle_beta   90.00000000
_cell_angle_gamma   90.00000000
_symmetry_Int_Tables_number   1
_chemical_formula_structural   Fe2MoP12
_chemical_formula_sum   'Fe8 Mo4 P48'
_cell_volume   871.87237803
_cell_formula_units_Z   4
loop_
 _symmetry_equiv_pos_site_id
 _symmetry_equiv_pos_as_xyz
  1  'x, y, z'
loop_
 _atom_site_type_symbol
 _atom_site_label
 _atom_site_symmetry_multiplicity
 _atom_site_fract_x
 _atom_site_fract_y
 _atom_site_fract_z
 _atom_site_occupancy
  Fe  Fe0  1  0.603429  0.458848  0.150267  1
  Fe  Fe1  1  0.603429  0.041152  0.849733  1
  Fe  Fe2  1  0.896571  0.958848  0.349733  1
  Fe  Fe3  1  0.896571  0.541152  0.650267  1
  Fe  Fe4  1  0.396571  0.541152  0.849733  1
  Fe  Fe5  1  0.396571  0.958848  0.150267  1
  Fe  Fe6  1  0.103429  0.041152  0.650267  1
  Fe  Fe7  1  0.103429  0.458848  0.349733  1
  Mo  Mo8  1  0.600921  0.250000  0.500000  1
  Mo  Mo9  1  0.899079  0.750000  0.000000  1
  Mo  Mo10  1  0.399079  0.750000  0.500000  1
  Mo  Mo11  1  0.100921  0.250000  0.000000  1
  P  P12  1  0.967173  0.499803  0.202744  1
  P  P13  1  0.967173  0.000197  0.797256  1
  P  P14  1  0.532827  0.999803  0.297256  1
  P  P15  1  0.532827  0.500197  0.702744  1
  P  P16  1  0.032827  0.500197  0.797256  1
  P  P17  1  0.032827  0.999803  0.202744  1
  P  P18  1  0.467173  0.000197  0.702744  1
  P  P19  1  0.467173  0.499803  0.297256  1
  P  P20  1  0.734808  0.439036  0.408386  1
  P  P21  1  0.734808  0.060964  0.591614  1
  P  P22  1  0.765192  0.939036  0.091614  1
  P  P23  1  0.765192  0.560964  0.908386  1
  P  P24  1  0.984084  0.195765  0.167990  1
  P  P25  1  0.984084  0.304235  0.832010  1
  P  P26  1  0.515916  0.695765  0.332010  1
  P  P27  1  0.515916  0.804235  0.667990  1
  P  P28  1  0.015916  0.804235  0.832010  1
  P  P29  1  0.015916  0.695765  0.167990  1
  P  P30  1  0.484084  0.304235  0.667990  1
  P  P31  1  0.484084  0.195765  0.332010  1
  P  P32  1  0.118658  0.270869  0.310588  1
  P  P33  1  0.118658  0.229131  0.689412  1
  P  P34  1  0.381342  0.770869  0.189412  1
  P  P35  1  0.381342  0.729131  0.810588  1
  P  P36  1  0.881342  0.729131  0.689412  1
  P  P37  1  0.881342  0.770869  0.310588  1
  P  P38  1  0.618658  0.229131  0.810588  1
  P  P39  1  0.618658  0.270869  0.189412  1
  P  P40  1  0.255901  0.398455  0.491576  1
  P  P41  1  0.255901  0.101545  0.508424  1
  P  P42  1  0.244099  0.898455  0.008424  1
  P  P43  1  0.244099  0.601545  0.991576  1
  P  P44  1  0.744099  0.601545  0.508424  1
  P  P45  1  0.744099  0.898455  0.491576  1
  P  P46  1  0.755901  0.101545  0.991576  1
  P  P47  1  0.755901  0.398455  0.008424  1
  P  P48  1  0.437951  0.144208  0.086880  1
  P  P49  1  0.437951  0.355792  0.913120  1
  P  P50  1  0.062049  0.644208  0.413120  1
  P  P51  1  0.062049  0.855792  0.586880  1
  P  P52  1  0.562049  0.855792  0.913120  1
  P  P53  1  0.562049  0.644208  0.086880  1
  P  P54  1  0.937951  0.355792  0.586880  1
  P  P55  1  0.937951  0.144208  0.413120  1
  P  P56  1  0.234808  0.439036  0.091614  1
  P  P57  1  0.234808  0.060964  0.908386  1
  P  P58  1  0.265192  0.939036  0.408386  1
  P  P59  1  0.265192  0.560964  0.591614  1
