# generated using pymatgen
data_NbGeIr
_symmetry_space_group_name_H-M   'P 1'
_cell_length_a   3.92851735
_cell_length_b   6.52249088
_cell_length_c   7.47706549
_cell_angle_alpha   90.00000000
_cell_angle_beta   90.00000000
_cell_angle_gamma   90.00000000
_symmetry_Int_Tables_number   1
_chemical_formula_structural   NbGeIr
_chemical_formula_sum   'Nb4 Ge4 Ir4'
_cell_volume   191.59022197
_cell_formula_units_Z   4
loop_
 _symmetry_equiv_pos_site_id
 _symmetry_equiv_pos_as_xyz
  1  'x, y, z'
loop_
 _atom_site_type_symbol
 _atom_site_label
 _atom_site_symmetry_multiplicity
 _atom_site_fract_x
 _atom_site_fract_y
 _atom_site_fract_z
 _atom_site_occupancy
  Nb  Nb0  1  0.750000  0.526298  0.821411  1
  Nb  Nb1  1  0.250000  0.973702  0.321411  1
  Nb  Nb2  1  0.750000  0.026298  0.678589  1
  Nb  Nb3  1  0.250000  0.473702  0.178589  1
  Ge  Ge4  1  0.250000  0.240581  0.876654  1
  Ge  Ge5  1  0.250000  0.740581  0.623346  1
  Ge  Ge6  1  0.750000  0.759419  0.123346  1
  Ge  Ge7  1  0.750000  0.259419  0.376654  1
  Ir  Ir8  1  0.250000  0.856128  0.938601  1
  Ir  Ir9  1  0.250000  0.356128  0.561399  1
  Ir  Ir10  1  0.750000  0.643872  0.438601  1
  Ir  Ir11  1  0.750000  0.143872  0.061399  1
