# generated using pymatgen
data_BaAsHO4
_symmetry_space_group_name_H-M   'P 1'
_cell_length_a   8.71469641
_cell_length_b   10.09586497
_cell_length_c   19.79915807
_cell_angle_alpha   90.00000000
_cell_angle_beta   90.00000000
_cell_angle_gamma   90.00000000
_symmetry_Int_Tables_number   1
_chemical_formula_structural   BaAsHO4
_chemical_formula_sum   'Ba16 As16 H16 O64'
_cell_volume   1741.97740954
_cell_formula_units_Z   16
loop_
 _symmetry_equiv_pos_site_id
 _symmetry_equiv_pos_as_xyz
  1  'x, y, z'
loop_
 _atom_site_type_symbol
 _atom_site_label
 _atom_site_symmetry_multiplicity
 _atom_site_fract_x
 _atom_site_fract_y
 _atom_site_fract_z
 _atom_site_occupancy
  Ba  Ba0  1  0.367153  0.682646  0.381852  1
  Ba  Ba1  1  0.867153  0.817354  0.618148  1
  Ba  Ba2  1  0.632847  0.182646  0.118148  1
  Ba  Ba3  1  0.132847  0.317354  0.881852  1
  Ba  Ba4  1  0.632847  0.317354  0.618148  1
  Ba  Ba5  1  0.132847  0.182646  0.381852  1
  Ba  Ba6  1  0.367153  0.817354  0.881852  1
  Ba  Ba7  1  0.867153  0.682646  0.118148  1
  Ba  Ba8  1  0.623907  0.322065  0.374416  1
  Ba  Ba9  1  0.123907  0.177935  0.625584  1
  Ba  Ba10  1  0.376093  0.822065  0.125584  1
  Ba  Ba11  1  0.876093  0.677935  0.874416  1
  Ba  Ba12  1  0.376093  0.677935  0.625584  1
  Ba  Ba13  1  0.876093  0.822065  0.374416  1
  Ba  Ba14  1  0.623907  0.177935  0.874416  1
  Ba  Ba15  1  0.123907  0.322065  0.125584  1
  As  As16  1  0.020446  0.478728  0.293308  1
  As  As17  1  0.520446  0.021272  0.706692  1
  As  As18  1  0.979554  0.978728  0.206692  1
  As  As19  1  0.479554  0.521272  0.793308  1
  As  As20  1  0.979554  0.521272  0.706692  1
  As  As21  1  0.479554  0.978728  0.293308  1
  As  As22  1  0.020446  0.021272  0.793308  1
  As  As23  1  0.520446  0.478728  0.206692  1
  As  As24  1  0.745108  0.076051  0.495619  1
  As  As25  1  0.245108  0.423949  0.504381  1
  As  As26  1  0.254892  0.576051  0.004381  1
  As  As27  1  0.754892  0.923949  0.995619  1
  As  As28  1  0.254892  0.923949  0.504381  1
  As  As29  1  0.754892  0.576051  0.495619  1
  As  As30  1  0.745108  0.423949  0.995619  1
  As  As31  1  0.245108  0.076051  0.004381  1
  H  H32  1  0.286566  0.424500  0.280019  1
  H  H33  1  0.786566  0.075500  0.719981  1
  H  H34  1  0.713434  0.924500  0.219981  1
  H  H35  1  0.213434  0.575500  0.780019  1
  H  H36  1  0.713434  0.575500  0.719981  1
  H  H37  1  0.213434  0.924500  0.280019  1
  H  H38  1  0.286566  0.075500  0.780019  1
  H  H39  1  0.786566  0.424500  0.219981  1
  H  H40  1  0.583054  0.884189  0.499813  1
  H  H41  1  0.083054  0.615811  0.500187  1
  H  H42  1  0.416946  0.384189  0.000187  1
  H  H43  1  0.916946  0.115811  0.999813  1
  H  H44  1  0.416946  0.115811  0.500187  1
  H  H45  1  0.916946  0.384189  0.499813  1
  H  H46  1  0.583054  0.615811  0.999813  1
  H  H47  1  0.083054  0.884189  0.000187  1
  O  O48  1  0.918091  0.378772  0.345500  1
  O  O49  1  0.418091  0.121228  0.654500  1
  O  O50  1  0.081909  0.878772  0.154500  1
  O  O51  1  0.581909  0.621228  0.845500  1
  O  O52  1  0.081909  0.621228  0.654500  1
  O  O53  1  0.581909  0.878772  0.345500  1
  O  O54  1  0.918091  0.121228  0.845500  1
  O  O55  1  0.418091  0.378772  0.154500  1
  O  O56  1  0.937623  0.494085  0.214363  1
  O  O57  1  0.437623  0.005915  0.785637  1
  O  O58  1  0.062377  0.994085  0.285637  1
  O  O59  1  0.562377  0.505915  0.714363  1
  O  O60  1  0.062377  0.505915  0.785637  1
  O  O61  1  0.562377  0.994085  0.214363  1
  O  O62  1  0.937623  0.005915  0.714363  1
  O  O63  1  0.437623  0.494085  0.285637  1
  O  O64  1  0.182157  0.374541  0.275061  1
  O  O65  1  0.682157  0.125459  0.724939  1
  O  O66  1  0.817843  0.874541  0.224939  1
  O  O67  1  0.317843  0.625459  0.775061  1
  O  O68  1  0.817843  0.625459  0.724939  1
  O  O69  1  0.317843  0.874541  0.275061  1
  O  O70  1  0.182157  0.125459  0.775061  1
  O  O71  1  0.682157  0.374541  0.224939  1
  O  O72  1  0.075956  0.626402  0.326249  1
  O  O73  1  0.575956  0.873598  0.673751  1
  O  O74  1  0.924044  0.126402  0.173751  1
  O  O75  1  0.424044  0.373598  0.826249  1
  O  O76  1  0.924044  0.373598  0.673751  1
  O  O77  1  0.424044  0.126402  0.326249  1
  O  O78  1  0.075956  0.873598  0.826249  1
  O  O79  1  0.575956  0.626402  0.173751  1
  O  O80  1  0.700401  0.903006  0.498710  1
  O  O81  1  0.200401  0.596994  0.501290  1
  O  O82  1  0.299599  0.403006  0.001290  1
  O  O83  1  0.799599  0.096994  0.998710  1
  O  O84  1  0.299599  0.096994  0.501290  1
  O  O85  1  0.799599  0.403006  0.498710  1
  O  O86  1  0.700401  0.596994  0.998710  1
  O  O87  1  0.200401  0.903006  0.001290  1
  O  O88  1  0.842901  0.102171  0.569108  1
  O  O89  1  0.342901  0.397829  0.430892  1
  O  O90  1  0.157099  0.602171  0.930892  1
  O  O91  1  0.657099  0.897829  0.069108  1
  O  O92  1  0.157099  0.897829  0.430892  1
  O  O93  1  0.657099  0.602171  0.569108  1
  O  O94  1  0.842901  0.397829  0.069108  1
  O  O95  1  0.342901  0.102171  0.930892  1
  O  O96  1  0.843786  0.095262  0.421805  1
  O  O97  1  0.343786  0.404738  0.578195  1
  O  O98  1  0.156214  0.595262  0.078195  1
  O  O99  1  0.656214  0.904738  0.921805  1
  O  O100  1  0.156214  0.904738  0.578195  1
  O  O101  1  0.656214  0.595262  0.421805  1
  O  O102  1  0.843786  0.404738  0.921805  1
  O  O103  1  0.343786  0.095262  0.078195  1
  O  O104  1  0.580042  0.168638  0.494438  1
  O  O105  1  0.080042  0.331362  0.505562  1
  O  O106  1  0.419958  0.668638  0.005562  1
  O  O107  1  0.919958  0.831362  0.994438  1
  O  O108  1  0.419958  0.831362  0.505562  1
  O  O109  1  0.919958  0.668638  0.494438  1
  O  O110  1  0.580042  0.331362  0.994438  1
  O  O111  1  0.080042  0.168638  0.005562  1
