# generated using pymatgen
data_BiSe
_symmetry_space_group_name_H-M   'P 1'
_cell_length_a   4.25832183
_cell_length_b   4.25832183
_cell_length_c   24.15937822
_cell_angle_alpha   90.00000000
_cell_angle_beta   90.00000000
_cell_angle_gamma   120.00000000
_symmetry_Int_Tables_number   1
_chemical_formula_structural   BiSe
_chemical_formula_sum   'Bi6 Se6'
_cell_volume   379.39652248
_cell_formula_units_Z   6
loop_
 _symmetry_equiv_pos_site_id
 _symmetry_equiv_pos_as_xyz
  1  'x, y, z'
loop_
 _atom_site_type_symbol
 _atom_site_label
 _atom_site_symmetry_multiplicity
 _atom_site_fract_x
 _atom_site_fract_y
 _atom_site_fract_z
 _atom_site_occupancy
  Bi  Bi0  1  0.666667  0.333333  0.462917  1
  Bi  Bi1  1  0.333333  0.666667  0.537083  1
  Bi  Bi2  1  0.666667  0.333333  0.713992  1
  Bi  Bi3  1  0.333333  0.666667  0.286008  1
  Bi  Bi4  1  0.000000  0.000000  0.871492  1
  Bi  Bi5  1  0.000000  0.000000  0.128508  1
  Se  Se6  1  0.000000  0.000000  0.649287  1
  Se  Se7  1  0.000000  0.000000  0.350713  1
  Se  Se8  1  0.666667  0.333333  0.208304  1
  Se  Se9  1  0.333333  0.666667  0.791696  1
  Se  Se10  1  0.666667  0.333333  0.934327  1
  Se  Se11  1  0.333333  0.666667  0.065673  1
