# generated using pymatgen
data_Li3(CuO2)2
_symmetry_space_group_name_H-M   'P 1'
_cell_length_a   5.27822483
_cell_length_b   5.27822483
_cell_length_c   4.70274128
_cell_angle_alpha   82.93613805
_cell_angle_beta   97.06386195
_cell_angle_gamma   52.63675933
_symmetry_Int_Tables_number   1
_chemical_formula_structural   Li3(CuO2)2
_chemical_formula_sum   'Li3 Cu2 O4'
_cell_volume   100.04675038
_cell_formula_units_Z   1
loop_
 _symmetry_equiv_pos_site_id
 _symmetry_equiv_pos_as_xyz
  1  'x, y, z'
loop_
 _atom_site_type_symbol
 _atom_site_label
 _atom_site_symmetry_multiplicity
 _atom_site_fract_x
 _atom_site_fract_y
 _atom_site_fract_z
 _atom_site_occupancy
  Li  Li0  1  0.962950  0.962950  0.000000  1
  Li  Li1  1  0.465506  0.465506  0.500000  1
  Li  Li2  1  0.541394  0.541394  0.000000  1
  Cu  Cu3  1  0.244840  0.244840  0.000000  1
  Cu  Cu4  1  0.751354  0.751354  0.500000  1
  O  O5  1  0.620428  0.144847  0.234737  1
  O  O6  1  0.375043  0.850637  0.230874  1
  O  O7  1  0.850637  0.375043  0.769126  1
  O  O8  1  0.144847  0.620428  0.765263  1
