# generated using pymatgen
data_B2H5
_symmetry_space_group_name_H-M   'P 1'
_cell_length_a   6.00153410
_cell_length_b   10.36017863
_cell_length_c   9.34150117
_cell_angle_alpha   90.00000000
_cell_angle_beta   112.17249311
_cell_angle_gamma   90.00000000
_symmetry_Int_Tables_number   1
_chemical_formula_structural   B2H5
_chemical_formula_sum   'B16 H40'
_cell_volume   537.87518571
_cell_formula_units_Z   8
loop_
 _symmetry_equiv_pos_site_id
 _symmetry_equiv_pos_as_xyz
  1  'x, y, z'
loop_
 _atom_site_type_symbol
 _atom_site_label
 _atom_site_symmetry_multiplicity
 _atom_site_fract_x
 _atom_site_fract_y
 _atom_site_fract_z
 _atom_site_occupancy
  B  B0  1  0.394134  0.922014  0.748712  1
  B  B1  1  0.605866  0.422014  0.751288  1
  B  B2  1  0.605866  0.077986  0.251288  1
  B  B3  1  0.394134  0.577986  0.248712  1
  B  B4  1  0.250329  0.770272  0.768800  1
  B  B5  1  0.749671  0.270272  0.731200  1
  B  B6  1  0.749671  0.229728  0.231200  1
  B  B7  1  0.250329  0.729728  0.268800  1
  B  B8  1  0.948755  0.796991  0.622184  1
  B  B9  1  0.051245  0.296991  0.877816  1
  B  B10  1  0.051245  0.203009  0.377816  1
  B  B11  1  0.948755  0.703009  0.122184  1
  B  B12  1  0.107770  0.911889  0.776261  1
  B  B13  1  0.892230  0.411889  0.723739  1
  B  B14  1  0.892230  0.088111  0.223739  1
  B  B15  1  0.107770  0.588111  0.276261  1
  H  H16  1  0.206185  0.007888  0.738741  1
  H  H17  1  0.793815  0.507888  0.761259  1
  H  H18  1  0.793815  0.992112  0.261259  1
  H  H19  1  0.206185  0.492112  0.238741  1
  H  H20  1  0.396154  0.951808  0.624588  1
  H  H21  1  0.603846  0.451808  0.875412  1
  H  H22  1  0.603846  0.048192  0.375412  1
  H  H23  1  0.396154  0.548192  0.124588  1
  H  H24  1  0.561340  0.953924  0.861820  1
  H  H25  1  0.438660  0.453924  0.638180  1
  H  H26  1  0.438660  0.046076  0.138180  1
  H  H27  1  0.561340  0.546076  0.361820  1
  H  H28  1  0.428332  0.789082  0.729107  1
  H  H29  1  0.571668  0.289082  0.770893  1
  H  H30  1  0.571668  0.210918  0.270893  1
  H  H31  1  0.428332  0.710918  0.229107  1
  H  H32  1  0.075239  0.567645  0.392319  1
  H  H33  1  0.924761  0.067645  0.107681  1
  H  H34  1  0.924761  0.432355  0.607681  1
  H  H35  1  0.075239  0.932355  0.892319  1
  H  H36  1  0.914691  0.573726  0.158288  1
  H  H37  1  0.085309  0.073726  0.341712  1
  H  H38  1  0.085309  0.426274  0.841712  1
  H  H39  1  0.914691  0.926274  0.658288  1
  H  H40  1  0.791955  0.762998  0.141777  1
  H  H41  1  0.208045  0.262998  0.358223  1
  H  H42  1  0.208045  0.237002  0.858223  1
  H  H43  1  0.791955  0.737002  0.641777  1
  H  H44  1  0.925130  0.679318  0.991153  1
  H  H45  1  0.074870  0.179318  0.508847  1
  H  H46  1  0.074870  0.320682  0.008847  1
  H  H47  1  0.925130  0.820682  0.491153  1
  H  H48  1  0.137228  0.792530  0.145655  1
  H  H49  1  0.862772  0.292530  0.354345  1
  H  H50  1  0.862772  0.207470  0.854345  1
  H  H51  1  0.137228  0.707470  0.645655  1
  H  H52  1  0.303868  0.797108  0.380010  1
  H  H53  1  0.696132  0.297108  0.119990  1
  H  H54  1  0.696132  0.202892  0.619990  1
  H  H55  1  0.303868  0.702892  0.880010  1
