# generated using pymatgen
data_Nb5Ge4
_symmetry_space_group_name_H-M   'P 1'
_cell_length_a   6.77820939
_cell_length_b   6.84453001
_cell_length_c   13.24457441
_cell_angle_alpha   90.00000000
_cell_angle_beta   90.00000000
_cell_angle_gamma   90.00000000
_symmetry_Int_Tables_number   1
_chemical_formula_structural   Nb5Ge4
_chemical_formula_sum   'Nb20 Ge16'
_cell_volume   614.46425002
_cell_formula_units_Z   4
loop_
 _symmetry_equiv_pos_site_id
 _symmetry_equiv_pos_as_xyz
  1  'x, y, z'
loop_
 _atom_site_type_symbol
 _atom_site_label
 _atom_site_symmetry_multiplicity
 _atom_site_fract_x
 _atom_site_fract_y
 _atom_site_fract_z
 _atom_site_occupancy
  Nb  Nb0  1  0.019532  0.324768  0.913826  1
  Nb  Nb1  1  0.519532  0.175232  0.586174  1
  Nb  Nb2  1  0.480468  0.824768  0.086174  1
  Nb  Nb3  1  0.980468  0.675232  0.413826  1
  Nb  Nb4  1  0.019532  0.324768  0.586174  1
  Nb  Nb5  1  0.519532  0.175232  0.913826  1
  Nb  Nb6  1  0.480468  0.824768  0.413826  1
  Nb  Nb7  1  0.980468  0.675232  0.086174  1
  Nb  Nb8  1  0.846394  0.835775  0.875527  1
  Nb  Nb9  1  0.346394  0.664225  0.624473  1
  Nb  Nb10  1  0.653606  0.335775  0.124473  1
  Nb  Nb11  1  0.153606  0.164225  0.375527  1
  Nb  Nb12  1  0.153606  0.164225  0.124473  1
  Nb  Nb13  1  0.653606  0.335775  0.375527  1
  Nb  Nb14  1  0.346394  0.664225  0.875527  1
  Nb  Nb15  1  0.846394  0.835775  0.624473  1
  Nb  Nb16  1  0.172057  0.991852  0.750000  1
  Nb  Nb17  1  0.672057  0.508148  0.750000  1
  Nb  Nb18  1  0.327943  0.491852  0.250000  1
  Nb  Nb19  1  0.827943  0.008148  0.250000  1
  Ge  Ge20  1  0.689249  0.534623  0.958815  1
  Ge  Ge21  1  0.189249  0.965377  0.541185  1
  Ge  Ge22  1  0.810751  0.034623  0.041185  1
  Ge  Ge23  1  0.310751  0.465377  0.458815  1
  Ge  Ge24  1  0.310751  0.465377  0.041185  1
  Ge  Ge25  1  0.810751  0.034623  0.458815  1
  Ge  Ge26  1  0.189249  0.965377  0.958815  1
  Ge  Ge27  1  0.689249  0.534623  0.541185  1
  Ge  Ge28  1  0.318778  0.339636  0.750000  1
  Ge  Ge29  1  0.818778  0.160364  0.750000  1
  Ge  Ge30  1  0.181222  0.839636  0.250000  1
  Ge  Ge31  1  0.681222  0.660364  0.250000  1
  Ge  Ge32  1  0.046208  0.603739  0.750000  1
  Ge  Ge33  1  0.546208  0.896261  0.750000  1
  Ge  Ge34  1  0.453792  0.103739  0.250000  1
  Ge  Ge35  1  0.953792  0.396261  0.250000  1
