# generated using pymatgen
data_Ag5BiO4
_symmetry_space_group_name_H-M   'P 1'
_cell_length_a   6.03921563
_cell_length_b   9.01400124
_cell_length_c   14.00126924
_cell_angle_alpha   90.00000000
_cell_angle_beta   114.44311644
_cell_angle_gamma   90.00000000
_symmetry_Int_Tables_number   1
_chemical_formula_structural   Ag5BiO4
_chemical_formula_sum   'Ag20 Bi4 O16'
_cell_volume   693.88053140
_cell_formula_units_Z   4
loop_
 _symmetry_equiv_pos_site_id
 _symmetry_equiv_pos_as_xyz
  1  'x, y, z'
loop_
 _atom_site_type_symbol
 _atom_site_label
 _atom_site_symmetry_multiplicity
 _atom_site_fract_x
 _atom_site_fract_y
 _atom_site_fract_z
 _atom_site_occupancy
  Ag  Ag0  1  0.877874  0.729598  0.124861  1
  Ag  Ag1  1  0.877874  0.770402  0.624861  1
  Ag  Ag2  1  0.000000  0.500000  0.000000  1
  Ag  Ag3  1  0.000000  0.000000  0.500000  1
  Ag  Ag4  1  0.617275  0.138643  0.647214  1
  Ag  Ag5  1  0.382725  0.638643  0.852786  1
  Ag  Ag6  1  0.382725  0.861357  0.352786  1
  Ag  Ag7  1  0.617275  0.361357  0.147214  1
  Ag  Ag8  1  0.714544  0.992342  0.246072  1
  Ag  Ag9  1  0.285456  0.492342  0.253928  1
  Ag  Ag10  1  0.285456  0.007658  0.753928  1
  Ag  Ag11  1  0.714544  0.507658  0.746072  1
  Ag  Ag12  1  0.500000  0.000000  0.000000  1
  Ag  Ag13  1  0.500000  0.500000  0.500000  1
  Ag  Ag14  1  0.614865  0.268011  0.874292  1
  Ag  Ag15  1  0.385135  0.768011  0.625708  1
  Ag  Ag16  1  0.385135  0.731989  0.125708  1
  Ag  Ag17  1  0.614865  0.231989  0.374292  1
  Ag  Ag18  1  0.122126  0.270402  0.875139  1
  Ag  Ag19  1  0.122126  0.229598  0.375139  1
  Bi  Bi20  1  0.094523  0.379285  0.622282  1
  Bi  Bi21  1  0.905477  0.879285  0.877718  1
  Bi  Bi22  1  0.905477  0.620715  0.377718  1
  Bi  Bi23  1  0.094523  0.120715  0.122282  1
  O  O24  1  0.030994  0.362326  0.128387  1
  O  O25  1  0.969006  0.862326  0.371613  1
  O  O26  1  0.969006  0.637674  0.871613  1
  O  O27  1  0.030994  0.137674  0.628387  1
  O  O28  1  0.697451  0.904925  0.695080  1
  O  O29  1  0.302549  0.404925  0.804920  1
  O  O30  1  0.930904  0.135726  0.939809  1
  O  O31  1  0.069096  0.635726  0.560191  1
  O  O32  1  0.069096  0.864274  0.060191  1
  O  O33  1  0.930904  0.364274  0.439809  1
  O  O34  1  0.456824  0.135167  0.120813  1
  O  O35  1  0.543176  0.635167  0.379187  1
  O  O36  1  0.543176  0.864833  0.879187  1
  O  O37  1  0.456824  0.364833  0.620813  1
  O  O38  1  0.302549  0.095075  0.304920  1
  O  O39  1  0.697451  0.595075  0.195080  1
