# generated using pymatgen
data_GdSbPd
_symmetry_space_group_name_H-M   'P 1'
_cell_length_a   4.62690428
_cell_length_b   4.62690428
_cell_length_c   7.52940296
_cell_angle_alpha   90.00000000
_cell_angle_beta   90.00000000
_cell_angle_gamma   120.00000000
_symmetry_Int_Tables_number   1
_chemical_formula_structural   GdSbPd
_chemical_formula_sum   'Gd2 Sb2 Pd2'
_cell_volume   139.59575194
_cell_formula_units_Z   2
loop_
 _symmetry_equiv_pos_site_id
 _symmetry_equiv_pos_as_xyz
  1  'x, y, z'
loop_
 _atom_site_type_symbol
 _atom_site_label
 _atom_site_symmetry_multiplicity
 _atom_site_fract_x
 _atom_site_fract_y
 _atom_site_fract_z
 _atom_site_occupancy
  Gd  Gd0  1  0.000000  0.000000  0.498031  1
  Gd  Gd1  1  0.000000  0.000000  0.998031  1
  Sb  Sb2  1  0.333333  0.666667  0.724663  1
  Sb  Sb3  1  0.666667  0.333333  0.224663  1
  Pd  Pd4  1  0.666667  0.333333  0.822096  1
  Pd  Pd5  1  0.333333  0.666667  0.322096  1
