# generated using pymatgen
data_Bi2Te4Cl7
_symmetry_space_group_name_H-M   'P 1'
_cell_length_a   8.98363442
_cell_length_b   16.83373706
_cell_length_c   23.44742091
_cell_angle_alpha   90.00000000
_cell_angle_beta   90.00000000
_cell_angle_gamma   90.00000000
_symmetry_Int_Tables_number   1
_chemical_formula_structural   Bi2Te4Cl7
_chemical_formula_sum   'Bi16 Te32 Cl56'
_cell_volume   3545.90984427
_cell_formula_units_Z   8
loop_
 _symmetry_equiv_pos_site_id
 _symmetry_equiv_pos_as_xyz
  1  'x, y, z'
loop_
 _atom_site_type_symbol
 _atom_site_label
 _atom_site_symmetry_multiplicity
 _atom_site_fract_x
 _atom_site_fract_y
 _atom_site_fract_z
 _atom_site_occupancy
  Bi  Bi0  1  0.665428  0.624428  0.015855  1
  Bi  Bi1  1  0.165428  0.875572  0.984145  1
  Bi  Bi2  1  0.334572  0.124428  0.484145  1
  Bi  Bi3  1  0.834572  0.375572  0.515855  1
  Bi  Bi4  1  0.141089  0.609751  0.939151  1
  Bi  Bi5  1  0.641089  0.890249  0.060849  1
  Bi  Bi6  1  0.858911  0.109751  0.560849  1
  Bi  Bi7  1  0.358911  0.390249  0.439151  1
  Bi  Bi8  1  0.326012  0.406358  0.057474  1
  Bi  Bi9  1  0.826012  0.093642  0.942526  1
  Bi  Bi10  1  0.673988  0.906358  0.442526  1
  Bi  Bi11  1  0.173988  0.593642  0.557474  1
  Bi  Bi12  1  0.808397  0.375867  0.968948  1
  Bi  Bi13  1  0.308397  0.124133  0.031052  1
  Bi  Bi14  1  0.191603  0.875867  0.531052  1
  Bi  Bi15  1  0.691603  0.624133  0.468948  1
  Te  Te16  1  0.618216  0.936513  0.797847  1
  Te  Te17  1  0.118216  0.563487  0.202153  1
  Te  Te18  1  0.381784  0.436513  0.702153  1
  Te  Te19  1  0.881784  0.063487  0.297847  1
  Te  Te20  1  0.872774  0.891258  0.731258  1
  Te  Te21  1  0.372774  0.608742  0.268742  1
  Te  Te22  1  0.127226  0.391258  0.768742  1
  Te  Te23  1  0.627226  0.108742  0.231258  1
  Te  Te24  1  0.911482  0.743696  0.775162  1
  Te  Te25  1  0.411482  0.756304  0.224838  1
  Te  Te26  1  0.088518  0.243696  0.724838  1
  Te  Te27  1  0.588518  0.256304  0.275162  1
  Te  Te28  1  0.761951  0.677663  0.682440  1
  Te  Te29  1  0.261951  0.822337  0.317560  1
  Te  Te30  1  0.238049  0.177663  0.817560  1
  Te  Te31  1  0.738049  0.322337  0.182440  1
  Te  Te32  1  0.466488  0.721788  0.713283  1
  Te  Te33  1  0.966488  0.778212  0.286717  1
  Te  Te34  1  0.533512  0.221788  0.786717  1
  Te  Te35  1  0.033512  0.278212  0.213283  1
  Te  Te36  1  0.503298  0.781178  0.818624  1
  Te  Te37  1  0.003298  0.718822  0.181376  1
  Te  Te38  1  0.496702  0.281178  0.681376  1
  Te  Te39  1  0.996702  0.218822  0.318624  1
  Te  Te40  1  0.800282  0.516470  0.723274  1
  Te  Te41  1  0.300282  0.983530  0.276726  1
  Te  Te42  1  0.199718  0.016470  0.776726  1
  Te  Te43  1  0.699718  0.483530  0.223274  1
  Te  Te44  1  0.564469  0.491441  0.791309  1
  Te  Te45  1  0.064469  0.008559  0.208691  1
  Te  Te46  1  0.435531  0.991441  0.708691  1
  Te  Te47  1  0.935531  0.508559  0.291309  1
  Cl  Cl48  1  0.732393  0.754642  0.966739  1
  Cl  Cl49  1  0.232393  0.745358  0.033261  1
  Cl  Cl50  1  0.267607  0.254642  0.533261  1
  Cl  Cl51  1  0.767607  0.245358  0.466739  1
  Cl  Cl52  1  0.596521  0.727322  0.104747  1
  Cl  Cl53  1  0.096521  0.772678  0.895253  1
  Cl  Cl54  1  0.403479  0.227322  0.395253  1
  Cl  Cl55  1  0.903479  0.272678  0.604747  1
  Cl  Cl56  1  0.926820  0.612547  0.058856  1
  Cl  Cl57  1  0.426820  0.887453  0.941144  1
  Cl  Cl58  1  0.073180  0.112547  0.441144  1
  Cl  Cl59  1  0.573180  0.387453  0.558856  1
  Cl  Cl60  1  0.168588  0.452215  0.949415  1
  Cl  Cl61  1  0.668588  0.047785  0.050585  1
  Cl  Cl62  1  0.831412  0.952215  0.550585  1
  Cl  Cl63  1  0.331412  0.547785  0.449415  1
  Cl  Cl64  1  0.120763  0.582983  0.832175  1
  Cl  Cl65  1  0.620763  0.917017  0.167825  1
  Cl  Cl66  1  0.879237  0.082983  0.667825  1
  Cl  Cl67  1  0.379237  0.417017  0.332175  1
  Cl  Cl68  1  0.424957  0.623957  0.920687  1
  Cl  Cl69  1  0.924957  0.876043  0.079313  1
  Cl  Cl70  1  0.575043  0.123957  0.579313  1
  Cl  Cl71  1  0.075043  0.376043  0.420687  1
  Cl  Cl72  1  0.309222  0.558642  0.064320  1
  Cl  Cl73  1  0.809222  0.941358  0.935680  1
  Cl  Cl74  1  0.690778  0.058642  0.435680  1
  Cl  Cl75  1  0.190778  0.441358  0.564320  1
  Cl  Cl76  1  0.382881  0.407777  0.166922  1
  Cl  Cl77  1  0.882881  0.092223  0.833078  1
  Cl  Cl78  1  0.617119  0.907777  0.333078  1
  Cl  Cl79  1  0.117119  0.592223  0.666922  1
  Cl  Cl80  1  0.050382  0.385068  0.087503  1
  Cl  Cl81  1  0.550382  0.114932  0.912497  1
  Cl  Cl82  1  0.949618  0.885068  0.412497  1
  Cl  Cl83  1  0.449618  0.614932  0.587503  1
  Cl  Cl84  1  0.752684  0.245980  0.021653  1
  Cl  Cl85  1  0.252684  0.254020  0.978347  1
  Cl  Cl86  1  0.247316  0.745980  0.478347  1
  Cl  Cl87  1  0.747316  0.754020  0.521653  1
  Cl  Cl88  1  0.550216  0.381540  0.927362  1
  Cl  Cl89  1  0.050216  0.118460  0.072638  1
  Cl  Cl90  1  0.449784  0.881540  0.572638  1
  Cl  Cl91  1  0.949784  0.618460  0.427362  1
  Cl  Cl92  1  0.897213  0.294702  0.881360  1
  Cl  Cl93  1  0.397213  0.205298  0.118640  1
  Cl  Cl94  1  0.102787  0.794702  0.618640  1
  Cl  Cl95  1  0.602787  0.705298  0.381360  1
  Cl  Cl96  1  0.647869  0.454175  0.060771  1
  Cl  Cl97  1  0.147869  0.045825  0.939229  1
  Cl  Cl98  1  0.352131  0.954175  0.439229  1
  Cl  Cl99  1  0.852131  0.545825  0.560771  1
  Cl  Cl100  1  0.810580  0.553452  0.925491  1
  Cl  Cl101  1  0.310580  0.946548  0.074509  1
  Cl  Cl102  1  0.189420  0.053452  0.574509  1
  Cl  Cl103  1  0.689420  0.446548  0.425491  1
