# generated using pymatgen
data_B10(Pb2O7)3
_symmetry_space_group_name_H-M   'P 1'
_cell_length_a   6.95341847
_cell_length_b   7.10452869
_cell_length_c   11.40521252
_cell_angle_alpha   82.97664617
_cell_angle_beta   77.84504572
_cell_angle_gamma   60.93091139
_symmetry_Int_Tables_number   1
_chemical_formula_structural   B10(Pb2O7)3
_chemical_formula_sum   'B10 Pb6 O21'
_cell_volume   481.28240845
_cell_formula_units_Z   1
loop_
 _symmetry_equiv_pos_site_id
 _symmetry_equiv_pos_as_xyz
  1  'x, y, z'
loop_
 _atom_site_type_symbol
 _atom_site_label
 _atom_site_symmetry_multiplicity
 _atom_site_fract_x
 _atom_site_fract_y
 _atom_site_fract_z
 _atom_site_occupancy
  B  B0  1  0.216671  0.870950  0.944460  1
  B  B1  1  0.783329  0.129050  0.055540  1
  B  B2  1  0.527884  0.671803  0.575414  1
  B  B3  1  0.472116  0.328197  0.424586  1
  B  B4  1  0.722578  0.176580  0.757402  1
  B  B5  1  0.277422  0.823420  0.242598  1
  B  B6  1  0.831804  0.464635  0.701595  1
  B  B7  1  0.168196  0.535365  0.298405  1
  B  B8  1  0.444732  0.568318  0.796285  1
  B  B9  1  0.555268  0.431682  0.203715  1
  Pb  Pb10  1  0.755136  0.738402  0.932584  1
  Pb  Pb11  1  0.244864  0.261598  0.067416  1
  Pb  Pb12  1  0.038452  0.757800  0.590921  1
  Pb  Pb13  1  0.961548  0.242200  0.409079  1
  Pb  Pb14  1  0.346255  0.144716  0.697160  1
  Pb  Pb15  1  0.653745  0.855284  0.302840  1
  O  O16  1  0.765624  0.965852  0.760155  1
  O  O17  1  0.886006  0.232689  0.705375  1
  O  O18  1  0.971100  0.519557  0.289460  1
  O  O19  1  0.028900  0.480443  0.710540  1
  O  O20  1  0.245692  0.430237  0.416550  1
  O  O21  1  0.113994  0.767311  0.294625  1
  O  O22  1  0.551837  0.219785  0.524360  1
  O  O23  1  0.448163  0.780215  0.475640  1
  O  O24  1  0.627719  0.334367  0.324106  1
  O  O25  1  0.372281  0.665633  0.675894  1
  O  O26  1  0.352003  0.423576  0.200687  1
  O  O27  1  0.647997  0.576424  0.799313  1
  O  O28  1  0.738506  0.315789  0.107920  1
  O  O29  1  0.261494  0.684211  0.892080  1
  O  O30  1  0.629970  0.060180  0.056421  1
  O  O31  1  0.370030  0.939820  0.943579  1
  O  O32  1  0.000000  0.000000  0.000000  1
  O  O33  1  0.501097  0.332520  0.799397  1
  O  O34  1  0.498903  0.667480  0.200603  1
  O  O35  1  0.754308  0.569763  0.583450  1
  O  O36  1  0.234376  0.034148  0.239845  1
