# generated using pymatgen
data_Rb2Te3
_symmetry_space_group_name_H-M   'P 1'
_cell_length_a   4.72986590
_cell_length_b   10.92892745
_cell_length_c   16.27565713
_cell_angle_alpha   90.00000000
_cell_angle_beta   90.00000000
_cell_angle_gamma   90.00000000
_symmetry_Int_Tables_number   1
_chemical_formula_structural   Rb2Te3
_chemical_formula_sum   'Rb8 Te12'
_cell_volume   841.32714826
_cell_formula_units_Z   4
loop_
 _symmetry_equiv_pos_site_id
 _symmetry_equiv_pos_as_xyz
  1  'x, y, z'
loop_
 _atom_site_type_symbol
 _atom_site_label
 _atom_site_symmetry_multiplicity
 _atom_site_fract_x
 _atom_site_fract_y
 _atom_site_fract_z
 _atom_site_occupancy
  Rb  Rb0  1  0.721720  0.469831  0.376481  1
  Rb  Rb1  1  0.221720  0.530169  0.123519  1
  Rb  Rb2  1  0.278280  0.969831  0.623519  1
  Rb  Rb3  1  0.778280  0.030169  0.876481  1
  Rb  Rb4  1  0.278280  0.530169  0.623519  1
  Rb  Rb5  1  0.778280  0.469831  0.876481  1
  Rb  Rb6  1  0.721720  0.030169  0.376481  1
  Rb  Rb7  1  0.221720  0.969831  0.123519  1
  Te  Te8  1  0.200481  0.250000  0.485318  1
  Te  Te9  1  0.700481  0.750000  0.014682  1
  Te  Te10  1  0.799519  0.750000  0.514682  1
  Te  Te11  1  0.299519  0.250000  0.985318  1
  Te  Te12  1  0.287566  0.250000  0.259130  1
  Te  Te13  1  0.787566  0.750000  0.240870  1
  Te  Te14  1  0.712434  0.750000  0.740870  1
  Te  Te15  1  0.212434  0.250000  0.759130  1
  Te  Te16  1  0.678468  0.250000  0.123593  1
  Te  Te17  1  0.178468  0.750000  0.376407  1
  Te  Te18  1  0.321532  0.750000  0.876407  1
  Te  Te19  1  0.821532  0.250000  0.623593  1
