# generated using pymatgen
data_CeCoGe3
_symmetry_space_group_name_H-M   'P 1'
_cell_length_a   5.76770284
_cell_length_b   5.76770284
_cell_length_c   5.76770284
_cell_angle_alpha   136.12215983
_cell_angle_beta   136.12215983
_cell_angle_gamma   63.79153067
_symmetry_Int_Tables_number   1
_chemical_formula_structural   CeCoGe3
_chemical_formula_sum   'Ce1 Co1 Ge3'
_cell_volume   90.95724482
_cell_formula_units_Z   1
loop_
 _symmetry_equiv_pos_site_id
 _symmetry_equiv_pos_as_xyz
  1  'x, y, z'
loop_
 _atom_site_type_symbol
 _atom_site_label
 _atom_site_symmetry_multiplicity
 _atom_site_fract_x
 _atom_site_fract_y
 _atom_site_fract_z
 _atom_site_occupancy
  Ce  Ce0  1  0.333782  0.333782  0.000000  1
  Co  Co1  1  0.004915  0.004915  0.000000  1
  Ge  Ge2  1  0.095898  0.595898  0.500000  1
  Ge  Ge3  1  0.771608  0.771608  0.000000  1
  Ge  Ge4  1  0.595898  0.095898  0.500000  1
