# generated using pymatgen
data_KAs4BrO6
_symmetry_space_group_name_H-M   'P 1'
_cell_length_a   5.34714546
_cell_length_b   5.34714546
_cell_length_c   9.23110978
_cell_angle_alpha   90.00000000
_cell_angle_beta   90.00000000
_cell_angle_gamma   120.00000000
_symmetry_Int_Tables_number   1
_chemical_formula_structural   KAs4BrO6
_chemical_formula_sum   'K1 As4 Br1 O6'
_cell_volume   228.57490334
_cell_formula_units_Z   1
loop_
 _symmetry_equiv_pos_site_id
 _symmetry_equiv_pos_as_xyz
  1  'x, y, z'
loop_
 _atom_site_type_symbol
 _atom_site_label
 _atom_site_symmetry_multiplicity
 _atom_site_fract_x
 _atom_site_fract_y
 _atom_site_fract_z
 _atom_site_occupancy
  K  K0  1  0.000000  0.000000  0.500000  1
  As  As1  1  0.333333  0.666667  0.792205  1
  As  As2  1  0.666667  0.333333  0.792205  1
  As  As3  1  0.666667  0.333333  0.207795  1
  As  As4  1  0.333333  0.666667  0.207795  1
  Br  Br5  1  0.000000  0.000000  0.000000  1
  O  O6  1  0.500000  0.500000  0.315875  1
  O  O7  1  0.000000  0.500000  0.684125  1
  O  O8  1  0.500000  0.500000  0.684125  1
  O  O9  1  0.500000  0.000000  0.684125  1
  O  O10  1  0.000000  0.500000  0.315875  1
  O  O11  1  0.500000  0.000000  0.315875  1
