# generated using pymatgen
data_Na2Li2FeO4
_symmetry_space_group_name_H-M   'P 1'
_cell_length_a   6.63691245
_cell_length_b   8.19776189
_cell_length_c   10.42502514
_cell_angle_alpha   90.00000000
_cell_angle_beta   129.59446052
_cell_angle_gamma   90.00000000
_symmetry_Int_Tables_number   1
_chemical_formula_structural   Na2Li2FeO4
_chemical_formula_sum   'Na8 Li8 Fe4 O16'
_cell_volume   437.07235653
_cell_formula_units_Z   4
loop_
 _symmetry_equiv_pos_site_id
 _symmetry_equiv_pos_as_xyz
  1  'x, y, z'
loop_
 _atom_site_type_symbol
 _atom_site_label
 _atom_site_symmetry_multiplicity
 _atom_site_fract_x
 _atom_site_fract_y
 _atom_site_fract_z
 _atom_site_occupancy
  Na  Na0  1  0.245779  0.973840  0.503057  1
  Na  Na1  1  0.759433  0.745813  0.245984  1
  Na  Na2  1  0.245779  0.526160  0.003057  1
  Na  Na3  1  0.240567  0.254187  0.754016  1
  Na  Na4  1  0.240567  0.245813  0.254016  1
  Na  Na5  1  0.754221  0.026160  0.496943  1
  Na  Na6  1  0.754221  0.473840  0.996943  1
  Na  Na7  1  0.759433  0.754187  0.745984  1
  Li  Li8  1  0.269759  0.915032  0.798782  1
  Li  Li9  1  0.742276  0.858498  0.989009  1
  Li  Li10  1  0.742276  0.641502  0.489009  1
  Li  Li11  1  0.269759  0.584968  0.298782  1
  Li  Li12  1  0.730241  0.084968  0.201218  1
  Li  Li13  1  0.257724  0.141502  0.010991  1
  Li  Li14  1  0.257724  0.358498  0.510991  1
  Li  Li15  1  0.730241  0.415032  0.701218  1
  Fe  Fe16  1  0.240810  0.874604  0.218627  1
  Fe  Fe17  1  0.240810  0.625396  0.718627  1
  Fe  Fe18  1  0.759190  0.374604  0.281373  1
  Fe  Fe19  1  0.759190  0.125396  0.781373  1
  O  O20  1  0.978618  0.960758  0.211221  1
  O  O21  1  0.044072  0.774953  0.552104  1
  O  O22  1  0.456144  0.991055  0.201350  1
  O  O23  1  0.464043  0.790848  0.431510  1
  O  O24  1  0.456144  0.508945  0.701350  1
  O  O25  1  0.978618  0.539242  0.711221  1
  O  O26  1  0.543856  0.491055  0.298650  1
  O  O27  1  0.535957  0.209152  0.568490  1
  O  O28  1  0.021382  0.460758  0.288779  1
  O  O29  1  0.955928  0.274953  0.947896  1
  O  O30  1  0.464043  0.709152  0.931510  1
  O  O31  1  0.535957  0.290848  0.068490  1
  O  O32  1  0.021382  0.039242  0.788779  1
  O  O33  1  0.543856  0.008945  0.798650  1
  O  O34  1  0.955928  0.225047  0.447896  1
  O  O35  1  0.044072  0.725047  0.052104  1
