# generated using pymatgen
data_Zr6Ag7F31
_symmetry_space_group_name_H-M   'P 1'
_cell_length_a   8.85317508
_cell_length_b   8.85317508
_cell_length_c   8.85317508
_cell_angle_alpha   106.74587681
_cell_angle_beta   106.74587681
_cell_angle_gamma   106.74587681
_symmetry_Int_Tables_number   1
_chemical_formula_structural   Zr6Ag7F31
_chemical_formula_sum   'Zr6 Ag7 F31'
_cell_volume   581.84646801
_cell_formula_units_Z   1
loop_
 _symmetry_equiv_pos_site_id
 _symmetry_equiv_pos_as_xyz
  1  'x, y, z'
loop_
 _atom_site_type_symbol
 _atom_site_label
 _atom_site_symmetry_multiplicity
 _atom_site_fract_x
 _atom_site_fract_y
 _atom_site_fract_z
 _atom_site_occupancy
  Zr  Zr0  1  0.356603  0.114746  0.036029  1
  Zr  Zr1  1  0.036029  0.356603  0.114746  1
  Zr  Zr2  1  0.114746  0.036029  0.356603  1
  Zr  Zr3  1  0.643397  0.885254  0.963971  1
  Zr  Zr4  1  0.963971  0.643397  0.885254  1
  Zr  Zr5  1  0.885254  0.963971  0.643397  1
  Ag  Ag6  1  0.500000  0.500000  0.500000  1
  Ag  Ag7  1  0.429407  0.812347  0.289584  1
  Ag  Ag8  1  0.289584  0.429407  0.812347  1
  Ag  Ag9  1  0.812347  0.289584  0.429407  1
  Ag  Ag10  1  0.570593  0.187653  0.710416  1
  Ag  Ag11  1  0.710416  0.570593  0.187653  1
  Ag  Ag12  1  0.187653  0.710416  0.570593  1
  F  F13  1  0.000000  0.000000  0.000000  1
  F  F14  1  0.303781  0.090534  0.251350  1
  F  F15  1  0.251350  0.303781  0.090534  1
  F  F16  1  0.090534  0.251350  0.303781  1
  F  F17  1  0.696219  0.909466  0.748650  1
  F  F18  1  0.748650  0.696219  0.909466  1
  F  F19  1  0.909466  0.748650  0.696219  1
  F  F20  1  0.159552  0.045063  0.788338  1
  F  F21  1  0.788338  0.159552  0.045062  1
  F  F22  1  0.045063  0.788338  0.159552  1
  F  F23  1  0.840448  0.954938  0.211662  1
  F  F24  1  0.211662  0.840448  0.954937  1
  F  F25  1  0.954938  0.211662  0.840448  1
  F  F26  1  0.979705  0.852570  0.450361  1
  F  F27  1  0.852570  0.450361  0.979705  1
  F  F28  1  0.450361  0.979705  0.852570  1
  F  F29  1  0.020295  0.147430  0.549639  1
  F  F30  1  0.147430  0.549639  0.020295  1
  F  F31  1  0.549639  0.020295  0.147430  1
  F  F32  1  0.675748  0.744174  0.441741  1
  F  F33  1  0.744174  0.441741  0.675748  1
  F  F34  1  0.441741  0.675748  0.744174  1
  F  F35  1  0.324252  0.255826  0.558259  1
  F  F36  1  0.255826  0.558259  0.324252  1
  F  F37  1  0.558259  0.324252  0.255826  1
  F  F38  1  0.710540  0.055680  0.529266  1
  F  F39  1  0.055680  0.529266  0.710540  1
  F  F40  1  0.529266  0.710540  0.055680  1
  F  F41  1  0.289460  0.944320  0.470734  1
  F  F42  1  0.944320  0.470734  0.289460  1
  F  F43  1  0.470734  0.289460  0.944320  1
