# generated using pymatgen
data_BaTbO3
_symmetry_space_group_name_H-M   'P 1'
_cell_length_a   6.28436234
_cell_length_b   6.28436234
_cell_length_c   6.28436234
_cell_angle_alpha   120.57980305
_cell_angle_beta   120.57980305
_cell_angle_gamma   88.99865145
_symmetry_Int_Tables_number   1
_chemical_formula_structural   BaTbO3
_chemical_formula_sum   'Ba2 Tb2 O6'
_cell_volume   173.92976989
_cell_formula_units_Z   2
loop_
 _symmetry_equiv_pos_site_id
 _symmetry_equiv_pos_as_xyz
  1  'x, y, z'
loop_
 _atom_site_type_symbol
 _atom_site_label
 _atom_site_symmetry_multiplicity
 _atom_site_fract_x
 _atom_site_fract_y
 _atom_site_fract_z
 _atom_site_occupancy
  Ba  Ba0  1  0.250000  0.750000  0.500000  1
  Ba  Ba1  1  0.750000  0.250000  0.500000  1
  Tb  Tb2  1  0.000000  0.000000  0.000000  1
  Tb  Tb3  1  0.500000  0.500000  0.000000  1
  O  O4  1  0.191272  0.691272  0.882545  1
  O  O5  1  0.691272  0.808728  0.500000  1
  O  O6  1  0.308728  0.191272  0.500000  1
  O  O7  1  0.808728  0.308728  0.117455  1
  O  O8  1  0.250000  0.250000  0.000000  1
  O  O9  1  0.750000  0.750000  0.000000  1
