# generated using pymatgen
data_Te2AuCl
_symmetry_space_group_name_H-M   'P 1'
_cell_length_a   6.52200698
_cell_length_b   6.52200698
_cell_length_c   8.80596958
_cell_angle_alpha   90.00000000
_cell_angle_beta   90.00000000
_cell_angle_gamma   143.06445302
_symmetry_Int_Tables_number   1
_chemical_formula_structural   Te2AuCl
_chemical_formula_sum   'Te4 Au2 Cl2'
_cell_volume   225.08867433
_cell_formula_units_Z   2
loop_
 _symmetry_equiv_pos_site_id
 _symmetry_equiv_pos_as_xyz
  1  'x, y, z'
loop_
 _atom_site_type_symbol
 _atom_site_label
 _atom_site_symmetry_multiplicity
 _atom_site_fract_x
 _atom_site_fract_y
 _atom_site_fract_z
 _atom_site_occupancy
  Te  Te0  1  0.392337  0.607663  0.550394  1
  Te  Te1  1  0.607663  0.392337  0.050394  1
  Te  Te2  1  0.392337  0.607663  0.949606  1
  Te  Te3  1  0.607663  0.392337  0.449606  1
  Au  Au4  1  0.914170  0.085830  0.750000  1
  Au  Au5  1  0.085830  0.914170  0.250000  1
  Cl  Cl6  1  0.168450  0.831550  0.750000  1
  Cl  Cl7  1  0.831550  0.168450  0.250000  1
