# generated using pymatgen
data_Ga3B4Pt9
_symmetry_space_group_name_H-M   'P 1'
_cell_length_a   8.80039926
_cell_length_b   8.80039926
_cell_length_c   6.57707220
_cell_angle_alpha   90.00000000
_cell_angle_beta   90.00000000
_cell_angle_gamma   120.00000000
_symmetry_Int_Tables_number   1
_chemical_formula_structural   Ga3B4Pt9
_chemical_formula_sum   'Ga6 B8 Pt18'
_cell_volume   441.13142063
_cell_formula_units_Z   2
loop_
 _symmetry_equiv_pos_site_id
 _symmetry_equiv_pos_as_xyz
  1  'x, y, z'
loop_
 _atom_site_type_symbol
 _atom_site_label
 _atom_site_symmetry_multiplicity
 _atom_site_fract_x
 _atom_site_fract_y
 _atom_site_fract_z
 _atom_site_occupancy
  Ga  Ga0  1  0.490749  0.051462  0.750000  1
  Ga  Ga1  1  0.439286  0.948538  0.250000  1
  Ga  Ga2  1  0.509251  0.560714  0.250000  1
  Ga  Ga3  1  0.560714  0.509251  0.750000  1
  Ga  Ga4  1  0.948538  0.439286  0.750000  1
  Ga  Ga5  1  0.051462  0.490749  0.250000  1
  B  B6  1  0.820463  0.000000  0.500000  1
  B  B7  1  0.820463  0.000000  0.000000  1
  B  B8  1  0.000000  0.820463  0.500000  1
  B  B9  1  0.179537  0.179537  0.500000  1
  B  B10  1  0.179537  0.179537  0.000000  1
  B  B11  1  0.000000  0.820463  0.000000  1
  B  B12  1  0.666667  0.333333  0.250000  1
  B  B13  1  0.333333  0.666667  0.750000  1
  Pt  Pt14  1  0.814603  0.541143  0.478498  1
  Pt  Pt15  1  0.541143  0.814603  0.521502  1
  Pt  Pt16  1  0.992573  0.177419  0.750000  1
  Pt  Pt17  1  0.273459  0.458857  0.521502  1
  Pt  Pt18  1  0.007427  0.184846  0.250000  1
  Pt  Pt19  1  0.726541  0.185397  0.478498  1
  Pt  Pt20  1  0.815154  0.822581  0.250000  1
  Pt  Pt21  1  0.185397  0.726541  0.521502  1
  Pt  Pt22  1  0.458857  0.273459  0.478498  1
  Pt  Pt23  1  0.814603  0.541143  0.021502  1
  Pt  Pt24  1  0.458857  0.273459  0.021502  1
  Pt  Pt25  1  0.184846  0.007427  0.750000  1
  Pt  Pt26  1  0.177419  0.992573  0.250000  1
  Pt  Pt27  1  0.185397  0.726541  0.978498  1
  Pt  Pt28  1  0.822581  0.815154  0.750000  1
  Pt  Pt29  1  0.726541  0.185397  0.021502  1
  Pt  Pt30  1  0.273459  0.458857  0.978498  1
  Pt  Pt31  1  0.541143  0.814603  0.978498  1
