# generated using pymatgen
data_B4H5
_symmetry_space_group_name_H-M   'P 1'
_cell_length_a   6.11679759
_cell_length_b   13.99463877
_cell_length_c   17.01960558
_cell_angle_alpha   90.00000000
_cell_angle_beta   93.49271977
_cell_angle_gamma   90.00000000
_symmetry_Int_Tables_number   1
_chemical_formula_structural   B4H5
_chemical_formula_sum   'B64 H80'
_cell_volume   1454.21246149
_cell_formula_units_Z   16
loop_
 _symmetry_equiv_pos_site_id
 _symmetry_equiv_pos_as_xyz
  1  'x, y, z'
loop_
 _atom_site_type_symbol
 _atom_site_label
 _atom_site_symmetry_multiplicity
 _atom_site_fract_x
 _atom_site_fract_y
 _atom_site_fract_z
 _atom_site_occupancy
  B  B0  1  0.821451  0.290075  0.493855  1
  B  B1  1  0.178549  0.790075  0.006145  1
  B  B2  1  0.178549  0.709925  0.506145  1
  B  B3  1  0.821451  0.209925  0.993855  1
  B  B4  1  0.908132  0.168330  0.491782  1
  B  B5  1  0.091868  0.668330  0.008218  1
  B  B6  1  0.091868  0.831670  0.508218  1
  B  B7  1  0.908132  0.331670  0.991782  1
  B  B8  1  0.758502  0.102504  0.556517  1
  B  B9  1  0.241498  0.602504  0.943483  1
  B  B10  1  0.241498  0.897496  0.443483  1
  B  B11  1  0.758502  0.397496  0.056517  1
  B  B12  1  0.574289  0.181925  0.602065  1
  B  B13  1  0.425711  0.681925  0.897935  1
  B  B14  1  0.425711  0.818075  0.397935  1
  B  B15  1  0.574289  0.318075  0.102065  1
  B  B16  1  0.631182  0.190408  0.498539  1
  B  B17  1  0.368818  0.690408  0.001461  1
  B  B18  1  0.368818  0.809592  0.501461  1
  B  B19  1  0.631182  0.309592  0.998539  1
  B  B20  1  0.592680  0.297117  0.554419  1
  B  B21  1  0.407320  0.797117  0.945581  1
  B  B22  1  0.407320  0.702883  0.445581  1
  B  B23  1  0.592680  0.202883  0.054419  1
  B  B24  1  0.811676  0.487797  0.603350  1
  B  B25  1  0.188324  0.987797  0.896650  1
  B  B26  1  0.188324  0.512203  0.396650  1
  B  B27  1  0.811676  0.012203  0.103350  1
  B  B28  1  0.669704  0.530283  0.684516  1
  B  B29  1  0.330296  0.030283  0.815484  1
  B  B30  1  0.330296  0.469717  0.315484  1
  B  B31  1  0.669704  0.969717  0.184516  1
  B  B32  1  0.771311  0.460441  0.765805  1
  B  B33  1  0.228689  0.960441  0.734195  1
  B  B34  1  0.228689  0.539559  0.234195  1
  B  B35  1  0.771311  0.039559  0.265805  1
  B  B36  1  0.774110  0.320190  0.746863  1
  B  B37  1  0.225890  0.820190  0.753137  1
  B  B38  1  0.225890  0.679810  0.253137  1
  B  B39  1  0.774110  0.179810  0.246863  1
  B  B40  1  0.690941  0.284378  0.650787  1
  B  B41  1  0.309059  0.784378  0.849213  1
  B  B42  1  0.309059  0.715622  0.349213  1
  B  B43  1  0.690941  0.215622  0.150787  1
  B  B44  1  0.829746  0.353322  0.587763  1
  B  B45  1  0.170254  0.853322  0.912237  1
  B  B46  1  0.170254  0.646678  0.412237  1
  B  B47  1  0.829746  0.146678  0.087763  1
  B  B48  1  0.947204  0.511674  0.697417  1
  B  B49  1  0.052796  0.011674  0.802583  1
  B  B50  1  0.052796  0.488326  0.302583  1
  B  B51  1  0.947204  0.988326  0.197417  1
  B  B52  1  0.003255  0.396589  0.740034  1
  B  B53  1  0.996745  0.896589  0.759966  1
  B  B54  1  0.996745  0.603411  0.259966  1
  B  B55  1  0.003255  0.103411  0.240034  1
  B  B56  1  0.966945  0.301888  0.673291  1
  B  B57  1  0.033055  0.801888  0.826709  1
  B  B58  1  0.033055  0.698112  0.326709  1
  B  B59  1  0.966945  0.198112  0.173291  1
  B  B60  1  0.037657  0.416719  0.637160  1
  B  B61  1  0.962343  0.916719  0.862840  1
  B  B62  1  0.962343  0.583281  0.362840  1
  B  B63  1  0.037657  0.083281  0.137160  1
  H  H64  1  0.008312  0.251038  0.518274  1
  H  H65  1  0.991688  0.751038  0.981726  1
  H  H66  1  0.991688  0.748962  0.481726  1
  H  H67  1  0.008312  0.248962  0.018274  1
  H  H68  1  0.973268  0.122942  0.559465  1
  H  H69  1  0.026732  0.622942  0.940535  1
  H  H70  1  0.026732  0.877058  0.440535  1
  H  H71  1  0.973268  0.377058  0.059465  1
  H  H72  1  0.744959  0.134817  0.632228  1
  H  H73  1  0.255041  0.634817  0.867772  1
  H  H74  1  0.255041  0.865183  0.367772  1
  H  H75  1  0.744959  0.365183  0.132228  1
  H  H76  1  0.603192  0.480871  0.619467  1
  H  H77  1  0.396808  0.980871  0.880533  1
  H  H78  1  0.396808  0.519129  0.380533  1
  H  H79  1  0.603192  0.019129  0.119467  1
  H  H80  1  0.572647  0.467218  0.730988  1
  H  H81  1  0.427353  0.967218  0.769012  1
  H  H82  1  0.427353  0.532782  0.269012  1
  H  H83  1  0.572647  0.032782  0.230988  1
  H  H84  1  0.579062  0.325084  0.705961  1
  H  H85  1  0.420938  0.825084  0.794039  1
  H  H86  1  0.420938  0.674916  0.294039  1
  H  H87  1  0.579062  0.174916  0.205961  1
  H  H88  1  0.841929  0.332865  0.434224  1
  H  H89  1  0.158071  0.832865  0.065776  1
  H  H90  1  0.158071  0.667135  0.565776  1
  H  H91  1  0.841929  0.167135  0.934224  1
  H  H92  1  0.005922  0.133566  0.440694  1
  H  H93  1  0.994078  0.633566  0.059306  1
  H  H94  1  0.994078  0.866434  0.559306  1
  H  H95  1  0.005922  0.366434  0.940694  1
  H  H96  1  0.739271  0.017944  0.554527  1
  H  H97  1  0.260729  0.517944  0.945473  1
  H  H98  1  0.260729  0.982056  0.445473  1
  H  H99  1  0.068334  0.576976  0.712156  1
  H  H100  1  0.739271  0.482056  0.054527  1
  H  H101  1  0.590224  0.646484  0.877558  1
  H  H102  1  0.590224  0.853516  0.377558  1
  H  H103  1  0.409776  0.353516  0.122442  1
  H  H104  1  0.499234  0.171070  0.446565  1
  H  H105  1  0.500766  0.671070  0.053435  1
  H  H106  1  0.500766  0.828930  0.553435  1
  H  H107  1  0.499234  0.328930  0.946565  1
  H  H108  1  0.430884  0.340602  0.534504  1
  H  H109  1  0.569116  0.840602  0.965496  1
  H  H110  1  0.569116  0.659398  0.465496  1
  H  H111  1  0.430884  0.159398  0.034504  1
  H  H112  1  0.813399  0.536979  0.546219  1
  H  H113  1  0.186601  0.036979  0.953781  1
  H  H114  1  0.186601  0.463021  0.453781  1
  H  H115  1  0.813399  0.963021  0.046219  1
  H  H116  1  0.565615  0.602057  0.686391  1
  H  H117  1  0.434385  0.102057  0.813609  1
  H  H118  1  0.434385  0.397943  0.313609  1
  H  H119  1  0.565615  0.897943  0.186391  1
  H  H120  1  0.749698  0.485847  0.831756  1
  H  H121  1  0.250302  0.985847  0.668244  1
  H  H122  1  0.250302  0.514153  0.168244  1
  H  H123  1  0.749698  0.014153  0.331756  1
  H  H124  1  0.743266  0.271460  0.802481  1
  H  H125  1  0.256734  0.771460  0.697519  1
  H  H126  1  0.256734  0.728540  0.197519  1
  H  H127  1  0.743266  0.228540  0.302481  1
  H  H128  1  0.205500  0.070912  0.106237  1
  H  H129  1  0.794500  0.570912  0.393763  1
  H  H130  1  0.794500  0.929088  0.893763  1
  H  H131  1  0.205500  0.429088  0.606237  1
  H  H132  1  0.093755  0.263223  0.173077  1
  H  H133  1  0.906245  0.763223  0.326923  1
  H  H134  1  0.906245  0.736777  0.826923  1
  H  H135  1  0.093755  0.236777  0.673077  1
  H  H136  1  0.143262  0.110047  0.291993  1
  H  H137  1  0.856738  0.610047  0.208007  1
  H  H138  1  0.856738  0.889953  0.708007  1
  H  H139  1  0.143262  0.389953  0.791993  1
  H  H140  1  0.068334  0.923024  0.212156  1
  H  H141  1  0.931666  0.423024  0.287844  1
  H  H142  1  0.931666  0.076976  0.787844  1
  H  H143  1  0.409776  0.146484  0.622442  1
