# generated using pymatgen
data_La2Pd2Pb
_symmetry_space_group_name_H-M   'P 1'
_cell_length_a   8.04261458
_cell_length_b   8.04261458
_cell_length_c   3.96991872
_cell_angle_alpha   90.00000000
_cell_angle_beta   90.00000000
_cell_angle_gamma   90.00000000
_symmetry_Int_Tables_number   1
_chemical_formula_structural   La2Pd2Pb
_chemical_formula_sum   'La4 Pd4 Pb2'
_cell_volume   256.78883016
_cell_formula_units_Z   2
loop_
 _symmetry_equiv_pos_site_id
 _symmetry_equiv_pos_as_xyz
  1  'x, y, z'
loop_
 _atom_site_type_symbol
 _atom_site_label
 _atom_site_symmetry_multiplicity
 _atom_site_fract_x
 _atom_site_fract_y
 _atom_site_fract_z
 _atom_site_occupancy
  La  La0  1  0.677969  0.177969  0.500000  1
  La  La1  1  0.177969  0.322031  0.500000  1
  La  La2  1  0.822031  0.677969  0.500000  1
  La  La3  1  0.322031  0.822031  0.500000  1
  Pd  Pd4  1  0.376034  0.123966  0.000000  1
  Pd  Pd5  1  0.123966  0.623966  0.000000  1
  Pd  Pd6  1  0.623966  0.876034  0.000000  1
  Pd  Pd7  1  0.876034  0.376034  0.000000  1
  Pb  Pb8  1  0.000000  0.000000  0.000000  1
  Pb  Pb9  1  0.500000  0.500000  0.000000  1
