# generated using pymatgen
data_U(SiIr)2
_symmetry_space_group_name_H-M   'P 1'
_cell_length_a   4.10490718
_cell_length_b   4.10490718
_cell_length_c   9.90075294
_cell_angle_alpha   90.00000000
_cell_angle_beta   90.00000000
_cell_angle_gamma   90.00000000
_symmetry_Int_Tables_number   1
_chemical_formula_structural   U(SiIr)2
_chemical_formula_sum   'U2 Si4 Ir4'
_cell_volume   166.83029051
_cell_formula_units_Z   2
loop_
 _symmetry_equiv_pos_site_id
 _symmetry_equiv_pos_as_xyz
  1  'x, y, z'
loop_
 _atom_site_type_symbol
 _atom_site_label
 _atom_site_symmetry_multiplicity
 _atom_site_fract_x
 _atom_site_fract_y
 _atom_site_fract_z
 _atom_site_occupancy
  U  U0  1  0.000000  0.500000  0.255268  1
  U  U1  1  0.500000  0.000000  0.744732  1
  Si  Si2  1  0.000000  0.500000  0.867308  1
  Si  Si3  1  0.500000  0.000000  0.132692  1
  Si  Si4  1  0.500000  0.500000  0.500000  1
  Si  Si5  1  0.000000  0.000000  0.500000  1
  Ir  Ir6  1  0.500000  0.000000  0.371365  1
  Ir  Ir7  1  0.000000  0.500000  0.628635  1
  Ir  Ir8  1  0.500000  0.500000  0.000000  1
  Ir  Ir9  1  0.000000  0.000000  0.000000  1
