# generated using pymatgen
data_Mn6Ni16P7
_symmetry_space_group_name_H-M   'P 1'
_cell_length_a   7.75786067
_cell_length_b   7.75786067
_cell_length_c   7.75786067
_cell_angle_alpha   60.00000000
_cell_angle_beta   60.00000000
_cell_angle_gamma   60.00000000
_symmetry_Int_Tables_number   1
_chemical_formula_structural   Mn6Ni16P7
_chemical_formula_sum   'Mn6 Ni16 P7'
_cell_volume   330.14971634
_cell_formula_units_Z   1
loop_
 _symmetry_equiv_pos_site_id
 _symmetry_equiv_pos_as_xyz
  1  'x, y, z'
loop_
 _atom_site_type_symbol
 _atom_site_label
 _atom_site_symmetry_multiplicity
 _atom_site_fract_x
 _atom_site_fract_y
 _atom_site_fract_z
 _atom_site_occupancy
  Mn  Mn0  1  0.191369  0.808631  0.808631  1
  Mn  Mn1  1  0.191369  0.191369  0.808631  1
  Mn  Mn2  1  0.808631  0.808631  0.191369  1
  Mn  Mn3  1  0.808631  0.191369  0.808631  1
  Mn  Mn4  1  0.191369  0.808631  0.191369  1
  Mn  Mn5  1  0.808631  0.191369  0.191369  1
  Ni  Ni6  1  0.835783  0.835783  0.835783  1
  Ni  Ni7  1  0.164217  0.507350  0.164217  1
  Ni  Ni8  1  0.383253  0.383253  0.383253  1
  Ni  Ni9  1  0.383253  0.383253  0.850242  1
  Ni  Ni10  1  0.850242  0.383253  0.383253  1
  Ni  Ni11  1  0.616747  0.616747  0.149758  1
  Ni  Ni12  1  0.149758  0.616747  0.616747  1
  Ni  Ni13  1  0.616747  0.616747  0.616747  1
  Ni  Ni14  1  0.383253  0.850242  0.383253  1
  Ni  Ni15  1  0.492650  0.835783  0.835783  1
  Ni  Ni16  1  0.835783  0.835783  0.492650  1
  Ni  Ni17  1  0.507350  0.164217  0.164217  1
  Ni  Ni18  1  0.164217  0.164217  0.507350  1
  Ni  Ni19  1  0.164217  0.164217  0.164217  1
  Ni  Ni20  1  0.835783  0.492650  0.835783  1
  Ni  Ni21  1  0.616747  0.149758  0.616747  1
  P  P22  1  0.500000  0.500000  0.500000  1
  P  P23  1  0.000000  0.500000  0.500000  1
  P  P24  1  0.000000  0.500000  1.000000  1
  P  P25  1  0.500000  0.000000  0.500000  1
  P  P26  1  0.500000  0.000000  0.000000  1
  P  P27  1  0.500000  0.500000  1.000000  1
  P  P28  1  1.000000  0.000000  0.500000  1
