# generated using pymatgen
data_Tl2SnSe3
_symmetry_space_group_name_H-M   'P 1'
_cell_length_a   8.28191104
_cell_length_b   8.47777951
_cell_length_c   21.65861245
_cell_angle_alpha   90.00000000
_cell_angle_beta   90.00000000
_cell_angle_gamma   90.00000000
_symmetry_Int_Tables_number   1
_chemical_formula_structural   Tl2SnSe3
_chemical_formula_sum   'Tl16 Sn8 Se24'
_cell_volume   1520.69916950
_cell_formula_units_Z   8
loop_
 _symmetry_equiv_pos_site_id
 _symmetry_equiv_pos_as_xyz
  1  'x, y, z'
loop_
 _atom_site_type_symbol
 _atom_site_label
 _atom_site_symmetry_multiplicity
 _atom_site_fract_x
 _atom_site_fract_y
 _atom_site_fract_z
 _atom_site_occupancy
  Tl  Tl0  1  0.675642  0.986612  0.666804  1
  Tl  Tl1  1  0.824358  0.486612  0.166804  1
  Tl  Tl2  1  0.175642  0.513388  0.666804  1
  Tl  Tl3  1  0.675642  0.986612  0.833196  1
  Tl  Tl4  1  0.324358  0.013388  0.333196  1
  Tl  Tl5  1  0.175642  0.513388  0.833196  1
  Tl  Tl6  1  0.824358  0.486612  0.333196  1
  Tl  Tl7  1  0.324358  0.013388  0.166804  1
  Tl  Tl8  1  0.265245  0.948170  0.494609  1
  Tl  Tl9  1  0.765245  0.551830  0.005391  1
  Tl  Tl10  1  0.234755  0.448170  0.505391  1
  Tl  Tl11  1  0.734755  0.051830  0.994609  1
  Tl  Tl12  1  0.734755  0.051830  0.505391  1
  Tl  Tl13  1  0.234755  0.448170  0.994609  1
  Tl  Tl14  1  0.765245  0.551830  0.494609  1
  Tl  Tl15  1  0.265245  0.948170  0.005391  1
  Sn  Sn16  1  0.176227  0.009504  0.666661  1
  Sn  Sn17  1  0.676227  0.490496  0.666661  1
  Sn  Sn18  1  0.323773  0.509504  0.166661  1
  Sn  Sn19  1  0.823773  0.990496  0.333339  1
  Sn  Sn20  1  0.823773  0.990496  0.166661  1
  Sn  Sn21  1  0.323773  0.509504  0.333339  1
  Sn  Sn22  1  0.676227  0.490496  0.833339  1
  Sn  Sn23  1  0.176227  0.009504  0.833339  1
  Se  Se24  1  0.013722  0.835543  0.907329  1
  Se  Se25  1  0.513722  0.664457  0.592671  1
  Se  Se26  1  0.486278  0.335543  0.092671  1
  Se  Se27  1  0.986278  0.164457  0.407329  1
  Se  Se28  1  0.986278  0.164457  0.092671  1
  Se  Se29  1  0.486278  0.335543  0.407329  1
  Se  Se30  1  0.513722  0.664457  0.907329  1
  Se  Se31  1  0.013722  0.835543  0.592671  1
  Se  Se32  1  0.127134  0.680864  0.393382  1
  Se  Se33  1  0.627134  0.819136  0.106618  1
  Se  Se34  1  0.372866  0.180864  0.606618  1
  Se  Se35  1  0.872866  0.319136  0.893382  1
  Se  Se36  1  0.872866  0.319136  0.606618  1
  Se  Se37  1  0.372866  0.180864  0.893382  1
  Se  Se38  1  0.627134  0.819136  0.393382  1
  Se  Se39  1  0.333585  0.840046  0.750000  1
  Se  Se40  1  0.009156  0.164806  0.750000  1
  Se  Se41  1  0.509156  0.335194  0.750000  1
  Se  Se42  1  0.490844  0.664806  0.250000  1
  Se  Se43  1  0.990844  0.835194  0.250000  1
  Se  Se44  1  0.666415  0.159954  0.250000  1
  Se  Se45  1  0.166415  0.340046  0.250000  1
  Se  Se46  1  0.833585  0.659954  0.750000  1
  Se  Se47  1  0.127134  0.680864  0.106618  1
