# generated using pymatgen
data_Cu2Cl2O
_symmetry_space_group_name_H-M   'P 1'
_cell_length_a   6.85116449
_cell_length_b   6.40079338
_cell_length_c   6.19251978
_cell_angle_alpha   65.89288895
_cell_angle_beta   58.51537694
_cell_angle_gamma   55.59173410
_symmetry_Int_Tables_number   1
_chemical_formula_structural   Cu2Cl2O
_chemical_formula_sum   'Cu4 Cl4 O2'
_cell_volume   188.56732391
_cell_formula_units_Z   2
loop_
 _symmetry_equiv_pos_site_id
 _symmetry_equiv_pos_as_xyz
  1  'x, y, z'
loop_
 _atom_site_type_symbol
 _atom_site_label
 _atom_site_symmetry_multiplicity
 _atom_site_fract_x
 _atom_site_fract_y
 _atom_site_fract_z
 _atom_site_occupancy
  Cu  Cu0  1  0.125000  0.625000  0.125000  1
  Cu  Cu1  1  0.125000  0.125000  0.625000  1
  Cu  Cu2  1  0.125000  0.125000  0.125000  1
  Cu  Cu3  1  0.625000  0.125000  0.125000  1
  Cl  Cl4  1  0.288148  0.288148  0.711852  1
  Cl  Cl5  1  0.711852  0.711852  0.288148  1
  Cl  Cl6  1  0.538148  0.538148  0.961852  1
  Cl  Cl7  1  0.961852  0.961852  0.538148  1
  O  O8  1  1.000000  1.000000  0.000000  1
  O  O9  1  0.250000  0.250000  0.250000  1
