# generated using pymatgen
data_SrSe2O5
_symmetry_space_group_name_H-M   'P 1'
_cell_length_a   7.04785163
_cell_length_b   7.11151232
_cell_length_c   11.14604504
_cell_angle_alpha   84.88915392
_cell_angle_beta   81.24533424
_cell_angle_gamma   79.81068513
_symmetry_Int_Tables_number   1
_chemical_formula_structural   SrSe2O5
_chemical_formula_sum   'Sr4 Se8 O20'
_cell_volume   542.32229054
_cell_formula_units_Z   4
loop_
 _symmetry_equiv_pos_site_id
 _symmetry_equiv_pos_as_xyz
  1  'x, y, z'
loop_
 _atom_site_type_symbol
 _atom_site_label
 _atom_site_symmetry_multiplicity
 _atom_site_fract_x
 _atom_site_fract_y
 _atom_site_fract_z
 _atom_site_occupancy
  Sr  Sr0  1  0.194023  0.356416  0.892127  1
  Sr  Sr1  1  0.805977  0.643584  0.107873  1
  Sr  Sr2  1  0.685771  0.609063  0.756789  1
  Sr  Sr3  1  0.314229  0.390937  0.243211  1
  Se  Se4  1  0.583785  0.164522  0.624147  1
  Se  Se5  1  0.416215  0.835478  0.375853  1
  Se  Se6  1  0.128461  0.271877  0.568340  1
  Se  Se7  1  0.871539  0.728123  0.431660  1
  Se  Se8  1  0.123006  0.832535  0.787623  1
  Se  Se9  1  0.876994  0.167465  0.212377  1
  Se  Se10  1  0.304971  0.835620  0.041050  1
  Se  Se11  1  0.695029  0.164380  0.958950  1
  O  O12  1  0.700814  0.947139  0.664719  1
  O  O13  1  0.299186  0.052861  0.335281  1
  O  O14  1  0.540429  0.287090  0.754231  1
  O  O15  1  0.459571  0.712910  0.245769  1
  O  O16  1  0.034132  0.374747  0.700842  1
  O  O17  1  0.965868  0.625253  0.299158  1
  O  O18  1  0.241650  0.432401  0.477987  1
  O  O19  1  0.758350  0.567599  0.522013  1
  O  O20  1  0.338424  0.098480  0.624941  1
  O  O21  1  0.661576  0.901520  0.375059  1
  O  O22  1  0.318379  0.658000  0.768503  1
  O  O23  1  0.681621  0.342000  0.231497  1
  O  O24  1  0.813192  0.029580  0.094893  1
  O  O25  1  0.186808  0.970420  0.905107  1
  O  O26  1  0.464752  0.229373  0.027417  1
  O  O27  1  0.535248  0.770627  0.972583  1
  O  O28  1  0.793717  0.368790  0.943958  1
  O  O29  1  0.206283  0.631210  0.056042  1
  O  O30  1  0.048574  0.289250  0.131139  1
  O  O31  1  0.951426  0.710750  0.868861  1
