# generated using pymatgen
data_CaIn
_symmetry_space_group_name_H-M   'P 1'
_cell_length_a   6.70998303
_cell_length_b   6.70998303
_cell_length_c   6.70998303
_cell_angle_alpha   112.67711396
_cell_angle_beta   112.67711396
_cell_angle_gamma   103.23378841
_symmetry_Int_Tables_number   1
_chemical_formula_structural   CaIn
_chemical_formula_sum   'Ca4 In4'
_cell_volume   230.52761469
_cell_formula_units_Z   4
loop_
 _symmetry_equiv_pos_site_id
 _symmetry_equiv_pos_as_xyz
  1  'x, y, z'
loop_
 _atom_site_type_symbol
 _atom_site_label
 _atom_site_symmetry_multiplicity
 _atom_site_fract_x
 _atom_site_fract_y
 _atom_site_fract_z
 _atom_site_occupancy
  Ca  Ca0  1  0.250000  0.750000  0.500000  1
  Ca  Ca1  1  0.750000  0.250000  0.500000  1
  Ca  Ca2  1  0.710060  0.710060  0.000000  1
  Ca  Ca3  1  0.289940  0.289940  0.000000  1
  In  In4  1  0.778915  0.221085  0.000000  1
  In  In5  1  0.221085  0.221085  0.442170  1
  In  In6  1  0.778915  0.778915  0.557830  1
  In  In7  1  0.221085  0.778915  1.000000  1
