# generated using pymatgen
data_Tl5SbO5
_symmetry_space_group_name_H-M   'P 1'
_cell_length_a   8.21188650
_cell_length_b   8.21188650
_cell_length_c   14.13347842
_cell_angle_alpha   90.00000000
_cell_angle_beta   90.00000000
_cell_angle_gamma   95.12383717
_symmetry_Int_Tables_number   1
_chemical_formula_structural   Tl5SbO5
_chemical_formula_sum   'Tl20 Sb4 O20'
_cell_volume   949.28368531
_cell_formula_units_Z   4
loop_
 _symmetry_equiv_pos_site_id
 _symmetry_equiv_pos_as_xyz
  1  'x, y, z'
loop_
 _atom_site_type_symbol
 _atom_site_label
 _atom_site_symmetry_multiplicity
 _atom_site_fract_x
 _atom_site_fract_y
 _atom_site_fract_z
 _atom_site_occupancy
  Tl  Tl0  1  0.257973  0.742027  0.400696  1
  Tl  Tl1  1  0.742027  0.257973  0.900696  1
  Tl  Tl2  1  0.525079  0.474921  0.739553  1
  Tl  Tl3  1  0.474921  0.525079  0.239553  1
  Tl  Tl4  1  0.360979  0.312217  0.495445  1
  Tl  Tl5  1  0.639021  0.687783  0.995445  1
  Tl  Tl6  1  0.687783  0.639021  0.495445  1
  Tl  Tl7  1  0.312217  0.360979  0.995445  1
  Tl  Tl8  1  0.118785  0.198203  0.751327  1
  Tl  Tl9  1  0.881215  0.801797  0.251327  1
  Tl  Tl10  1  0.801797  0.881215  0.751327  1
  Tl  Tl11  1  0.198203  0.118785  0.251327  1
  Tl  Tl12  1  0.361081  0.963041  0.890417  1
  Tl  Tl13  1  0.638919  0.036959  0.390417  1
  Tl  Tl14  1  0.036959  0.638919  0.890417  1
  Tl  Tl15  1  0.963041  0.361081  0.390417  1
  Tl  Tl16  1  0.396775  0.928200  0.633355  1
  Tl  Tl17  1  0.603225  0.071800  0.133355  1
  Tl  Tl18  1  0.071800  0.603225  0.633355  1
  Tl  Tl19  1  0.928200  0.396775  0.133355  1
  Sb  Sb20  1  0.755815  0.244185  0.604133  1
  Sb  Sb21  1  0.244185  0.755815  0.104133  1
  Sb  Sb22  1  0.993640  0.006360  0.020698  1
  Sb  Sb23  1  0.006360  0.993640  0.520698  1
  O  O24  1  0.937207  0.062793  0.154726  1
  O  O25  1  0.062793  0.937207  0.654726  1
  O  O26  1  0.054055  0.945945  0.887958  1
  O  O27  1  0.945945  0.054055  0.387958  1
  O  O28  1  0.180681  0.819319  0.235824  1
  O  O29  1  0.819319  0.180681  0.735824  1
  O  O30  1  0.305477  0.694523  0.970121  1
  O  O31  1  0.694523  0.305477  0.470121  1
  O  O32  1  0.018590  0.246657  0.988405  1
  O  O33  1  0.981410  0.753343  0.488405  1
  O  O34  1  0.753343  0.981410  0.988405  1
  O  O35  1  0.246657  0.018590  0.488405  1
  O  O36  1  0.777423  0.483828  0.637548  1
  O  O37  1  0.222577  0.516172  0.137548  1
  O  O38  1  0.516172  0.222577  0.637548  1
  O  O39  1  0.483828  0.777423  0.137548  1
  O  O40  1  0.998627  0.241661  0.559949  1
  O  O41  1  0.001373  0.758339  0.059949  1
  O  O42  1  0.758339  0.001373  0.559949  1
  O  O43  1  0.241661  0.998627  0.059949  1
