# generated using pymatgen
data_ZnPb2F6
_symmetry_space_group_name_H-M   'P 1'
_cell_length_a   5.74180958
_cell_length_b   5.74180958
_cell_length_c   16.40590631
_cell_angle_alpha   90.00000000
_cell_angle_beta   90.00000000
_cell_angle_gamma   90.00000000
_symmetry_Int_Tables_number   1
_chemical_formula_structural   ZnPb2F6
_chemical_formula_sum   'Zn4 Pb8 F24'
_cell_volume   540.87610841
_cell_formula_units_Z   4
loop_
 _symmetry_equiv_pos_site_id
 _symmetry_equiv_pos_as_xyz
  1  'x, y, z'
loop_
 _atom_site_type_symbol
 _atom_site_label
 _atom_site_symmetry_multiplicity
 _atom_site_fract_x
 _atom_site_fract_y
 _atom_site_fract_z
 _atom_site_occupancy
  Zn  Zn0  1  0.750000  0.250000  0.250000  1
  Zn  Zn1  1  0.250000  0.250000  0.750000  1
  Zn  Zn2  1  0.750000  0.750000  0.750000  1
  Zn  Zn3  1  0.250000  0.750000  0.250000  1
  Pb  Pb4  1  0.261843  0.761843  0.592784  1
  Pb  Pb5  1  0.738157  0.238157  0.592784  1
  Pb  Pb6  1  0.761843  0.261843  0.907216  1
  Pb  Pb7  1  0.261843  0.238157  0.092784  1
  Pb  Pb8  1  0.738157  0.761843  0.092784  1
  Pb  Pb9  1  0.238157  0.261843  0.407216  1
  Pb  Pb10  1  0.761843  0.738157  0.407216  1
  Pb  Pb11  1  0.238157  0.738157  0.907216  1
  F  F12  1  0.000000  0.500000  0.508331  1
  F  F13  1  0.000000  0.500000  0.008331  1
  F  F14  1  0.500000  0.000000  0.491669  1
  F  F15  1  0.500000  0.000000  0.991669  1
  F  F16  1  0.000000  0.000000  0.000000  1
  F  F17  1  0.500000  0.500000  0.500000  1
  F  F18  1  0.500000  0.500000  0.000000  1
  F  F19  1  0.000000  0.000000  0.500000  1
  F  F20  1  0.000000  0.500000  0.710190  1
  F  F21  1  0.000000  0.500000  0.210190  1
  F  F22  1  0.500000  0.000000  0.289810  1
  F  F23  1  0.500000  0.000000  0.789810  1
  F  F24  1  0.313116  0.813116  0.130563  1
  F  F25  1  0.686884  0.813116  0.630563  1
  F  F26  1  0.313116  0.186884  0.630563  1
  F  F27  1  0.813116  0.686884  0.869437  1
  F  F28  1  0.186884  0.313116  0.869437  1
  F  F29  1  0.686884  0.186884  0.130563  1
  F  F30  1  0.813116  0.313116  0.369437  1
  F  F31  1  0.186884  0.686884  0.369437  1
  F  F32  1  0.000000  0.000000  0.750000  1
  F  F33  1  0.500000  0.500000  0.250000  1
  F  F34  1  0.500000  0.500000  0.750000  1
  F  F35  1  0.000000  0.000000  0.250000  1
