# generated using pymatgen
data_NdSnPt
_symmetry_space_group_name_H-M   'P 1'
_cell_length_a   7.64912920
_cell_length_b   7.64912920
_cell_length_c   4.15159812
_cell_angle_alpha   90.00000000
_cell_angle_beta   90.00000000
_cell_angle_gamma   120.00000000
_symmetry_Int_Tables_number   1
_chemical_formula_structural   NdSnPt
_chemical_formula_sum   'Nd3 Sn3 Pt3'
_cell_volume   210.36327879
_cell_formula_units_Z   3
loop_
 _symmetry_equiv_pos_site_id
 _symmetry_equiv_pos_as_xyz
  1  'x, y, z'
loop_
 _atom_site_type_symbol
 _atom_site_label
 _atom_site_symmetry_multiplicity
 _atom_site_fract_x
 _atom_site_fract_y
 _atom_site_fract_z
 _atom_site_occupancy
  Nd  Nd0  1  0.589980  0.589980  0.000000  1
  Nd  Nd1  1  0.410020  0.000000  0.000000  1
  Nd  Nd2  1  0.000000  0.410020  0.000000  1
  Sn  Sn3  1  0.000000  0.746818  0.500000  1
  Sn  Sn4  1  0.253182  0.253182  0.500000  1
  Sn  Sn5  1  0.746818  0.000000  0.500000  1
  Pt  Pt6  1  0.000000  0.000000  0.000000  1
  Pt  Pt7  1  0.333333  0.666667  0.500000  1
  Pt  Pt8  1  0.666667  0.333333  0.500000  1
