# generated using pymatgen
data_KMnAs
_symmetry_space_group_name_H-M   'P 1'
_cell_length_a   4.37186747
_cell_length_b   4.37186747
_cell_length_c   7.97463149
_cell_angle_alpha   90.00000000
_cell_angle_beta   90.00000000
_cell_angle_gamma   90.00000000
_symmetry_Int_Tables_number   1
_chemical_formula_structural   KMnAs
_chemical_formula_sum   'K2 Mn2 As2'
_cell_volume   152.42092736
_cell_formula_units_Z   2
loop_
 _symmetry_equiv_pos_site_id
 _symmetry_equiv_pos_as_xyz
  1  'x, y, z'
loop_
 _atom_site_type_symbol
 _atom_site_label
 _atom_site_symmetry_multiplicity
 _atom_site_fract_x
 _atom_site_fract_y
 _atom_site_fract_z
 _atom_site_occupancy
  K  K0  1  0.500000  0.000000  0.652858  1
  K  K1  1  0.000000  0.500000  0.347142  1
  Mn  Mn2  1  0.500000  0.500000  0.000000  1
  Mn  Mn3  1  0.000000  0.000000  0.000000  1
  As  As4  1  0.500000  0.000000  0.170735  1
  As  As5  1  0.000000  0.500000  0.829265  1
