# generated using pymatgen
data_Nd6Fe13Sn
_symmetry_space_group_name_H-M   'P 1'
_cell_length_a   13.06307129
_cell_length_b   13.06307129
_cell_length_c   13.06307129
_cell_angle_alpha   144.02544412
_cell_angle_beta   144.02544412
_cell_angle_gamma   51.78924624
_symmetry_Int_Tables_number   1
_chemical_formula_structural   Nd6Fe13Sn
_chemical_formula_sum   'Nd12 Fe26 Sn2'
_cell_volume   764.91938207
_cell_formula_units_Z   2
loop_
 _symmetry_equiv_pos_site_id
 _symmetry_equiv_pos_as_xyz
  1  'x, y, z'
loop_
 _atom_site_type_symbol
 _atom_site_label
 _atom_site_symmetry_multiplicity
 _atom_site_fract_x
 _atom_site_fract_y
 _atom_site_fract_z
 _atom_site_occupancy
  Nd  Nd0  1  0.979523  0.151300  0.500000  1
  Nd  Nd1  1  0.895651  0.895651  0.000000  1
  Nd  Nd2  1  0.395651  0.395651  0.000000  1
  Nd  Nd3  1  0.104349  0.104349  0.000000  1
  Nd  Nd4  1  0.020477  0.848700  0.500000  1
  Nd  Nd5  1  0.604349  0.604349  0.000000  1
  Nd  Nd6  1  0.651300  0.479523  0.500000  1
  Nd  Nd7  1  0.479523  0.979523  0.828223  1
  Nd  Nd8  1  0.151300  0.651300  0.171777  1
  Nd  Nd9  1  0.848700  0.348700  0.828223  1
  Nd  Nd10  1  0.520477  0.020477  0.171777  1
  Nd  Nd11  1  0.348700  0.520477  0.500000  1
  Fe  Fe12  1  0.706438  0.979887  0.500000  1
  Fe  Fe13  1  0.520113  0.793562  0.500000  1
  Fe  Fe14  1  0.500000  1.000000  0.500000  1
  Fe  Fe15  1  0.000000  0.500000  0.500000  1
  Fe  Fe16  1  0.933606  0.209571  0.143177  1
  Fe  Fe17  1  0.709571  0.433606  0.143177  1
  Fe  Fe18  1  0.290429  0.566394  0.856823  1
  Fe  Fe19  1  0.566394  0.709571  0.275966  1
  Fe  Fe20  1  0.433606  0.290429  0.724034  1
  Fe  Fe21  1  0.209571  0.066394  0.275966  1
  Fe  Fe22  1  0.790429  0.933606  0.724034  1
  Fe  Fe23  1  0.066394  0.790429  0.856823  1
  Fe  Fe24  1  0.237275  0.379462  0.500000  1
  Fe  Fe25  1  0.293562  0.020113  0.500000  1
  Fe  Fe26  1  0.737275  0.237275  0.857813  1
  Fe  Fe27  1  0.262725  0.762725  0.142187  1
  Fe  Fe28  1  0.620538  0.120538  0.857813  1
  Fe  Fe29  1  0.762725  0.620538  0.500000  1
  Fe  Fe30  1  0.120538  0.262725  0.500000  1
  Fe  Fe31  1  0.879462  0.737275  0.500000  1
  Fe  Fe32  1  0.379462  0.879462  0.142187  1
  Fe  Fe33  1  0.979887  0.479887  0.273450  1
  Fe  Fe34  1  0.206438  0.706438  0.726550  1
  Fe  Fe35  1  0.793562  0.293562  0.273450  1
  Fe  Fe36  1  0.020113  0.520113  0.726550  1
  Fe  Fe37  1  0.479887  0.206438  0.500000  1
  Sn  Sn38  1  0.250000  0.250000  0.000000  1
  Sn  Sn39  1  0.750000  0.750000  0.000000  1
