# generated using pymatgen
data_Zr2InC
_symmetry_space_group_name_H-M   'P 1'
_cell_length_a   3.37327304
_cell_length_b   3.37327304
_cell_length_c   15.12165638
_cell_angle_alpha   90.00000000
_cell_angle_beta   90.00000000
_cell_angle_gamma   120.00000000
_symmetry_Int_Tables_number   1
_chemical_formula_structural   Zr2InC
_chemical_formula_sum   'Zr4 In2 C2'
_cell_volume   149.01602922
_cell_formula_units_Z   2
loop_
 _symmetry_equiv_pos_site_id
 _symmetry_equiv_pos_as_xyz
  1  'x, y, z'
loop_
 _atom_site_type_symbol
 _atom_site_label
 _atom_site_symmetry_multiplicity
 _atom_site_fract_x
 _atom_site_fract_y
 _atom_site_fract_z
 _atom_site_occupancy
  Zr  Zr0  1  0.333333  0.666667  0.082182  1
  Zr  Zr1  1  0.333333  0.666667  0.417818  1
  Zr  Zr2  1  0.666667  0.333333  0.582182  1
  Zr  Zr3  1  0.666667  0.333333  0.917818  1
  In  In4  1  0.333333  0.666667  0.750000  1
  In  In5  1  0.666667  0.333333  0.250000  1
  C  C6  1  0.000000  0.000000  0.000000  1
  C  C7  1  0.000000  0.000000  0.500000  1
