# generated using pymatgen
data_LiLa4CuO8
_symmetry_space_group_name_H-M   'P 1'
_cell_length_a   7.11242345
_cell_length_b   7.11242345
_cell_length_c   5.30500339
_cell_angle_alpha   90.00000000
_cell_angle_beta   90.00000000
_cell_angle_gamma   136.14225131
_symmetry_Int_Tables_number   1
_chemical_formula_structural   LiLa4CuO8
_chemical_formula_sum   'Li1 La4 Cu1 O8'
_cell_volume   185.93999439
_cell_formula_units_Z   1
loop_
 _symmetry_equiv_pos_site_id
 _symmetry_equiv_pos_as_xyz
  1  'x, y, z'
loop_
 _atom_site_type_symbol
 _atom_site_label
 _atom_site_symmetry_multiplicity
 _atom_site_fract_x
 _atom_site_fract_y
 _atom_site_fract_z
 _atom_site_occupancy
  Li  Li0  1  0.500000  0.500000  0.500000  1
  La  La1  1  0.139418  0.860582  0.500000  1
  La  La2  1  0.860582  0.139418  0.500000  1
  La  La3  1  0.637948  0.362052  0.000000  1
  La  La4  1  0.362052  0.637948  1.000000  1
  Cu  Cu5  1  0.000000  0.000000  0.000000  1
  O  O6  1  0.757026  0.757026  0.244909  1
  O  O7  1  0.813815  0.186185  0.000000  1
  O  O8  1  0.186185  0.813815  1.000000  1
  O  O9  1  0.679444  0.320556  0.500000  1
  O  O10  1  0.320556  0.679444  0.500000  1
  O  O11  1  0.242974  0.242974  0.755091  1
  O  O12  1  0.242974  0.242974  0.244909  1
  O  O13  1  0.757026  0.757026  0.755091  1
