# generated using pymatgen
data_Nb3Cl7
_symmetry_space_group_name_H-M   'P 1'
_cell_length_a   9.53383011
_cell_length_b   9.53383011
_cell_length_c   11.30520734
_cell_angle_alpha   90.00000000
_cell_angle_beta   90.00000000
_cell_angle_gamma   91.64748334
_symmetry_Int_Tables_number   1
_chemical_formula_structural   Nb3Cl7
_chemical_formula_sum   'Nb12 Cl28'
_cell_volume   1027.14980629
_cell_formula_units_Z   4
loop_
 _symmetry_equiv_pos_site_id
 _symmetry_equiv_pos_as_xyz
  1  'x, y, z'
loop_
 _atom_site_type_symbol
 _atom_site_label
 _atom_site_symmetry_multiplicity
 _atom_site_fract_x
 _atom_site_fract_y
 _atom_site_fract_z
 _atom_site_occupancy
  Nb  Nb0  1  0.128682  0.128682  0.909199  1
  Nb  Nb1  1  0.371318  0.371318  0.409199  1
  Nb  Nb2  1  0.628682  0.628682  0.590801  1
  Nb  Nb3  1  0.871318  0.871318  0.090801  1
  Nb  Nb4  1  0.166160  0.948204  0.112452  1
  Nb  Nb5  1  0.333840  0.551796  0.612452  1
  Nb  Nb6  1  0.448204  0.666160  0.387548  1
  Nb  Nb7  1  0.051796  0.833840  0.887548  1
  Nb  Nb8  1  0.833840  0.051796  0.887548  1
  Nb  Nb9  1  0.666160  0.448204  0.387548  1
  Nb  Nb10  1  0.551796  0.333840  0.612452  1
  Nb  Nb11  1  0.948204  0.166160  0.112452  1
  Cl  Cl12  1  0.382607  0.882607  0.250000  1
  Cl  Cl13  1  0.117393  0.617393  0.750000  1
  Cl  Cl14  1  0.617393  0.117393  0.750000  1
  Cl  Cl15  1  0.882607  0.382607  0.250000  1
  Cl  Cl16  1  0.349486  0.101488  0.017223  1
  Cl  Cl17  1  0.150514  0.398512  0.517223  1
  Cl  Cl18  1  0.601488  0.849486  0.482777  1
  Cl  Cl19  1  0.898512  0.650514  0.982777  1
  Cl  Cl20  1  0.650514  0.898512  0.982777  1
  Cl  Cl21  1  0.849486  0.601488  0.482777  1
  Cl  Cl22  1  0.398512  0.150514  0.517223  1
  Cl  Cl23  1  0.101488  0.349486  0.017223  1
  Cl  Cl24  1  0.747665  0.252335  0.000000  1
  Cl  Cl25  1  0.752335  0.247665  0.500000  1
  Cl  Cl26  1  0.252335  0.747665  0.000000  1
  Cl  Cl27  1  0.247665  0.752335  0.500000  1
  Cl  Cl28  1  0.135383  0.135383  0.264595  1
  Cl  Cl29  1  0.364617  0.364617  0.764595  1
  Cl  Cl30  1  0.635383  0.635383  0.235405  1
  Cl  Cl31  1  0.864617  0.864617  0.735405  1
  Cl  Cl32  1  0.284225  0.530764  0.257753  1
  Cl  Cl33  1  0.215775  0.969236  0.757753  1
  Cl  Cl34  1  0.030764  0.784225  0.242247  1
  Cl  Cl35  1  0.469236  0.715775  0.742247  1
  Cl  Cl36  1  0.715775  0.469236  0.742247  1
  Cl  Cl37  1  0.784225  0.030764  0.242247  1
  Cl  Cl38  1  0.969236  0.215775  0.757753  1
  Cl  Cl39  1  0.530764  0.284225  0.257753  1
