# generated using pymatgen
data_Na6Be8O11
_symmetry_space_group_name_H-M   'P 1'
_cell_length_a   5.29297858
_cell_length_b   6.43639381
_cell_length_c   8.37461393
_cell_angle_alpha   102.58474956
_cell_angle_beta   95.53626281
_cell_angle_gamma   103.96519789
_symmetry_Int_Tables_number   1
_chemical_formula_structural   Na6Be8O11
_chemical_formula_sum   'Na6 Be8 O11'
_cell_volume   266.85163907
_cell_formula_units_Z   1
loop_
 _symmetry_equiv_pos_site_id
 _symmetry_equiv_pos_as_xyz
  1  'x, y, z'
loop_
 _atom_site_type_symbol
 _atom_site_label
 _atom_site_symmetry_multiplicity
 _atom_site_fract_x
 _atom_site_fract_y
 _atom_site_fract_z
 _atom_site_occupancy
  Na  Na0  1  0.794254  0.225439  0.204487  1
  Na  Na1  1  0.205746  0.774561  0.795513  1
  Na  Na2  1  0.777374  0.613068  0.000853  1
  Na  Na3  1  0.222626  0.386932  0.999147  1
  Na  Na4  1  0.965533  0.742030  0.431017  1
  Na  Na5  1  0.034467  0.257970  0.568983  1
  Be  Be6  1  0.824731  0.021785  0.851541  1
  Be  Be7  1  0.175269  0.978215  0.148459  1
  Be  Be8  1  0.519896  0.861508  0.550231  1
  Be  Be9  1  0.480104  0.138492  0.449769  1
  Be  Be10  1  0.449223  0.431505  0.363632  1
  Be  Be11  1  0.525642  0.258570  0.746647  1
  Be  Be12  1  0.550777  0.568495  0.636368  1
  Be  Be13  1  0.474358  0.741430  0.253353  1
  O  O14  1  0.267447  0.171602  0.307768  1
  O  O15  1  0.639176  0.953643  0.391801  1
  O  O16  1  0.732553  0.828398  0.692232  1
  O  O17  1  0.000000  0.000000  0.000000  1
  O  O18  1  0.238946  0.754498  0.135081  1
  O  O19  1  0.761054  0.245502  0.864919  1
  O  O20  1  0.329857  0.607877  0.487074  1
  O  O21  1  0.670143  0.392123  0.512926  1
  O  O22  1  0.420951  0.469328  0.777523  1
  O  O23  1  0.579049  0.530672  0.222477  1
  O  O24  1  0.360824  0.046357  0.608199  1
