# generated using pymatgen
data_Ni11As8
_symmetry_space_group_name_H-M   'P 1'
_cell_length_a   6.89493837
_cell_length_b   6.89493837
_cell_length_c   21.85026145
_cell_angle_alpha   90.00000000
_cell_angle_beta   90.00000000
_cell_angle_gamma   90.00000000
_symmetry_Int_Tables_number   1
_chemical_formula_structural   Ni11As8
_chemical_formula_sum   'Ni44 As32'
_cell_volume   1038.76525588
_cell_formula_units_Z   4
loop_
 _symmetry_equiv_pos_site_id
 _symmetry_equiv_pos_as_xyz
  1  'x, y, z'
loop_
 _atom_site_type_symbol
 _atom_site_label
 _atom_site_symmetry_multiplicity
 _atom_site_fract_x
 _atom_site_fract_y
 _atom_site_fract_z
 _atom_site_occupancy
  Ni  Ni0  1  0.622519  0.873869  0.268133  1
  Ni  Ni1  1  0.626131  0.122519  0.518133  1
  Ni  Ni2  1  0.373869  0.877481  0.018133  1
  Ni  Ni3  1  0.122519  0.626131  0.481867  1
  Ni  Ni4  1  0.877481  0.373869  0.981867  1
  Ni  Ni5  1  0.377481  0.126131  0.768133  1
  Ni  Ni6  1  0.873869  0.622519  0.731867  1
  Ni  Ni7  1  0.126131  0.377481  0.231867  1
  Ni  Ni8  1  0.877137  0.877137  0.000000  1
  Ni  Ni9  1  0.622863  0.377137  0.250000  1
  Ni  Ni10  1  0.377137  0.622863  0.750000  1
  Ni  Ni11  1  0.122863  0.122863  0.500000  1
  Ni  Ni12  1  0.626997  0.071336  0.171789  1
  Ni  Ni13  1  0.428664  0.126997  0.421789  1
  Ni  Ni14  1  0.571336  0.873003  0.921789  1
  Ni  Ni15  1  0.126997  0.428664  0.578211  1
  Ni  Ni16  1  0.873003  0.571336  0.078211  1
  Ni  Ni17  1  0.373003  0.928664  0.671789  1
  Ni  Ni18  1  0.071336  0.626997  0.828211  1
  Ni  Ni19  1  0.928664  0.373003  0.328211  1
  Ni  Ni20  1  0.121252  0.065171  0.171368  1
  Ni  Ni21  1  0.434829  0.621252  0.421368  1
  Ni  Ni22  1  0.565171  0.378748  0.921368  1
  Ni  Ni23  1  0.621252  0.434829  0.578632  1
  Ni  Ni24  1  0.378748  0.565171  0.078632  1
  Ni  Ni25  1  0.878748  0.934829  0.671368  1
  Ni  Ni26  1  0.065171  0.121252  0.828632  1
  Ni  Ni27  1  0.934829  0.878748  0.328632  1
  Ni  Ni28  1  0.872783  0.181574  0.078903  1
  Ni  Ni29  1  0.318426  0.372783  0.328903  1
  Ni  Ni30  1  0.681574  0.627217  0.828903  1
  Ni  Ni31  1  0.372783  0.318426  0.671097  1
  Ni  Ni32  1  0.627217  0.681574  0.171097  1
  Ni  Ni33  1  0.127217  0.818426  0.578903  1
  Ni  Ni34  1  0.181574  0.872783  0.921097  1
  Ni  Ni35  1  0.818426  0.127217  0.421097  1
  Ni  Ni36  1  0.377664  0.189750  0.078891  1
  Ni  Ni37  1  0.310250  0.877664  0.328891  1
  Ni  Ni38  1  0.689750  0.122336  0.828891  1
  Ni  Ni39  1  0.877664  0.310250  0.671109  1
  Ni  Ni40  1  0.122336  0.689750  0.171109  1
  Ni  Ni41  1  0.622336  0.810250  0.578891  1
  Ni  Ni42  1  0.189750  0.377664  0.921109  1
  Ni  Ni43  1  0.810250  0.622336  0.421109  1
  As  As44  1  0.621521  0.621521  0.000000  1
  As  As45  1  0.878479  0.121521  0.250000  1
  As  As46  1  0.121521  0.878479  0.750000  1
  As  As47  1  0.378479  0.378479  0.500000  1
  As  As48  1  0.130576  0.130576  0.000000  1
  As  As49  1  0.369424  0.630576  0.250000  1
  As  As50  1  0.630576  0.369424  0.750000  1
  As  As51  1  0.869424  0.869424  0.500000  1
  As  As52  1  0.131668  0.621256  0.000219  1
  As  As53  1  0.878744  0.631668  0.250219  1
  As  As54  1  0.121256  0.368332  0.750219  1
  As  As55  1  0.631668  0.878744  0.749781  1
  As  As56  1  0.368332  0.121256  0.249781  1
  As  As57  1  0.868332  0.378744  0.500219  1
  As  As58  1  0.621256  0.131668  0.999781  1
  As  As59  1  0.378744  0.868332  0.499781  1
  As  As60  1  0.374306  0.877495  0.125621  1
  As  As61  1  0.622505  0.874306  0.375621  1
  As  As62  1  0.377495  0.125694  0.875621  1
  As  As63  1  0.874306  0.622505  0.624379  1
  As  As64  1  0.125694  0.377495  0.124379  1
  As  As65  1  0.625694  0.122505  0.625621  1
  As  As66  1  0.877495  0.374306  0.874379  1
  As  As67  1  0.122505  0.625694  0.374379  1
  As  As68  1  0.625155  0.376361  0.128692  1
  As  As69  1  0.123639  0.125155  0.378692  1
  As  As70  1  0.876361  0.874845  0.878692  1
  As  As71  1  0.125155  0.123639  0.621308  1
  As  As72  1  0.874845  0.876361  0.121308  1
  As  As73  1  0.374845  0.623639  0.628692  1
  As  As74  1  0.376361  0.625155  0.871308  1
  As  As75  1  0.623639  0.374845  0.371308  1
