# generated using pymatgen
data_Li3CuPCO7
_symmetry_space_group_name_H-M   'P 1'
_cell_length_a   5.17231724
_cell_length_b   6.19498851
_cell_length_c   8.61324832
_cell_angle_alpha   90.00000000
_cell_angle_beta   102.63352311
_cell_angle_gamma   90.00000000
_symmetry_Int_Tables_number   1
_chemical_formula_structural   Li3CuPCO7
_chemical_formula_sum   'Li6 Cu2 P2 C2 O14'
_cell_volume   269.30754968
_cell_formula_units_Z   2
loop_
 _symmetry_equiv_pos_site_id
 _symmetry_equiv_pos_as_xyz
  1  'x, y, z'
loop_
 _atom_site_type_symbol
 _atom_site_label
 _atom_site_symmetry_multiplicity
 _atom_site_fract_x
 _atom_site_fract_y
 _atom_site_fract_z
 _atom_site_occupancy
  Li  Li0  1  0.760234  0.993584  0.283122  1
  Li  Li1  1  0.239766  0.006416  0.716878  1
  Li  Li2  1  0.843664  0.250000  0.919336  1
  Li  Li3  1  0.156336  0.750000  0.080664  1
  Li  Li4  1  0.239766  0.493584  0.716878  1
  Li  Li5  1  0.760234  0.506416  0.283122  1
  Cu  Cu6  1  0.748635  0.750000  0.681411  1
  Cu  Cu7  1  0.251365  0.250000  0.318589  1
  P  P8  1  0.707617  0.250000  0.589615  1
  P  P9  1  0.292383  0.750000  0.410385  1
  C  C10  1  0.588124  0.750000  0.980693  1
  C  C11  1  0.411876  0.250000  0.019307  1
  O  O12  1  0.646883  0.250000  0.108863  1
  O  O13  1  0.800971  0.750000  0.921240  1
  O  O14  1  0.206522  0.750000  0.569078  1
  O  O15  1  0.353117  0.750000  0.891137  1
  O  O16  1  0.173778  0.556483  0.299594  1
  O  O17  1  0.793478  0.250000  0.430922  1
  O  O18  1  0.173778  0.943517  0.299594  1
  O  O19  1  0.826222  0.443517  0.700406  1
  O  O20  1  0.826222  0.056483  0.700406  1
  O  O21  1  0.397628  0.250000  0.557142  1
  O  O22  1  0.618128  0.750000  0.133282  1
  O  O23  1  0.381872  0.250000  0.866718  1
  O  O24  1  0.602372  0.750000  0.442858  1
  O  O25  1  0.199029  0.250000  0.078760  1
