# generated using pymatgen
data_PbO
_symmetry_space_group_name_H-M   'P 1'
_cell_length_a   4.81682147
_cell_length_b   5.72835989
_cell_length_c   6.14762153
_cell_angle_alpha   90.00000000
_cell_angle_beta   90.00000000
_cell_angle_gamma   90.00000000
_symmetry_Int_Tables_number   1
_chemical_formula_structural   PbO
_chemical_formula_sum   'Pb4 O4'
_cell_volume   169.62816657
_cell_formula_units_Z   4
loop_
 _symmetry_equiv_pos_site_id
 _symmetry_equiv_pos_as_xyz
  1  'x, y, z'
loop_
 _atom_site_type_symbol
 _atom_site_label
 _atom_site_symmetry_multiplicity
 _atom_site_fract_x
 _atom_site_fract_y
 _atom_site_fract_z
 _atom_site_occupancy
  Pb  Pb0  1  0.750000  0.017972  0.221195  1
  Pb  Pb1  1  0.250000  0.982028  0.778805  1
  Pb  Pb2  1  0.750000  0.517972  0.778805  1
  Pb  Pb3  1  0.250000  0.482028  0.221195  1
  O  O4  1  0.750000  0.906078  0.867916  1
  O  O5  1  0.250000  0.093922  0.132084  1
  O  O6  1  0.750000  0.406078  0.132084  1
  O  O7  1  0.250000  0.593922  0.867916  1
