# generated using pymatgen
data_GeIr
_symmetry_space_group_name_H-M   'P 1'
_cell_length_a   3.57863745
_cell_length_b   5.62825475
_cell_length_c   6.37845379
_cell_angle_alpha   90.00000000
_cell_angle_beta   90.00000000
_cell_angle_gamma   90.00000000
_symmetry_Int_Tables_number   1
_chemical_formula_structural   GeIr
_chemical_formula_sum   'Ge4 Ir4'
_cell_volume   128.47152002
_cell_formula_units_Z   4
loop_
 _symmetry_equiv_pos_site_id
 _symmetry_equiv_pos_as_xyz
  1  'x, y, z'
loop_
 _atom_site_type_symbol
 _atom_site_label
 _atom_site_symmetry_multiplicity
 _atom_site_fract_x
 _atom_site_fract_y
 _atom_site_fract_z
 _atom_site_occupancy
  Ge  Ge0  1  0.750000  0.806696  0.576158  1
  Ge  Ge1  1  0.250000  0.193304  0.423842  1
  Ge  Ge2  1  0.750000  0.306696  0.923842  1
  Ge  Ge3  1  0.250000  0.693304  0.076158  1
  Ir  Ir4  1  0.750000  0.997066  0.208742  1
  Ir  Ir5  1  0.250000  0.002934  0.791258  1
  Ir  Ir6  1  0.750000  0.497066  0.291258  1
  Ir  Ir7  1  0.250000  0.502934  0.708742  1
