# generated using pymatgen
data_KFeBr3
_symmetry_space_group_name_H-M   'P 1'
_cell_length_a   4.06626069
_cell_length_b   9.52606368
_cell_length_c   15.07700318
_cell_angle_alpha   90.00000000
_cell_angle_beta   90.00000000
_cell_angle_gamma   90.00000000
_symmetry_Int_Tables_number   1
_chemical_formula_structural   KFeBr3
_chemical_formula_sum   'K4 Fe4 Br12'
_cell_volume   584.01462755
_cell_formula_units_Z   4
loop_
 _symmetry_equiv_pos_site_id
 _symmetry_equiv_pos_as_xyz
  1  'x, y, z'
loop_
 _atom_site_type_symbol
 _atom_site_label
 _atom_site_symmetry_multiplicity
 _atom_site_fract_x
 _atom_site_fract_y
 _atom_site_fract_z
 _atom_site_occupancy
  K  K0  1  0.750000  0.048766  0.674851  1
  K  K1  1  0.750000  0.548766  0.825149  1
  K  K2  1  0.250000  0.951234  0.325149  1
  K  K3  1  0.250000  0.451234  0.174851  1
  Fe  Fe4  1  0.750000  0.838185  0.049891  1
  Fe  Fe5  1  0.250000  0.661815  0.549891  1
  Fe  Fe6  1  0.250000  0.161815  0.950109  1
  Fe  Fe7  1  0.750000  0.338185  0.450109  1
  Br  Br8  1  0.750000  0.736194  0.203621  1
  Br  Br9  1  0.750000  0.819289  0.492973  1
  Br  Br10  1  0.250000  0.763806  0.703621  1
  Br  Br11  1  0.250000  0.019118  0.097298  1
  Br  Br12  1  0.250000  0.263806  0.796379  1
  Br  Br13  1  0.750000  0.480882  0.597298  1
  Br  Br14  1  0.250000  0.519118  0.402702  1
  Br  Br15  1  0.750000  0.236194  0.296379  1
  Br  Br16  1  0.250000  0.680711  0.992973  1
  Br  Br17  1  0.750000  0.319289  0.007027  1
  Br  Br18  1  0.250000  0.180711  0.507027  1
  Br  Br19  1  0.750000  0.980882  0.902702  1
