# generated using pymatgen
data_Re2P5
_symmetry_space_group_name_H-M   'P 1'
_cell_length_a   7.38376075
_cell_length_b   8.28593573
_cell_length_c   8.39983094
_cell_angle_alpha   110.22489896
_cell_angle_beta   112.20084125
_cell_angle_gamma   87.06696663
_symmetry_Int_Tables_number   1
_chemical_formula_structural   Re2P5
_chemical_formula_sum   'Re8 P20'
_cell_volume   444.60561227
_cell_formula_units_Z   4
loop_
 _symmetry_equiv_pos_site_id
 _symmetry_equiv_pos_as_xyz
  1  'x, y, z'
loop_
 _atom_site_type_symbol
 _atom_site_label
 _atom_site_symmetry_multiplicity
 _atom_site_fract_x
 _atom_site_fract_y
 _atom_site_fract_z
 _atom_site_occupancy
  Re  Re0  1  0.425703  0.578078  0.142758  1
  Re  Re1  1  0.574297  0.421922  0.857242  1
  Re  Re2  1  0.943515  0.911668  0.097797  1
  Re  Re3  1  0.056485  0.088332  0.902203  1
  Re  Re4  1  0.821566  0.480135  0.250466  1
  Re  Re5  1  0.178434  0.519865  0.749534  1
  Re  Re6  1  0.303936  0.141836  0.290368  1
  Re  Re7  1  0.696064  0.858164  0.709632  1
  P  P8  1  0.976667  0.218739  0.168481  1
  P  P9  1  0.023333  0.781261  0.831519  1
  P  P10  1  0.270671  0.843020  0.259741  1
  P  P11  1  0.729329  0.156980  0.740259  1
  P  P12  1  0.465449  0.693035  0.944612  1
  P  P13  1  0.534551  0.306965  0.055388  1
  P  P14  1  0.281141  0.252639  0.595548  1
  P  P15  1  0.718859  0.747361  0.404452  1
  P  P16  1  0.136571  0.040217  0.632120  1
  P  P17  1  0.863429  0.959783  0.367880  1
  P  P18  1  0.319648  0.834707  0.535258  1
  P  P19  1  0.680352  0.165293  0.464742  1
  P  P20  1  0.398296  0.084766  0.046570  1
  P  P21  1  0.601704  0.915234  0.953430  1
  P  P22  1  0.839211  0.416881  0.520771  1
  P  P23  1  0.160789  0.583119  0.479229  1
  P  P24  1  0.624332  0.548903  0.636678  1
  P  P25  1  0.375668  0.451097  0.363322  1
  P  P26  1  0.107411  0.414618  0.952067  1
  P  P27  1  0.892589  0.585382  0.047933  1
