# generated using pymatgen
data_Ba(TeO3)2
_symmetry_space_group_name_H-M   'P 1'
_cell_length_a   7.15062761
_cell_length_b   7.15062761
_cell_length_c   7.46171565
_cell_angle_alpha   90.00000000
_cell_angle_beta   90.00000000
_cell_angle_gamma   133.34659009
_symmetry_Int_Tables_number   1
_chemical_formula_structural   Ba(TeO3)2
_chemical_formula_sum   'Ba2 Te4 O12'
_cell_volume   277.45320916
_cell_formula_units_Z   2
loop_
 _symmetry_equiv_pos_site_id
 _symmetry_equiv_pos_as_xyz
  1  'x, y, z'
loop_
 _atom_site_type_symbol
 _atom_site_label
 _atom_site_symmetry_multiplicity
 _atom_site_fract_x
 _atom_site_fract_y
 _atom_site_fract_z
 _atom_site_occupancy
  Ba  Ba0  1  0.722077  0.277923  0.750000  1
  Ba  Ba1  1  0.277923  0.722077  0.250000  1
  Te  Te2  1  0.000000  0.000000  0.000000  1
  Te  Te3  1  0.000000  0.000000  0.500000  1
  Te  Te4  1  0.584791  0.415209  0.250000  1
  Te  Te5  1  0.415209  0.584791  0.750000  1
  O  O6  1  0.868423  0.658315  0.044754  1
  O  O7  1  0.658315  0.868423  0.955246  1
  O  O8  1  0.131577  0.341685  0.544754  1
  O  O9  1  0.341685  0.131577  0.455246  1
  O  O10  1  0.131577  0.341685  0.955246  1
  O  O11  1  0.341685  0.131577  0.044754  1
  O  O12  1  0.048416  0.951584  0.750000  1
  O  O13  1  0.951584  0.048416  0.250000  1
  O  O14  1  0.274089  0.725911  0.750000  1
  O  O15  1  0.725911  0.274089  0.250000  1
  O  O16  1  0.658315  0.868423  0.544754  1
  O  O17  1  0.868423  0.658315  0.455246  1
