# generated using pymatgen
data_ScNiB4
_symmetry_space_group_name_H-M   'P 1'
_cell_length_a   3.24707137
_cell_length_b   5.78454818
_cell_length_c   11.22123537
_cell_angle_alpha   90.00000000
_cell_angle_beta   90.00000000
_cell_angle_gamma   90.00000000
_symmetry_Int_Tables_number   1
_chemical_formula_structural   ScNiB4
_chemical_formula_sum   'Sc4 Ni4 B16'
_cell_volume   210.76667735
_cell_formula_units_Z   4
loop_
 _symmetry_equiv_pos_site_id
 _symmetry_equiv_pos_as_xyz
  1  'x, y, z'
loop_
 _atom_site_type_symbol
 _atom_site_label
 _atom_site_symmetry_multiplicity
 _atom_site_fract_x
 _atom_site_fract_y
 _atom_site_fract_z
 _atom_site_occupancy
  Sc  Sc0  1  0.000000  0.627093  0.349423  1
  Sc  Sc1  1  0.000000  0.372907  0.650577  1
  Sc  Sc2  1  0.000000  0.127093  0.150577  1
  Sc  Sc3  1  0.000000  0.872907  0.849423  1
  Ni  Ni4  1  0.000000  0.634990  0.088689  1
  Ni  Ni5  1  0.000000  0.365010  0.911311  1
  Ni  Ni6  1  0.000000  0.134990  0.411311  1
  Ni  Ni7  1  0.000000  0.865010  0.588689  1
  B  B8  1  0.500000  0.789221  0.186547  1
  B  B9  1  0.500000  0.210779  0.813453  1
  B  B10  1  0.500000  0.289221  0.313453  1
  B  B11  1  0.500000  0.710779  0.686547  1
  B  B12  1  0.500000  0.866102  0.032671  1
  B  B13  1  0.500000  0.133898  0.967329  1
  B  B14  1  0.500000  0.366102  0.467329  1
  B  B15  1  0.500000  0.633898  0.532671  1
  B  B16  1  0.500000  0.883802  0.450719  1
  B  B17  1  0.500000  0.116198  0.549281  1
  B  B18  1  0.500000  0.383802  0.049281  1
  B  B19  1  0.500000  0.616198  0.950719  1
  B  B20  1  0.500000  0.979281  0.305841  1
  B  B21  1  0.500000  0.020719  0.694159  1
  B  B22  1  0.500000  0.479281  0.194159  1
  B  B23  1  0.500000  0.520719  0.805841  1
