# generated using pymatgen
data_Li3AsS3
_symmetry_space_group_name_H-M   'P 1'
_cell_length_a   6.69607806
_cell_length_b   8.14443049
_cell_length_c   9.90269582
_cell_angle_alpha   90.00000000
_cell_angle_beta   90.00000000
_cell_angle_gamma   90.00000000
_symmetry_Int_Tables_number   1
_chemical_formula_structural   Li3AsS3
_chemical_formula_sum   'Li12 As4 S12'
_cell_volume   540.05086747
_cell_formula_units_Z   4
loop_
 _symmetry_equiv_pos_site_id
 _symmetry_equiv_pos_as_xyz
  1  'x, y, z'
loop_
 _atom_site_type_symbol
 _atom_site_label
 _atom_site_symmetry_multiplicity
 _atom_site_fract_x
 _atom_site_fract_y
 _atom_site_fract_z
 _atom_site_occupancy
  Li  Li0  1  0.116050  0.752172  0.111542  1
  Li  Li1  1  0.883950  0.247828  0.611542  1
  Li  Li2  1  0.383950  0.252172  0.111542  1
  Li  Li3  1  0.616050  0.747828  0.611542  1
  Li  Li4  1  0.353355  0.078674  0.810050  1
  Li  Li5  1  0.646645  0.921326  0.310050  1
  Li  Li6  1  0.448769  0.567526  0.278482  1
  Li  Li7  1  0.551231  0.432474  0.778482  1
  Li  Li8  1  0.051231  0.067526  0.278482  1
  Li  Li9  1  0.948769  0.932474  0.778482  1
  Li  Li10  1  0.146645  0.578674  0.810050  1
  Li  Li11  1  0.853355  0.421326  0.310050  1
  As  As12  1  0.097065  0.755097  0.499157  1
  As  As13  1  0.902935  0.244903  0.999157  1
  As  As14  1  0.402935  0.255097  0.499157  1
  As  As15  1  0.597065  0.744903  0.999157  1
  S  S16  1  0.791389  0.659245  0.824273  1
  S  S17  1  0.208611  0.340755  0.324273  1
  S  S18  1  0.708611  0.159245  0.824273  1
  S  S19  1  0.291389  0.840755  0.324273  1
  S  S20  1  0.220140  0.315837  0.686956  1
  S  S21  1  0.779860  0.684163  0.186956  1
  S  S22  1  0.357828  0.543019  0.010239  1
  S  S23  1  0.642172  0.456981  0.510239  1
  S  S24  1  0.142172  0.043019  0.010239  1
  S  S25  1  0.857828  0.956981  0.510239  1
  S  S26  1  0.279860  0.815837  0.686956  1
  S  S27  1  0.720140  0.184163  0.186956  1
