# generated using pymatgen
data_Re3As7
_symmetry_space_group_name_H-M   'P 1'
_cell_length_a   7.67679742
_cell_length_b   7.67679742
_cell_length_c   7.67679742
_cell_angle_alpha   109.47122063
_cell_angle_beta   109.47122063
_cell_angle_gamma   109.47122063
_symmetry_Int_Tables_number   1
_chemical_formula_structural   Re3As7
_chemical_formula_sum   'Re6 As14'
_cell_volume   348.27183162
_cell_formula_units_Z   2
loop_
 _symmetry_equiv_pos_site_id
 _symmetry_equiv_pos_as_xyz
  1  'x, y, z'
loop_
 _atom_site_type_symbol
 _atom_site_label
 _atom_site_symmetry_multiplicity
 _atom_site_fract_x
 _atom_site_fract_y
 _atom_site_fract_z
 _atom_site_occupancy
  Re  Re0  1  1.000000  0.340365  0.340365  1
  Re  Re1  1  0.340365  1.000000  0.340365  1
  Re  Re2  1  0.659635  1.000000  0.659635  1
  Re  Re3  1  0.659635  0.659635  0.000000  1
  Re  Re4  1  0.340365  0.340365  0.000000  1
  Re  Re5  1  1.000000  0.659635  0.659635  1
  As  As6  1  0.500000  0.750000  0.250000  1
  As  As7  1  0.750000  0.500000  0.250000  1
  As  As8  1  0.250000  0.500000  0.750000  1
  As  As9  1  0.750000  0.250000  0.500000  1
  As  As10  1  0.250000  0.750000  0.500000  1
  As  As11  1  0.500000  0.250000  0.750000  1
  As  As12  1  0.331838  0.331838  0.331838  1
  As  As13  1  0.331838  1.000000  1.000000  1
  As  As14  1  0.000000  0.331838  0.000000  1
  As  As15  1  1.000000  1.000000  0.331838  1
  As  As16  1  1.000000  0.668162  1.000000  1
  As  As17  1  1.000000  1.000000  0.668162  1
  As  As18  1  0.668162  0.000000  0.000000  1
  As  As19  1  0.668162  0.668162  0.668162  1
