# generated using pymatgen
data_KTb3F12
_symmetry_space_group_name_H-M   'P 1'
_cell_length_a   6.89363784
_cell_length_b   6.89363784
_cell_length_c   6.89363784
_cell_angle_alpha   108.91369839
_cell_angle_beta   108.91369839
_cell_angle_gamma   110.59211333
_symmetry_Int_Tables_number   1
_chemical_formula_structural   KTb3F12
_chemical_formula_sum   'K1 Tb3 F12'
_cell_volume   252.11491705
_cell_formula_units_Z   1
loop_
 _symmetry_equiv_pos_site_id
 _symmetry_equiv_pos_as_xyz
  1  'x, y, z'
loop_
 _atom_site_type_symbol
 _atom_site_label
 _atom_site_symmetry_multiplicity
 _atom_site_fract_x
 _atom_site_fract_y
 _atom_site_fract_z
 _atom_site_occupancy
  K  K0  1  0.000000  0.000000  0.000000  1
  Tb  Tb1  1  0.250000  0.750000  0.500000  1
  Tb  Tb2  1  0.500000  0.500000  0.000000  1
  Tb  Tb3  1  0.750000  0.250000  0.500000  1
  F  F4  1  0.554433  0.344413  0.247159  1
  F  F5  1  0.307273  0.554433  0.210020  1
  F  F6  1  0.344413  0.097254  0.789980  1
  F  F7  1  0.097254  0.307273  0.752841  1
  F  F8  1  0.341714  0.013358  0.355072  1
  F  F9  1  0.986642  0.341714  0.328356  1
  F  F10  1  0.013358  0.658286  0.671644  1
  F  F11  1  0.658286  0.986642  0.644928  1
  F  F12  1  0.902746  0.692727  0.247159  1
  F  F13  1  0.655587  0.902746  0.210020  1
  F  F14  1  0.692727  0.445567  0.789980  1
  F  F15  1  0.445567  0.655587  0.752841  1
