# generated using pymatgen
data_Ca2FeSbO6
_symmetry_space_group_name_H-M   'P 1'
_cell_length_a   5.48652613
_cell_length_b   5.62337692
_cell_length_c   9.54948279
_cell_angle_alpha   90.00000000
_cell_angle_beta   124.89963931
_cell_angle_gamma   90.00000000
_symmetry_Int_Tables_number   1
_chemical_formula_structural   Ca2FeSbO6
_chemical_formula_sum   'Ca4 Fe2 Sb2 O12'
_cell_volume   241.64103442
_cell_formula_units_Z   2
loop_
 _symmetry_equiv_pos_site_id
 _symmetry_equiv_pos_as_xyz
  1  'x, y, z'
loop_
 _atom_site_type_symbol
 _atom_site_label
 _atom_site_symmetry_multiplicity
 _atom_site_fract_x
 _atom_site_fract_y
 _atom_site_fract_z
 _atom_site_occupancy
  Ca  Ca0  1  0.737131  0.949713  0.749383  1
  Ca  Ca1  1  0.262869  0.449713  0.750617  1
  Ca  Ca2  1  0.737131  0.550287  0.249383  1
  Ca  Ca3  1  0.262869  0.050287  0.250617  1
  Fe  Fe4  1  0.500000  0.500000  0.500000  1
  Fe  Fe5  1  0.500000  0.000000  0.000000  1
  Sb  Sb6  1  0.000000  0.500000  0.000000  1
  Sb  Sb7  1  0.000000  0.000000  0.500000  1
  O  O8  1  0.844385  0.969624  0.252083  1
  O  O9  1  0.155615  0.469624  0.247917  1
  O  O10  1  0.155615  0.030376  0.747917  1
  O  O11  1  0.844385  0.530376  0.752083  1
  O  O12  1  0.248501  0.793010  0.049041  1
  O  O13  1  0.751499  0.293010  0.450959  1
  O  O14  1  0.751499  0.206990  0.950959  1
  O  O15  1  0.248501  0.706990  0.549041  1
  O  O16  1  0.657133  0.702372  0.952465  1
  O  O17  1  0.342867  0.202372  0.547535  1
  O  O18  1  0.342867  0.297628  0.047535  1
  O  O19  1  0.657133  0.797628  0.452465  1
