# generated using pymatgen
data_Ba2Pb
_symmetry_space_group_name_H-M   'P 1'
_cell_length_a   5.80297506
_cell_length_b   8.80246357
_cell_length_c   10.82705736
_cell_angle_alpha   90.00000000
_cell_angle_beta   90.00000000
_cell_angle_gamma   90.00000000
_symmetry_Int_Tables_number   1
_chemical_formula_structural   Ba2Pb
_chemical_formula_sum   'Ba8 Pb4'
_cell_volume   553.05124973
_cell_formula_units_Z   4
loop_
 _symmetry_equiv_pos_site_id
 _symmetry_equiv_pos_as_xyz
  1  'x, y, z'
loop_
 _atom_site_type_symbol
 _atom_site_label
 _atom_site_symmetry_multiplicity
 _atom_site_fract_x
 _atom_site_fract_y
 _atom_site_fract_z
 _atom_site_occupancy
  Ba  Ba0  1  0.250000  0.518751  0.182941  1
  Ba  Ba1  1  0.750000  0.481249  0.817059  1
  Ba  Ba2  1  0.250000  0.018751  0.317059  1
  Ba  Ba3  1  0.750000  0.981249  0.682941  1
  Ba  Ba4  1  0.750000  0.839986  0.079104  1
  Ba  Ba5  1  0.250000  0.160014  0.920896  1
  Ba  Ba6  1  0.750000  0.339986  0.420896  1
  Ba  Ba7  1  0.250000  0.660014  0.579104  1
  Pb  Pb8  1  0.250000  0.747176  0.898489  1
  Pb  Pb9  1  0.750000  0.252824  0.101511  1
  Pb  Pb10  1  0.250000  0.247176  0.601511  1
  Pb  Pb11  1  0.750000  0.752824  0.398489  1
