# generated using pymatgen
data_Sr(H9O5)2
_symmetry_space_group_name_H-M   'P 1'
_cell_length_a   9.02287587
_cell_length_b   9.02287587
_cell_length_c   11.52481731
_cell_angle_alpha   90.00000000
_cell_angle_beta   90.00000000
_cell_angle_gamma   90.00000000
_symmetry_Int_Tables_number   1
_chemical_formula_structural   Sr(H9O5)2
_chemical_formula_sum   'Sr4 H72 O40'
_cell_volume   938.26175712
_cell_formula_units_Z   4
loop_
 _symmetry_equiv_pos_site_id
 _symmetry_equiv_pos_as_xyz
  1  'x, y, z'
loop_
 _atom_site_type_symbol
 _atom_site_label
 _atom_site_symmetry_multiplicity
 _atom_site_fract_x
 _atom_site_fract_y
 _atom_site_fract_z
 _atom_site_occupancy
  Sr  Sr0  1  0.000000  0.000000  0.750000  1
  Sr  Sr1  1  0.500000  0.500000  0.750000  1
  Sr  Sr2  1  0.500000  0.500000  0.250000  1
  Sr  Sr3  1  0.000000  0.000000  0.250000  1
  H  H4  1  0.711990  0.593191  0.463780  1
  H  H5  1  0.288010  0.406809  0.463780  1
  H  H6  1  0.593191  0.711990  0.036220  1
  H  H7  1  0.093191  0.788010  0.463780  1
  H  H8  1  0.906809  0.211990  0.463780  1
  H  H9  1  0.788010  0.093191  0.036220  1
  H  H10  1  0.211990  0.906809  0.036220  1
  H  H11  1  0.406809  0.288010  0.036220  1
  H  H12  1  0.788010  0.906809  0.536220  1
  H  H13  1  0.211990  0.093191  0.536220  1
  H  H14  1  0.906809  0.788010  0.963780  1
  H  H15  1  0.406809  0.711990  0.536220  1
  H  H16  1  0.593191  0.288010  0.536220  1
  H  H17  1  0.711990  0.406809  0.963780  1
  H  H18  1  0.288010  0.593191  0.963780  1
  H  H19  1  0.093191  0.211990  0.963780  1
  H  H20  1  0.829043  0.558901  0.363765  1
  H  H21  1  0.170957  0.441099  0.363765  1
  H  H22  1  0.558901  0.829043  0.136235  1
  H  H23  1  0.058901  0.670957  0.363765  1
  H  H24  1  0.941099  0.329043  0.363765  1
  H  H25  1  0.670957  0.058901  0.136235  1
  H  H26  1  0.329043  0.941099  0.136235  1
  H  H27  1  0.441099  0.170957  0.136235  1
  H  H28  1  0.670957  0.941099  0.636235  1
  H  H29  1  0.329043  0.058901  0.636235  1
  H  H30  1  0.941099  0.670957  0.863765  1
  H  H31  1  0.441099  0.829043  0.636235  1
  H  H32  1  0.708081  0.261529  0.371757  1
  H  H33  1  0.558901  0.170957  0.636235  1
  H  H34  1  0.170957  0.558901  0.863765  1
  H  H35  1  0.058901  0.329043  0.863765  1
  H  H36  1  0.738471  0.708081  0.628243  1
  H  H37  1  0.261529  0.291919  0.628243  1
  H  H38  1  0.708081  0.738471  0.871757  1
  H  H39  1  0.208081  0.761529  0.628243  1
  H  H40  1  0.791919  0.238471  0.628243  1
  H  H41  1  0.761529  0.208081  0.871757  1
  H  H42  1  0.238471  0.791919  0.871757  1
  H  H43  1  0.291919  0.261529  0.871757  1
  H  H44  1  0.761529  0.791919  0.371757  1
  H  H45  1  0.238471  0.208081  0.371757  1
  H  H46  1  0.791919  0.761529  0.128243  1
  H  H47  1  0.291919  0.738471  0.371757  1
  H  H48  1  0.000000  0.500000  0.014777  1
  H  H49  1  0.500000  0.000000  0.485223  1
  H  H50  1  0.500000  0.000000  0.985223  1
  H  H51  1  0.000000  0.500000  0.514777  1
  H  H52  1  0.000000  0.500000  0.259071  1
  H  H53  1  0.500000  0.000000  0.240929  1
  H  H54  1  0.500000  0.000000  0.740929  1
  H  H55  1  0.000000  0.500000  0.759071  1
  H  H56  1  0.056254  0.326540  0.119550  1
  H  H57  1  0.173460  0.556254  0.119550  1
  H  H58  1  0.826540  0.443746  0.119550  1
  H  H59  1  0.556254  0.173460  0.380450  1
  H  H60  1  0.443746  0.826540  0.380450  1
  H  H61  1  0.943746  0.673460  0.119550  1
  H  H62  1  0.326540  0.056254  0.380450  1
  H  H63  1  0.673460  0.943746  0.380450  1
  H  H64  1  0.443746  0.173460  0.880450  1
  H  H65  1  0.326540  0.943746  0.880450  1
  H  H66  1  0.673460  0.056254  0.880450  1
  H  H67  1  0.943746  0.326540  0.619550  1
  H  H68  1  0.056254  0.673460  0.619550  1
  H  H69  1  0.556254  0.826540  0.880450  1
  H  H70  1  0.173460  0.443746  0.619550  1
  H  H71  1  0.826540  0.556254  0.619550  1
  H  H72  1  0.208081  0.238471  0.128243  1
  H  H73  1  0.261529  0.708081  0.128243  1
  H  H74  1  0.738471  0.291919  0.128243  1
  H  H75  1  0.829043  0.441099  0.863765  1
  O  O76  1  0.725768  0.600847  0.378131  1
  O  O77  1  0.274232  0.399153  0.378131  1
  O  O78  1  0.600847  0.725768  0.121869  1
  O  O79  1  0.100847  0.774232  0.378131  1
  O  O80  1  0.899153  0.225768  0.378131  1
  O  O81  1  0.774232  0.100847  0.121869  1
  O  O82  1  0.225768  0.899153  0.121869  1
  O  O83  1  0.399153  0.274232  0.121869  1
  O  O84  1  0.774232  0.899153  0.621869  1
  O  O85  1  0.225768  0.100847  0.621869  1
  O  O86  1  0.899153  0.774232  0.878131  1
  O  O87  1  0.399153  0.725768  0.621869  1
  O  O88  1  0.600847  0.274232  0.621869  1
  O  O89  1  0.725768  0.399153  0.878131  1
  O  O90  1  0.274232  0.600847  0.878131  1
  O  O91  1  0.100847  0.225768  0.878131  1
  O  O92  1  0.722421  0.598789  0.620171  1
  O  O93  1  0.277579  0.401211  0.620171  1
  O  O94  1  0.598789  0.722421  0.879829  1
  O  O95  1  0.098789  0.777579  0.620171  1
  O  O96  1  0.901211  0.222421  0.620171  1
  O  O97  1  0.777579  0.098789  0.879829  1
  O  O98  1  0.222421  0.901211  0.879829  1
  O  O99  1  0.401211  0.277579  0.879829  1
  O  O100  1  0.777579  0.901211  0.379829  1
  O  O101  1  0.222421  0.098789  0.379829  1
  O  O102  1  0.901211  0.777579  0.120171  1
  O  O103  1  0.401211  0.722421  0.379829  1
  O  O104  1  0.598789  0.277579  0.379829  1
  O  O105  1  0.722421  0.401211  0.120171  1
  O  O106  1  0.277579  0.598789  0.120171  1
  O  O107  1  0.098789  0.222421  0.120171  1
  O  O108  1  0.000000  0.500000  0.844276  1
  O  O109  1  0.500000  0.000000  0.655724  1
  O  O110  1  0.500000  0.000000  0.155724  1
  O  O111  1  0.000000  0.500000  0.344276  1
  O  O112  1  0.000000  0.500000  0.599877  1
  O  O113  1  0.500000  0.000000  0.900123  1
  O  O114  1  0.500000  0.000000  0.400123  1
  O  O115  1  0.000000  0.500000  0.099877  1
