# generated using pymatgen
data_K2In12Se19
_symmetry_space_group_name_H-M   'P 1'
_cell_length_a   14.59434947
_cell_length_b   14.59434947
_cell_length_c   14.59434947
_cell_angle_alpha   58.33886059
_cell_angle_beta   58.33886059
_cell_angle_gamma   58.33886059
_symmetry_Int_Tables_number   1
_chemical_formula_structural   K2In12Se19
_chemical_formula_sum   'K4 In24 Se38'
_cell_volume   2114.45711515
_cell_formula_units_Z   2
loop_
 _symmetry_equiv_pos_site_id
 _symmetry_equiv_pos_as_xyz
  1  'x, y, z'
loop_
 _atom_site_type_symbol
 _atom_site_label
 _atom_site_symmetry_multiplicity
 _atom_site_fract_x
 _atom_site_fract_y
 _atom_site_fract_z
 _atom_site_occupancy
  K  K0  1  0.586668  0.586668  0.586668  1
  K  K1  1  0.413332  0.413332  0.413332  1
  K  K2  1  0.078775  0.078775  0.078775  1
  K  K3  1  0.921225  0.921225  0.921225  1
  In  In4  1  0.897050  0.323565  0.801603  1
  In  In5  1  0.801603  0.897050  0.323565  1
  In  In6  1  0.323565  0.801603  0.897050  1
  In  In7  1  0.102950  0.676435  0.198397  1
  In  In8  1  0.198397  0.102950  0.676435  1
  In  In9  1  0.676435  0.198397  0.102950  1
  In  In10  1  0.398651  0.824232  0.308314  1
  In  In11  1  0.308314  0.398651  0.824232  1
  In  In12  1  0.824232  0.308314  0.398651  1
  In  In13  1  0.601349  0.175768  0.691686  1
  In  In14  1  0.691686  0.601349  0.175768  1
  In  In15  1  0.175768  0.691686  0.601349  1
  In  In16  1  0.908970  0.637093  0.602696  1
  In  In17  1  0.602696  0.908970  0.637093  1
  In  In18  1  0.637093  0.602696  0.908970  1
  In  In19  1  0.091030  0.362907  0.397304  1
  In  In20  1  0.397304  0.091030  0.362907  1
  In  In21  1  0.362907  0.397304  0.091030  1
  In  In22  1  0.963276  0.500437  0.898577  1
  In  In23  1  0.898577  0.963276  0.500437  1
  In  In24  1  0.500437  0.898577  0.963276  1
  In  In25  1  0.036724  0.499563  0.101423  1
  In  In26  1  0.101423  0.036724  0.499563  1
  In  In27  1  0.499563  0.101423  0.036724  1
  Se  Se28  1  0.248986  0.248986  0.248986  1
  Se  Se29  1  0.751014  0.751014  0.751014  1
  Se  Se30  1  0.800793  0.105418  0.227658  1
  Se  Se31  1  0.227658  0.800793  0.105418  1
  Se  Se32  1  0.105418  0.227658  0.800793  1
  Se  Se33  1  0.199207  0.894582  0.772342  1
  Se  Se34  1  0.772342  0.199207  0.894582  1
  Se  Se35  1  0.894582  0.772342  0.199207  1
  Se  Se36  1  0.288859  0.612465  0.731503  1
  Se  Se37  1  0.731503  0.288859  0.612465  1
  Se  Se38  1  0.612465  0.731503  0.288859  1
  Se  Se39  1  0.711141  0.387535  0.268497  1
  Se  Se40  1  0.268497  0.711141  0.387535  1
  Se  Se41  1  0.387535  0.268497  0.711141  1
  Se  Se42  1  0.491595  0.619979  0.847571  1
  Se  Se43  1  0.847571  0.491595  0.619979  1
  Se  Se44  1  0.619979  0.847571  0.491595  1
  Se  Se45  1  0.508405  0.380021  0.152429  1
  Se  Se46  1  0.152429  0.508405  0.380021  1
  Se  Se47  1  0.380021  0.152429  0.508405  1
  Se  Se48  1  0.002863  0.119719  0.348090  1
  Se  Se49  1  0.348090  0.002863  0.119719  1
  Se  Se50  1  0.119719  0.348090  0.002863  1
  Se  Se51  1  0.997137  0.880281  0.651910  1
  Se  Se52  1  0.651910  0.997137  0.880281  1
  Se  Se53  1  0.880281  0.651910  0.997137  1
  Se  Se54  1  0.808117  0.415181  0.966442  1
  Se  Se55  1  0.966442  0.808117  0.415181  1
  Se  Se56  1  0.415181  0.966442  0.808117  1
  Se  Se57  1  0.191883  0.584819  0.033558  1
  Se  Se58  1  0.033558  0.191883  0.584819  1
  Se  Se59  1  0.584819  0.033558  0.191883  1
  Se  Se60  1  0.320228  0.916547  0.465202  1
  Se  Se61  1  0.465202  0.320228  0.916547  1
  Se  Se62  1  0.916547  0.465202  0.320228  1
  Se  Se63  1  0.679772  0.083453  0.534798  1
  Se  Se64  1  0.534798  0.679772  0.083453  1
  Se  Se65  1  0.083453  0.534798  0.679772  1
