# generated using pymatgen
data_TbGe2Pt
_symmetry_space_group_name_H-M   'P 1'
_cell_length_a   9.59131239
_cell_length_b   9.59131239
_cell_length_c   9.59131239
_cell_angle_alpha   153.74841358
_cell_angle_beta   125.52131800
_cell_angle_gamma   61.45385964
_symmetry_Int_Tables_number   1
_chemical_formula_structural   TbGe2Pt
_chemical_formula_sum   'Tb4 Ge8 Pt4'
_cell_volume   315.34300185
_cell_formula_units_Z   4
loop_
 _symmetry_equiv_pos_site_id
 _symmetry_equiv_pos_as_xyz
  1  'x, y, z'
loop_
 _atom_site_type_symbol
 _atom_site_label
 _atom_site_symmetry_multiplicity
 _atom_site_fract_x
 _atom_site_fract_y
 _atom_site_fract_z
 _atom_site_occupancy
  Tb  Tb0  1  0.701773  0.201773  0.500000  1
  Tb  Tb1  1  0.261483  1.000000  0.261483  1
  Tb  Tb2  1  0.298227  0.798227  0.500000  1
  Tb  Tb3  1  0.738517  1.000000  0.738517  1
  Ge  Ge4  1  0.049775  0.199729  0.850046  1
  Ge  Ge5  1  0.950225  0.800271  0.149954  1
  Ge  Ge6  1  0.650317  0.800271  0.850046  1
  Ge  Ge7  1  0.349683  0.199729  0.149954  1
  Ge  Ge8  1  0.574070  0.574070  0.000000  1
  Ge  Ge9  1  0.926362  0.426362  0.500000  1
  Ge  Ge10  1  0.073638  0.573638  0.500000  1
  Ge  Ge11  1  0.425930  0.425930  0.000000  1
  Pt  Pt12  1  0.602437  0.351795  0.250641  1
  Pt  Pt13  1  0.397563  0.648205  0.749359  1
  Pt  Pt14  1  0.898846  0.648205  0.250641  1
  Pt  Pt15  1  0.101154  0.351795  0.749359  1
