# generated using pymatgen
data_Fe5C2
_symmetry_space_group_name_H-M   'P 1'
_cell_length_a   6.22366465
_cell_length_b   6.22366465
_cell_length_c   4.98962634
_cell_angle_alpha   82.94195992
_cell_angle_beta   97.05804008
_cell_angle_gamma   137.54013896
_symmetry_Int_Tables_number   1
_chemical_formula_structural   Fe5C2
_chemical_formula_sum   'Fe10 C4'
_cell_volume   129.33170422
_cell_formula_units_Z   2
loop_
 _symmetry_equiv_pos_site_id
 _symmetry_equiv_pos_as_xyz
  1  'x, y, z'
loop_
 _atom_site_type_symbol
 _atom_site_label
 _atom_site_symmetry_multiplicity
 _atom_site_fract_x
 _atom_site_fract_y
 _atom_site_fract_z
 _atom_site_occupancy
  Fe  Fe0  1  0.984978  0.181767  0.583006  1
  Fe  Fe1  1  0.181767  0.984978  0.916994  1
  Fe  Fe2  1  0.632423  0.203797  0.310612  1
  Fe  Fe3  1  0.203797  0.632423  0.189388  1
  Fe  Fe4  1  0.367577  0.796203  0.689388  1
  Fe  Fe5  1  0.796203  0.367577  0.810612  1
  Fe  Fe6  1  0.818233  0.015022  0.083006  1
  Fe  Fe7  1  0.015022  0.818233  0.416994  1
  Fe  Fe8  1  0.567225  0.567225  0.750000  1
  Fe  Fe9  1  0.432775  0.432775  0.250000  1
  C  C10  1  0.427525  0.201410  0.578711  1
  C  C11  1  0.201410  0.427525  0.921289  1
  C  C12  1  0.572475  0.798590  0.421289  1
  C  C13  1  0.798590  0.572475  0.078711  1
