# generated using pymatgen
data_BaGe2
_symmetry_space_group_name_H-M   'P 1'
_cell_length_a   8.19955151
_cell_length_b   8.19955151
_cell_length_c   8.19955151
_cell_angle_alpha   145.76869238
_cell_angle_beta   145.76869238
_cell_angle_gamma   49.19046036
_symmetry_Int_Tables_number   1
_chemical_formula_structural   BaGe2
_chemical_formula_sum   'Ba2 Ge4'
_cell_volume   173.66340331
_cell_formula_units_Z   2
loop_
 _symmetry_equiv_pos_site_id
 _symmetry_equiv_pos_as_xyz
  1  'x, y, z'
loop_
 _atom_site_type_symbol
 _atom_site_label
 _atom_site_symmetry_multiplicity
 _atom_site_fract_x
 _atom_site_fract_y
 _atom_site_fract_z
 _atom_site_occupancy
  Ba  Ba0  1  0.500000  0.500000  0.000000  1
  Ba  Ba1  1  0.250000  0.750000  0.500000  1
  Ge  Ge2  1  0.833121  0.333121  0.500000  1
  Ge  Ge3  1  0.083121  0.083121  0.000000  1
  Ge  Ge4  1  0.666879  0.166879  0.500000  1
  Ge  Ge5  1  0.916879  0.916879  0.000000  1
