# generated using pymatgen
data_LaMgGa
_symmetry_space_group_name_H-M   'P 1'
_cell_length_a   7.60192027
_cell_length_b   7.60192027
_cell_length_c   4.62584515
_cell_angle_alpha   90.00000000
_cell_angle_beta   90.00000000
_cell_angle_gamma   120.00000000
_symmetry_Int_Tables_number   1
_chemical_formula_structural   LaMgGa
_chemical_formula_sum   'La3 Mg3 Ga3'
_cell_volume   231.50924725
_cell_formula_units_Z   3
loop_
 _symmetry_equiv_pos_site_id
 _symmetry_equiv_pos_as_xyz
  1  'x, y, z'
loop_
 _atom_site_type_symbol
 _atom_site_label
 _atom_site_symmetry_multiplicity
 _atom_site_fract_x
 _atom_site_fract_y
 _atom_site_fract_z
 _atom_site_occupancy
  La  La0  1  0.000000  0.577482  0.000000  1
  La  La1  1  0.422518  0.422518  0.000000  1
  La  La2  1  0.577482  0.000000  0.000000  1
  Mg  Mg3  1  0.000000  0.241823  0.500000  1
  Mg  Mg4  1  0.758177  0.758177  0.500000  1
  Mg  Mg5  1  0.241823  0.000000  0.500000  1
  Ga  Ga6  1  0.333333  0.666667  0.500000  1
  Ga  Ga7  1  0.666667  0.333333  0.500000  1
  Ga  Ga8  1  0.000000  0.000000  0.000000  1
