# generated using pymatgen
data_Hg3(SeCl)2
_symmetry_space_group_name_H-M   'P 1'
_cell_length_a   8.11759976
_cell_length_b   8.11759976
_cell_length_c   8.11759976
_cell_angle_alpha   109.47122063
_cell_angle_beta   109.47122063
_cell_angle_gamma   109.47122063
_symmetry_Int_Tables_number   1
_chemical_formula_structural   Hg3(SeCl)2
_chemical_formula_sum   'Hg6 Se4 Cl4'
_cell_volume   411.77598325
_cell_formula_units_Z   2
loop_
 _symmetry_equiv_pos_site_id
 _symmetry_equiv_pos_as_xyz
  1  'x, y, z'
loop_
 _atom_site_type_symbol
 _atom_site_label
 _atom_site_symmetry_multiplicity
 _atom_site_fract_x
 _atom_site_fract_y
 _atom_site_fract_z
 _atom_site_occupancy
  Hg  Hg0  1  0.750000  0.939946  0.189946  1
  Hg  Hg1  1  0.310054  0.250000  0.560054  1
  Hg  Hg2  1  0.560054  0.310054  0.250000  1
  Hg  Hg3  1  0.189946  0.750000  0.939946  1
  Hg  Hg4  1  0.939946  0.189946  0.750000  1
  Hg  Hg5  1  0.250000  0.560054  0.310054  1
  Se  Se6  1  0.959427  0.500000  0.000000  1
  Se  Se7  1  0.500000  0.000000  0.959427  1
  Se  Se8  1  0.540573  0.540573  0.540573  1
  Se  Se9  1  0.000000  0.959427  0.500000  1
  Cl  Cl10  1  0.485973  0.500000  1.000000  1
  Cl  Cl11  1  0.500000  0.000000  0.485973  1
  Cl  Cl12  1  0.000000  0.485973  0.500000  1
  Cl  Cl13  1  0.014027  0.014027  0.014027  1
