# generated using pymatgen
data_PdSe
_symmetry_space_group_name_H-M   'P 1'
_cell_length_a   6.84495766
_cell_length_b   6.84495766
_cell_length_c   7.03218554
_cell_angle_alpha   90.00000000
_cell_angle_beta   90.00000000
_cell_angle_gamma   90.00000000
_symmetry_Int_Tables_number   1
_chemical_formula_structural   PdSe
_chemical_formula_sum   'Pd8 Se8'
_cell_volume   329.48212101
_cell_formula_units_Z   8
loop_
 _symmetry_equiv_pos_site_id
 _symmetry_equiv_pos_as_xyz
  1  'x, y, z'
loop_
 _atom_site_type_symbol
 _atom_site_label
 _atom_site_symmetry_multiplicity
 _atom_site_fract_x
 _atom_site_fract_y
 _atom_site_fract_z
 _atom_site_occupancy
  Pd  Pd0  1  0.029927  0.239029  0.000000  1
  Pd  Pd1  1  0.760971  0.029927  0.500000  1
  Pd  Pd2  1  0.239029  0.970073  0.500000  1
  Pd  Pd3  1  0.970073  0.760971  0.000000  1
  Pd  Pd4  1  0.000000  0.500000  0.500000  1
  Pd  Pd5  1  0.500000  0.000000  0.000000  1
  Pd  Pd6  1  0.500000  0.500000  0.750000  1
  Pd  Pd7  1  0.500000  0.500000  0.250000  1
  Se  Se8  1  0.694315  0.807385  0.771891  1
  Se  Se9  1  0.192615  0.694315  0.271891  1
  Se  Se10  1  0.807385  0.305685  0.271891  1
  Se  Se11  1  0.305685  0.192615  0.771891  1
  Se  Se12  1  0.305685  0.192615  0.228109  1
  Se  Se13  1  0.807385  0.305685  0.728109  1
  Se  Se14  1  0.192615  0.694315  0.728109  1
  Se  Se15  1  0.694315  0.807385  0.228109  1
