# generated using pymatgen
data_Ca(Cu2As)2
_symmetry_space_group_name_H-M   'P 1'
_cell_length_a   7.90480352
_cell_length_b   7.90480352
_cell_length_c   7.90480352
_cell_angle_alpha   30.54172116
_cell_angle_beta   30.54172116
_cell_angle_gamma   30.54172116
_symmetry_Int_Tables_number   1
_chemical_formula_structural   Ca(Cu2As)2
_chemical_formula_sum   'Ca1 Cu4 As2'
_cell_volume   113.07390201
_cell_formula_units_Z   1
loop_
 _symmetry_equiv_pos_site_id
 _symmetry_equiv_pos_as_xyz
  1  'x, y, z'
loop_
 _atom_site_type_symbol
 _atom_site_label
 _atom_site_symmetry_multiplicity
 _atom_site_fract_x
 _atom_site_fract_y
 _atom_site_fract_z
 _atom_site_occupancy
  Ca  Ca0  1  0.000000  0.000000  0.000000  1
  Cu  Cu1  1  0.855767  0.855767  0.855767  1
  Cu  Cu2  1  0.436824  0.436824  0.436824  1
  Cu  Cu3  1  0.144233  0.144233  0.144233  1
  Cu  Cu4  1  0.563176  0.563176  0.563176  1
  As  As5  1  0.746818  0.746818  0.746818  1
  As  As6  1  0.253182  0.253182  0.253182  1
