# generated using pymatgen
data_Na6Ge2S7
_symmetry_space_group_name_H-M   'P 1'
_cell_length_a   7.00059122
_cell_length_b   7.00059122
_cell_length_c   15.24210070
_cell_angle_alpha   80.37715665
_cell_angle_beta   99.62284335
_cell_angle_gamma   81.98366400
_symmetry_Int_Tables_number   1
_chemical_formula_structural   Na6Ge2S7
_chemical_formula_sum   'Na12 Ge4 S14'
_cell_volume   715.26786187
_cell_formula_units_Z   2
loop_
 _symmetry_equiv_pos_site_id
 _symmetry_equiv_pos_as_xyz
  1  'x, y, z'
loop_
 _atom_site_type_symbol
 _atom_site_label
 _atom_site_symmetry_multiplicity
 _atom_site_fract_x
 _atom_site_fract_y
 _atom_site_fract_z
 _atom_site_occupancy
  Na  Na0  1  0.968409  0.739020  0.573525  1
  Na  Na1  1  0.739020  0.968409  0.926475  1
  Na  Na2  1  0.031591  0.260980  0.426475  1
  Na  Na3  1  0.260980  0.031591  0.073525  1
  Na  Na4  1  0.508197  0.047381  0.361157  1
  Na  Na5  1  0.047381  0.508197  0.138843  1
  Na  Na6  1  0.421338  0.421338  0.750000  1
  Na  Na7  1  0.578662  0.578662  0.250000  1
  Na  Na8  1  0.500000  0.500000  0.000000  1
  Na  Na9  1  0.500000  0.500000  0.500000  1
  Na  Na10  1  0.491803  0.952619  0.638843  1
  Na  Na11  1  0.952619  0.491803  0.861157  1
  Ge  Ge12  1  0.238055  0.924751  0.860127  1
  Ge  Ge13  1  0.924751  0.238055  0.639873  1
  Ge  Ge14  1  0.761945  0.075249  0.139873  1
  Ge  Ge15  1  0.075249  0.761945  0.360127  1
  S  S16  1  0.794987  0.691269  0.394236  1
  S  S17  1  0.205013  0.308731  0.605764  1
  S  S18  1  0.865661  0.259898  0.028591  1
  S  S19  1  0.259898  0.865661  0.471409  1
  S  S20  1  0.134339  0.740102  0.971409  1
  S  S21  1  0.740102  0.134339  0.528591  1
  S  S22  1  0.757283  0.492898  0.679849  1
  S  S23  1  0.492898  0.757283  0.820151  1
  S  S24  1  0.242717  0.507102  0.320151  1
  S  S25  1  0.507102  0.242717  0.179849  1
  S  S26  1  0.961564  0.961564  0.750000  1
  S  S27  1  0.038436  0.038436  0.250000  1
  S  S28  1  0.308731  0.205013  0.894236  1
  S  S29  1  0.691269  0.794987  0.105764  1
