# generated using pymatgen
data_Ho3Ni19B10
_symmetry_space_group_name_H-M   'P 1'
_cell_length_a   7.88377616
_cell_length_b   7.88377616
_cell_length_c   5.75822781
_cell_angle_alpha   88.84982881
_cell_angle_beta   91.15017119
_cell_angle_gamma   113.09002812
_symmetry_Int_Tables_number   1
_chemical_formula_structural   Ho3Ni19B10
_chemical_formula_sum   'Ho3 Ni19 B10'
_cell_volume   329.13000125
_cell_formula_units_Z   1
loop_
 _symmetry_equiv_pos_site_id
 _symmetry_equiv_pos_as_xyz
  1  'x, y, z'
loop_
 _atom_site_type_symbol
 _atom_site_label
 _atom_site_symmetry_multiplicity
 _atom_site_fract_x
 _atom_site_fract_y
 _atom_site_fract_z
 _atom_site_occupancy
  Ho  Ho0  1  0.374268  0.625732  0.614241  1
  Ho  Ho1  1  0.625732  0.374268  0.385759  1
  Ho  Ho2  1  0.000000  0.000000  0.000000  1
  Ni  Ni3  1  0.818214  0.181786  0.729100  1
  Ni  Ni4  1  0.045122  0.482650  0.302301  1
  Ni  Ni5  1  0.517350  0.954878  0.302301  1
  Ni  Ni6  1  0.954878  0.517350  0.697699  1
  Ni  Ni7  1  0.482650  0.045122  0.697699  1
  Ni  Ni8  1  0.377204  0.121875  0.073713  1
  Ni  Ni9  1  0.878125  0.622796  0.073713  1
  Ni  Ni10  1  0.622796  0.878125  0.926287  1
  Ni  Ni11  1  0.770223  0.711066  0.699017  1
  Ni  Ni12  1  0.711066  0.770223  0.300983  1
  Ni  Ni13  1  0.229777  0.288934  0.300983  1
  Ni  Ni14  1  0.288934  0.229777  0.699017  1
  Ni  Ni15  1  0.837767  0.162233  0.296235  1
  Ni  Ni16  1  0.162233  0.837767  0.703765  1
  Ni  Ni17  1  0.377915  0.622085  0.126703  1
  Ni  Ni18  1  0.622085  0.377915  0.873297  1
  Ni  Ni19  1  0.000000  0.000000  0.500000  1
  Ni  Ni20  1  0.121875  0.377204  0.926287  1
  Ni  Ni21  1  0.181786  0.818214  0.270900  1
  B  B22  1  0.301088  0.065262  0.430919  1
  B  B23  1  0.065262  0.301088  0.569081  1
  B  B24  1  0.698912  0.934738  0.569081  1
  B  B25  1  0.349514  0.857430  0.974829  1
  B  B26  1  0.142570  0.650486  0.974829  1
  B  B27  1  0.650486  0.142570  0.025171  1
  B  B28  1  0.615291  0.615291  0.000000  1
  B  B29  1  0.384709  0.384709  0.000000  1
  B  B30  1  0.934738  0.698912  0.430919  1
  B  B31  1  0.857430  0.349514  0.025171  1
