# generated using pymatgen
data_CsMgH3
_symmetry_space_group_name_H-M   'P 1'
_cell_length_a   8.29009292
_cell_length_b   8.29009292
_cell_length_c   8.29009292
_cell_angle_alpha   44.34483239
_cell_angle_beta   44.34483239
_cell_angle_gamma   44.34483239
_symmetry_Int_Tables_number   1
_chemical_formula_structural   CsMgH3
_chemical_formula_sum   'Cs3 Mg3 H9'
_cell_volume   253.00535555
_cell_formula_units_Z   3
loop_
 _symmetry_equiv_pos_site_id
 _symmetry_equiv_pos_as_xyz
  1  'x, y, z'
loop_
 _atom_site_type_symbol
 _atom_site_label
 _atom_site_symmetry_multiplicity
 _atom_site_fract_x
 _atom_site_fract_y
 _atom_site_fract_z
 _atom_site_occupancy
  Cs  Cs0  1  0.000000  0.000000  0.000000  1
  Cs  Cs1  1  0.213794  0.213794  0.213794  1
  Cs  Cs2  1  0.786206  0.786206  0.786206  1
  Mg  Mg3  1  0.500000  0.500000  0.500000  1
  Mg  Mg4  1  0.379139  0.379139  0.379139  1
  Mg  Mg5  1  0.620861  0.620861  0.620861  1
  H  H6  1  0.000000  0.500000  0.500000  1
  H  H7  1  0.500000  0.500000  1.000000  1
  H  H8  1  0.500000  0.000000  0.500000  1
  H  H9  1  0.285330  0.696080  0.696080  1
  H  H10  1  0.696080  0.696080  0.285330  1
  H  H11  1  0.696080  0.285330  0.696080  1
  H  H12  1  0.303920  0.714670  0.303920  1
  H  H13  1  0.303920  0.303920  0.714670  1
  H  H14  1  0.714670  0.303920  0.303920  1
