# generated using pymatgen
data_BaGdCl5
_symmetry_space_group_name_H-M   'P 1'
_cell_length_a   10.12929800
_cell_length_b   10.12929800
_cell_length_c   6.93225321
_cell_angle_alpha   89.10018274
_cell_angle_beta   90.89981726
_cell_angle_gamma   31.94928384
_symmetry_Int_Tables_number   1
_chemical_formula_structural   BaGdCl5
_chemical_formula_sum   'Ba2 Gd2 Cl10'
_cell_volume   375.76715156
_cell_formula_units_Z   2
loop_
 _symmetry_equiv_pos_site_id
 _symmetry_equiv_pos_as_xyz
  1  'x, y, z'
loop_
 _atom_site_type_symbol
 _atom_site_label
 _atom_site_symmetry_multiplicity
 _atom_site_fract_x
 _atom_site_fract_y
 _atom_site_fract_z
 _atom_site_occupancy
  Ba  Ba0  1  0.327768  0.327768  0.750000  1
  Ba  Ba1  1  0.672232  0.672232  0.250000  1
  Gd  Gd2  1  0.076569  0.076569  0.750000  1
  Gd  Gd3  1  0.923431  0.923431  0.250000  1
  Cl  Cl4  1  0.626759  0.626759  0.750000  1
  Cl  Cl5  1  0.373241  0.373241  0.250000  1
  Cl  Cl6  1  0.274027  0.790654  0.096714  1
  Cl  Cl7  1  0.790654  0.274027  0.403286  1
  Cl  Cl8  1  0.819192  0.804782  0.998884  1
  Cl  Cl9  1  0.804782  0.819192  0.501116  1
  Cl  Cl10  1  0.180808  0.195218  0.001116  1
  Cl  Cl11  1  0.195218  0.180808  0.498884  1
  Cl  Cl12  1  0.209346  0.725973  0.596714  1
  Cl  Cl13  1  0.725973  0.209346  0.903286  1
