# generated using pymatgen
data_BaReH9
_symmetry_space_group_name_H-M   'P 1'
_cell_length_a   5.25412070
_cell_length_b   5.25412070
_cell_length_c   9.68532482
_cell_angle_alpha   90.00000000
_cell_angle_beta   90.00000000
_cell_angle_gamma   120.00000000
_symmetry_Int_Tables_number   1
_chemical_formula_structural   BaReH9
_chemical_formula_sum   'Ba2 Re2 H18'
_cell_volume   231.55006794
_cell_formula_units_Z   2
loop_
 _symmetry_equiv_pos_site_id
 _symmetry_equiv_pos_as_xyz
  1  'x, y, z'
loop_
 _atom_site_type_symbol
 _atom_site_label
 _atom_site_symmetry_multiplicity
 _atom_site_fract_x
 _atom_site_fract_y
 _atom_site_fract_z
 _atom_site_occupancy
  Ba  Ba0  1  0.000000  0.000000  0.000000  1
  Ba  Ba1  1  0.000000  0.000000  0.500000  1
  Re  Re2  1  0.333333  0.666667  0.250000  1
  Re  Re3  1  0.666667  0.333333  0.750000  1
  H  H4  1  0.466824  0.533176  0.374616  1
  H  H5  1  0.466824  0.933648  0.374616  1
  H  H6  1  0.066352  0.533176  0.374616  1
  H  H7  1  0.933648  0.466824  0.874616  1
  H  H8  1  0.149236  0.298472  0.250000  1
  H  H9  1  0.850764  0.149236  0.750000  1
  H  H10  1  0.298472  0.149236  0.750000  1
  H  H11  1  0.701528  0.850764  0.250000  1
  H  H12  1  0.149236  0.850764  0.250000  1
  H  H13  1  0.850764  0.701528  0.750000  1
  H  H14  1  0.466824  0.933648  0.125384  1
  H  H15  1  0.533176  0.466824  0.625384  1
  H  H16  1  0.933648  0.466824  0.625384  1
  H  H17  1  0.066352  0.533176  0.125384  1
  H  H18  1  0.466824  0.533176  0.125384  1
  H  H19  1  0.533176  0.066352  0.874616  1
  H  H20  1  0.533176  0.466824  0.874616  1
  H  H21  1  0.533176  0.066352  0.625384  1
