# generated using pymatgen
data_Sc3Co
_symmetry_space_group_name_H-M   'P 1'
_cell_length_a   5.81424691
_cell_length_b   8.59064417
_cell_length_c   13.01675562
_cell_angle_alpha   90.00000000
_cell_angle_beta   90.00000000
_cell_angle_gamma   90.00000000
_symmetry_Int_Tables_number   1
_chemical_formula_structural   Sc3Co
_chemical_formula_sum   'Sc24 Co8'
_cell_volume   650.16255399
_cell_formula_units_Z   8
loop_
 _symmetry_equiv_pos_site_id
 _symmetry_equiv_pos_as_xyz
  1  'x, y, z'
loop_
 _atom_site_type_symbol
 _atom_site_label
 _atom_site_symmetry_multiplicity
 _atom_site_fract_x
 _atom_site_fract_y
 _atom_site_fract_z
 _atom_site_occupancy
  Sc  Sc0  1  0.547626  0.750000  0.353991  1
  Sc  Sc1  1  0.047626  0.250000  0.146009  1
  Sc  Sc2  1  0.452374  0.250000  0.646009  1
  Sc  Sc3  1  0.952374  0.750000  0.853991  1
  Sc  Sc4  1  0.786469  0.750000  0.109056  1
  Sc  Sc5  1  0.286469  0.250000  0.390944  1
  Sc  Sc6  1  0.213531  0.250000  0.890944  1
  Sc  Sc7  1  0.713531  0.750000  0.609056  1
  Sc  Sc8  1  0.407524  0.932688  0.787381  1
  Sc  Sc9  1  0.907524  0.067312  0.712619  1
  Sc  Sc10  1  0.592476  0.432688  0.212619  1
  Sc  Sc11  1  0.092476  0.567312  0.287381  1
  Sc  Sc12  1  0.592476  0.067312  0.212619  1
  Sc  Sc13  1  0.092476  0.932688  0.287381  1
  Sc  Sc14  1  0.407524  0.567312  0.787381  1
  Sc  Sc15  1  0.907524  0.432688  0.712619  1
  Sc  Sc16  1  0.244902  0.935693  0.535427  1
  Sc  Sc17  1  0.744902  0.064307  0.964573  1
  Sc  Sc18  1  0.755098  0.435693  0.464573  1
  Sc  Sc19  1  0.255098  0.564307  0.035427  1
  Sc  Sc20  1  0.755098  0.064307  0.464573  1
  Sc  Sc21  1  0.255098  0.935693  0.035427  1
  Sc  Sc22  1  0.244902  0.564307  0.535427  1
  Sc  Sc23  1  0.744902  0.435693  0.964573  1
  Co  Co24  1  0.946136  0.750000  0.440486  1
  Co  Co25  1  0.446136  0.250000  0.059514  1
  Co  Co26  1  0.053864  0.250000  0.559514  1
  Co  Co27  1  0.553864  0.750000  0.940486  1
  Co  Co28  1  0.372602  0.750000  0.179835  1
  Co  Co29  1  0.872602  0.250000  0.320165  1
  Co  Co30  1  0.627398  0.250000  0.820165  1
  Co  Co31  1  0.127398  0.750000  0.679835  1
