# generated using pymatgen
data_K3RhCl6
_symmetry_space_group_name_H-M   'P 1'
_cell_length_a   12.14162194
_cell_length_b   7.56815207
_cell_length_c   12.73532404
_cell_angle_alpha   90.00000000
_cell_angle_beta   108.31894183
_cell_angle_gamma   90.00000000
_symmetry_Int_Tables_number   1
_chemical_formula_structural   K3RhCl6
_chemical_formula_sum   'K12 Rh4 Cl24'
_cell_volume   1110.93826984
_cell_formula_units_Z   4
loop_
 _symmetry_equiv_pos_site_id
 _symmetry_equiv_pos_as_xyz
  1  'x, y, z'
loop_
 _atom_site_type_symbol
 _atom_site_label
 _atom_site_symmetry_multiplicity
 _atom_site_fract_x
 _atom_site_fract_y
 _atom_site_fract_z
 _atom_site_occupancy
  K  K0  1  0.359454  0.467487  0.098863  1
  K  K1  1  0.765886  0.569953  0.317751  1
  K  K2  1  0.734114  0.069953  0.682249  1
  K  K3  1  0.234114  0.430047  0.682249  1
  K  K4  1  0.612714  0.064625  0.319071  1
  K  K5  1  0.887286  0.564625  0.680929  1
  K  K6  1  0.387286  0.935375  0.680929  1
  K  K7  1  0.112714  0.435375  0.319071  1
  K  K8  1  0.265886  0.930047  0.317751  1
  K  K9  1  0.640546  0.532513  0.901137  1
  K  K10  1  0.140546  0.967487  0.901137  1
  K  K11  1  0.859454  0.032513  0.098863  1
  Rh  Rh12  1  0.000000  0.500000  0.000000  1
  Rh  Rh13  1  0.500000  0.000000  0.000000  1
  Rh  Rh14  1  0.500000  0.500000  0.500000  1
  Rh  Rh15  1  0.000000  0.000000  0.500000  1
  Cl  Cl16  1  0.400507  0.744351  0.906261  1
  Cl  Cl17  1  0.862382  0.312076  0.876970  1
  Cl  Cl18  1  0.637618  0.812076  0.123030  1
  Cl  Cl19  1  0.137618  0.687924  0.123030  1
  Cl  Cl20  1  0.821639  0.871027  0.500461  1
  Cl  Cl21  1  0.678361  0.371027  0.499539  1
  Cl  Cl22  1  0.178361  0.128973  0.499539  1
  Cl  Cl23  1  0.321639  0.628973  0.500461  1
  Cl  Cl24  1  0.004735  0.808388  0.353193  1
  Cl  Cl25  1  0.495265  0.308388  0.646807  1
  Cl  Cl26  1  0.995265  0.191612  0.646807  1
  Cl  Cl27  1  0.504735  0.691612  0.353193  1
  Cl  Cl28  1  0.898291  0.204872  0.361050  1
  Cl  Cl29  1  0.601709  0.704872  0.638950  1
  Cl  Cl30  1  0.101709  0.795128  0.638950  1
  Cl  Cl31  1  0.398291  0.295128  0.361050  1
  Cl  Cl32  1  0.379838  0.001224  0.115451  1
  Cl  Cl33  1  0.900507  0.755649  0.906261  1
  Cl  Cl34  1  0.620162  0.998776  0.884549  1
  Cl  Cl35  1  0.879838  0.498776  0.115451  1
  Cl  Cl36  1  0.120162  0.501224  0.884549  1
  Cl  Cl37  1  0.099493  0.244351  0.093739  1
  Cl  Cl38  1  0.599493  0.255649  0.093739  1
  Cl  Cl39  1  0.362382  0.187924  0.876970  1
