# generated using pymatgen
data_Ba(SbS2)2
_symmetry_space_group_name_H-M   'P 1'
_cell_length_a   9.05291885
_cell_length_b   8.38088722
_cell_length_c   20.88952442
_cell_angle_alpha   90.00000000
_cell_angle_beta   100.32012245
_cell_angle_gamma   90.00000000
_symmetry_Int_Tables_number   1
_chemical_formula_structural   Ba(SbS2)2
_chemical_formula_sum   'Ba8 Sb16 S32'
_cell_volume   1559.27884364
_cell_formula_units_Z   8
loop_
 _symmetry_equiv_pos_site_id
 _symmetry_equiv_pos_as_xyz
  1  'x, y, z'
loop_
 _atom_site_type_symbol
 _atom_site_label
 _atom_site_symmetry_multiplicity
 _atom_site_fract_x
 _atom_site_fract_y
 _atom_site_fract_z
 _atom_site_occupancy
  Ba  Ba0  1  0.516916  0.948296  0.797433  1
  Ba  Ba1  1  0.483084  0.448296  0.702567  1
  Ba  Ba2  1  0.483084  0.051704  0.202567  1
  Ba  Ba3  1  0.516916  0.551704  0.297433  1
  Ba  Ba4  1  0.017890  0.545906  0.305049  1
  Ba  Ba5  1  0.982110  0.045906  0.194951  1
  Ba  Ba6  1  0.982110  0.454094  0.694951  1
  Ba  Ba7  1  0.017890  0.954094  0.805049  1
  Sb  Sb8  1  0.842879  0.992313  0.385003  1
  Sb  Sb9  1  0.157121  0.492313  0.114997  1
  Sb  Sb10  1  0.157121  0.007687  0.614997  1
  Sb  Sb11  1  0.842879  0.507687  0.885003  1
  Sb  Sb12  1  0.426655  0.699431  0.531062  1
  Sb  Sb13  1  0.573345  0.199431  0.968938  1
  Sb  Sb14  1  0.573345  0.300569  0.468938  1
  Sb  Sb15  1  0.426655  0.800569  0.031062  1
  Sb  Sb16  1  0.852967  0.655917  0.502195  1
  Sb  Sb17  1  0.147033  0.155917  0.997805  1
  Sb  Sb18  1  0.147033  0.344083  0.497805  1
  Sb  Sb19  1  0.852967  0.844083  0.002195  1
  Sb  Sb20  1  0.298190  0.981579  0.376717  1
  Sb  Sb21  1  0.701810  0.481579  0.123283  1
  Sb  Sb22  1  0.701810  0.018421  0.623283  1
  Sb  Sb23  1  0.298190  0.518421  0.876717  1
  S  S24  1  0.655105  0.848111  0.463805  1
  S  S25  1  0.344895  0.348111  0.036195  1
  S  S26  1  0.344895  0.151889  0.536195  1
  S  S27  1  0.655105  0.651889  0.963805  1
  S  S28  1  0.497483  0.164411  0.349443  1
  S  S29  1  0.502517  0.664411  0.150557  1
  S  S30  1  0.502517  0.835589  0.650557  1
  S  S31  1  0.497483  0.335589  0.849443  1
  S  S32  1  0.741288  0.328900  0.226826  1
  S  S33  1  0.258712  0.828900  0.273174  1
  S  S34  1  0.258712  0.671100  0.773174  1
  S  S35  1  0.741288  0.171100  0.726826  1
  S  S36  1  0.926155  0.656624  0.152492  1
  S  S37  1  0.073845  0.156624  0.347508  1
  S  S38  1  0.073845  0.343376  0.847508  1
  S  S39  1  0.926155  0.843376  0.652492  1
  S  S40  1  0.233489  0.346212  0.217448  1
  S  S41  1  0.766511  0.846212  0.282552  1
  S  S42  1  0.766511  0.653788  0.782552  1
  S  S43  1  0.233489  0.153788  0.717448  1
  S  S44  1  0.631411  0.505010  0.572925  1
  S  S45  1  0.368589  0.005010  0.927075  1
  S  S46  1  0.368589  0.494990  0.427075  1
  S  S47  1  0.631411  0.994990  0.072925  1
  S  S48  1  0.034015  0.710964  0.935226  1
  S  S49  1  0.965985  0.210964  0.564774  1
  S  S50  1  0.965985  0.289036  0.064774  1
  S  S51  1  0.034015  0.789036  0.435226  1
  S  S52  1  0.223417  0.945588  0.084854  1
  S  S53  1  0.776583  0.445588  0.415146  1
  S  S54  1  0.776583  0.054412  0.915146  1
  S  S55  1  0.223417  0.554412  0.584854  1
