# generated using pymatgen
data_In2(Ni7P2)3
_symmetry_space_group_name_H-M   'P 1'
_cell_length_a   7.84355554
_cell_length_b   7.84355554
_cell_length_c   7.84355554
_cell_angle_alpha   60.00000000
_cell_angle_beta   60.00000000
_cell_angle_gamma   60.00000000
_symmetry_Int_Tables_number   1
_chemical_formula_structural   In2(Ni7P2)3
_chemical_formula_sum   'In2 Ni21 P6'
_cell_volume   341.21171268
_cell_formula_units_Z   1
loop_
 _symmetry_equiv_pos_site_id
 _symmetry_equiv_pos_as_xyz
  1  'x, y, z'
loop_
 _atom_site_type_symbol
 _atom_site_label
 _atom_site_symmetry_multiplicity
 _atom_site_fract_x
 _atom_site_fract_y
 _atom_site_fract_z
 _atom_site_occupancy
  In  In0  1  0.750000  0.750000  0.750000  1
  In  In1  1  0.250000  0.250000  0.250000  1
  Ni  Ni2  1  0.384336  0.846991  0.384336  1
  Ni  Ni3  1  0.384336  0.384336  0.384336  1
  Ni  Ni4  1  1.000000  1.000000  0.347910  1
  Ni  Ni5  1  0.000000  0.347910  1.000000  1
  Ni  Ni6  1  0.615664  0.615664  0.153009  1
  Ni  Ni7  1  0.347910  1.000000  0.652090  1
  Ni  Ni8  1  0.384336  0.384336  0.846991  1
  Ni  Ni9  1  0.000000  0.347910  0.652090  1
  Ni  Ni10  1  0.652090  0.347910  0.000000  1
  Ni  Ni11  1  0.000000  0.652090  0.347910  1
  Ni  Ni12  1  0.652090  0.000000  0.000000  1
  Ni  Ni13  1  0.615664  0.153009  0.615664  1
  Ni  Ni14  1  1.000000  1.000000  0.652090  1
  Ni  Ni15  1  0.347910  0.652090  0.000000  1
  Ni  Ni16  1  0.615664  0.615664  0.615664  1
  Ni  Ni17  1  0.000000  0.000000  0.000000  1
  Ni  Ni18  1  0.000000  0.652090  0.000000  1
  Ni  Ni19  1  0.652090  1.000000  0.347910  1
  Ni  Ni20  1  0.347910  0.000000  1.000000  1
  Ni  Ni21  1  0.846991  0.384336  0.384336  1
  Ni  Ni22  1  0.153009  0.615664  0.615664  1
  P  P23  1  0.737561  0.262439  0.262439  1
  P  P24  1  0.737561  0.737561  0.262439  1
  P  P25  1  0.737561  0.262439  0.737561  1
  P  P26  1  0.262439  0.737561  0.262439  1
  P  P27  1  0.262439  0.262439  0.737561  1
  P  P28  1  0.262439  0.737561  0.737561  1
