# generated using pymatgen
data_MnH4(CO3)2
_symmetry_space_group_name_H-M   'P 1'
_cell_length_a   6.85291699
_cell_length_b   6.85291699
_cell_length_c   9.80649525
_cell_angle_alpha   56.13217191
_cell_angle_beta   123.86782809
_cell_angle_gamma   130.33080883
_symmetry_Int_Tables_number   1
_chemical_formula_structural   MnH4(CO3)2
_chemical_formula_sum   'Mn2 H8 C4 O12'
_cell_volume   277.08933910
_cell_formula_units_Z   2
loop_
 _symmetry_equiv_pos_site_id
 _symmetry_equiv_pos_as_xyz
  1  'x, y, z'
loop_
 _atom_site_type_symbol
 _atom_site_label
 _atom_site_symmetry_multiplicity
 _atom_site_fract_x
 _atom_site_fract_y
 _atom_site_fract_z
 _atom_site_occupancy
  Mn  Mn0  1  0.074591  0.074591  0.250000  1
  Mn  Mn1  1  0.925409  0.925409  0.750000  1
  H  H2  1  0.996324  0.321303  0.353985  1
  H  H3  1  0.321303  0.996324  0.146015  1
  H  H4  1  0.844696  0.373350  0.148664  1
  H  H5  1  0.373350  0.844696  0.351336  1
  H  H6  1  0.155304  0.626650  0.851336  1
  H  H7  1  0.626650  0.155304  0.648664  1
  H  H8  1  0.003676  0.678697  0.646015  1
  H  H9  1  0.678697  0.003676  0.853985  1
  C  C10  1  0.626374  0.524183  0.350967  1
  C  C11  1  0.475817  0.373626  0.850967  1
  C  C12  1  0.373626  0.475817  0.649033  1
  C  C13  1  0.524183  0.626374  0.149033  1
  O  O14  1  0.100424  0.753341  0.741499  1
  O  O15  1  0.709623  0.530936  0.926434  1
  O  O16  1  0.753341  0.100424  0.758501  1
  O  O17  1  0.682884  0.860515  0.074917  1
  O  O18  1  0.246659  0.899576  0.241499  1
  O  O19  1  0.899576  0.246659  0.258501  1
  O  O20  1  0.290377  0.469064  0.073566  1
  O  O21  1  0.530936  0.709623  0.573566  1
  O  O22  1  0.317116  0.139485  0.925083  1
  O  O23  1  0.469064  0.290377  0.426434  1
  O  O24  1  0.139485  0.317116  0.574917  1
  O  O25  1  0.860515  0.682884  0.425083  1
