# generated using pymatgen
data_TiMnSi2
_symmetry_space_group_name_H-M   'P 1'
_cell_length_a   7.71938296
_cell_length_b   8.65931157
_cell_length_c   9.48169786
_cell_angle_alpha   90.00000000
_cell_angle_beta   90.00000000
_cell_angle_gamma   90.00000000
_symmetry_Int_Tables_number   1
_chemical_formula_structural   TiMnSi2
_chemical_formula_sum   'Ti12 Mn12 Si24'
_cell_volume   633.79975253
_cell_formula_units_Z   12
loop_
 _symmetry_equiv_pos_site_id
 _symmetry_equiv_pos_as_xyz
  1  'x, y, z'
loop_
 _atom_site_type_symbol
 _atom_site_label
 _atom_site_symmetry_multiplicity
 _atom_site_fract_x
 _atom_site_fract_y
 _atom_site_fract_z
 _atom_site_occupancy
  Ti  Ti0  1  0.000000  0.167989  0.820849  1
  Ti  Ti1  1  0.239891  0.171668  0.546999  1
  Ti  Ti2  1  0.760109  0.328332  0.046999  1
  Ti  Ti3  1  0.760109  0.671668  0.953001  1
  Ti  Ti4  1  0.760109  0.171668  0.546999  1
  Ti  Ti5  1  0.760109  0.828332  0.453001  1
  Ti  Ti6  1  0.239891  0.671668  0.953001  1
  Ti  Ti7  1  0.239891  0.328332  0.046999  1
  Ti  Ti8  1  0.000000  0.332011  0.320849  1
  Ti  Ti9  1  0.000000  0.667989  0.679151  1
  Ti  Ti10  1  0.000000  0.832011  0.179151  1
  Ti  Ti11  1  0.239891  0.828332  0.453001  1
  Mn  Mn12  1  0.247703  0.084745  0.253086  1
  Mn  Mn13  1  0.247703  0.584745  0.246914  1
  Mn  Mn14  1  0.247703  0.415255  0.753086  1
  Mn  Mn15  1  0.752297  0.084745  0.253086  1
  Mn  Mn16  1  0.752297  0.915255  0.746914  1
  Mn  Mn17  1  0.752297  0.415255  0.753086  1
  Mn  Mn18  1  0.752297  0.584745  0.246914  1
  Mn  Mn19  1  0.247703  0.915255  0.746914  1
  Mn  Mn20  1  0.243638  0.000000  0.000000  1
  Mn  Mn21  1  0.756362  0.500000  0.500000  1
  Mn  Mn22  1  0.756362  0.000000  0.000000  1
  Mn  Mn23  1  0.243638  0.500000  0.500000  1
  Si  Si24  1  0.500000  0.037491  0.375982  1
  Si  Si25  1  0.000000  0.461732  0.879392  1
  Si  Si26  1  0.000000  0.538268  0.120608  1
  Si  Si27  1  0.000000  0.961732  0.620608  1
  Si  Si28  1  0.000000  0.038268  0.379392  1
  Si  Si29  1  0.000000  0.370141  0.603859  1
  Si  Si30  1  0.000000  0.629859  0.396141  1
  Si  Si31  1  0.000000  0.870141  0.896141  1
  Si  Si32  1  0.500000  0.374914  0.597434  1
  Si  Si33  1  0.500000  0.625086  0.402566  1
  Si  Si34  1  0.500000  0.874914  0.902566  1
  Si  Si35  1  0.500000  0.125086  0.097434  1
  Si  Si36  1  0.500000  0.462509  0.875982  1
  Si  Si37  1  0.500000  0.537491  0.124018  1
  Si  Si38  1  0.500000  0.962509  0.624018  1
  Si  Si39  1  0.000000  0.129859  0.103859  1
  Si  Si40  1  0.346042  0.332204  0.317503  1
  Si  Si41  1  0.653958  0.832204  0.182497  1
  Si  Si42  1  0.346042  0.832204  0.182497  1
  Si  Si43  1  0.653958  0.167796  0.817503  1
  Si  Si44  1  0.653958  0.667796  0.682497  1
  Si  Si45  1  0.653958  0.332204  0.317503  1
  Si  Si46  1  0.346042  0.167796  0.817503  1
  Si  Si47  1  0.346042  0.667796  0.682497  1
