# generated using pymatgen
data_NdMn12
_symmetry_space_group_name_H-M   'P 1'
_cell_length_a   6.37099455
_cell_length_b   6.37099455
_cell_length_c   6.37099455
_cell_angle_alpha   97.89919256
_cell_angle_beta   97.89919256
_cell_angle_gamma   136.48039770
_symmetry_Int_Tables_number   1
_chemical_formula_structural   NdMn12
_chemical_formula_sum   'Nd1 Mn12'
_cell_volume   165.38169948
_cell_formula_units_Z   1
loop_
 _symmetry_equiv_pos_site_id
 _symmetry_equiv_pos_as_xyz
  1  'x, y, z'
loop_
 _atom_site_type_symbol
 _atom_site_label
 _atom_site_symmetry_multiplicity
 _atom_site_fract_x
 _atom_site_fract_y
 _atom_site_fract_z
 _atom_site_occupancy
  Nd  Nd0  1  0.000000  0.000000  0.000000  1
  Mn  Mn1  1  0.500000  0.733130  0.233130  1
  Mn  Mn2  1  1.000000  0.500000  1.000000  1
  Mn  Mn3  1  1.000000  1.000000  0.500000  1
  Mn  Mn4  1  0.500000  0.500000  0.500000  1
  Mn  Mn5  1  0.500000  1.000000  1.000000  1
  Mn  Mn6  1  1.000000  0.366954  0.366954  1
  Mn  Mn7  1  0.633046  1.000000  0.633046  1
  Mn  Mn8  1  0.366954  1.000000  0.366954  1
  Mn  Mn9  1  1.000000  0.633046  0.633046  1
  Mn  Mn10  1  0.500000  0.266870  0.766870  1
  Mn  Mn11  1  0.733130  0.500000  0.233130  1
  Mn  Mn12  1  0.266870  0.500000  0.766870  1
