# generated using pymatgen
data_MnBPbO4
_symmetry_space_group_name_H-M   'P 1'
_cell_length_a   6.04432260
_cell_length_b   6.74912140
_cell_length_c   8.79952802
_cell_angle_alpha   90.00000000
_cell_angle_beta   90.00000000
_cell_angle_gamma   90.00000000
_symmetry_Int_Tables_number   1
_chemical_formula_structural   MnBPbO4
_chemical_formula_sum   'Mn4 B4 Pb4 O16'
_cell_volume   358.96677578
_cell_formula_units_Z   4
loop_
 _symmetry_equiv_pos_site_id
 _symmetry_equiv_pos_as_xyz
  1  'x, y, z'
loop_
 _atom_site_type_symbol
 _atom_site_label
 _atom_site_symmetry_multiplicity
 _atom_site_fract_x
 _atom_site_fract_y
 _atom_site_fract_z
 _atom_site_occupancy
  Mn  Mn0  1  0.000000  0.500000  0.500000  1
  Mn  Mn1  1  0.500000  0.000000  0.000000  1
  Mn  Mn2  1  0.500000  0.500000  0.500000  1
  Mn  Mn3  1  0.000000  0.000000  0.000000  1
  B  B4  1  0.250000  0.787874  0.259805  1
  B  B5  1  0.250000  0.287874  0.240195  1
  B  B6  1  0.750000  0.212126  0.740195  1
  B  B7  1  0.750000  0.712126  0.759805  1
  Pb  Pb8  1  0.250000  0.531300  0.850357  1
  Pb  Pb9  1  0.250000  0.031300  0.649643  1
  Pb  Pb10  1  0.750000  0.468700  0.149643  1
  Pb  Pb11  1  0.750000  0.968700  0.350357  1
  O  O12  1  0.250000  0.891188  0.896019  1
  O  O13  1  0.250000  0.391188  0.603981  1
  O  O14  1  0.750000  0.108812  0.103981  1
  O  O15  1  0.750000  0.608812  0.396019  1
  O  O16  1  0.250000  0.712961  0.405437  1
  O  O17  1  0.250000  0.212961  0.094563  1
  O  O18  1  0.750000  0.287039  0.594563  1
  O  O19  1  0.750000  0.787039  0.905437  1
  O  O20  1  0.048626  0.827085  0.186689  1
  O  O21  1  0.451374  0.327085  0.313311  1
  O  O22  1  0.548626  0.172915  0.813311  1
  O  O23  1  0.951374  0.672915  0.686689  1
  O  O24  1  0.951374  0.172915  0.813311  1
  O  O25  1  0.548626  0.672915  0.686689  1
  O  O26  1  0.451374  0.827085  0.186689  1
  O  O27  1  0.048626  0.327085  0.313311  1
