# generated using pymatgen
data_Sr(BiO2)2
_symmetry_space_group_name_H-M   'P 1'
_cell_length_a   10.36901365
_cell_length_b   10.36901365
_cell_length_c   6.43951828
_cell_angle_alpha   83.19007574
_cell_angle_beta   96.80992426
_cell_angle_gamma   155.58170148
_symmetry_Int_Tables_number   1
_chemical_formula_structural   Sr(BiO2)2
_chemical_formula_sum   'Sr2 Bi4 O8'
_cell_volume   284.10175415
_cell_formula_units_Z   2
loop_
 _symmetry_equiv_pos_site_id
 _symmetry_equiv_pos_as_xyz
  1  'x, y, z'
loop_
 _atom_site_type_symbol
 _atom_site_label
 _atom_site_symmetry_multiplicity
 _atom_site_fract_x
 _atom_site_fract_y
 _atom_site_fract_z
 _atom_site_occupancy
  Sr  Sr0  1  0.759032  0.240968  0.245868  1
  Sr  Sr1  1  0.240968  0.759032  0.754132  1
  Bi  Bi2  1  0.586149  0.413851  0.776587  1
  Bi  Bi3  1  0.413851  0.586149  0.223413  1
  Bi  Bi4  1  0.900795  0.099205  0.659470  1
  Bi  Bi5  1  0.099205  0.900795  0.340530  1
  O  O6  1  0.901700  0.098300  0.320029  1
  O  O7  1  0.098300  0.901700  0.679971  1
  O  O8  1  0.798999  0.201001  0.635696  1
  O  O9  1  0.201001  0.798999  0.364304  1
  O  O10  1  0.684725  0.315275  0.903320  1
  O  O11  1  0.315275  0.684725  0.096680  1
  O  O12  1  0.408807  0.591193  0.559419  1
  O  O13  1  0.591193  0.408807  0.440581  1
