# generated using pymatgen
data_Ca4(PPd)5
_symmetry_space_group_name_H-M   'P 1'
_cell_length_a   15.73042299
_cell_length_b   15.73042299
_cell_length_c   8.26349477
_cell_angle_alpha   90.00000000
_cell_angle_beta   90.00000000
_cell_angle_gamma   164.89491875
_symmetry_Int_Tables_number   1
_chemical_formula_structural   Ca4(PPd)5
_chemical_formula_sum   'Ca8 P10 Pd10'
_cell_volume   532.84699505
_cell_formula_units_Z   2
loop_
 _symmetry_equiv_pos_site_id
 _symmetry_equiv_pos_as_xyz
  1  'x, y, z'
loop_
 _atom_site_type_symbol
 _atom_site_label
 _atom_site_symmetry_multiplicity
 _atom_site_fract_x
 _atom_site_fract_y
 _atom_site_fract_z
 _atom_site_occupancy
  Ca  Ca0  1  0.193949  0.806051  0.505297  1
  Ca  Ca1  1  0.806051  0.193949  0.494703  1
  Ca  Ca2  1  0.806051  0.193949  0.005297  1
  Ca  Ca3  1  0.193949  0.806051  0.994703  1
  Ca  Ca4  1  0.420384  0.579616  0.001359  1
  Ca  Ca5  1  0.579616  0.420384  0.501359  1
  Ca  Ca6  1  0.579616  0.420384  0.998641  1
  Ca  Ca7  1  0.420384  0.579616  0.498641  1
  P  P8  1  0.729146  0.270854  0.250000  1
  P  P9  1  0.955546  0.044454  0.250000  1
  P  P10  1  0.954452  0.045548  0.750000  1
  P  P11  1  0.044454  0.955546  0.750000  1
  P  P12  1  0.045548  0.954452  0.250000  1
  P  P13  1  0.342254  0.657746  0.750000  1
  P  P14  1  0.657746  0.342254  0.250000  1
  P  P15  1  0.657207  0.342793  0.750000  1
  P  P16  1  0.270854  0.729146  0.750000  1
  P  P17  1  0.342793  0.657207  0.250000  1
  Pd  Pd18  1  0.265620  0.734380  0.250000  1
  Pd  Pd19  1  0.734380  0.265620  0.750000  1
  Pd  Pd20  1  0.000000  0.000000  0.500000  1
  Pd  Pd21  1  0.121183  0.878817  0.250000  1
  Pd  Pd22  1  0.878817  0.121183  0.750000  1
  Pd  Pd23  1  0.880407  0.119593  0.250000  1
  Pd  Pd24  1  0.119593  0.880407  0.750000  1
  Pd  Pd25  1  0.500131  0.499869  0.250000  1
  Pd  Pd26  1  0.499869  0.500131  0.750000  1
  Pd  Pd27  1  0.000000  0.000000  0.000000  1
