# generated using pymatgen
data_Ag(W3Br7)2
_symmetry_space_group_name_H-M   'P 1'
_cell_length_a   13.76100270
_cell_length_b   13.76100270
_cell_length_c   13.76100270
_cell_angle_alpha   90.00000000
_cell_angle_beta   90.00000000
_cell_angle_gamma   90.00000000
_symmetry_Int_Tables_number   1
_chemical_formula_structural   Ag(W3Br7)2
_chemical_formula_sum   'Ag4 W24 Br56'
_cell_volume   2605.85496394
_cell_formula_units_Z   4
loop_
 _symmetry_equiv_pos_site_id
 _symmetry_equiv_pos_as_xyz
  1  'x, y, z'
loop_
 _atom_site_type_symbol
 _atom_site_label
 _atom_site_symmetry_multiplicity
 _atom_site_fract_x
 _atom_site_fract_y
 _atom_site_fract_z
 _atom_site_occupancy
  Ag  Ag0  1  0.250000  0.750000  0.750000  1
  Ag  Ag1  1  0.750000  0.250000  0.750000  1
  Ag  Ag2  1  0.750000  0.750000  0.250000  1
  Ag  Ag3  1  0.250000  0.250000  0.250000  1
  W  W4  1  0.881717  0.727098  0.780838  1
  W  W5  1  0.780838  0.881717  0.727098  1
  W  W6  1  0.727098  0.780838  0.881717  1
  W  W7  1  0.272902  0.219162  0.881717  1
  W  W8  1  0.780838  0.118283  0.272902  1
  W  W9  1  0.272902  0.780838  0.118283  1
  W  W10  1  0.219162  0.118283  0.727098  1
  W  W11  1  0.219162  0.881717  0.272902  1
  W  W12  1  0.727098  0.219162  0.118283  1
  W  W13  1  0.881717  0.272902  0.219162  1
  W  W14  1  0.118283  0.727098  0.219162  1
  W  W15  1  0.118283  0.272902  0.780838  1
  W  W16  1  0.618283  0.772902  0.719162  1
  W  W17  1  0.719162  0.618283  0.772902  1
  W  W18  1  0.772902  0.719162  0.618283  1
  W  W19  1  0.227098  0.280838  0.618283  1
  W  W20  1  0.719162  0.381717  0.227098  1
  W  W21  1  0.227098  0.719162  0.381717  1
  W  W22  1  0.280838  0.381717  0.772902  1
  W  W23  1  0.280838  0.618283  0.227098  1
  W  W24  1  0.772902  0.280838  0.381717  1
  W  W25  1  0.618283  0.227098  0.280838  1
  W  W26  1  0.381717  0.772902  0.280838  1
  W  W27  1  0.381717  0.227098  0.719162  1
  Br  Br28  1  0.887368  0.887368  0.887368  1
  Br  Br29  1  0.112632  0.112632  0.887368  1
  Br  Br30  1  0.887368  0.112632  0.112632  1
  Br  Br31  1  0.112632  0.887368  0.112632  1
  Br  Br32  1  0.612632  0.612632  0.612632  1
  Br  Br33  1  0.387368  0.387368  0.612632  1
  Br  Br34  1  0.612632  0.387368  0.387368  1
  Br  Br35  1  0.387368  0.612632  0.387368  1
  Br  Br36  1  0.933283  0.824744  0.623200  1
  Br  Br37  1  0.623200  0.933283  0.824744  1
  Br  Br38  1  0.824744  0.623200  0.933283  1
  Br  Br39  1  0.175256  0.376800  0.933283  1
  Br  Br40  1  0.623200  0.066717  0.175256  1
  Br  Br41  1  0.175256  0.623200  0.066717  1
  Br  Br42  1  0.376800  0.066717  0.824744  1
  Br  Br43  1  0.376800  0.933283  0.175256  1
  Br  Br44  1  0.824744  0.376800  0.066717  1
  Br  Br45  1  0.933283  0.175256  0.376800  1
  Br  Br46  1  0.066717  0.824744  0.376800  1
  Br  Br47  1  0.066717  0.175256  0.623200  1
  Br  Br48  1  0.566717  0.675256  0.876800  1
  Br  Br49  1  0.876800  0.566717  0.675256  1
  Br  Br50  1  0.675256  0.876800  0.566717  1
  Br  Br51  1  0.324744  0.123200  0.566717  1
  Br  Br52  1  0.876800  0.433283  0.324744  1
  Br  Br53  1  0.324744  0.876800  0.433283  1
  Br  Br54  1  0.123200  0.433283  0.675256  1
  Br  Br55  1  0.123200  0.566717  0.324744  1
  Br  Br56  1  0.675256  0.123200  0.433283  1
  Br  Br57  1  0.566717  0.324744  0.123200  1
  Br  Br58  1  0.433283  0.675256  0.123200  1
  Br  Br59  1  0.433283  0.324744  0.876800  1
  Br  Br60  1  0.061897  0.692509  0.827890  1
  Br  Br61  1  0.827890  0.061897  0.692509  1
  Br  Br62  1  0.692509  0.827890  0.061897  1
  Br  Br63  1  0.307491  0.172110  0.061897  1
  Br  Br64  1  0.827890  0.938103  0.307491  1
  Br  Br65  1  0.307491  0.827890  0.938103  1
  Br  Br66  1  0.172110  0.938103  0.692509  1
  Br  Br67  1  0.172110  0.061897  0.307491  1
  Br  Br68  1  0.692509  0.172110  0.938103  1
  Br  Br69  1  0.061897  0.307491  0.172110  1
  Br  Br70  1  0.938103  0.692509  0.172110  1
  Br  Br71  1  0.938103  0.307491  0.827890  1
  Br  Br72  1  0.438103  0.807491  0.672110  1
  Br  Br73  1  0.672110  0.438103  0.807491  1
  Br  Br74  1  0.807491  0.672110  0.438103  1
  Br  Br75  1  0.192509  0.327890  0.438103  1
  Br  Br76  1  0.672110  0.561897  0.192509  1
  Br  Br77  1  0.192509  0.672110  0.561897  1
  Br  Br78  1  0.327890  0.561897  0.807491  1
  Br  Br79  1  0.327890  0.438103  0.192509  1
  Br  Br80  1  0.807491  0.327890  0.561897  1
  Br  Br81  1  0.438103  0.192509  0.327890  1
  Br  Br82  1  0.561897  0.807491  0.327890  1
  Br  Br83  1  0.561897  0.192509  0.672110  1
