# generated using pymatgen
data_Ba(GeP)2
_symmetry_space_group_name_H-M   'P 1'
_cell_length_a   7.72255208
_cell_length_b   7.72255208
_cell_length_c   8.61596661
_cell_angle_alpha   90.00000000
_cell_angle_beta   90.00000000
_cell_angle_gamma   90.00000000
_symmetry_Int_Tables_number   1
_chemical_formula_structural   Ba(GeP)2
_chemical_formula_sum   'Ba4 Ge8 P8'
_cell_volume   513.83738507
_cell_formula_units_Z   4
loop_
 _symmetry_equiv_pos_site_id
 _symmetry_equiv_pos_as_xyz
  1  'x, y, z'
loop_
 _atom_site_type_symbol
 _atom_site_label
 _atom_site_symmetry_multiplicity
 _atom_site_fract_x
 _atom_site_fract_y
 _atom_site_fract_z
 _atom_site_occupancy
  Ba  Ba0  1  0.000000  0.500000  0.527618  1
  Ba  Ba1  1  0.500000  0.000000  0.027618  1
  Ba  Ba2  1  0.000000  0.000000  0.496896  1
  Ba  Ba3  1  0.000000  0.000000  0.996896  1
  Ge  Ge4  1  0.500000  0.166959  0.615756  1
  Ge  Ge5  1  0.833041  0.500000  0.115756  1
  Ge  Ge6  1  0.166959  0.500000  0.115756  1
  Ge  Ge7  1  0.500000  0.833041  0.615756  1
  Ge  Ge8  1  0.500000  0.331555  0.365339  1
  Ge  Ge9  1  0.331555  0.500000  0.865339  1
  Ge  Ge10  1  0.668445  0.500000  0.865339  1
  Ge  Ge11  1  0.500000  0.668445  0.365339  1
  P  P12  1  0.248879  0.233746  0.756424  1
  P  P13  1  0.751121  0.766254  0.756424  1
  P  P14  1  0.233746  0.751121  0.256424  1
  P  P15  1  0.766254  0.248879  0.256424  1
  P  P16  1  0.751121  0.233746  0.756424  1
  P  P17  1  0.233746  0.248879  0.256424  1
  P  P18  1  0.766254  0.751121  0.256424  1
  P  P19  1  0.248879  0.766254  0.756424  1
