# generated using pymatgen
data_K4Bi2O5
_symmetry_space_group_name_H-M   'P 1'
_cell_length_a   5.82440141
_cell_length_b   9.74430322
_cell_length_c   9.95945699
_cell_angle_alpha   106.63049202
_cell_angle_beta   105.14348010
_cell_angle_gamma   106.71550528
_symmetry_Int_Tables_number   1
_chemical_formula_structural   K4Bi2O5
_chemical_formula_sum   'K8 Bi4 O10'
_cell_volume   480.99521692
_cell_formula_units_Z   2
loop_
 _symmetry_equiv_pos_site_id
 _symmetry_equiv_pos_as_xyz
  1  'x, y, z'
loop_
 _atom_site_type_symbol
 _atom_site_label
 _atom_site_symmetry_multiplicity
 _atom_site_fract_x
 _atom_site_fract_y
 _atom_site_fract_z
 _atom_site_occupancy
  K  K0  1  0.399961  0.991380  0.315164  1
  K  K1  1  0.600039  0.008620  0.684836  1
  K  K2  1  0.372111  0.621844  0.633658  1
  K  K3  1  0.627889  0.378156  0.366342  1
  K  K4  1  0.610113  0.702321  0.043541  1
  K  K5  1  0.389887  0.297679  0.956459  1
  K  K6  1  0.877495  0.785289  0.451381  1
  K  K7  1  0.122505  0.214711  0.548619  1
  Bi  Bi8  1  0.863142  0.456971  0.770029  1
  Bi  Bi9  1  0.136858  0.543029  0.229971  1
  Bi  Bi10  1  0.098685  0.884418  0.874103  1
  Bi  Bi11  1  0.901315  0.115582  0.125897  1
  O  O12  1  0.230654  0.458693  0.801550  1
  O  O13  1  0.769346  0.541307  0.198450  1
  O  O14  1  0.648259  0.248167  0.579670  1
  O  O15  1  0.351741  0.751833  0.420330  1
  O  O16  1  0.129011  0.006110  0.734781  1
  O  O17  1  0.870989  0.993890  0.265219  1
  O  O18  1  0.742818  0.885150  0.891203  1
  O  O19  1  0.257182  0.114850  0.108797  1
  O  O20  1  0.117798  0.372539  0.330423  1
  O  O21  1  0.882202  0.627461  0.669577  1
