# generated using pymatgen
data_K2Te2O5
_symmetry_space_group_name_H-M   'P 1'
_cell_length_a   5.61008058
_cell_length_b   15.48572187
_cell_length_c   7.91057870
_cell_angle_alpha   90.00000000
_cell_angle_beta   93.79883086
_cell_angle_gamma   90.00000000
_symmetry_Int_Tables_number   1
_chemical_formula_structural   K2Te2O5
_chemical_formula_sum   'K8 Te8 O20'
_cell_volume   685.73061185
_cell_formula_units_Z   4
loop_
 _symmetry_equiv_pos_site_id
 _symmetry_equiv_pos_as_xyz
  1  'x, y, z'
loop_
 _atom_site_type_symbol
 _atom_site_label
 _atom_site_symmetry_multiplicity
 _atom_site_fract_x
 _atom_site_fract_y
 _atom_site_fract_z
 _atom_site_occupancy
  K  K0  1  0.266136  0.432866  0.874272  1
  K  K1  1  0.233864  0.932866  0.125728  1
  K  K2  1  0.733864  0.567134  0.125728  1
  K  K3  1  0.766136  0.067134  0.874272  1
  K  K4  1  0.736689  0.319200  0.618324  1
  K  K5  1  0.763311  0.819200  0.381676  1
  K  K6  1  0.263311  0.680800  0.381676  1
  K  K7  1  0.236689  0.180800  0.618324  1
  Te  Te8  1  0.800427  0.315775  0.081922  1
  Te  Te9  1  0.699573  0.815775  0.918078  1
  Te  Te10  1  0.199573  0.684225  0.918078  1
  Te  Te11  1  0.300427  0.184225  0.081922  1
  Te  Te12  1  0.250919  0.433997  0.380467  1
  Te  Te13  1  0.249081  0.933997  0.619533  1
  Te  Te14  1  0.749081  0.566003  0.619533  1
  Te  Te15  1  0.750919  0.066003  0.380467  1
  O  O16  1  0.225763  0.353097  0.555164  1
  O  O17  1  0.274237  0.853097  0.444836  1
  O  O18  1  0.774237  0.646903  0.444836  1
  O  O19  1  0.725763  0.146903  0.555164  1
  O  O20  1  0.156377  0.361657  0.186586  1
  O  O21  1  0.343623  0.861657  0.813414  1
  O  O22  1  0.843623  0.638343  0.813414  1
  O  O23  1  0.656377  0.138343  0.186586  1
  O  O24  1  0.581880  0.433874  0.354617  1
  O  O25  1  0.918120  0.933874  0.645383  1
  O  O26  1  0.418120  0.566126  0.645383  1
  O  O27  1  0.081880  0.066126  0.354617  1
  O  O28  1  0.498898  0.256011  0.945278  1
  O  O29  1  0.001102  0.756011  0.054722  1
  O  O30  1  0.501102  0.743989  0.054722  1
  O  O31  1  0.998898  0.243989  0.945278  1
  O  O32  1  0.267313  0.091373  0.932702  1
  O  O33  1  0.232687  0.591373  0.067298  1
  O  O34  1  0.732687  0.908627  0.067298  1
  O  O35  1  0.767313  0.408627  0.932702  1
