# generated using pymatgen
data_CoO2
_symmetry_space_group_name_H-M   'P 1'
_cell_length_a   5.02854814
_cell_length_b   5.02854814
_cell_length_c   5.02854814
_cell_angle_alpha   32.79294637
_cell_angle_beta   32.79294637
_cell_angle_gamma   32.79294637
_symmetry_Int_Tables_number   1
_chemical_formula_structural   CoO2
_chemical_formula_sum   'Co1 O2'
_cell_volume   33.18145683
_cell_formula_units_Z   1
loop_
 _symmetry_equiv_pos_site_id
 _symmetry_equiv_pos_as_xyz
  1  'x, y, z'
loop_
 _atom_site_type_symbol
 _atom_site_label
 _atom_site_symmetry_multiplicity
 _atom_site_fract_x
 _atom_site_fract_y
 _atom_site_fract_z
 _atom_site_occupancy
  Co  Co0  1  0.000000  0.000000  0.000000  1
  O  O1  1  0.732645  0.732645  0.732645  1
  O  O2  1  0.267355  0.267355  0.267355  1
