# generated using pymatgen
data_CaH2
_symmetry_space_group_name_H-M   'P 1'
_cell_length_a   3.57168068
_cell_length_b   5.90137342
_cell_length_c   6.77097118
_cell_angle_alpha   90.00000000
_cell_angle_beta   90.00000000
_cell_angle_gamma   90.00000000
_symmetry_Int_Tables_number   1
_chemical_formula_structural   CaH2
_chemical_formula_sum   'Ca4 H8'
_cell_volume   142.71732144
_cell_formula_units_Z   4
loop_
 _symmetry_equiv_pos_site_id
 _symmetry_equiv_pos_as_xyz
  1  'x, y, z'
loop_
 _atom_site_type_symbol
 _atom_site_label
 _atom_site_symmetry_multiplicity
 _atom_site_fract_x
 _atom_site_fract_y
 _atom_site_fract_z
 _atom_site_occupancy
  Ca  Ca0  1  0.250000  0.239349  0.110301  1
  Ca  Ca1  1  0.750000  0.760651  0.889699  1
  Ca  Ca2  1  0.250000  0.739349  0.389699  1
  Ca  Ca3  1  0.750000  0.260651  0.610301  1
  H  H4  1  0.250000  0.974145  0.677073  1
  H  H5  1  0.750000  0.025855  0.322927  1
  H  H6  1  0.250000  0.474145  0.822927  1
  H  H7  1  0.750000  0.525855  0.177073  1
  H  H8  1  0.750000  0.144407  0.927543  1
  H  H9  1  0.250000  0.855593  0.072457  1
  H  H10  1  0.750000  0.644407  0.572457  1
  H  H11  1  0.250000  0.355593  0.427543  1
