# generated using pymatgen
data_Sc2V3Ge4
_symmetry_space_group_name_H-M   'P 1'
_cell_length_a   6.63748915
_cell_length_b   6.78622200
_cell_length_c   12.79527621
_cell_angle_alpha   90.00000000
_cell_angle_beta   90.00000000
_cell_angle_gamma   90.00000000
_symmetry_Int_Tables_number   1
_chemical_formula_structural   Sc2V3Ge4
_chemical_formula_sum   'Sc8 V12 Ge16'
_cell_volume   576.34370273
_cell_formula_units_Z   4
loop_
 _symmetry_equiv_pos_site_id
 _symmetry_equiv_pos_as_xyz
  1  'x, y, z'
loop_
 _atom_site_type_symbol
 _atom_site_label
 _atom_site_symmetry_multiplicity
 _atom_site_fract_x
 _atom_site_fract_y
 _atom_site_fract_z
 _atom_site_occupancy
  Sc  Sc0  1  0.009115  0.174294  0.093163  1
  Sc  Sc1  1  0.509115  0.325706  0.406837  1
  Sc  Sc2  1  0.490885  0.674294  0.906837  1
  Sc  Sc3  1  0.990885  0.825706  0.593163  1
  Sc  Sc4  1  0.990885  0.825706  0.906837  1
  Sc  Sc5  1  0.490885  0.674294  0.593163  1
  Sc  Sc6  1  0.509115  0.325706  0.093163  1
  Sc  Sc7  1  0.009115  0.174294  0.406837  1
  V  V8  1  0.664443  0.985137  0.250000  1
  V  V9  1  0.164443  0.514863  0.250000  1
  V  V10  1  0.835557  0.485137  0.750000  1
  V  V11  1  0.335557  0.014863  0.750000  1
  V  V12  1  0.840818  0.666109  0.127492  1
  V  V13  1  0.340818  0.833891  0.372508  1
  V  V14  1  0.659182  0.166109  0.872508  1
  V  V15  1  0.159182  0.333891  0.627492  1
  V  V16  1  0.159182  0.333891  0.872508  1
  V  V17  1  0.659182  0.166109  0.627492  1
  V  V18  1  0.340818  0.833891  0.127492  1
  V  V19  1  0.840818  0.666109  0.372508  1
  Ge  Ge20  1  0.810544  0.354403  0.250000  1
  Ge  Ge21  1  0.310544  0.145597  0.250000  1
  Ge  Ge22  1  0.689456  0.854403  0.750000  1
  Ge  Ge23  1  0.189456  0.645597  0.750000  1
  Ge  Ge24  1  0.036391  0.877760  0.250000  1
  Ge  Ge25  1  0.536391  0.622240  0.250000  1
  Ge  Ge26  1  0.463609  0.377760  0.750000  1
  Ge  Ge27  1  0.963609  0.122240  0.750000  1
  Ge  Ge28  1  0.822189  0.458230  0.957273  1
  Ge  Ge29  1  0.322189  0.041770  0.542727  1
  Ge  Ge30  1  0.677811  0.958230  0.042727  1
  Ge  Ge31  1  0.177811  0.541770  0.457273  1
  Ge  Ge32  1  0.177811  0.541770  0.042727  1
  Ge  Ge33  1  0.677811  0.958230  0.457273  1
  Ge  Ge34  1  0.322189  0.041770  0.957273  1
  Ge  Ge35  1  0.822189  0.458230  0.542727  1
