# generated using pymatgen
data_Cs2HgI4
_symmetry_space_group_name_H-M   'P 1'
_cell_length_a   8.14143230
_cell_length_b   8.61498588
_cell_length_c   11.28658533
_cell_angle_alpha   90.00000000
_cell_angle_beta   110.03713082
_cell_angle_gamma   90.00000000
_symmetry_Int_Tables_number   1
_chemical_formula_structural   Cs2HgI4
_chemical_formula_sum   'Cs4 Hg2 I8'
_cell_volume   743.70590497
_cell_formula_units_Z   2
loop_
 _symmetry_equiv_pos_site_id
 _symmetry_equiv_pos_as_xyz
  1  'x, y, z'
loop_
 _atom_site_type_symbol
 _atom_site_label
 _atom_site_symmetry_multiplicity
 _atom_site_fract_x
 _atom_site_fract_y
 _atom_site_fract_z
 _atom_site_occupancy
  Cs  Cs0  1  0.802275  0.750000  0.465108  1
  Cs  Cs1  1  0.299792  0.250000  0.090303  1
  Cs  Cs2  1  0.197725  0.250000  0.534892  1
  Cs  Cs3  1  0.700208  0.750000  0.909697  1
  Hg  Hg4  1  0.184858  0.750000  0.276522  1
  Hg  Hg5  1  0.815142  0.250000  0.723478  1
  I  I6  1  0.039515  0.986331  0.785166  1
  I  I7  1  0.424703  0.750000  0.144798  1
  I  I8  1  0.643924  0.250000  0.453451  1
  I  I9  1  0.356076  0.750000  0.546549  1
  I  I10  1  0.039515  0.513669  0.785166  1
  I  I11  1  0.575297  0.250000  0.855202  1
  I  I12  1  0.960485  0.486331  0.214834  1
  I  I13  1  0.960485  0.013669  0.214834  1
