# generated using pymatgen
data_Ba3Te4O11
_symmetry_space_group_name_H-M   'P 1'
_cell_length_a   8.15054849
_cell_length_b   9.61008759
_cell_length_c   10.25161261
_cell_angle_alpha   97.97682586
_cell_angle_beta   111.40976454
_cell_angle_gamma   102.67517310
_symmetry_Int_Tables_number   1
_chemical_formula_structural   Ba3Te4O11
_chemical_formula_sum   'Ba6 Te8 O22'
_cell_volume   707.86222422
_cell_formula_units_Z   2
loop_
 _symmetry_equiv_pos_site_id
 _symmetry_equiv_pos_as_xyz
  1  'x, y, z'
loop_
 _atom_site_type_symbol
 _atom_site_label
 _atom_site_symmetry_multiplicity
 _atom_site_fract_x
 _atom_site_fract_y
 _atom_site_fract_z
 _atom_site_occupancy
  Ba  Ba0  1  0.310763  0.015462  0.114633  1
  Ba  Ba1  1  0.689237  0.984538  0.885367  1
  Ba  Ba2  1  0.144591  0.407109  0.177685  1
  Ba  Ba3  1  0.855409  0.592891  0.822315  1
  Ba  Ba4  1  0.719156  0.457966  0.370330  1
  Ba  Ba5  1  0.280844  0.542034  0.629670  1
  Te  Te6  1  0.440756  0.195944  0.537590  1
  Te  Te7  1  0.559244  0.804056  0.462410  1
  Te  Te8  1  0.946129  0.243350  0.718795  1
  Te  Te9  1  0.053871  0.756650  0.281205  1
  Te  Te10  1  0.465126  0.306009  0.941153  1
  Te  Te11  1  0.534874  0.693991  0.058847  1
  Te  Te12  1  0.074061  0.879230  0.704527  1
  Te  Te13  1  0.925939  0.120770  0.295473  1
  O  O14  1  0.849759  0.725683  0.584845  1
  O  O15  1  0.150241  0.274317  0.415155  1
  O  O16  1  0.202524  0.757596  0.802065  1
  O  O17  1  0.797476  0.242404  0.197935  1
  O  O18  1  0.996021  0.943632  0.849325  1
  O  O19  1  0.003979  0.056368  0.150675  1
  O  O20  1  0.600586  0.687639  0.900142  1
  O  O21  1  0.399414  0.312361  0.099858  1
  O  O22  1  0.596489  0.899806  0.123656  1
  O  O23  1  0.403511  0.100194  0.876344  1
  O  O24  1  0.741118  0.647967  0.188991  1
  O  O25  1  0.258882  0.352033  0.811009  1
  O  O26  1  0.068417  0.598821  0.371080  1
  O  O27  1  0.931583  0.401179  0.628920  1
  O  O28  1  0.482113  0.213482  0.372202  1
  O  O29  1  0.517887  0.786518  0.627798  1
  O  O30  1  0.535943  0.393428  0.643414  1
  O  O31  1  0.464057  0.606572  0.356586  1
  O  O32  1  0.667280  0.134421  0.638179  1
  O  O33  1  0.332720  0.865579  0.361821  1
  O  O34  1  0.938784  0.327030  0.892896  1
  O  O35  1  0.061216  0.672970  0.107104  1
