# generated using pymatgen
data_NaNdMnWO6
_symmetry_space_group_name_H-M   'P 1'
_cell_length_a   5.58463785
_cell_length_b   5.70578137
_cell_length_c   8.07138902
_cell_angle_alpha   90.00000000
_cell_angle_beta   90.09755097
_cell_angle_gamma   90.00000000
_symmetry_Int_Tables_number   1
_chemical_formula_structural   NaNdMnWO6
_chemical_formula_sum   'Na2 Nd2 Mn2 W2 O12'
_cell_volume   257.19219954
_cell_formula_units_Z   2
loop_
 _symmetry_equiv_pos_site_id
 _symmetry_equiv_pos_as_xyz
  1  'x, y, z'
loop_
 _atom_site_type_symbol
 _atom_site_label
 _atom_site_symmetry_multiplicity
 _atom_site_fract_x
 _atom_site_fract_y
 _atom_site_fract_z
 _atom_site_occupancy
  Na  Na0  1  0.251543  0.783980  0.999181  1
  Na  Na1  1  0.748457  0.283980  0.000819  1
  Nd  Nd2  1  0.238517  0.705522  0.499235  1
  Nd  Nd3  1  0.761483  0.205522  0.500765  1
  Mn  Mn4  1  0.748899  0.752434  0.761108  1
  Mn  Mn5  1  0.251101  0.252434  0.238892  1
  W  W6  1  0.742953  0.760048  0.240816  1
  W  W7  1  0.257047  0.260048  0.759184  1
  O  O8  1  0.167264  0.228393  0.981088  1
  O  O9  1  0.832736  0.728393  0.018912  1
  O  O10  1  0.345343  0.289060  0.508267  1
  O  O11  1  0.654657  0.789060  0.491733  1
  O  O12  1  0.420580  0.555871  0.782520  1
  O  O13  1  0.579420  0.055871  0.217480  1
  O  O14  1  0.454851  0.583218  0.223455  1
  O  O15  1  0.545149  0.083218  0.776545  1
  O  O16  1  0.943702  0.490149  0.312922  1
  O  O17  1  0.056298  0.990149  0.687078  1
  O  O18  1  0.024697  0.958725  0.311794  1
  O  O19  1  0.975303  0.458725  0.688206  1
