# generated using pymatgen
data_S2O5F2
_symmetry_space_group_name_H-M   'P 1'
_cell_length_a   7.80173735
_cell_length_b   7.80173735
_cell_length_c   9.67423012
_cell_angle_alpha   90.00000000
_cell_angle_beta   90.00000000
_cell_angle_gamma   90.00000000
_symmetry_Int_Tables_number   1
_chemical_formula_structural   S2O5F2
_chemical_formula_sum   'S8 O20 F8'
_cell_volume   588.84238707
_cell_formula_units_Z   4
loop_
 _symmetry_equiv_pos_site_id
 _symmetry_equiv_pos_as_xyz
  1  'x, y, z'
loop_
 _atom_site_type_symbol
 _atom_site_label
 _atom_site_symmetry_multiplicity
 _atom_site_fract_x
 _atom_site_fract_y
 _atom_site_fract_z
 _atom_site_occupancy
  S  S0  1  0.829950  0.576281  0.636102  1
  S  S1  1  0.170050  0.423719  0.636102  1
  S  S2  1  0.076281  0.329950  0.136102  1
  S  S3  1  0.423719  0.829950  0.363898  1
  S  S4  1  0.576281  0.170050  0.363898  1
  S  S5  1  0.329950  0.923719  0.863898  1
  S  S6  1  0.670050  0.076281  0.863898  1
  S  S7  1  0.923719  0.670050  0.136102  1
  O  O8  1  0.205176  0.521484  0.515796  1
  O  O9  1  0.287703  0.390337  0.744211  1
  O  O10  1  0.109663  0.212297  0.244211  1
  O  O11  1  0.390337  0.712297  0.255789  1
  O  O12  1  0.609663  0.287703  0.255789  1
  O  O13  1  0.212297  0.890337  0.755789  1
  O  O14  1  0.787703  0.109663  0.755789  1
  O  O15  1  0.890337  0.787703  0.244211  1
  O  O16  1  0.000000  0.500000  0.216234  1
  O  O17  1  0.500000  0.000000  0.783766  1
  O  O18  1  0.500000  0.000000  0.283766  1
  O  O19  1  0.000000  0.500000  0.716234  1
  O  O20  1  0.021484  0.705176  0.015796  1
  O  O21  1  0.794824  0.478516  0.515796  1
  O  O22  1  0.294824  0.021484  0.984204  1
  O  O23  1  0.478516  0.205176  0.484204  1
  O  O24  1  0.521484  0.794824  0.484204  1
  O  O25  1  0.978516  0.294824  0.015796  1
  O  O26  1  0.705176  0.978516  0.984204  1
  O  O27  1  0.712297  0.609663  0.744211  1
  F  F28  1  0.747694  0.591785  0.088284  1
  F  F29  1  0.591785  0.252306  0.911716  1
  F  F30  1  0.408215  0.747694  0.911716  1
  F  F31  1  0.752306  0.091785  0.411716  1
  F  F32  1  0.247694  0.908215  0.411716  1
  F  F33  1  0.252306  0.408215  0.088284  1
  F  F34  1  0.091785  0.247694  0.588284  1
  F  F35  1  0.908215  0.752306  0.588284  1
