# generated using pymatgen
data_BIrPd
_symmetry_space_group_name_H-M   'P 1'
_cell_length_a   6.77245466
_cell_length_b   6.12248769
_cell_length_c   5.55093157
_cell_angle_alpha   70.73022625
_cell_angle_beta   58.58120735
_cell_angle_gamma   50.68856640
_symmetry_Int_Tables_number   1
_chemical_formula_structural   BIrPd
_chemical_formula_sum   'B4 Ir4 Pd4'
_cell_volume   151.97165956
_cell_formula_units_Z   4
loop_
 _symmetry_equiv_pos_site_id
 _symmetry_equiv_pos_as_xyz
  1  'x, y, z'
loop_
 _atom_site_type_symbol
 _atom_site_label
 _atom_site_symmetry_multiplicity
 _atom_site_fract_x
 _atom_site_fract_y
 _atom_site_fract_z
 _atom_site_occupancy
  B  B0  1  0.053945  0.976582  0.564694  1
  B  B1  1  0.685306  0.845221  0.196055  1
  B  B2  1  0.404779  0.564694  0.976582  1
  B  B3  1  0.273418  0.196055  0.845221  1
  Ir  Ir4  1  0.102891  0.632372  0.869556  1
  Ir  Ir5  1  0.380444  0.854819  0.147109  1
  Ir  Ir6  1  0.617628  0.147109  0.854819  1
  Ir  Ir7  1  0.395181  0.869556  0.632372  1
  Pd  Pd8  1  0.939343  0.791618  0.387577  1
  Pd  Pd9  1  0.458382  0.310657  0.368539  1
  Pd  Pd10  1  0.862423  0.368539  0.310657  1
  Pd  Pd11  1  0.881461  0.387577  0.791618  1
