# generated using pymatgen
data_Nd2(WO4)3
_symmetry_space_group_name_H-M   'P 1'
_cell_length_a   7.10546044
_cell_length_b   7.10546044
_cell_length_c   11.70481005
_cell_angle_alpha   79.23239569
_cell_angle_beta   100.76760431
_cell_angle_gamma   68.07412855
_symmetry_Int_Tables_number   1
_chemical_formula_structural   Nd2(WO4)3
_chemical_formula_sum   'Nd4 W6 O24'
_cell_volume   516.76411795
_cell_formula_units_Z   2
loop_
 _symmetry_equiv_pos_site_id
 _symmetry_equiv_pos_as_xyz
  1  'x, y, z'
loop_
 _atom_site_type_symbol
 _atom_site_label
 _atom_site_symmetry_multiplicity
 _atom_site_fract_x
 _atom_site_fract_y
 _atom_site_fract_z
 _atom_site_occupancy
  Nd  Nd0  1  0.540521  0.212859  0.594192  1
  Nd  Nd1  1  0.212859  0.540521  0.905808  1
  Nd  Nd2  1  0.459479  0.787141  0.405808  1
  Nd  Nd3  1  0.787141  0.459479  0.094192  1
  W  W4  1  0.960547  0.247592  0.452968  1
  W  W5  1  0.247592  0.960547  0.047032  1
  W  W6  1  0.752408  0.039453  0.952968  1
  W  W7  1  0.039453  0.752408  0.547032  1
  W  W8  1  0.365864  0.365864  0.250000  1
  W  W9  1  0.634136  0.634136  0.750000  1
  O  O10  1  0.897177  0.027808  0.572027  1
  O  O11  1  0.027808  0.897177  0.927973  1
  O  O12  1  0.102823  0.972192  0.427973  1
  O  O13  1  0.972192  0.102823  0.072027  1
  O  O14  1  0.161681  0.268745  0.559567  1
  O  O15  1  0.268745  0.161681  0.940433  1
  O  O16  1  0.838319  0.731255  0.440433  1
  O  O17  1  0.731255  0.838319  0.059567  1
  O  O18  1  0.043707  0.609868  0.695640  1
  O  O19  1  0.609868  0.043707  0.804360  1
  O  O20  1  0.419224  0.161072  0.390350  1
  O  O21  1  0.161072  0.419224  0.109650  1
  O  O22  1  0.580776  0.838928  0.609650  1
  O  O23  1  0.838928  0.580776  0.890350  1
  O  O24  1  0.688779  0.413941  0.460878  1
  O  O25  1  0.413941  0.688779  0.039122  1
  O  O26  1  0.311221  0.586059  0.539122  1
  O  O27  1  0.586059  0.311221  0.960878  1
  O  O28  1  0.294100  0.616799  0.282270  1
  O  O29  1  0.616799  0.294100  0.217730  1
  O  O30  1  0.705900  0.383201  0.717730  1
  O  O31  1  0.383201  0.705900  0.782270  1
  O  O32  1  0.390132  0.956293  0.195640  1
  O  O33  1  0.956293  0.390132  0.304360  1
