# generated using pymatgen
data_Zr4Co4Ge7
_symmetry_space_group_name_H-M   'P 1'
_cell_length_a   9.75387750
_cell_length_b   9.75387750
_cell_length_c   9.75387750
_cell_angle_alpha   94.15463995
_cell_angle_beta   94.15463995
_cell_angle_gamma   148.77108953
_symmetry_Int_Tables_number   1
_chemical_formula_structural   Zr4Co4Ge7
_chemical_formula_sum   'Zr8 Co8 Ge14'
_cell_volume   463.35613407
_cell_formula_units_Z   2
loop_
 _symmetry_equiv_pos_site_id
 _symmetry_equiv_pos_as_xyz
  1  'x, y, z'
loop_
 _atom_site_type_symbol
 _atom_site_label
 _atom_site_symmetry_multiplicity
 _atom_site_fract_x
 _atom_site_fract_y
 _atom_site_fract_z
 _atom_site_occupancy
  Zr  Zr0  1  0.861274  0.138726  0.000000  1
  Zr  Zr1  1  0.861274  0.861274  0.722547  1
  Zr  Zr2  1  0.138726  0.138726  0.277453  1
  Zr  Zr3  1  0.138726  0.861274  0.000000  1
  Zr  Zr4  1  0.500000  0.695651  0.195651  1
  Zr  Zr5  1  0.304349  0.500000  0.804349  1
  Zr  Zr6  1  0.695651  0.500000  0.195651  1
  Zr  Zr7  1  0.500000  0.304349  0.804349  1
  Co  Co8  1  0.601694  0.398306  0.500000  1
  Co  Co9  1  0.101694  0.601694  0.203388  1
  Co  Co10  1  0.398306  0.898306  0.796612  1
  Co  Co11  1  0.898306  0.101694  0.500000  1
  Co  Co12  1  0.398306  0.601694  0.500000  1
  Co  Co13  1  0.898306  0.398306  0.796612  1
  Co  Co14  1  0.601694  0.101694  0.203388  1
  Co  Co15  1  0.101694  0.898306  0.500000  1
  Ge  Ge16  1  0.707980  0.292020  0.000000  1
  Ge  Ge17  1  0.707980  0.707980  0.415959  1
  Ge  Ge18  1  0.292020  0.292020  0.584041  1
  Ge  Ge19  1  0.292020  0.707980  0.000000  1
  Ge  Ge20  1  1.000000  0.293324  0.293324  1
  Ge  Ge21  1  0.706676  1.000000  0.706676  1
  Ge  Ge22  1  0.293324  1.000000  0.293324  1
  Ge  Ge23  1  1.000000  0.706676  0.706676  1
  Ge  Ge24  1  0.500000  0.906065  0.406065  1
  Ge  Ge25  1  0.093935  0.500000  0.593935  1
  Ge  Ge26  1  0.906065  0.500000  0.406065  1
  Ge  Ge27  1  0.500000  0.093935  0.593935  1
  Ge  Ge28  1  0.249302  0.249302  0.000000  1
  Ge  Ge29  1  0.750698  0.750698  0.000000  1
