# generated using pymatgen
data_YH3
_symmetry_space_group_name_H-M   'P 1'
_cell_length_a   6.34359129
_cell_length_b   6.34359129
_cell_length_c   6.61458540
_cell_angle_alpha   90.00000000
_cell_angle_beta   90.00000000
_cell_angle_gamma   120.00000000
_symmetry_Int_Tables_number   1
_chemical_formula_structural   YH3
_chemical_formula_sum   'Y6 H18'
_cell_volume   230.51736584
_cell_formula_units_Z   6
loop_
 _symmetry_equiv_pos_site_id
 _symmetry_equiv_pos_as_xyz
  1  'x, y, z'
loop_
 _atom_site_type_symbol
 _atom_site_label
 _atom_site_symmetry_multiplicity
 _atom_site_fract_x
 _atom_site_fract_y
 _atom_site_fract_z
 _atom_site_occupancy
  Y  Y0  1  0.663129  0.663129  0.750000  1
  Y  Y1  1  0.000000  0.336871  0.750000  1
  Y  Y2  1  0.336871  0.000000  0.750000  1
  Y  Y3  1  0.336871  0.336871  0.250000  1
  Y  Y4  1  0.000000  0.663129  0.250000  1
  Y  Y5  1  0.663129  0.000000  0.250000  1
  H  H6  1  0.333333  0.666667  0.685385  1
  H  H7  1  0.666667  0.333333  0.814615  1
  H  H8  1  0.666667  0.333333  0.314615  1
  H  H9  1  0.333333  0.666667  0.185385  1
  H  H10  1  0.000000  0.000000  0.750000  1
  H  H11  1  0.000000  0.000000  0.250000  1
  H  H12  1  0.350325  0.028811  0.092058  1
  H  H13  1  0.971189  0.321514  0.092058  1
  H  H14  1  0.678486  0.649675  0.092058  1
  H  H15  1  0.321514  0.971189  0.407942  1
  H  H16  1  0.649675  0.678486  0.407942  1
  H  H17  1  0.028811  0.350325  0.407942  1
  H  H18  1  0.649675  0.971189  0.907942  1
  H  H19  1  0.028811  0.678486  0.907942  1
  H  H20  1  0.321514  0.350325  0.907942  1
  H  H21  1  0.678486  0.028811  0.592058  1
  H  H22  1  0.350325  0.321514  0.592058  1
  H  H23  1  0.971189  0.649675  0.592058  1
