# generated using pymatgen
data_Lu(BRh)4
_symmetry_space_group_name_H-M   'P 1'
_cell_length_a   11.80546724
_cell_length_b   11.80546724
_cell_length_c   7.51270966
_cell_angle_alpha   90.00000000
_cell_angle_beta   90.00000000
_cell_angle_gamma   142.92077879
_symmetry_Int_Tables_number   1
_chemical_formula_structural   Lu(BRh)4
_chemical_formula_sum   'Lu6 B24 Rh24'
_cell_volume   631.27954646
_cell_formula_units_Z   6
loop_
 _symmetry_equiv_pos_site_id
 _symmetry_equiv_pos_as_xyz
  1  'x, y, z'
loop_
 _atom_site_type_symbol
 _atom_site_label
 _atom_site_symmetry_multiplicity
 _atom_site_fract_x
 _atom_site_fract_y
 _atom_site_fract_z
 _atom_site_occupancy
  Lu  Lu0  1  0.000000  0.000000  0.500000  1
  Lu  Lu1  1  0.500000  0.500000  1.000000  1
  Lu  Lu2  1  0.333168  0.666832  0.500000  1
  Lu  Lu3  1  0.666832  0.333168  0.500000  1
  Lu  Lu4  1  0.166832  0.833168  0.000000  1
  Lu  Lu5  1  0.833168  0.166832  0.000000  1
  B  B6  1  0.302084  0.408978  0.334258  1
  B  B7  1  0.408978  0.302084  0.665742  1
  B  B8  1  0.697916  0.591022  0.334258  1
  B  B9  1  0.591022  0.697916  0.665742  1
  B  B10  1  0.197916  0.091022  0.165742  1
  B  B11  1  0.091022  0.197916  0.834258  1
  B  B12  1  0.391048  0.947933  0.636329  1
  B  B13  1  0.947933  0.391048  0.363671  1
  B  B14  1  0.608952  0.052067  0.636329  1
  B  B15  1  0.052067  0.608952  0.363671  1
  B  B16  1  0.108952  0.552067  0.863671  1
  B  B17  1  0.552067  0.108952  0.136329  1
  B  B18  1  0.891048  0.447933  0.863671  1
  B  B19  1  0.447933  0.891048  0.136329  1
  B  B20  1  0.247401  0.026567  0.328028  1
  B  B21  1  0.026567  0.247401  0.671972  1
  B  B22  1  0.752599  0.973433  0.328028  1
  B  B23  1  0.973433  0.752599  0.671972  1
  B  B24  1  0.252599  0.473433  0.171972  1
  B  B25  1  0.473433  0.252599  0.828028  1
  B  B26  1  0.747401  0.526567  0.171972  1
  B  B27  1  0.526567  0.747401  0.828028  1
  B  B28  1  0.802084  0.908978  0.165742  1
  B  B29  1  0.908978  0.802084  0.834258  1
  Rh  Rh30  1  0.192258  0.106434  0.875989  1
  Rh  Rh31  1  0.106434  0.192258  0.124011  1
  Rh  Rh32  1  0.692258  0.606434  0.624011  1
  Rh  Rh33  1  0.606434  0.692258  0.375989  1
  Rh  Rh34  1  0.307742  0.393566  0.624011  1
  Rh  Rh35  1  0.393566  0.307742  0.375989  1
  Rh  Rh36  1  0.279633  0.028565  0.614352  1
  Rh  Rh37  1  0.028565  0.279633  0.385648  1
  Rh  Rh38  1  0.720367  0.971435  0.614352  1
  Rh  Rh39  1  0.971435  0.720367  0.385648  1
  Rh  Rh40  1  0.220367  0.471435  0.885648  1
  Rh  Rh41  1  0.471435  0.220367  0.114352  1
  Rh  Rh42  1  0.779633  0.528565  0.885648  1
  Rh  Rh43  1  0.528565  0.779633  0.114352  1
  Rh  Rh44  1  0.324916  0.907511  0.344051  1
  Rh  Rh45  1  0.907511  0.324916  0.655949  1
  Rh  Rh46  1  0.675084  0.092489  0.344051  1
  Rh  Rh47  1  0.092489  0.675084  0.655949  1
  Rh  Rh48  1  0.175084  0.592489  0.155949  1
  Rh  Rh49  1  0.592489  0.175084  0.844051  1
  Rh  Rh50  1  0.824916  0.407511  0.155949  1
  Rh  Rh51  1  0.407511  0.824916  0.844051  1
  Rh  Rh52  1  0.893566  0.807742  0.124011  1
  Rh  Rh53  1  0.807742  0.893566  0.875989  1
