# generated using pymatgen
data_Ba3Al5
_symmetry_space_group_name_H-M   'P 1'
_cell_length_a   6.07890004
_cell_length_b   6.07890004
_cell_length_c   14.76753442
_cell_angle_alpha   90.00000000
_cell_angle_beta   90.00000000
_cell_angle_gamma   120.00000000
_symmetry_Int_Tables_number   1
_chemical_formula_structural   Ba3Al5
_chemical_formula_sum   'Ba6 Al10'
_cell_volume   472.59446118
_cell_formula_units_Z   2
loop_
 _symmetry_equiv_pos_site_id
 _symmetry_equiv_pos_as_xyz
  1  'x, y, z'
loop_
 _atom_site_type_symbol
 _atom_site_label
 _atom_site_symmetry_multiplicity
 _atom_site_fract_x
 _atom_site_fract_y
 _atom_site_fract_z
 _atom_site_occupancy
  Ba  Ba0  1  0.000000  0.000000  0.500000  1
  Ba  Ba1  1  0.000000  0.000000  0.000000  1
  Ba  Ba2  1  0.333333  0.666667  0.874480  1
  Ba  Ba3  1  0.666667  0.333333  0.374480  1
  Ba  Ba4  1  0.666667  0.333333  0.125520  1
  Ba  Ba5  1  0.333333  0.666667  0.625520  1
  Al  Al6  1  0.845523  0.691045  0.750000  1
  Al  Al7  1  0.154477  0.845523  0.250000  1
  Al  Al8  1  0.691045  0.845523  0.250000  1
  Al  Al9  1  0.308955  0.154477  0.750000  1
  Al  Al10  1  0.845523  0.154477  0.750000  1
  Al  Al11  1  0.154477  0.308955  0.250000  1
  Al  Al12  1  0.333333  0.666667  0.115676  1
  Al  Al13  1  0.666667  0.333333  0.615676  1
  Al  Al14  1  0.666667  0.333333  0.884324  1
  Al  Al15  1  0.333333  0.666667  0.384324  1
