# generated using pymatgen
data_NaTeF5
_symmetry_space_group_name_H-M   'P 1'
_cell_length_a   6.04090205
_cell_length_b   7.40470827
_cell_length_c   10.39531549
_cell_angle_alpha   90.00000000
_cell_angle_beta   90.00000000
_cell_angle_gamma   90.00000000
_symmetry_Int_Tables_number   1
_chemical_formula_structural   NaTeF5
_chemical_formula_sum   'Na4 Te4 F20'
_cell_volume   464.99407726
_cell_formula_units_Z   4
loop_
 _symmetry_equiv_pos_site_id
 _symmetry_equiv_pos_as_xyz
  1  'x, y, z'
loop_
 _atom_site_type_symbol
 _atom_site_label
 _atom_site_symmetry_multiplicity
 _atom_site_fract_x
 _atom_site_fract_y
 _atom_site_fract_z
 _atom_site_occupancy
  Na  Na0  1  0.250000  0.315823  0.995497  1
  Na  Na1  1  0.750000  0.684177  0.004503  1
  Na  Na2  1  0.750000  0.815823  0.504503  1
  Na  Na3  1  0.250000  0.184177  0.495497  1
  Te  Te4  1  0.250000  0.849229  0.765124  1
  Te  Te5  1  0.750000  0.150771  0.234876  1
  Te  Te6  1  0.750000  0.349229  0.734876  1
  Te  Te7  1  0.250000  0.650771  0.265124  1
  F  F8  1  0.018897  0.848308  0.900517  1
  F  F9  1  0.025245  0.943158  0.636078  1
  F  F10  1  0.474755  0.556842  0.136078  1
  F  F11  1  0.974755  0.443158  0.863922  1
  F  F12  1  0.250000  0.398123  0.308056  1
  F  F13  1  0.750000  0.601877  0.691944  1
  F  F14  1  0.750000  0.898123  0.191944  1
  F  F15  1  0.250000  0.101877  0.808056  1
  F  F16  1  0.018897  0.651692  0.400517  1
  F  F17  1  0.518897  0.348308  0.599483  1
  F  F18  1  0.981103  0.151692  0.099483  1
  F  F19  1  0.474755  0.943158  0.636078  1
  F  F20  1  0.981103  0.348308  0.599483  1
  F  F21  1  0.481103  0.651692  0.400517  1
  F  F22  1  0.481103  0.848308  0.900517  1
  F  F23  1  0.518897  0.151692  0.099483  1
  F  F24  1  0.025245  0.556842  0.136078  1
  F  F25  1  0.525245  0.443158  0.863922  1
  F  F26  1  0.974755  0.056842  0.363922  1
  F  F27  1  0.525245  0.056842  0.363922  1
