# generated using pymatgen
data_MoO2
_symmetry_space_group_name_H-M   'P 1'
_cell_length_a   5.09519938
_cell_length_b   5.09519938
_cell_length_c   5.09519938
_cell_angle_alpha   36.57036336
_cell_angle_beta   36.57036336
_cell_angle_gamma   36.57036336
_symmetry_Int_Tables_number   1
_chemical_formula_structural   MoO2
_chemical_formula_sum   'Mo1 O2'
_cell_volume   42.04173075
_cell_formula_units_Z   1
loop_
 _symmetry_equiv_pos_site_id
 _symmetry_equiv_pos_as_xyz
  1  'x, y, z'
loop_
 _atom_site_type_symbol
 _atom_site_label
 _atom_site_symmetry_multiplicity
 _atom_site_fract_x
 _atom_site_fract_y
 _atom_site_fract_z
 _atom_site_occupancy
  Mo  Mo0  1  0.000000  0.000000  0.000000  1
  O  O1  1  0.736230  0.736230  0.736230  1
  O  O2  1  0.263770  0.263770  0.263770  1
