# generated using pymatgen
data_LiBiP2O7
_symmetry_space_group_name_H-M   'P 1'
_cell_length_a   5.03834563
_cell_length_b   9.07576149
_cell_length_c   7.45530712
_cell_angle_alpha   90.00000000
_cell_angle_beta   107.30540653
_cell_angle_gamma   90.00000000
_symmetry_Int_Tables_number   1
_chemical_formula_structural   LiBiP2O7
_chemical_formula_sum   'Li2 Bi2 P4 O14'
_cell_volume   325.47556012
_cell_formula_units_Z   2
loop_
 _symmetry_equiv_pos_site_id
 _symmetry_equiv_pos_as_xyz
  1  'x, y, z'
loop_
 _atom_site_type_symbol
 _atom_site_label
 _atom_site_symmetry_multiplicity
 _atom_site_fract_x
 _atom_site_fract_y
 _atom_site_fract_z
 _atom_site_occupancy
  Li  Li0  1  0.200235  0.212078  0.651187  1
  Li  Li1  1  0.799765  0.712078  0.348813  1
  Bi  Bi2  1  0.802943  0.058044  0.270601  1
  Bi  Bi3  1  0.197057  0.558044  0.729399  1
  P  P4  1  0.214496  0.261533  0.077475  1
  P  P5  1  0.785504  0.761533  0.922525  1
  P  P6  1  0.412216  0.881969  0.560608  1
  P  P7  1  0.587784  0.381969  0.439392  1
  O  O8  1  0.407671  0.382594  0.219021  1
  O  O9  1  0.932943  0.253720  0.115009  1
  O  O10  1  0.067057  0.753720  0.884991  1
  O  O11  1  0.196785  0.317884  0.881383  1
  O  O12  1  0.223287  0.743309  0.522342  1
  O  O13  1  0.242775  0.024456  0.535978  1
  O  O14  1  0.384498  0.377340  0.556862  1
  O  O15  1  0.776713  0.243309  0.477658  1
  O  O16  1  0.592329  0.882594  0.780979  1
  O  O17  1  0.638775  0.610418  0.881044  1
  O  O18  1  0.361225  0.110418  0.118956  1
  O  O19  1  0.615502  0.877340  0.443138  1
  O  O20  1  0.757225  0.524456  0.464022  1
  O  O21  1  0.803215  0.817884  0.118617  1
