# generated using pymatgen
data_ThTl3F7
_symmetry_space_group_name_H-M   'P 1'
_cell_length_a   10.87444409
_cell_length_b   10.87444409
_cell_length_c   8.58497967
_cell_angle_alpha   90.00000000
_cell_angle_beta   90.00000000
_cell_angle_gamma   125.62820000
_symmetry_Int_Tables_number   1
_chemical_formula_structural   ThTl3F7
_chemical_formula_sum   'Th4 Tl12 F28'
_cell_volume   825.17233033
_cell_formula_units_Z   4
loop_
 _symmetry_equiv_pos_site_id
 _symmetry_equiv_pos_as_xyz
  1  'x, y, z'
loop_
 _atom_site_type_symbol
 _atom_site_label
 _atom_site_symmetry_multiplicity
 _atom_site_fract_x
 _atom_site_fract_y
 _atom_site_fract_z
 _atom_site_occupancy
  Th  Th0  1  0.108397  0.891603  0.000956  1
  Th  Th1  1  0.891603  0.108397  0.500956  1
  Th  Th2  1  0.891603  0.108397  0.999044  1
  Th  Th3  1  0.108397  0.891603  0.499044  1
  Tl  Tl4  1  0.363553  0.636447  0.532775  1
  Tl  Tl5  1  0.636447  0.363553  0.032775  1
  Tl  Tl6  1  0.636447  0.363553  0.467225  1
  Tl  Tl7  1  0.363553  0.636447  0.967225  1
  Tl  Tl8  1  0.490839  0.975787  0.250000  1
  Tl  Tl9  1  0.509161  0.024213  0.750000  1
  Tl  Tl10  1  0.024213  0.509161  0.250000  1
  Tl  Tl11  1  0.975787  0.490839  0.750000  1
  Tl  Tl12  1  0.676411  0.707761  0.250000  1
  Tl  Tl13  1  0.323589  0.292239  0.750000  1
  Tl  Tl14  1  0.292239  0.323589  0.250000  1
  Tl  Tl15  1  0.707761  0.676411  0.750000  1
  F  F16  1  0.913444  0.641944  0.946007  1
  F  F17  1  0.086556  0.358056  0.446007  1
  F  F18  1  0.086556  0.358056  0.053993  1
  F  F19  1  0.913444  0.641944  0.553993  1
  F  F20  1  0.641944  0.913444  0.446007  1
  F  F21  1  0.358056  0.086556  0.946007  1
  F  F22  1  0.358056  0.086556  0.553993  1
  F  F23  1  0.641944  0.913444  0.053993  1
  F  F24  1  0.948296  0.051704  0.250000  1
  F  F25  1  0.051704  0.948296  0.750000  1
  F  F26  1  0.821360  0.178640  0.250000  1
  F  F27  1  0.178640  0.821360  0.750000  1
  F  F28  1  0.222452  0.777548  0.065925  1
  F  F29  1  0.777548  0.222452  0.565925  1
  F  F30  1  0.777548  0.222452  0.934075  1
  F  F31  1  0.222452  0.777548  0.434075  1
  F  F32  1  0.129515  0.129515  0.000000  1
  F  F33  1  0.870485  0.870485  0.500000  1
  F  F34  1  0.870485  0.870485  0.000000  1
  F  F35  1  0.129515  0.129515  0.500000  1
  F  F36  1  0.500000  0.500000  0.500000  1
  F  F37  1  0.500000  0.500000  0.000000  1
  F  F38  1  0.635778  0.364222  0.750000  1
  F  F39  1  0.364222  0.635778  0.250000  1
  F  F40  1  0.768779  0.979604  0.750000  1
  F  F41  1  0.231221  0.020396  0.250000  1
  F  F42  1  0.020396  0.231221  0.750000  1
  F  F43  1  0.979604  0.768779  0.250000  1
