# generated using pymatgen
data_UO3
_symmetry_space_group_name_H-M   'P 1'
_cell_length_a   5.24846082
_cell_length_b   5.54243707
_cell_length_c   7.56825163
_cell_angle_alpha   90.00000000
_cell_angle_beta   90.00000000
_cell_angle_gamma   90.00000000
_symmetry_Int_Tables_number   1
_chemical_formula_structural   UO3
_chemical_formula_sum   'U4 O12'
_cell_volume   220.15486824
_cell_formula_units_Z   4
loop_
 _symmetry_equiv_pos_site_id
 _symmetry_equiv_pos_as_xyz
  1  'x, y, z'
loop_
 _atom_site_type_symbol
 _atom_site_label
 _atom_site_symmetry_multiplicity
 _atom_site_fract_x
 _atom_site_fract_y
 _atom_site_fract_z
 _atom_site_occupancy
  U  U0  1  0.783679  0.378084  0.184264  1
  U  U1  1  0.283679  0.121916  0.815736  1
  U  U2  1  0.216321  0.878084  0.315736  1
  U  U3  1  0.716321  0.621916  0.684264  1
  O  O4  1  0.416373  0.867697  0.572245  1
  O  O5  1  0.916373  0.632303  0.427755  1
  O  O6  1  0.583627  0.367697  0.927755  1
  O  O7  1  0.083627  0.132303  0.072245  1
  O  O8  1  0.431673  0.617031  0.252501  1
  O  O9  1  0.931673  0.882969  0.747499  1
  O  O10  1  0.568327  0.117031  0.247499  1
  O  O11  1  0.068327  0.382969  0.752501  1
  O  O12  1  0.532995  0.358838  0.594296  1
  O  O13  1  0.032995  0.141162  0.405704  1
  O  O14  1  0.467005  0.858838  0.905704  1
  O  O15  1  0.967005  0.641162  0.094296  1
