# generated using pymatgen
data_Be3As2(H2O5)2
_symmetry_space_group_name_H-M   'P 1'
_cell_length_a   8.66864616
_cell_length_b   8.66864616
_cell_length_c   10.04706428
_cell_angle_alpha   85.64079252
_cell_angle_beta   94.35920748
_cell_angle_gamma   148.17905869
_symmetry_Int_Tables_number   1
_chemical_formula_structural   Be3As2(H2O5)2
_chemical_formula_sum   'Be6 As4 H8 O20'
_cell_volume   396.83601965
_cell_formula_units_Z   2
loop_
 _symmetry_equiv_pos_site_id
 _symmetry_equiv_pos_as_xyz
  1  'x, y, z'
loop_
 _atom_site_type_symbol
 _atom_site_label
 _atom_site_symmetry_multiplicity
 _atom_site_fract_x
 _atom_site_fract_y
 _atom_site_fract_z
 _atom_site_occupancy
  Be  Be0  1  0.701696  0.207459  0.661127  1
  Be  Be1  1  0.207459  0.701696  0.838873  1
  Be  Be2  1  0.298304  0.792541  0.338873  1
  Be  Be3  1  0.792541  0.298304  0.161127  1
  Be  Be4  1  0.683169  0.683169  0.250000  1
  Be  Be5  1  0.316831  0.316831  0.750000  1
  As  As6  1  0.386510  0.697535  0.101243  1
  As  As7  1  0.302465  0.613490  0.601243  1
  As  As8  1  0.613490  0.302465  0.898757  1
  As  As9  1  0.697535  0.386510  0.398757  1
  H  H10  1  0.906949  0.722162  0.103714  1
  H  H11  1  0.955830  0.853327  0.662428  1
  H  H12  1  0.853327  0.955830  0.837572  1
  H  H13  1  0.044170  0.146673  0.337572  1
  H  H14  1  0.146673  0.044170  0.162428  1
  H  H15  1  0.277838  0.093051  0.603714  1
  H  H16  1  0.093051  0.277838  0.896286  1
  H  H17  1  0.722162  0.906949  0.396286  1
  O  O18  1  0.247766  0.579244  0.941663  1
  O  O19  1  0.420756  0.752234  0.441663  1
  O  O20  1  0.752234  0.420756  0.058337  1
  O  O21  1  0.579244  0.247766  0.558337  1
  O  O22  1  0.589670  0.467611  0.831498  1
  O  O23  1  0.289039  0.931255  0.898353  1
  O  O24  1  0.410330  0.532389  0.168502  1
  O  O25  1  0.532389  0.410330  0.331498  1
  O  O26  1  0.848446  0.402798  0.797551  1
  O  O27  1  0.402798  0.848446  0.702449  1
  O  O28  1  0.151554  0.597202  0.202449  1
  O  O29  1  0.597202  0.151554  0.297551  1
  O  O30  1  0.467611  0.589670  0.668502  1
  O  O31  1  0.931255  0.289039  0.601647  1
  O  O32  1  0.710961  0.068745  0.101647  1
  O  O33  1  0.068745  0.710961  0.398353  1
  O  O34  1  0.848613  0.938622  0.353584  1
  O  O35  1  0.061378  0.151387  0.853584  1
  O  O36  1  0.151387  0.061378  0.646416  1
  O  O37  1  0.938622  0.848613  0.146416  1
