# generated using pymatgen
data_Na2CoH8(SO6)2
_symmetry_space_group_name_H-M   'P 1'
_cell_length_a   5.57960356
_cell_length_b   8.36713742
_cell_length_c   11.18358097
_cell_angle_alpha   90.00000000
_cell_angle_beta   99.75075777
_cell_angle_gamma   90.00000000
_symmetry_Int_Tables_number   1
_chemical_formula_structural   Na2CoH8(SO6)2
_chemical_formula_sum   'Na4 Co2 H16 S4 O24'
_cell_volume   514.56646125
_cell_formula_units_Z   2
loop_
 _symmetry_equiv_pos_site_id
 _symmetry_equiv_pos_as_xyz
  1  'x, y, z'
loop_
 _atom_site_type_symbol
 _atom_site_label
 _atom_site_symmetry_multiplicity
 _atom_site_fract_x
 _atom_site_fract_y
 _atom_site_fract_z
 _atom_site_occupancy
  Na  Na0  1  0.379312  0.929094  0.138520  1
  Na  Na1  1  0.620688  0.070906  0.861480  1
  Na  Na2  1  0.379312  0.570906  0.638520  1
  Na  Na3  1  0.620688  0.429094  0.361480  1
  Co  Co4  1  0.500000  0.500000  0.000000  1
  Co  Co5  1  0.500000  0.000000  0.500000  1
  H  H6  1  0.257702  0.274264  0.486261  1
  H  H7  1  0.742298  0.774264  0.013739  1
  H  H8  1  0.742298  0.725736  0.513739  1
  H  H9  1  0.257702  0.225736  0.986261  1
  H  H10  1  0.171986  0.197707  0.360186  1
  H  H11  1  0.828014  0.697707  0.139814  1
  H  H12  1  0.828014  0.802293  0.639814  1
  H  H13  1  0.171986  0.302293  0.860186  1
  H  H14  1  0.731227  0.864777  0.345563  1
  H  H15  1  0.268773  0.364777  0.154437  1
  H  H16  1  0.735904  0.054627  0.318677  1
  H  H17  1  0.264096  0.554627  0.181323  1
  H  H18  1  0.264096  0.945373  0.681323  1
  H  H19  1  0.735904  0.445373  0.818677  1
  H  H20  1  0.268773  0.135223  0.654437  1
  H  H21  1  0.731227  0.635223  0.845563  1
  S  S22  1  0.873921  0.213766  0.135863  1
  S  S23  1  0.873921  0.286234  0.635863  1
  S  S24  1  0.126079  0.786234  0.864137  1
  S  S25  1  0.126079  0.713766  0.364137  1
  O  O26  1  0.287228  0.586474  0.422658  1
  O  O27  1  0.712772  0.086474  0.077342  1
  O  O28  1  0.812708  0.128192  0.576710  1
  O  O29  1  0.287228  0.913526  0.922658  1
  O  O30  1  0.187292  0.871808  0.423290  1
  O  O31  1  0.812708  0.371808  0.076710  1
  O  O32  1  0.135248  0.321694  0.626974  1
  O  O33  1  0.864752  0.821694  0.873026  1
  O  O34  1  0.864752  0.678306  0.373026  1
  O  O35  1  0.712772  0.413526  0.577342  1
  O  O36  1  0.368903  0.035816  0.662317  1
  O  O37  1  0.631097  0.535816  0.837683  1
  O  O38  1  0.631097  0.964184  0.337683  1
  O  O39  1  0.368903  0.464184  0.162317  1
  O  O40  1  0.320458  0.284449  0.921143  1
  O  O41  1  0.679542  0.784449  0.578857  1
  O  O42  1  0.679542  0.715551  0.078857  1
  O  O43  1  0.320458  0.215551  0.421143  1
  O  O44  1  0.856948  0.224304  0.268801  1
  O  O45  1  0.143052  0.724304  0.231199  1
  O  O46  1  0.143052  0.775696  0.731199  1
  O  O47  1  0.856948  0.275696  0.768801  1
  O  O48  1  0.187292  0.628192  0.923290  1
  O  O49  1  0.135248  0.178306  0.126974  1
