# generated using pymatgen
data_TmInRh
_symmetry_space_group_name_H-M   'P 1'
_cell_length_a   7.49206014
_cell_length_b   7.49206014
_cell_length_c   3.89102618
_cell_angle_alpha   90.00000000
_cell_angle_beta   90.00000000
_cell_angle_gamma   120.00000000
_symmetry_Int_Tables_number   1
_chemical_formula_structural   TmInRh
_chemical_formula_sum   'Tm3 In3 Rh3'
_cell_volume   189.14605793
_cell_formula_units_Z   3
loop_
 _symmetry_equiv_pos_site_id
 _symmetry_equiv_pos_as_xyz
  1  'x, y, z'
loop_
 _atom_site_type_symbol
 _atom_site_label
 _atom_site_symmetry_multiplicity
 _atom_site_fract_x
 _atom_site_fract_y
 _atom_site_fract_z
 _atom_site_occupancy
  Tm  Tm0  1  0.000000  0.404490  0.500000  1
  Tm  Tm1  1  0.595510  0.595510  0.500000  1
  Tm  Tm2  1  0.404490  0.000000  0.500000  1
  In  In3  1  0.259664  0.259664  0.000000  1
  In  In4  1  0.000000  0.740336  0.000000  1
  In  In5  1  0.740336  0.000000  0.000000  1
  Rh  Rh6  1  0.333333  0.666667  0.000000  1
  Rh  Rh7  1  0.000000  0.000000  0.500000  1
  Rh  Rh8  1  0.666667  0.333333  0.000000  1
