# generated using pymatgen
data_CaAl12O19
_symmetry_space_group_name_H-M   'P 1'
_cell_length_a   5.61588059
_cell_length_b   5.61588059
_cell_length_c   22.05086989
_cell_angle_alpha   90.00000000
_cell_angle_beta   90.00000000
_cell_angle_gamma   120.00000000
_symmetry_Int_Tables_number   1
_chemical_formula_structural   CaAl12O19
_chemical_formula_sum   'Ca2 Al24 O38'
_cell_volume   602.27118810
_cell_formula_units_Z   2
loop_
 _symmetry_equiv_pos_site_id
 _symmetry_equiv_pos_as_xyz
  1  'x, y, z'
loop_
 _atom_site_type_symbol
 _atom_site_label
 _atom_site_symmetry_multiplicity
 _atom_site_fract_x
 _atom_site_fract_y
 _atom_site_fract_z
 _atom_site_occupancy
  Ca  Ca0  1  0.666667  0.333333  0.250000  1
  Ca  Ca1  1  0.333333  0.666667  0.750000  1
  Al  Al2  1  0.000000  0.000000  0.750000  1
  Al  Al3  1  0.000000  0.000000  0.250000  1
  Al  Al4  1  0.000000  0.000000  0.500000  1
  Al  Al5  1  0.000000  0.000000  0.000000  1
  Al  Al6  1  0.333333  0.666667  0.308969  1
  Al  Al7  1  0.666667  0.333333  0.808969  1
  Al  Al8  1  0.666667  0.333333  0.691031  1
  Al  Al9  1  0.333333  0.666667  0.191031  1
  Al  Al10  1  0.333333  0.666667  0.471954  1
  Al  Al11  1  0.666667  0.333333  0.971954  1
  Al  Al12  1  0.666667  0.333333  0.528046  1
  Al  Al13  1  0.333333  0.666667  0.028046  1
  Al  Al14  1  0.168345  0.831655  0.609569  1
  Al  Al15  1  0.168345  0.336689  0.609569  1
  Al  Al16  1  0.663311  0.831655  0.609569  1
  Al  Al17  1  0.336689  0.168345  0.109569  1
  Al  Al18  1  0.831655  0.663311  0.390431  1
  Al  Al19  1  0.831655  0.168345  0.109569  1
  Al  Al20  1  0.831655  0.663311  0.109569  1
  Al  Al21  1  0.168345  0.831655  0.890431  1
  Al  Al22  1  0.663311  0.831655  0.890431  1
  Al  Al23  1  0.336689  0.168345  0.390431  1
  Al  Al24  1  0.831655  0.168345  0.390431  1
  Al  Al25  1  0.168345  0.336689  0.890431  1
  O  O26  1  0.818412  0.636824  0.750000  1
  O  O27  1  0.181588  0.818412  0.250000  1
  O  O28  1  0.636824  0.818412  0.250000  1
  O  O29  1  0.363176  0.181588  0.750000  1
  O  O30  1  0.818412  0.181588  0.750000  1
  O  O31  1  0.181588  0.363176  0.250000  1
  O  O32  1  0.000000  0.000000  0.350070  1
  O  O33  1  0.000000  0.000000  0.850070  1
  O  O34  1  0.000000  0.000000  0.649930  1
  O  O35  1  0.000000  0.000000  0.149930  1
  O  O36  1  0.333333  0.666667  0.554756  1
  O  O37  1  0.666667  0.333333  0.054756  1
  O  O38  1  0.666667  0.333333  0.445244  1
  O  O39  1  0.333333  0.666667  0.945244  1
  O  O40  1  0.503505  0.496495  0.350443  1
  O  O41  1  0.155166  0.844834  0.447721  1
  O  O42  1  0.503505  0.007010  0.350443  1
  O  O43  1  0.007010  0.503505  0.850443  1
  O  O44  1  0.496495  0.992990  0.649557  1
  O  O45  1  0.496495  0.503505  0.850443  1
  O  O46  1  0.496495  0.992990  0.850443  1
  O  O47  1  0.503505  0.496495  0.149557  1
  O  O48  1  0.992990  0.496495  0.149557  1
  O  O49  1  0.007010  0.503505  0.649557  1
  O  O50  1  0.496495  0.503505  0.649557  1
  O  O51  1  0.503505  0.007010  0.149557  1
  O  O52  1  0.155166  0.310333  0.052279  1
  O  O53  1  0.844834  0.155166  0.552279  1
  O  O54  1  0.310333  0.155166  0.552279  1
  O  O55  1  0.689667  0.844834  0.052279  1
  O  O56  1  0.155166  0.844834  0.052279  1
  O  O57  1  0.844834  0.689667  0.947721  1
  O  O58  1  0.844834  0.155166  0.947721  1
  O  O59  1  0.844834  0.689667  0.552279  1
  O  O60  1  0.310333  0.155166  0.947721  1
  O  O61  1  0.689667  0.844834  0.447721  1
  O  O62  1  0.155166  0.310333  0.447721  1
  O  O63  1  0.992990  0.496495  0.350443  1
