# generated using pymatgen
data_Ga8BIr4
_symmetry_space_group_name_H-M   'P 1'
_cell_length_a   12.26517780
_cell_length_b   12.26517780
_cell_length_c   12.26517780
_cell_angle_alpha   138.83048027
_cell_angle_beta   138.83048027
_cell_angle_gamma   59.63343049
_symmetry_Int_Tables_number   1
_chemical_formula_structural   Ga8BIr4
_chemical_formula_sum   'Ga32 B4 Ir16'
_cell_volume   791.57284902
_cell_formula_units_Z   4
loop_
 _symmetry_equiv_pos_site_id
 _symmetry_equiv_pos_as_xyz
  1  'x, y, z'
loop_
 _atom_site_type_symbol
 _atom_site_label
 _atom_site_symmetry_multiplicity
 _atom_site_fract_x
 _atom_site_fract_y
 _atom_site_fract_z
 _atom_site_occupancy
  Ga  Ga0  1  0.151283  0.875387  0.152768  1
  Ga  Ga1  1  0.501484  0.777381  0.152768  1
  Ga  Ga2  1  0.624613  0.348717  0.847232  1
  Ga  Ga3  1  0.098717  0.751484  0.224104  1
  Ga  Ga4  1  0.527381  0.874613  0.775896  1
  Ga  Ga5  1  0.625387  0.972619  0.224104  1
  Ga  Ga6  1  0.748516  0.401283  0.775896  1
  Ga  Ga7  1  0.722619  0.998516  0.847232  1
  Ga  Ga8  1  0.598717  0.374613  0.347232  1
  Ga  Ga9  1  0.248516  0.472619  0.347232  1
  Ga  Ga10  1  0.125387  0.901283  0.652768  1
  Ga  Ga11  1  0.651283  0.498516  0.275896  1
  Ga  Ga12  1  0.251181  0.031824  0.651245  1
  Ga  Ga13  1  0.781824  0.630579  0.280644  1
  Ga  Ga14  1  0.349936  0.501181  0.719356  1
  Ga  Ga15  1  0.998819  0.150064  0.280644  1
  Ga  Ga16  1  0.869421  0.718176  0.719356  1
  Ga  Ga17  1  0.900064  0.119421  0.651245  1
  Ga  Ga18  1  0.468176  0.248819  0.348755  1
  Ga  Ga19  1  0.380579  0.599936  0.348755  1
  Ga  Ga20  1  0.498819  0.218176  0.848755  1
  Ga  Ga21  1  0.968176  0.619421  0.219356  1
  Ga  Ga22  1  0.400064  0.748819  0.780644  1
  Ga  Ga23  1  0.751181  0.099936  0.219356  1
  Ga  Ga24  1  0.880579  0.531824  0.780644  1
  Ga  Ga25  1  0.849936  0.130579  0.848755  1
  Ga  Ga26  1  0.281824  0.001181  0.151245  1
  Ga  Ga27  1  0.369421  0.650064  0.151245  1
  Ga  Ga28  1  0.027381  0.251484  0.652768  1
  Ga  Ga29  1  0.001484  0.848717  0.724104  1
  Ga  Ga30  1  0.124613  0.277381  0.275896  1
  Ga  Ga31  1  0.222619  0.375387  0.724104  1
  B  B32  1  0.500000  0.000000  0.500000  1
  B  B33  1  0.750000  0.750000  0.000000  1
  B  B34  1  0.250000  0.250000  0.000000  1
  B  B35  1  0.000000  0.500000  0.500000  1
  Ir  Ir36  1  0.647988  0.647988  0.000000  1
  Ir  Ir37  1  0.397988  0.897988  0.500000  1
  Ir  Ir38  1  0.602012  0.102012  0.500000  1
  Ir  Ir39  1  0.852012  0.852012  0.000000  1
  Ir  Ir40  1  0.102012  0.602012  0.500000  1
  Ir  Ir41  1  0.352012  0.352012  0.000000  1
  Ir  Ir42  1  0.147988  0.147988  0.000000  1
  Ir  Ir43  1  0.897988  0.397988  0.500000  1
  Ir  Ir44  1  0.074280  0.425720  0.000000  1
  Ir  Ir45  1  0.175720  0.675720  0.851441  1
  Ir  Ir46  1  0.824280  0.324280  0.148559  1
  Ir  Ir47  1  0.425720  0.074280  0.000000  1
  Ir  Ir48  1  0.675720  0.824280  0.500000  1
  Ir  Ir49  1  0.574280  0.574280  0.648559  1
  Ir  Ir50  1  0.925720  0.925720  0.351441  1
  Ir  Ir51  1  0.324280  0.175720  0.500000  1
