# generated using pymatgen
data_Nb2Se3
_symmetry_space_group_name_H-M   'P 1'
_cell_length_a   6.63692856
_cell_length_b   3.46735410
_cell_length_c   9.31098479
_cell_angle_alpha   90.00000000
_cell_angle_beta   104.15324534
_cell_angle_gamma   90.00000000
_symmetry_Int_Tables_number   1
_chemical_formula_structural   Nb2Se3
_chemical_formula_sum   'Nb4 Se6'
_cell_volume   207.76568002
_cell_formula_units_Z   2
loop_
 _symmetry_equiv_pos_site_id
 _symmetry_equiv_pos_as_xyz
  1  'x, y, z'
loop_
 _atom_site_type_symbol
 _atom_site_label
 _atom_site_symmetry_multiplicity
 _atom_site_fract_x
 _atom_site_fract_y
 _atom_site_fract_z
 _atom_site_occupancy
  Nb  Nb0  1  0.885933  0.250000  0.864661  1
  Nb  Nb1  1  0.114067  0.750000  0.135339  1
  Nb  Nb2  1  0.681168  0.250000  0.498107  1
  Nb  Nb3  1  0.318832  0.750000  0.501893  1
  Se  Se4  1  0.271108  0.250000  0.987020  1
  Se  Se5  1  0.728892  0.750000  0.012980  1
  Se  Se6  1  0.027967  0.250000  0.343193  1
  Se  Se7  1  0.972033  0.750000  0.656807  1
  Se  Se8  1  0.523718  0.750000  0.296895  1
  Se  Se9  1  0.476282  0.250000  0.703105  1
