# generated using pymatgen
data_V6C5
_symmetry_space_group_name_H-M   'P 1'
_cell_length_a   5.10516935
_cell_length_b   5.10516935
_cell_length_c   14.36743715
_cell_angle_alpha   90.00000000
_cell_angle_beta   90.00000000
_cell_angle_gamma   120.00000000
_symmetry_Int_Tables_number   1
_chemical_formula_structural   V6C5
_chemical_formula_sum   'V18 C15'
_cell_volume   324.28752673
_cell_formula_units_Z   3
loop_
 _symmetry_equiv_pos_site_id
 _symmetry_equiv_pos_as_xyz
  1  'x, y, z'
loop_
 _atom_site_type_symbol
 _atom_site_label
 _atom_site_symmetry_multiplicity
 _atom_site_fract_x
 _atom_site_fract_y
 _atom_site_fract_z
 _atom_site_occupancy
  V  V0  1  0.778544  0.529025  0.414771  1
  V  V1  1  0.750481  0.221456  0.081438  1
  V  V2  1  0.470975  0.249519  0.748104  1
  V  V3  1  0.750481  0.529025  0.918562  1
  V  V4  1  0.778544  0.249519  0.585229  1
  V  V5  1  0.470975  0.221456  0.251896  1
  V  V6  1  0.110514  0.527942  0.748764  1
  V  V7  1  0.472058  0.582571  0.082098  1
  V  V8  1  0.417429  0.889486  0.415431  1
  V  V9  1  0.472058  0.889486  0.917902  1
  V  V10  1  0.417429  0.527942  0.584569  1
  V  V11  1  0.110514  0.582571  0.251236  1
  V  V12  1  0.135744  0.888929  0.590211  1
  V  V13  1  0.111071  0.246815  0.923545  1
  V  V14  1  0.753185  0.864256  0.256878  1
  V  V15  1  0.111071  0.864256  0.076455  1
  V  V16  1  0.753185  0.888929  0.743122  1
  V  V17  1  0.135744  0.246815  0.409789  1
  C  C18  1  0.438802  0.219401  0.000000  1
  C  C19  1  0.780599  0.561198  0.666667  1
  C  C20  1  0.780599  0.219401  0.333333  1
  C  C21  1  0.111366  0.555683  0.000000  1
  C  C22  1  0.444317  0.888634  0.666667  1
  C  C23  1  0.444317  0.555683  0.333333  1
  C  C24  1  0.784612  0.892306  0.000000  1
  C  C25  1  0.107694  0.215388  0.666667  1
  C  C26  1  0.107694  0.892306  0.333333  1
  C  C27  1  0.441726  0.220863  0.500000  1
  C  C28  1  0.779137  0.558274  0.166667  1
  C  C29  1  0.779137  0.220863  0.833333  1
  C  C30  1  0.109129  0.554565  0.500000  1
  C  C31  1  0.445435  0.890871  0.166667  1
  C  C32  1  0.445435  0.554565  0.833333  1
