# generated using pymatgen
data_NaNb10O18
_symmetry_space_group_name_H-M   'P 1'
_cell_length_a   7.93192787
_cell_length_b   9.47834701
_cell_length_c   10.41917074
_cell_angle_alpha   90.00000000
_cell_angle_beta   110.40426895
_cell_angle_gamma   90.00000000
_symmetry_Int_Tables_number   1
_chemical_formula_structural   NaNb10O18
_chemical_formula_sum   'Na2 Nb20 O36'
_cell_volume   734.18034339
_cell_formula_units_Z   2
loop_
 _symmetry_equiv_pos_site_id
 _symmetry_equiv_pos_as_xyz
  1  'x, y, z'
loop_
 _atom_site_type_symbol
 _atom_site_label
 _atom_site_symmetry_multiplicity
 _atom_site_fract_x
 _atom_site_fract_y
 _atom_site_fract_z
 _atom_site_occupancy
  Na  Na0  1  0.000000  0.000000  0.500000  1
  Na  Na1  1  0.000000  0.500000  0.000000  1
  Nb  Nb2  1  0.004186  0.384059  0.668562  1
  Nb  Nb3  1  0.820106  0.370014  0.376800  1
  Nb  Nb4  1  0.197237  0.373917  0.481154  1
  Nb  Nb5  1  0.602466  0.369747  0.061012  1
  Nb  Nb6  1  0.004186  0.115941  0.168562  1
  Nb  Nb7  1  0.995814  0.884059  0.831438  1
  Nb  Nb8  1  0.820106  0.129986  0.876800  1
  Nb  Nb9  1  0.179894  0.870014  0.123200  1
  Nb  Nb10  1  0.602466  0.130253  0.561012  1
  Nb  Nb11  1  0.396546  0.112926  0.770026  1
  Nb  Nb12  1  0.396546  0.387074  0.270026  1
  Nb  Nb13  1  0.802763  0.626083  0.518846  1
  Nb  Nb14  1  0.397534  0.869747  0.438988  1
  Nb  Nb15  1  0.397534  0.630253  0.938988  1
  Nb  Nb16  1  0.179894  0.629986  0.623200  1
  Nb  Nb17  1  0.995814  0.615941  0.331438  1
  Nb  Nb18  1  0.802763  0.873917  0.018846  1
  Nb  Nb19  1  0.197237  0.126083  0.981154  1
  Nb  Nb20  1  0.603454  0.612926  0.729974  1
  Nb  Nb21  1  0.603454  0.887074  0.229974  1
  O  O22  1  0.199902  0.987474  0.303783  1
  O  O23  1  0.589295  0.237091  0.726027  1
  O  O24  1  0.199623  0.005161  0.802526  1
  O  O25  1  0.800098  0.487474  0.196217  1
  O  O26  1  0.600457  0.497043  0.391809  1
  O  O27  1  0.800377  0.994839  0.197474  1
  O  O28  1  0.394440  0.492782  0.098283  1
  O  O29  1  0.202290  0.252922  0.145527  1
  O  O30  1  0.399543  0.502957  0.608191  1
  O  O31  1  0.989483  0.738721  0.150445  1
  O  O32  1  0.582503  0.743694  0.568266  1
  O  O33  1  0.600457  0.002957  0.891809  1
  O  O34  1  0.010517  0.238721  0.349555  1
  O  O35  1  0.417497  0.256306  0.431734  1
  O  O36  1  0.605560  0.992782  0.401717  1
  O  O37  1  0.195738  0.752974  0.461241  1
  O  O38  1  0.582503  0.756306  0.068266  1
  O  O39  1  0.010517  0.261279  0.849555  1
  O  O40  1  0.797710  0.747078  0.854473  1
  O  O41  1  0.199623  0.494839  0.302526  1
  O  O42  1  0.589295  0.262909  0.226027  1
  O  O43  1  0.804262  0.252974  0.038759  1
  O  O44  1  0.195738  0.747026  0.961241  1
  O  O45  1  0.199902  0.512526  0.803783  1
  O  O46  1  0.399543  0.997043  0.108191  1
  O  O47  1  0.394440  0.007218  0.598283  1
  O  O48  1  0.202290  0.247078  0.645527  1
  O  O49  1  0.800377  0.505161  0.697474  1
  O  O50  1  0.410705  0.762909  0.273973  1
  O  O51  1  0.989483  0.761279  0.650445  1
  O  O52  1  0.605560  0.507218  0.901717  1
  O  O53  1  0.417497  0.243694  0.931734  1
  O  O54  1  0.797710  0.752922  0.354473  1
  O  O55  1  0.410705  0.737091  0.773973  1
  O  O56  1  0.804262  0.247026  0.538759  1
  O  O57  1  0.800098  0.012526  0.696217  1
