# generated using pymatgen
data_V2(SO4)3
_symmetry_space_group_name_H-M   'P 1'
_cell_length_a   7.71633780
_cell_length_b   7.71633780
_cell_length_c   8.66907834
_cell_angle_alpha   69.74449102
_cell_angle_beta   110.25550898
_cell_angle_gamma   115.16018328
_symmetry_Int_Tables_number   1
_chemical_formula_structural   V2(SO4)3
_chemical_formula_sum   'V4 S6 O24'
_cell_volume   426.09921478
_cell_formula_units_Z   2
loop_
 _symmetry_equiv_pos_site_id
 _symmetry_equiv_pos_as_xyz
  1  'x, y, z'
loop_
 _atom_site_type_symbol
 _atom_site_label
 _atom_site_symmetry_multiplicity
 _atom_site_fract_x
 _atom_site_fract_y
 _atom_site_fract_z
 _atom_site_occupancy
  V  V0  1  0.127871  0.380257  0.980019  1
  V  V1  1  0.619743  0.872129  0.480019  1
  V  V2  1  0.380257  0.127871  0.519981  1
  V  V3  1  0.872129  0.619743  0.019981  1
  S  S4  1  0.477699  0.762903  0.832044  1
  S  S5  1  0.237097  0.522301  0.332044  1
  S  S6  1  0.053839  0.053839  0.750000  1
  S  S7  1  0.946161  0.946161  0.250000  1
  S  S8  1  0.762903  0.477699  0.667956  1
  S  S9  1  0.522301  0.237097  0.167956  1
  O  O10  1  0.034313  0.869446  0.885626  1
  O  O11  1  0.130554  0.965687  0.385626  1
  O  O12  1  0.539499  0.908647  0.923802  1
  O  O13  1  0.270419  0.623096  0.830611  1
  O  O14  1  0.468143  0.866536  0.638014  1
  O  O15  1  0.091353  0.460501  0.423802  1
  O  O16  1  0.092863  0.219126  0.819918  1
  O  O17  1  0.608046  0.647979  0.881976  1
  O  O18  1  0.376904  0.729581  0.330611  1
  O  O19  1  0.133464  0.531857  0.138014  1
  O  O20  1  0.780874  0.907137  0.319918  1
  O  O21  1  0.647979  0.608046  0.618024  1
  O  O22  1  0.352021  0.391954  0.381976  1
  O  O23  1  0.219126  0.092863  0.680082  1
  O  O24  1  0.866536  0.468143  0.861986  1
  O  O25  1  0.623096  0.270419  0.669389  1
  O  O26  1  0.391954  0.352021  0.118024  1
  O  O27  1  0.907137  0.780874  0.180082  1
  O  O28  1  0.908647  0.539499  0.576198  1
  O  O29  1  0.531857  0.133464  0.361986  1
  O  O30  1  0.729581  0.376904  0.169389  1
  O  O31  1  0.460501  0.091353  0.076198  1
  O  O32  1  0.869446  0.034313  0.614374  1
  O  O33  1  0.965687  0.130554  0.114374  1
