# generated using pymatgen
data_Li6Ge2O7
_symmetry_space_group_name_H-M   'P 1'
_cell_length_a   8.18242062
_cell_length_b   5.37117828
_cell_length_c   16.18476568
_cell_angle_alpha   90.00000000
_cell_angle_beta   117.32575479
_cell_angle_gamma   90.00000000
_symmetry_Int_Tables_number   1
_chemical_formula_structural   Li6Ge2O7
_chemical_formula_sum   'Li24 Ge8 O28'
_cell_volume   631.93396830
_cell_formula_units_Z   4
loop_
 _symmetry_equiv_pos_site_id
 _symmetry_equiv_pos_as_xyz
  1  'x, y, z'
loop_
 _atom_site_type_symbol
 _atom_site_label
 _atom_site_symmetry_multiplicity
 _atom_site_fract_x
 _atom_site_fract_y
 _atom_site_fract_z
 _atom_site_occupancy
  Li  Li0  1  0.600463  0.781116  0.305058  1
  Li  Li1  1  0.399537  0.281116  0.194942  1
  Li  Li2  1  0.399537  0.218884  0.694942  1
  Li  Li3  1  0.600463  0.718884  0.805058  1
  Li  Li4  1  0.346348  0.629802  0.384283  1
  Li  Li5  1  0.653652  0.129802  0.115717  1
  Li  Li6  1  0.653652  0.370198  0.615717  1
  Li  Li7  1  0.346348  0.870198  0.884283  1
  Li  Li8  1  0.873174  0.668149  0.743391  1
  Li  Li9  1  0.126826  0.168149  0.756609  1
  Li  Li10  1  0.260806  0.353020  0.484439  1
  Li  Li11  1  0.739194  0.853020  0.015561  1
  Li  Li12  1  0.739194  0.646980  0.515561  1
  Li  Li13  1  0.260806  0.146980  0.984439  1
  Li  Li14  1  0.008647  0.805852  0.457051  1
  Li  Li15  1  0.991353  0.305852  0.042949  1
  Li  Li16  1  0.991353  0.194148  0.542949  1
  Li  Li17  1  0.008647  0.694148  0.957051  1
  Li  Li18  1  0.178543  0.986748  0.379007  1
  Li  Li19  1  0.821457  0.486748  0.120993  1
  Li  Li20  1  0.821457  0.013252  0.620993  1
  Li  Li21  1  0.178543  0.513252  0.879007  1
  Li  Li22  1  0.126826  0.331851  0.256609  1
  Li  Li23  1  0.873174  0.831851  0.243391  1
  Ge  Ge24  1  0.560639  0.149154  0.413052  1
  Ge  Ge25  1  0.439361  0.649154  0.086948  1
  Ge  Ge26  1  0.439361  0.850846  0.586948  1
  Ge  Ge27  1  0.560639  0.350846  0.913052  1
  Ge  Ge28  1  0.844081  0.327563  0.330699  1
  Ge  Ge29  1  0.155919  0.827563  0.169301  1
  Ge  Ge30  1  0.155919  0.672437  0.669301  1
  Ge  Ge31  1  0.844081  0.172437  0.830699  1
  O  O32  1  0.129490  0.727921  0.267191  1
  O  O33  1  0.337978  0.230049  0.880201  1
  O  O34  1  0.662022  0.769951  0.119799  1
  O  O35  1  0.337978  0.269951  0.380201  1
  O  O36  1  0.557570  0.676956  0.910892  1
  O  O37  1  0.442430  0.176956  0.589108  1
  O  O38  1  0.870510  0.227921  0.232809  1
  O  O39  1  0.557570  0.823044  0.410892  1
  O  O40  1  0.617964  0.288016  0.815679  1
  O  O41  1  0.382036  0.788016  0.684321  1
  O  O42  1  0.382036  0.711984  0.184321  1
  O  O43  1  0.617964  0.211984  0.315679  1
  O  O44  1  0.870510  0.272079  0.732809  1
  O  O45  1  0.129490  0.772079  0.767191  1
  O  O46  1  0.267949  0.721786  0.482699  1
  O  O47  1  0.732051  0.221786  0.017301  1
  O  O48  1  0.732051  0.278214  0.517301  1
  O  O49  1  0.267949  0.778214  0.982699  1
  O  O50  1  0.020105  0.176240  0.428360  1
  O  O51  1  0.979895  0.676240  0.071640  1
  O  O52  1  0.979895  0.823760  0.571640  1
  O  O53  1  0.442430  0.323044  0.089108  1
  O  O54  1  0.840271  0.652516  0.340104  1
  O  O55  1  0.159729  0.152516  0.159896  1
  O  O56  1  0.159729  0.347484  0.659896  1
  O  O57  1  0.840271  0.847484  0.840104  1
  O  O58  1  0.662022  0.730049  0.619799  1
  O  O59  1  0.020105  0.323760  0.928360  1
