# generated using pymatgen
data_Eu(CoP)2
_symmetry_space_group_name_H-M   'P 1'
_cell_length_a   6.21048374
_cell_length_b   6.21048374
_cell_length_c   6.21048374
_cell_angle_alpha   144.92642996
_cell_angle_beta   144.92642996
_cell_angle_gamma   50.44417399
_symmetry_Int_Tables_number   1
_chemical_formula_structural   Eu(CoP)2
_chemical_formula_sum   'Eu1 Co2 P2'
_cell_volume   78.69974229
_cell_formula_units_Z   1
loop_
 _symmetry_equiv_pos_site_id
 _symmetry_equiv_pos_as_xyz
  1  'x, y, z'
loop_
 _atom_site_type_symbol
 _atom_site_label
 _atom_site_symmetry_multiplicity
 _atom_site_fract_x
 _atom_site_fract_y
 _atom_site_fract_z
 _atom_site_occupancy
  Eu  Eu0  1  0.000000  0.000000  0.000000  1
  Co  Co1  1  0.750000  0.250000  0.500000  1
  Co  Co2  1  0.250000  0.750000  0.500000  1
  P  P3  1  0.644980  0.644980  0.000000  1
  P  P4  1  0.355020  0.355020  0.000000  1
