# generated using pymatgen
data_NdSi2Ru
_symmetry_space_group_name_H-M   'P 1'
_cell_length_a   4.51103874
_cell_length_b   4.06987983
_cell_length_c   8.31400432
_cell_angle_alpha   90.00000000
_cell_angle_beta   101.88026975
_cell_angle_gamma   90.00000000
_symmetry_Int_Tables_number   1
_chemical_formula_structural   NdSi2Ru
_chemical_formula_sum   'Nd2 Si4 Ru2'
_cell_volume   149.37045222
_cell_formula_units_Z   2
loop_
 _symmetry_equiv_pos_site_id
 _symmetry_equiv_pos_as_xyz
  1  'x, y, z'
loop_
 _atom_site_type_symbol
 _atom_site_label
 _atom_site_symmetry_multiplicity
 _atom_site_fract_x
 _atom_site_fract_y
 _atom_site_fract_z
 _atom_site_occupancy
  Nd  Nd0  1  0.584403  0.250000  0.199868  1
  Nd  Nd1  1  0.415597  0.750000  0.800132  1
  Si  Si2  1  0.332770  0.250000  0.509131  1
  Si  Si3  1  0.667230  0.750000  0.490869  1
  Si  Si4  1  0.036434  0.750000  0.090997  1
  Si  Si5  1  0.963566  0.250000  0.909003  1
  Ru  Ru6  1  0.120518  0.750000  0.387840  1
  Ru  Ru7  1  0.879482  0.250000  0.612160  1
