# generated using pymatgen
data_Zr3(Cu2Si3)2
_symmetry_space_group_name_H-M   'P 1'
_cell_length_a   14.40049616
_cell_length_b   14.40049616
_cell_length_c   14.40049616
_cell_angle_alpha   165.08602271
_cell_angle_beta   165.08602271
_cell_angle_gamma   21.15196534
_symmetry_Int_Tables_number   1
_chemical_formula_structural   Zr3(Cu2Si3)2
_chemical_formula_sum   'Zr3 Cu4 Si6'
_cell_volume   197.77869998
_cell_formula_units_Z   1
loop_
 _symmetry_equiv_pos_site_id
 _symmetry_equiv_pos_as_xyz
  1  'x, y, z'
loop_
 _atom_site_type_symbol
 _atom_site_label
 _atom_site_symmetry_multiplicity
 _atom_site_fract_x
 _atom_site_fract_y
 _atom_site_fract_z
 _atom_site_occupancy
  Zr  Zr0  1  0.000000  0.000000  0.000000  1
  Zr  Zr1  1  0.674952  0.674952  0.000000  1
  Zr  Zr2  1  0.325048  0.325048  0.000000  1
  Cu  Cu3  1  0.909836  0.409836  0.500000  1
  Cu  Cu4  1  0.409836  0.909836  0.500000  1
  Cu  Cu5  1  0.090164  0.590164  0.500000  1
  Cu  Cu6  1  0.590164  0.090164  0.500000  1
  Si  Si7  1  0.750000  0.250000  0.500000  1
  Si  Si8  1  0.250000  0.750000  0.500000  1
  Si  Si9  1  0.540659  0.540659  0.000000  1
  Si  Si10  1  0.459341  0.459341  0.000000  1
  Si  Si11  1  0.145821  0.145821  0.000000  1
  Si  Si12  1  0.854179  0.854179  0.000000  1
