# generated using pymatgen
data_BaGePt
_symmetry_space_group_name_H-M   'P 1'
_cell_length_a   6.85133653
_cell_length_b   6.85133653
_cell_length_c   6.85133653
_cell_angle_alpha   90.00000000
_cell_angle_beta   90.00000000
_cell_angle_gamma   90.00000000
_symmetry_Int_Tables_number   1
_chemical_formula_structural   BaGePt
_chemical_formula_sum   'Ba4 Ge4 Pt4'
_cell_volume   321.60730170
_cell_formula_units_Z   4
loop_
 _symmetry_equiv_pos_site_id
 _symmetry_equiv_pos_as_xyz
  1  'x, y, z'
loop_
 _atom_site_type_symbol
 _atom_site_label
 _atom_site_symmetry_multiplicity
 _atom_site_fract_x
 _atom_site_fract_y
 _atom_site_fract_z
 _atom_site_occupancy
  Ba  Ba0  1  0.135902  0.135902  0.135902  1
  Ba  Ba1  1  0.635902  0.364098  0.864098  1
  Ba  Ba2  1  0.364098  0.864098  0.635902  1
  Ba  Ba3  1  0.864098  0.635902  0.364098  1
  Ge  Ge4  1  0.342193  0.657807  0.157807  1
  Ge  Ge5  1  0.157807  0.342193  0.657807  1
  Ge  Ge6  1  0.657807  0.157807  0.342193  1
  Ge  Ge7  1  0.842193  0.842193  0.842193  1
  Pt  Pt8  1  0.409981  0.409981  0.409981  1
  Pt  Pt9  1  0.090019  0.590019  0.909981  1
  Pt  Pt10  1  0.909981  0.090019  0.590019  1
  Pt  Pt11  1  0.590019  0.909981  0.090019  1
