# generated using pymatgen
data_MoPRu
_symmetry_space_group_name_H-M   'P 1'
_cell_length_a   3.90180312
_cell_length_b   6.04481603
_cell_length_c   6.97854508
_cell_angle_alpha   90.00000000
_cell_angle_beta   90.00000000
_cell_angle_gamma   90.00000000
_symmetry_Int_Tables_number   1
_chemical_formula_structural   MoPRu
_chemical_formula_sum   'Mo4 P4 Ru4'
_cell_volume   164.59374540
_cell_formula_units_Z   4
loop_
 _symmetry_equiv_pos_site_id
 _symmetry_equiv_pos_as_xyz
  1  'x, y, z'
loop_
 _atom_site_type_symbol
 _atom_site_label
 _atom_site_symmetry_multiplicity
 _atom_site_fract_x
 _atom_site_fract_y
 _atom_site_fract_z
 _atom_site_occupancy
  Mo  Mo0  1  0.750000  0.473847  0.668585  1
  Mo  Mo1  1  0.750000  0.973847  0.831415  1
  Mo  Mo2  1  0.250000  0.526153  0.331415  1
  Mo  Mo3  1  0.250000  0.026153  0.168585  1
  P  P4  1  0.750000  0.743978  0.117046  1
  P  P5  1  0.750000  0.243978  0.382954  1
  P  P6  1  0.250000  0.256022  0.882954  1
  P  P7  1  0.250000  0.756022  0.617046  1
  Ru  Ru8  1  0.750000  0.359074  0.068458  1
  Ru  Ru9  1  0.750000  0.859074  0.431542  1
  Ru  Ru10  1  0.250000  0.640926  0.931542  1
  Ru  Ru11  1  0.250000  0.140926  0.568458  1
