# generated using pymatgen
data_CaTbF6
_symmetry_space_group_name_H-M   'P 1'
_cell_length_a   5.47283852
_cell_length_b   5.47283852
_cell_length_c   7.96146587
_cell_angle_alpha   90.00000000
_cell_angle_beta   90.00000000
_cell_angle_gamma   90.00000000
_symmetry_Int_Tables_number   1
_chemical_formula_structural   CaTbF6
_chemical_formula_sum   'Ca2 Tb2 F12'
_cell_volume   238.46151895
_cell_formula_units_Z   2
loop_
 _symmetry_equiv_pos_site_id
 _symmetry_equiv_pos_as_xyz
  1  'x, y, z'
loop_
 _atom_site_type_symbol
 _atom_site_label
 _atom_site_symmetry_multiplicity
 _atom_site_fract_x
 _atom_site_fract_y
 _atom_site_fract_z
 _atom_site_occupancy
  Ca  Ca0  1  0.000000  0.000000  0.000000  1
  Ca  Ca1  1  0.000000  0.000000  0.500000  1
  Tb  Tb2  1  0.500000  0.500000  0.750000  1
  Tb  Tb3  1  0.500000  0.500000  0.250000  1
  F  F4  1  0.753115  0.201076  0.177089  1
  F  F5  1  0.246885  0.798924  0.177089  1
  F  F6  1  0.201076  0.246885  0.677089  1
  F  F7  1  0.798924  0.753115  0.677089  1
  F  F8  1  0.246885  0.798924  0.822911  1
  F  F9  1  0.753115  0.201076  0.822911  1
  F  F10  1  0.798924  0.753115  0.322911  1
  F  F11  1  0.201076  0.246885  0.322911  1
  F  F12  1  0.314098  0.336516  0.000000  1
  F  F13  1  0.685902  0.663484  0.000000  1
  F  F14  1  0.336516  0.685902  0.500000  1
  F  F15  1  0.663484  0.314098  0.500000  1
