# generated using pymatgen
data_K4CdAs2
_symmetry_space_group_name_H-M   'P 1'
_cell_length_a   9.97408680
_cell_length_b   9.97408680
_cell_length_c   9.97408680
_cell_angle_alpha   34.09379747
_cell_angle_beta   34.09379747
_cell_angle_gamma   34.09379747
_symmetry_Int_Tables_number   1
_chemical_formula_structural   K4CdAs2
_chemical_formula_sum   'K4 Cd1 As2'
_cell_volume   277.95597697
_cell_formula_units_Z   1
loop_
 _symmetry_equiv_pos_site_id
 _symmetry_equiv_pos_as_xyz
  1  'x, y, z'
loop_
 _atom_site_type_symbol
 _atom_site_label
 _atom_site_symmetry_multiplicity
 _atom_site_fract_x
 _atom_site_fract_y
 _atom_site_fract_z
 _atom_site_occupancy
  K  K0  1  0.791597  0.791597  0.791597  1
  K  K1  1  0.208403  0.208403  0.208403  1
  K  K2  1  0.608197  0.608197  0.608197  1
  K  K3  1  0.391803  0.391803  0.391803  1
  Cd  Cd4  1  0.000000  0.000000  0.000000  1
  As  As5  1  0.089502  0.089502  0.089502  1
  As  As6  1  0.910498  0.910498  0.910498  1
