# generated using pymatgen
data_AgXeF9
_symmetry_space_group_name_H-M   'P 1'
_cell_length_a   11.23486098
_cell_length_b   11.23486098
_cell_length_c   11.23486098
_cell_angle_alpha   150.16192642
_cell_angle_beta   150.16192642
_cell_angle_gamma   42.70376455
_symmetry_Int_Tables_number   1
_chemical_formula_structural   AgXeF9
_chemical_formula_sum   'Ag2 Xe2 F18'
_cell_volume   350.17117806
_cell_formula_units_Z   2
loop_
 _symmetry_equiv_pos_site_id
 _symmetry_equiv_pos_as_xyz
  1  'x, y, z'
loop_
 _atom_site_type_symbol
 _atom_site_label
 _atom_site_symmetry_multiplicity
 _atom_site_fract_x
 _atom_site_fract_y
 _atom_site_fract_z
 _atom_site_occupancy
  Ag  Ag0  1  0.500000  0.000000  0.500000  1
  Ag  Ag1  1  1.000000  0.500000  0.500000  1
  Xe  Xe2  1  0.848376  0.848376  0.000000  1
  Xe  Xe3  1  0.151624  0.151624  0.000000  1
  F  F4  1  0.915313  0.365095  0.152111  1
  F  F5  1  0.365095  0.212984  0.449783  1
  F  F6  1  0.246406  0.246406  0.000000  1
  F  F7  1  0.753594  0.753594  0.000000  1
  F  F8  1  0.866179  0.313023  0.837762  1
  F  F9  1  0.313023  0.475262  0.446845  1
  F  F10  1  0.028417  0.866179  0.553155  1
  F  F11  1  0.475262  0.028417  0.162238  1
  F  F12  1  0.133821  0.686977  0.162238  1
  F  F13  1  0.686977  0.524738  0.553155  1
  F  F14  1  0.971583  0.133821  0.446845  1
  F  F15  1  0.524738  0.971583  0.837762  1
  F  F16  1  0.763201  0.915313  0.550217  1
  F  F17  1  0.212984  0.763201  0.847889  1
  F  F18  1  0.787016  0.236799  0.152111  1
  F  F19  1  0.236799  0.084687  0.449783  1
  F  F20  1  0.634905  0.787016  0.550217  1
  F  F21  1  0.084687  0.634905  0.847889  1
