# generated using pymatgen
data_Tl3BSe3
_symmetry_space_group_name_H-M   'P 1'
_cell_length_a   5.86516143
_cell_length_b   10.47129687
_cell_length_c   6.91939698
_cell_angle_alpha   90.00000000
_cell_angle_beta   97.51674137
_cell_angle_gamma   90.00000000
_symmetry_Int_Tables_number   1
_chemical_formula_structural   Tl3BSe3
_chemical_formula_sum   'Tl6 B2 Se6'
_cell_volume   421.30880037
_cell_formula_units_Z   2
loop_
 _symmetry_equiv_pos_site_id
 _symmetry_equiv_pos_as_xyz
  1  'x, y, z'
loop_
 _atom_site_type_symbol
 _atom_site_label
 _atom_site_symmetry_multiplicity
 _atom_site_fract_x
 _atom_site_fract_y
 _atom_site_fract_z
 _atom_site_occupancy
  Tl  Tl0  1  0.719303  0.049366  0.334881  1
  Tl  Tl1  1  0.280697  0.549366  0.665119  1
  Tl  Tl2  1  0.280697  0.950634  0.665119  1
  Tl  Tl3  1  0.719303  0.450634  0.334881  1
  Tl  Tl4  1  0.177551  0.250000  0.003055  1
  Tl  Tl5  1  0.822449  0.750000  0.996945  1
  B  B6  1  0.613094  0.250000  0.738694  1
  B  B7  1  0.386906  0.750000  0.261306  1
  Se  Se8  1  0.245695  0.586206  0.171194  1
  Se  Se9  1  0.754305  0.086206  0.828806  1
  Se  Se10  1  0.754305  0.413794  0.828806  1
  Se  Se11  1  0.245695  0.913794  0.171194  1
  Se  Se12  1  0.672426  0.750000  0.446689  1
  Se  Se13  1  0.327574  0.250000  0.553311  1
