# generated using pymatgen
data_Gd(HO)3
_symmetry_space_group_name_H-M   'P 1'
_cell_length_a   6.38961689
_cell_length_b   6.38961689
_cell_length_c   3.63639808
_cell_angle_alpha   90.00000000
_cell_angle_beta   90.00000000
_cell_angle_gamma   120.00000000
_symmetry_Int_Tables_number   1
_chemical_formula_structural   Gd(HO)3
_chemical_formula_sum   'Gd2 H6 O6'
_cell_volume   128.57356631
_cell_formula_units_Z   2
loop_
 _symmetry_equiv_pos_site_id
 _symmetry_equiv_pos_as_xyz
  1  'x, y, z'
loop_
 _atom_site_type_symbol
 _atom_site_label
 _atom_site_symmetry_multiplicity
 _atom_site_fract_x
 _atom_site_fract_y
 _atom_site_fract_z
 _atom_site_occupancy
  Gd  Gd0  1  0.666667  0.333333  0.750000  1
  Gd  Gd1  1  0.333333  0.666667  0.250000  1
  H  H2  1  0.725650  0.860353  0.750000  1
  H  H3  1  0.865297  0.725650  0.250000  1
  H  H4  1  0.134703  0.274350  0.750000  1
  H  H5  1  0.274350  0.139647  0.250000  1
  H  H6  1  0.860353  0.134703  0.250000  1
  H  H7  1  0.139647  0.865297  0.750000  1
  O  O8  1  0.916968  0.605877  0.250000  1
  O  O9  1  0.605877  0.688909  0.750000  1
  O  O10  1  0.083032  0.394123  0.750000  1
  O  O11  1  0.394123  0.311091  0.250000  1
  O  O12  1  0.688909  0.083032  0.250000  1
  O  O13  1  0.311091  0.916968  0.750000  1
