# generated using pymatgen
data_LiSb(PO3)4
_symmetry_space_group_name_H-M   'P 1'
_cell_length_a   7.43223301
_cell_length_b   9.01848918
_cell_length_c   16.56194413
_cell_angle_alpha   90.00000000
_cell_angle_beta   110.40664173
_cell_angle_gamma   90.00000000
_symmetry_Int_Tables_number   1
_chemical_formula_structural   LiSb(PO3)4
_chemical_formula_sum   'Li4 Sb4 P16 O48'
_cell_volume   1040.43742730
_cell_formula_units_Z   4
loop_
 _symmetry_equiv_pos_site_id
 _symmetry_equiv_pos_as_xyz
  1  'x, y, z'
loop_
 _atom_site_type_symbol
 _atom_site_label
 _atom_site_symmetry_multiplicity
 _atom_site_fract_x
 _atom_site_fract_y
 _atom_site_fract_z
 _atom_site_occupancy
  Li  Li0  1  0.926646  0.586516  0.927727  1
  Li  Li1  1  0.073354  0.086516  0.572273  1
  Li  Li2  1  0.926646  0.913484  0.427727  1
  Li  Li3  1  0.073354  0.413484  0.072273  1
  Sb  Sb4  1  0.332415  0.648162  0.358882  1
  Sb  Sb5  1  0.332415  0.851838  0.858882  1
  Sb  Sb6  1  0.667585  0.148162  0.141118  1
  Sb  Sb7  1  0.667585  0.351838  0.641118  1
  P  P8  1  0.662235  0.058753  0.783662  1
  P  P9  1  0.352841  0.271155  0.422459  1
  P  P10  1  0.763233  0.239414  0.943757  1
  P  P11  1  0.076045  0.039147  0.306740  1
  P  P12  1  0.236767  0.739414  0.556243  1
  P  P13  1  0.337765  0.558753  0.716338  1
  P  P14  1  0.923955  0.539147  0.193260  1
  P  P15  1  0.352841  0.228845  0.922459  1
  P  P16  1  0.647159  0.771155  0.077541  1
  P  P17  1  0.076045  0.460853  0.806740  1
  P  P18  1  0.662235  0.441247  0.283662  1
  P  P19  1  0.763233  0.260586  0.443757  1
  P  P20  1  0.923955  0.960853  0.693260  1
  P  P21  1  0.236767  0.760586  0.056243  1
  P  P22  1  0.647159  0.728845  0.577541  1
  P  P23  1  0.337765  0.941247  0.216338  1
  O  O24  1  0.880545  0.379259  0.956795  1
  O  O25  1  0.796340  0.149085  0.865483  1
  O  O26  1  0.564804  0.158061  0.708142  1
  O  O27  1  0.178451  0.041794  0.235789  1
  O  O28  1  0.392005  0.277657  0.517711  1
  O  O29  1  0.461419  0.786131  0.598613  1
  O  O30  1  0.270094  0.405774  0.367876  1
  O  O31  1  0.462912  0.452713  0.689499  1
  O  O32  1  0.216228  0.131790  0.386489  1
  O  O33  1  0.108094  0.625769  0.232894  1
  O  O34  1  0.537088  0.952713  0.810501  1
  O  O35  1  0.538581  0.286131  0.901387  1
  O  O36  1  0.607995  0.777657  0.982289  1
  O  O37  1  0.060877  0.888713  0.342073  1
  O  O38  1  0.205791  0.637582  0.481370  1
  O  O39  1  0.435196  0.658061  0.791858  1
  O  O40  1  0.794209  0.137582  0.018630  1
  O  O41  1  0.939123  0.388713  0.157927  1
  O  O42  1  0.203660  0.649085  0.634517  1
  O  O43  1  0.891906  0.125769  0.267106  1
  O  O44  1  0.783772  0.631790  0.113511  1
  O  O45  1  0.119455  0.879259  0.543205  1
  O  O46  1  0.729906  0.905774  0.132124  1
  O  O47  1  0.178451  0.458206  0.735789  1
  O  O48  1  0.821549  0.541794  0.264211  1
  O  O49  1  0.270094  0.094226  0.867876  1
  O  O50  1  0.880545  0.120741  0.456795  1
  O  O51  1  0.216228  0.368210  0.886489  1
  O  O52  1  0.108094  0.874231  0.732894  1
  O  O53  1  0.796340  0.350915  0.365483  1
  O  O54  1  0.060877  0.611287  0.842073  1
  O  O55  1  0.205791  0.862418  0.981370  1
  O  O56  1  0.564804  0.341939  0.208142  1
  O  O57  1  0.794209  0.362418  0.518630  1
  O  O58  1  0.939123  0.111287  0.657927  1
  O  O59  1  0.392005  0.222343  0.017711  1
  O  O60  1  0.461419  0.713869  0.098613  1
  O  O61  1  0.462912  0.047287  0.189499  1
  O  O62  1  0.891906  0.374231  0.767106  1
  O  O63  1  0.783772  0.868210  0.613511  1
  O  O64  1  0.537088  0.547287  0.310501  1
  O  O65  1  0.729906  0.594226  0.632124  1
  O  O66  1  0.538581  0.213869  0.401387  1
  O  O67  1  0.607995  0.722343  0.482289  1
  O  O68  1  0.821549  0.958206  0.764211  1
  O  O69  1  0.435196  0.841939  0.291858  1
  O  O70  1  0.203660  0.850915  0.134517  1
  O  O71  1  0.119455  0.620741  0.043205  1
