# generated using pymatgen
data_U2Co3Si5
_symmetry_space_group_name_H-M   'P 1'
_cell_length_a   7.82942983
_cell_length_b   7.82942983
_cell_length_c   7.82942983
_cell_angle_alpha   138.28320543
_cell_angle_beta   104.37254791
_cell_angle_gamma   90.30544871
_symmetry_Int_Tables_number   1
_chemical_formula_structural   U2Co3Si5
_chemical_formula_sum   'U4 Co6 Si10'
_cell_volume   295.54666661
_cell_formula_units_Z   2
loop_
 _symmetry_equiv_pos_site_id
 _symmetry_equiv_pos_as_xyz
  1  'x, y, z'
loop_
 _atom_site_type_symbol
 _atom_site_label
 _atom_site_symmetry_multiplicity
 _atom_site_fract_x
 _atom_site_fract_y
 _atom_site_fract_z
 _atom_site_occupancy
  U  U0  1  0.131994  0.365546  0.766448  1
  U  U1  1  0.868006  0.634454  0.233552  1
  U  U2  1  0.400902  0.134454  0.266448  1
  U  U3  1  0.599098  0.865546  0.733552  1
  Co  Co4  1  0.000000  0.250000  0.250000  1
  Co  Co5  1  0.246618  0.861328  0.385289  1
  Co  Co6  1  0.476039  0.361328  0.114711  1
  Co  Co7  1  0.523961  0.638672  0.885289  1
  Co  Co8  1  0.000000  0.750000  0.750000  1
  Co  Co9  1  0.753382  0.138672  0.614711  1
  Si  Si10  1  0.949175  0.102526  0.846649  1
  Si  Si11  1  0.050825  0.897474  0.153351  1
  Si  Si12  1  0.744123  0.397474  0.346649  1
  Si  Si13  1  0.255877  0.602526  0.653351  1
  Si  Si14  1  0.771064  0.521064  0.750000  1
  Si  Si15  1  0.228936  0.978936  0.750000  1
  Si  Si16  1  0.228936  0.478936  0.250000  1
  Si  Si17  1  0.500000  0.250000  0.750000  1
  Si  Si18  1  0.500000  0.750000  0.250000  1
  Si  Si19  1  0.771064  0.021064  0.250000  1
