# generated using pymatgen
data_RbPbI3
_symmetry_space_group_name_H-M   'P 1'
_cell_length_a   4.86347019
_cell_length_b   10.62593324
_cell_length_c   17.78437326
_cell_angle_alpha   90.00000000
_cell_angle_beta   90.00000000
_cell_angle_gamma   90.00000000
_symmetry_Int_Tables_number   1
_chemical_formula_structural   RbPbI3
_chemical_formula_sum   'Rb4 Pb4 I12'
_cell_volume   919.07701717
_cell_formula_units_Z   4
loop_
 _symmetry_equiv_pos_site_id
 _symmetry_equiv_pos_as_xyz
  1  'x, y, z'
loop_
 _atom_site_type_symbol
 _atom_site_label
 _atom_site_symmetry_multiplicity
 _atom_site_fract_x
 _atom_site_fract_y
 _atom_site_fract_z
 _atom_site_occupancy
  Rb  Rb0  1  0.750000  0.415200  0.824945  1
  Rb  Rb1  1  0.250000  0.584800  0.175055  1
  Rb  Rb2  1  0.750000  0.915200  0.675055  1
  Rb  Rb3  1  0.250000  0.084800  0.324945  1
  Pb  Pb4  1  0.750000  0.166186  0.059308  1
  Pb  Pb5  1  0.250000  0.333814  0.559308  1
  Pb  Pb6  1  0.750000  0.666186  0.440692  1
  Pb  Pb7  1  0.250000  0.833814  0.940692  1
  I  I8  1  0.250000  0.975729  0.112709  1
  I  I9  1  0.250000  0.475729  0.387291  1
  I  I10  1  0.750000  0.524271  0.612709  1
  I  I11  1  0.750000  0.804927  0.286077  1
  I  I12  1  0.750000  0.304927  0.213923  1
  I  I13  1  0.250000  0.695073  0.786077  1
  I  I14  1  0.250000  0.339777  0.992273  1
  I  I15  1  0.250000  0.195073  0.713923  1
  I  I16  1  0.750000  0.160223  0.492273  1
  I  I17  1  0.750000  0.660223  0.007727  1
  I  I18  1  0.250000  0.839777  0.507727  1
  I  I19  1  0.750000  0.024271  0.887291  1
