# generated using pymatgen
data_Tl3BS3
_symmetry_space_group_name_H-M   'P 1'
_cell_length_a   5.78985119
_cell_length_b   9.99077490
_cell_length_c   6.73770161
_cell_angle_alpha   90.00000000
_cell_angle_beta   98.16032242
_cell_angle_gamma   90.00000000
_symmetry_Int_Tables_number   1
_chemical_formula_structural   Tl3BS3
_chemical_formula_sum   'Tl6 B2 S6'
_cell_volume   385.79678299
_cell_formula_units_Z   2
loop_
 _symmetry_equiv_pos_site_id
 _symmetry_equiv_pos_as_xyz
  1  'x, y, z'
loop_
 _atom_site_type_symbol
 _atom_site_label
 _atom_site_symmetry_multiplicity
 _atom_site_fract_x
 _atom_site_fract_y
 _atom_site_fract_z
 _atom_site_occupancy
  Tl  Tl0  1  0.714106  0.048490  0.328750  1
  Tl  Tl1  1  0.285894  0.548490  0.671250  1
  Tl  Tl2  1  0.285894  0.951510  0.671250  1
  Tl  Tl3  1  0.714106  0.451510  0.328750  1
  Tl  Tl4  1  0.159583  0.250000  0.008737  1
  Tl  Tl5  1  0.840417  0.750000  0.991263  1
  B  B6  1  0.612253  0.250000  0.739263  1
  B  B7  1  0.387747  0.750000  0.260737  1
  S  S8  1  0.250815  0.590533  0.180223  1
  S  S9  1  0.749185  0.090533  0.819777  1
  S  S10  1  0.749185  0.409467  0.819777  1
  S  S11  1  0.250815  0.909467  0.180223  1
  S  S12  1  0.665408  0.750000  0.428032  1
  S  S13  1  0.334592  0.250000  0.571968  1
