# generated using pymatgen
data_NaAlH4
_symmetry_space_group_name_H-M   'P 1'
_cell_length_a   6.57100453
_cell_length_b   6.57100453
_cell_length_c   6.57100453
_cell_angle_alpha   135.42543652
_cell_angle_beta   135.42543652
_cell_angle_gamma   64.86988131
_symmetry_Int_Tables_number   1
_chemical_formula_structural   NaAlH4
_chemical_formula_sum   'Na2 Al2 H8'
_cell_volume   137.76890677
_cell_formula_units_Z   2
loop_
 _symmetry_equiv_pos_site_id
 _symmetry_equiv_pos_as_xyz
  1  'x, y, z'
loop_
 _atom_site_type_symbol
 _atom_site_label
 _atom_site_symmetry_multiplicity
 _atom_site_fract_x
 _atom_site_fract_y
 _atom_site_fract_z
 _atom_site_occupancy
  Na  Na0  1  0.250000  0.750000  0.500000  1
  Na  Na1  1  0.500000  0.500000  0.000000  1
  Al  Al2  1  0.750000  0.250000  0.500000  1
  Al  Al3  1  0.000000  0.000000  0.000000  1
  H  H4  1  0.223492  0.316802  0.378395  1
  H  H5  1  0.066802  0.188407  0.593310  1
  H  H6  1  0.595097  0.473492  0.406690  1
  H  H7  1  0.938407  0.845097  0.621605  1
  H  H8  1  0.811593  0.404903  0.878395  1
  H  H9  1  0.154903  0.776508  0.093310  1
  H  H10  1  0.683198  0.061593  0.906690  1
  H  H11  1  0.526508  0.933198  0.121605  1
