# generated using pymatgen
data_Ta2AgF12
_symmetry_space_group_name_H-M   'P 1'
_cell_length_a   5.39686416
_cell_length_b   5.68875290
_cell_length_c   9.37592984
_cell_angle_alpha   103.83810748
_cell_angle_beta   88.01463351
_cell_angle_gamma   116.99953834
_symmetry_Int_Tables_number   1
_chemical_formula_structural   Ta2AgF12
_chemical_formula_sum   'Ta2 Ag1 F12'
_cell_volume   248.12579679
_cell_formula_units_Z   1
loop_
 _symmetry_equiv_pos_site_id
 _symmetry_equiv_pos_as_xyz
  1  'x, y, z'
loop_
 _atom_site_type_symbol
 _atom_site_label
 _atom_site_symmetry_multiplicity
 _atom_site_fract_x
 _atom_site_fract_y
 _atom_site_fract_z
 _atom_site_occupancy
  Ta  Ta0  1  0.777305  0.510888  0.270508  1
  Ta  Ta1  1  0.222695  0.489112  0.729492  1
  Ag  Ag2  1  0.000000  0.000000  0.000000  1
  F  F3  1  0.833915  0.271428  0.723517  1
  F  F4  1  0.166085  0.728572  0.276483  1
  F  F5  1  0.185083  0.736539  0.917992  1
  F  F6  1  0.719531  0.733019  0.435420  1
  F  F7  1  0.280469  0.266981  0.564580  1
  F  F8  1  0.801591  0.274539  0.371338  1
  F  F9  1  0.198409  0.725461  0.628662  1
  F  F10  1  0.383905  0.294159  0.209767  1
  F  F11  1  0.616095  0.705841  0.790233  1
  F  F12  1  0.753876  0.728711  0.133259  1
  F  F13  1  0.246124  0.271289  0.866741  1
  F  F14  1  0.814917  0.263461  0.082008  1
