# generated using pymatgen
data_TlV5S8
_symmetry_space_group_name_H-M   'P 1'
_cell_length_a   8.93709224
_cell_length_b   8.93709224
_cell_length_c   8.55172468
_cell_angle_alpha   75.54710056
_cell_angle_beta   104.45289944
_cell_angle_gamma   158.96881549
_symmetry_Int_Tables_number   1
_chemical_formula_structural   TlV5S8
_chemical_formula_sum   'Tl1 V5 S8'
_cell_volume   237.09740798
_cell_formula_units_Z   1
loop_
 _symmetry_equiv_pos_site_id
 _symmetry_equiv_pos_as_xyz
  1  'x, y, z'
loop_
 _atom_site_type_symbol
 _atom_site_label
 _atom_site_symmetry_multiplicity
 _atom_site_fract_x
 _atom_site_fract_y
 _atom_site_fract_z
 _atom_site_occupancy
  Tl  Tl0  1  0.985469  0.985469  0.000000  1
  V  V1  1  0.111796  0.815352  0.496823  1
  V  V2  1  0.815352  0.111796  0.503177  1
  V  V3  1  0.463262  0.463262  0.500000  1
  V  V4  1  0.752212  0.174010  0.141395  1
  V  V5  1  0.174010  0.752212  0.858605  1
  S  S6  1  0.888816  0.037339  0.320626  1
  S  S7  1  0.037339  0.888816  0.679374  1
  S  S8  1  0.548697  0.378915  0.320036  1
  S  S9  1  0.378915  0.548697  0.679964  1
  S  S10  1  0.222112  0.704334  0.339961  1
  S  S11  1  0.704334  0.222112  0.660039  1
  S  S12  1  0.302602  0.624084  0.999815  1
  S  S13  1  0.624084  0.302602  0.000185  1
