# generated using pymatgen
data_DyFeO3
_symmetry_space_group_name_H-M   'P 1'
_cell_length_a   5.33306392
_cell_length_b   5.65585517
_cell_length_c   7.71307153
_cell_angle_alpha   90.00000000
_cell_angle_beta   90.00000000
_cell_angle_gamma   90.00000000
_symmetry_Int_Tables_number   1
_chemical_formula_structural   DyFeO3
_chemical_formula_sum   'Dy4 Fe4 O12'
_cell_volume   232.64966305
_cell_formula_units_Z   4
loop_
 _symmetry_equiv_pos_site_id
 _symmetry_equiv_pos_as_xyz
  1  'x, y, z'
loop_
 _atom_site_type_symbol
 _atom_site_label
 _atom_site_symmetry_multiplicity
 _atom_site_fract_x
 _atom_site_fract_y
 _atom_site_fract_z
 _atom_site_occupancy
  Dy  Dy0  1  0.018981  0.930745  0.750000  1
  Dy  Dy1  1  0.518981  0.569255  0.250000  1
  Dy  Dy2  1  0.481019  0.430745  0.750000  1
  Dy  Dy3  1  0.981019  0.069255  0.250000  1
  Fe  Fe4  1  0.500000  0.000000  0.500000  1
  Fe  Fe5  1  0.000000  0.500000  0.500000  1
  Fe  Fe6  1  0.000000  0.500000  0.000000  1
  Fe  Fe7  1  0.500000  0.000000  0.000000  1
  O  O8  1  0.309043  0.693608  0.559533  1
  O  O9  1  0.809043  0.806392  0.440467  1
  O  O10  1  0.190957  0.193608  0.940467  1
  O  O11  1  0.690957  0.306392  0.059533  1
  O  O12  1  0.690957  0.306392  0.440467  1
  O  O13  1  0.190957  0.193608  0.559533  1
  O  O14  1  0.809043  0.806392  0.059533  1
  O  O15  1  0.309043  0.693608  0.940467  1
  O  O16  1  0.116462  0.456839  0.250000  1
  O  O17  1  0.616462  0.043161  0.750000  1
  O  O18  1  0.383538  0.956839  0.250000  1
  O  O19  1  0.883538  0.543161  0.750000  1
