# generated using pymatgen
data_Tl3FeCl5
_symmetry_space_group_name_H-M   'P 1'
_cell_length_a   9.59613920
_cell_length_b   9.59613920
_cell_length_c   9.59613920
_cell_angle_alpha   127.19383562
_cell_angle_beta   127.19383562
_cell_angle_gamma   77.93467205
_symmetry_Int_Tables_number   1
_chemical_formula_structural   Tl3FeCl5
_chemical_formula_sum   'Tl6 Fe2 Cl10'
_cell_volume   543.44342992
_cell_formula_units_Z   2
loop_
 _symmetry_equiv_pos_site_id
 _symmetry_equiv_pos_as_xyz
  1  'x, y, z'
loop_
 _atom_site_type_symbol
 _atom_site_label
 _atom_site_symmetry_multiplicity
 _atom_site_fract_x
 _atom_site_fract_y
 _atom_site_fract_z
 _atom_site_occupancy
  Tl  Tl0  1  0.750000  0.750000  0.000000  1
  Tl  Tl1  1  0.250000  0.250000  0.000000  1
  Tl  Tl2  1  0.835455  0.335455  0.170910  1
  Tl  Tl3  1  0.335455  0.164545  0.500000  1
  Tl  Tl4  1  0.664545  0.835455  0.500000  1
  Tl  Tl5  1  0.164545  0.664545  0.829090  1
  Fe  Fe6  1  0.250000  0.750000  0.500000  1
  Fe  Fe7  1  0.750000  0.250000  0.500000  1
  Cl  Cl8  1  0.500000  0.500000  0.000000  1
  Cl  Cl9  1  0.000000  0.000000  0.000000  1
  Cl  Cl10  1  0.505754  0.005754  0.201703  1
  Cl  Cl11  1  0.195949  0.695949  0.201703  1
  Cl  Cl12  1  0.494246  0.994246  0.798297  1
  Cl  Cl13  1  0.994246  0.195949  0.500000  1
  Cl  Cl14  1  0.695949  0.494246  0.500000  1
  Cl  Cl15  1  0.005754  0.804051  0.500000  1
  Cl  Cl16  1  0.804051  0.304051  0.798297  1
  Cl  Cl17  1  0.304051  0.505754  0.500000  1
