# generated using pymatgen
data_Li4Cu(PO4)2
_symmetry_space_group_name_H-M   'P 1'
_cell_length_a   6.34530170
_cell_length_b   5.00248272
_cell_length_c   10.56903808
_cell_angle_alpha   90.00000000
_cell_angle_beta   91.25868583
_cell_angle_gamma   90.00000000
_symmetry_Int_Tables_number   1
_chemical_formula_structural   Li4Cu(PO4)2
_chemical_formula_sum   'Li8 Cu2 P4 O16'
_cell_volume   335.40422710
_cell_formula_units_Z   2
loop_
 _symmetry_equiv_pos_site_id
 _symmetry_equiv_pos_as_xyz
  1  'x, y, z'
loop_
 _atom_site_type_symbol
 _atom_site_label
 _atom_site_symmetry_multiplicity
 _atom_site_fract_x
 _atom_site_fract_y
 _atom_site_fract_z
 _atom_site_occupancy
  Li  Li0  1  0.997379  0.938658  0.154956  1
  Li  Li1  1  0.260687  0.458335  0.576492  1
  Li  Li2  1  0.260687  0.541665  0.076492  1
  Li  Li3  1  0.997379  0.061342  0.654956  1
  Li  Li4  1  0.509726  0.941249  0.163330  1
  Li  Li5  1  0.509726  0.058751  0.663330  1
  Li  Li6  1  0.504662  0.434296  0.339040  1
  Li  Li7  1  0.504662  0.565704  0.839040  1
  Cu  Cu8  1  0.977084  0.577207  0.839764  1
  Cu  Cu9  1  0.977084  0.422793  0.339764  1
  P  P10  1  0.751084  0.573324  0.594222  1
  P  P11  1  0.250464  0.951346  0.407244  1
  P  P12  1  0.751084  0.426676  0.094222  1
  P  P13  1  0.250464  0.048654  0.907244  1
  O  O14  1  0.751133  0.523046  0.954102  1
  O  O15  1  0.040787  0.959564  0.835888  1
  O  O16  1  0.963695  0.537343  0.158434  1
  O  O17  1  0.963695  0.462657  0.658434  1
  O  O18  1  0.750747  0.123410  0.104752  1
  O  O19  1  0.247985  0.364152  0.908172  1
  O  O20  1  0.750747  0.876590  0.604752  1
  O  O21  1  0.751133  0.476954  0.454102  1
  O  O22  1  0.555439  0.546786  0.159665  1
  O  O23  1  0.555439  0.453214  0.659665  1
  O  O24  1  0.438688  0.053901  0.333811  1
  O  O25  1  0.438688  0.946099  0.833811  1
  O  O26  1  0.249932  0.944034  0.045717  1
  O  O27  1  0.249932  0.055966  0.545717  1
  O  O28  1  0.247985  0.635848  0.408172  1
  O  O29  1  0.040787  0.040436  0.335888  1
