# generated using pymatgen
data_K2Sb4S7
_symmetry_space_group_name_H-M   'P 1'
_cell_length_a   6.62572822
_cell_length_b   6.62572822
_cell_length_c   17.81284635
_cell_angle_alpha   86.73137531
_cell_angle_beta   93.26862469
_cell_angle_gamma   104.84415916
_symmetry_Int_Tables_number   1
_chemical_formula_structural   K2Sb4S7
_chemical_formula_sum   'K4 Sb8 S14'
_cell_volume   753.93216742
_cell_formula_units_Z   2
loop_
 _symmetry_equiv_pos_site_id
 _symmetry_equiv_pos_as_xyz
  1  'x, y, z'
loop_
 _atom_site_type_symbol
 _atom_site_label
 _atom_site_symmetry_multiplicity
 _atom_site_fract_x
 _atom_site_fract_y
 _atom_site_fract_z
 _atom_site_occupancy
  K  K0  1  0.214521  0.551201  0.795381  1
  K  K1  1  0.551201  0.214521  0.704619  1
  K  K2  1  0.785479  0.448799  0.204619  1
  K  K3  1  0.448799  0.785479  0.295381  1
  Sb  Sb4  1  0.636785  0.306129  0.966683  1
  Sb  Sb5  1  0.693871  0.363215  0.466683  1
  Sb  Sb6  1  0.363215  0.693871  0.033317  1
  Sb  Sb7  1  0.306129  0.636785  0.533317  1
  Sb  Sb8  1  0.118904  0.139436  0.381080  1
  Sb  Sb9  1  0.139436  0.118904  0.118920  1
  Sb  Sb10  1  0.881096  0.860564  0.618920  1
  Sb  Sb11  1  0.860564  0.881096  0.881080  1
  S  S12  1  0.512330  0.735338  0.656134  1
  S  S13  1  0.523748  0.974795  0.872630  1
  S  S14  1  0.487670  0.264662  0.343866  1
  S  S15  1  0.264662  0.487670  0.156134  1
  S  S16  1  0.998214  0.998214  0.250000  1
  S  S17  1  0.001786  0.001786  0.750000  1
  S  S18  1  0.025205  0.476252  0.372630  1
  S  S19  1  0.476252  0.025205  0.127370  1
  S  S20  1  0.974795  0.523748  0.627370  1
  S  S21  1  0.318843  0.270642  0.539007  1
  S  S22  1  0.729358  0.681157  0.039007  1
  S  S23  1  0.681157  0.729358  0.460993  1
  S  S24  1  0.735338  0.512330  0.843866  1
  S  S25  1  0.270642  0.318843  0.960993  1
