# generated using pymatgen
data_Nd3(BN2)2
_symmetry_space_group_name_H-M   'P 1'
_cell_length_a   6.52385164
_cell_length_b   6.52385164
_cell_length_c   6.52385164
_cell_angle_alpha   148.36023982
_cell_angle_beta   122.17288110
_cell_angle_gamma   67.42832878
_symmetry_Int_Tables_number   1
_chemical_formula_structural   Nd3(BN2)2
_chemical_formula_sum   'Nd3 B2 N4'
_cell_volume   121.76861765
_cell_formula_units_Z   1
loop_
 _symmetry_equiv_pos_site_id
 _symmetry_equiv_pos_as_xyz
  1  'x, y, z'
loop_
 _atom_site_type_symbol
 _atom_site_label
 _atom_site_symmetry_multiplicity
 _atom_site_fract_x
 _atom_site_fract_y
 _atom_site_fract_z
 _atom_site_occupancy
  Nd  Nd0  1  0.701828  0.201828  0.500000  1
  Nd  Nd1  1  0.298172  0.798172  0.500000  1
  Nd  Nd2  1  0.000000  0.000000  0.000000  1
  B  B3  1  0.356963  0.500000  0.856963  1
  B  B4  1  0.643037  0.500000  0.143037  1
  N  N5  1  0.362743  0.618956  0.743787  1
  N  N6  1  0.875169  0.618956  0.256213  1
  N  N7  1  0.124831  0.381044  0.743787  1
  N  N8  1  0.637257  0.381044  0.256213  1
