# generated using pymatgen
data_Pb(IO3)2
_symmetry_space_group_name_H-M   'P 1'
_cell_length_a   5.63974329
_cell_length_b   6.17602248
_cell_length_c   17.05650427
_cell_angle_alpha   90.00000000
_cell_angle_beta   90.00000000
_cell_angle_gamma   90.00000000
_symmetry_Int_Tables_number   1
_chemical_formula_structural   Pb(IO3)2
_chemical_formula_sum   'Pb4 I8 O24'
_cell_volume   594.09819326
_cell_formula_units_Z   4
loop_
 _symmetry_equiv_pos_site_id
 _symmetry_equiv_pos_as_xyz
  1  'x, y, z'
loop_
 _atom_site_type_symbol
 _atom_site_label
 _atom_site_symmetry_multiplicity
 _atom_site_fract_x
 _atom_site_fract_y
 _atom_site_fract_z
 _atom_site_occupancy
  Pb  Pb0  1  0.761788  0.250000  0.500000  1
  Pb  Pb1  1  0.738212  0.750000  0.000000  1
  Pb  Pb2  1  0.238212  0.750000  0.500000  1
  Pb  Pb3  1  0.261788  0.250000  0.000000  1
  I  I4  1  0.754877  0.701309  0.338416  1
  I  I5  1  0.754877  0.798691  0.661584  1
  I  I6  1  0.745123  0.201309  0.161584  1
  I  I7  1  0.745123  0.298691  0.838416  1
  I  I8  1  0.245123  0.298691  0.661584  1
  I  I9  1  0.245123  0.201309  0.338416  1
  I  I10  1  0.254877  0.798691  0.838416  1
  I  I11  1  0.254877  0.701309  0.161584  1
  O  O12  1  0.590548  0.923127  0.387147  1
  O  O13  1  0.590548  0.576873  0.612853  1
  O  O14  1  0.909452  0.423127  0.112853  1
  O  O15  1  0.909452  0.076873  0.887147  1
  O  O16  1  0.409452  0.076873  0.612853  1
  O  O17  1  0.409452  0.423127  0.387147  1
  O  O18  1  0.090548  0.576873  0.887147  1
  O  O19  1  0.090548  0.923127  0.112853  1
  O  O20  1  0.000750  0.848145  0.291521  1
  O  O21  1  0.000750  0.651855  0.708479  1
  O  O22  1  0.499250  0.348145  0.208479  1
  O  O23  1  0.499250  0.151855  0.791521  1
  O  O24  1  0.396950  0.602067  0.069638  1
  O  O25  1  0.396950  0.897933  0.930362  1
  O  O26  1  0.103050  0.102067  0.430362  1
  O  O27  1  0.103050  0.397933  0.569638  1
  O  O28  1  0.603050  0.397933  0.930362  1
  O  O29  1  0.603050  0.102067  0.069638  1
  O  O30  1  0.896950  0.897933  0.569638  1
  O  O31  1  0.896950  0.602067  0.430362  1
  O  O32  1  0.500750  0.848145  0.208479  1
  O  O33  1  0.500750  0.651855  0.791521  1
  O  O34  1  0.999250  0.348145  0.291521  1
  O  O35  1  0.999250  0.151855  0.708479  1
