# generated using pymatgen
data_Sr2MnGe2O7
_symmetry_space_group_name_H-M   'P 1'
_cell_length_a   8.40188559
_cell_length_b   8.40188559
_cell_length_c   5.39022535
_cell_angle_alpha   90.00000000
_cell_angle_beta   90.00000000
_cell_angle_gamma   90.00000000
_symmetry_Int_Tables_number   1
_chemical_formula_structural   Sr2MnGe2O7
_chemical_formula_sum   'Sr4 Mn2 Ge4 O14'
_cell_volume   380.50507094
_cell_formula_units_Z   2
loop_
 _symmetry_equiv_pos_site_id
 _symmetry_equiv_pos_as_xyz
  1  'x, y, z'
loop_
 _atom_site_type_symbol
 _atom_site_label
 _atom_site_symmetry_multiplicity
 _atom_site_fract_x
 _atom_site_fract_y
 _atom_site_fract_z
 _atom_site_occupancy
  Sr  Sr0  1  0.833933  0.666067  0.506363  1
  Sr  Sr1  1  0.666067  0.166067  0.493637  1
  Sr  Sr2  1  0.166067  0.333933  0.506363  1
  Sr  Sr3  1  0.333933  0.833933  0.493637  1
  Mn  Mn4  1  0.500000  0.500000  0.000000  1
  Mn  Mn5  1  0.000000  0.000000  0.000000  1
  Ge  Ge6  1  0.359089  0.140911  0.943888  1
  Ge  Ge7  1  0.140911  0.640911  0.056112  1
  Ge  Ge8  1  0.640911  0.859089  0.943888  1
  Ge  Ge9  1  0.859089  0.359089  0.056112  1
  O  O10  1  0.000000  0.500000  0.188169  1
  O  O11  1  0.500000  0.000000  0.811831  1
  O  O12  1  0.360987  0.139013  0.266695  1
  O  O13  1  0.139013  0.639013  0.733305  1
  O  O14  1  0.639013  0.860987  0.266695  1
  O  O15  1  0.860987  0.360987  0.733305  1
  O  O16  1  0.315313  0.580538  0.216606  1
  O  O17  1  0.184687  0.080538  0.783394  1
  O  O18  1  0.684687  0.419462  0.216606  1
  O  O19  1  0.815313  0.919462  0.783394  1
  O  O20  1  0.580538  0.684687  0.783394  1
  O  O21  1  0.919462  0.184687  0.216606  1
  O  O22  1  0.419462  0.315313  0.783394  1
  O  O23  1  0.080538  0.815313  0.216606  1
