# generated using pymatgen
data_ZnH8C2N4(ClO)2
_symmetry_space_group_name_H-M   'P 1'
_cell_length_a   6.39496728
_cell_length_b   6.96046856
_cell_length_c   11.97671850
_cell_angle_alpha   88.61416652
_cell_angle_beta   103.91731592
_cell_angle_gamma   113.50251082
_symmetry_Int_Tables_number   1
_chemical_formula_structural   ZnH8C2N4(ClO)2
_chemical_formula_sum   'Zn2 H16 C4 N8 Cl4 O4'
_cell_volume   472.98703971
_cell_formula_units_Z   2
loop_
 _symmetry_equiv_pos_site_id
 _symmetry_equiv_pos_as_xyz
  1  'x, y, z'
loop_
 _atom_site_type_symbol
 _atom_site_label
 _atom_site_symmetry_multiplicity
 _atom_site_fract_x
 _atom_site_fract_y
 _atom_site_fract_z
 _atom_site_occupancy
  Zn  Zn0  1  0.523059  0.336620  0.749051  1
  Zn  Zn1  1  0.476941  0.663380  0.250949  1
  H  H2  1  0.764968  0.016441  0.592738  1
  H  H3  1  0.235032  0.983559  0.407262  1
  H  H4  1  0.731831  0.754414  0.577190  1
  H  H5  1  0.268169  0.245586  0.422810  1
  H  H6  1  0.067611  0.680650  0.643313  1
  H  H7  1  0.932389  0.319350  0.356687  1
  H  H8  1  0.333033  0.877352  0.718871  1
  H  H9  1  0.666967  0.122648  0.281129  1
  H  H10  1  0.166585  0.347285  0.952156  1
  H  H11  1  0.010526  0.669668  0.186027  1
  H  H12  1  0.689344  0.052867  0.071784  1
  H  H13  1  0.310656  0.947133  0.928216  1
  H  H14  1  0.999070  0.173445  0.095202  1
  H  H15  1  0.989474  0.330332  0.813973  1
  H  H16  1  0.000930  0.826555  0.904798  1
  H  H17  1  0.833415  0.652715  0.047844  1
  C  C18  1  0.066032  0.974695  0.656618  1
  C  C19  1  0.190963  0.804410  0.065212  1
  C  C20  1  0.809037  0.195590  0.934788  1
  C  C21  1  0.933968  0.025305  0.343382  1
  N  N22  1  0.835819  0.907779  0.603867  1
  N  N23  1  0.164181  0.092221  0.396133  1
  N  N24  1  0.165217  0.869796  0.958570  1
  N  N25  1  0.834783  0.130204  0.041430  1
  N  N26  1  0.832157  0.163683  0.332560  1
  N  N27  1  0.167843  0.836317  0.667440  1
  N  N28  1  0.996780  0.686805  0.100404  1
  N  N29  1  0.003220  0.313195  0.899596  1
  Cl  Cl30  1  0.576179  0.635337  0.841341  1
  Cl  Cl31  1  0.292892  0.640059  0.393368  1
  Cl  Cl32  1  0.707108  0.359941  0.606632  1
  Cl  Cl33  1  0.423821  0.364663  0.158659  1
  O  O34  1  0.180373  0.168298  0.694291  1
  O  O35  1  0.399142  0.853601  0.131461  1
  O  O36  1  0.600858  0.146399  0.868539  1
  O  O37  1  0.819627  0.831702  0.305709  1
