# generated using pymatgen
data_CaSnAu
_symmetry_space_group_name_H-M   'P 1'
_cell_length_a   4.78195138
_cell_length_b   8.27696041
_cell_length_c   37.31282104
_cell_angle_alpha   90.00000000
_cell_angle_beta   90.00000000
_cell_angle_gamma   90.00000000
_symmetry_Int_Tables_number   1
_chemical_formula_structural   CaSnAu
_chemical_formula_sum   'Ca20 Sn20 Au20'
_cell_volume   1476.84228715
_cell_formula_units_Z   20
loop_
 _symmetry_equiv_pos_site_id
 _symmetry_equiv_pos_as_xyz
  1  'x, y, z'
loop_
 _atom_site_type_symbol
 _atom_site_label
 _atom_site_symmetry_multiplicity
 _atom_site_fract_x
 _atom_site_fract_y
 _atom_site_fract_z
 _atom_site_occupancy
  Ca  Ca0  1  0.250000  0.216307  0.999182  1
  Ca  Ca1  1  0.750000  0.783693  0.000818  1
  Ca  Ca2  1  0.750000  0.716307  0.500818  1
  Ca  Ca3  1  0.250000  0.283693  0.499182  1
  Ca  Ca4  1  0.250000  0.291787  0.100223  1
  Ca  Ca5  1  0.750000  0.708213  0.899777  1
  Ca  Ca6  1  0.750000  0.791787  0.399777  1
  Ca  Ca7  1  0.250000  0.208213  0.600223  1
  Ca  Ca8  1  0.250000  0.212578  0.201201  1
  Ca  Ca9  1  0.750000  0.787422  0.798799  1
  Ca  Ca10  1  0.750000  0.712578  0.298799  1
  Ca  Ca11  1  0.250000  0.287422  0.701201  1
  Ca  Ca12  1  0.250000  0.289950  0.300705  1
  Ca  Ca13  1  0.750000  0.710050  0.699295  1
  Ca  Ca14  1  0.750000  0.789950  0.199295  1
  Ca  Ca15  1  0.250000  0.210050  0.800705  1
  Ca  Ca16  1  0.250000  0.210325  0.400004  1
  Ca  Ca17  1  0.750000  0.789675  0.599996  1
  Ca  Ca18  1  0.750000  0.710325  0.099996  1
  Ca  Ca19  1  0.250000  0.289675  0.900004  1
  Sn  Sn20  1  0.250000  0.915100  0.059408  1
  Sn  Sn21  1  0.750000  0.084900  0.940592  1
  Sn  Sn22  1  0.750000  0.415100  0.440592  1
  Sn  Sn23  1  0.250000  0.584900  0.559408  1
  Sn  Sn24  1  0.250000  0.915767  0.140158  1
  Sn  Sn25  1  0.750000  0.084233  0.859842  1
  Sn  Sn26  1  0.750000  0.415767  0.359842  1
  Sn  Sn27  1  0.250000  0.584233  0.640158  1
  Sn  Sn28  1  0.250000  0.588203  0.239748  1
  Sn  Sn29  1  0.750000  0.411797  0.760252  1
  Sn  Sn30  1  0.750000  0.088203  0.260252  1
  Sn  Sn31  1  0.250000  0.911797  0.739748  1
  Sn  Sn32  1  0.250000  0.915513  0.340605  1
  Sn  Sn33  1  0.750000  0.084487  0.659395  1
  Sn  Sn34  1  0.750000  0.415513  0.159395  1
  Sn  Sn35  1  0.250000  0.584487  0.840605  1
  Sn  Sn36  1  0.250000  0.914109  0.458838  1
  Sn  Sn37  1  0.750000  0.085891  0.541162  1
  Sn  Sn38  1  0.750000  0.414109  0.041162  1
  Sn  Sn39  1  0.250000  0.585891  0.958838  1
  Au  Au40  1  0.250000  0.586207  0.040303  1
  Au  Au41  1  0.750000  0.413793  0.959697  1
  Au  Au42  1  0.750000  0.086207  0.459697  1
  Au  Au43  1  0.250000  0.913793  0.540303  1
  Au  Au44  1  0.250000  0.587239  0.159826  1
  Au  Au45  1  0.750000  0.412761  0.840174  1
  Au  Au46  1  0.750000  0.087239  0.340174  1
  Au  Au47  1  0.250000  0.912761  0.659826  1
  Au  Au48  1  0.250000  0.915886  0.258615  1
  Au  Au49  1  0.750000  0.084114  0.741385  1
  Au  Au50  1  0.750000  0.415886  0.241385  1
  Au  Au51  1  0.250000  0.584114  0.758615  1
  Au  Au52  1  0.250000  0.587365  0.355560  1
  Au  Au53  1  0.750000  0.412635  0.644440  1
  Au  Au54  1  0.750000  0.087365  0.144440  1
  Au  Au55  1  0.250000  0.912635  0.855560  1
  Au  Au56  1  0.250000  0.585617  0.444440  1
  Au  Au57  1  0.750000  0.414383  0.555560  1
  Au  Au58  1  0.750000  0.085617  0.055560  1
  Au  Au59  1  0.250000  0.914383  0.944440  1
