# generated using pymatgen
data_Zn2PH2CO7
_symmetry_space_group_name_H-M   'P 1'
_cell_length_a   8.05274412
_cell_length_b   4.87175497
_cell_length_c   15.52956951
_cell_angle_alpha   90.00000000
_cell_angle_beta   113.52081280
_cell_angle_gamma   90.00000000
_symmetry_Int_Tables_number   1
_chemical_formula_structural   Zn2PH2CO7
_chemical_formula_sum   'Zn8 P4 H8 C4 O28'
_cell_volume   558.62183913
_cell_formula_units_Z   4
loop_
 _symmetry_equiv_pos_site_id
 _symmetry_equiv_pos_as_xyz
  1  'x, y, z'
loop_
 _atom_site_type_symbol
 _atom_site_label
 _atom_site_symmetry_multiplicity
 _atom_site_fract_x
 _atom_site_fract_y
 _atom_site_fract_z
 _atom_site_occupancy
  Zn  Zn0  1  0.444565  0.494645  0.633416  1
  Zn  Zn1  1  0.555435  0.994645  0.866584  1
  Zn  Zn2  1  0.555435  0.505355  0.366584  1
  Zn  Zn3  1  0.444565  0.005355  0.133416  1
  Zn  Zn4  1  0.902454  0.475483  0.807100  1
  Zn  Zn5  1  0.097546  0.975483  0.692900  1
  Zn  Zn6  1  0.097546  0.524517  0.192900  1
  Zn  Zn7  1  0.902454  0.024517  0.307100  1
  P  P8  1  0.697145  0.028634  0.701012  1
  P  P9  1  0.302855  0.528634  0.798988  1
  P  P10  1  0.302855  0.971366  0.298988  1
  P  P11  1  0.697145  0.471366  0.201012  1
  H  H12  1  0.218368  0.499552  0.466278  1
  H  H13  1  0.781632  0.999552  0.033722  1
  H  H14  1  0.781632  0.500448  0.533722  1
  H  H15  1  0.218368  0.000448  0.966278  1
  H  H16  1  0.361518  0.737554  0.467160  1
  H  H17  1  0.361518  0.762446  0.967160  1
  H  H18  1  0.638482  0.237554  0.032840  1
  H  H19  1  0.638482  0.262446  0.532840  1
  C  C20  1  0.932837  0.619136  0.992074  1
  C  C21  1  0.067163  0.119136  0.507926  1
  C  C22  1  0.067163  0.380864  0.007926  1
  C  C23  1  0.932837  0.880864  0.492074  1
  O  O24  1  0.301549  0.853732  0.005184  1
  O  O25  1  0.305892  0.290186  0.301663  1
  O  O26  1  0.305892  0.209814  0.801663  1
  O  O27  1  0.694108  0.709814  0.698337  1
  O  O28  1  0.661613  0.346619  0.284564  1
  O  O29  1  0.338387  0.846620  0.215436  1
  O  O30  1  0.338387  0.653381  0.715436  1
  O  O31  1  0.694108  0.790186  0.198337  1
  O  O32  1  0.888893  0.357612  0.216918  1
  O  O33  1  0.111107  0.857612  0.283082  1
  O  O34  1  0.111107  0.642388  0.783082  1
  O  O35  1  0.888893  0.142388  0.716918  1
  O  O36  1  0.552310  0.351872  0.108680  1
  O  O37  1  0.447690  0.851872  0.391320  1
  O  O38  1  0.447690  0.648128  0.891320  1
  O  O39  1  0.552310  0.148128  0.608680  1
  O  O40  1  0.074648  0.227595  0.435262  1
  O  O41  1  0.925352  0.727595  0.064738  1
  O  O42  1  0.925352  0.772405  0.564738  1
  O  O43  1  0.074648  0.272405  0.935262  1
  O  O44  1  0.159478  0.191236  0.592048  1
  O  O45  1  0.840522  0.691236  0.907952  1
  O  O46  1  0.840522  0.808764  0.407952  1
  O  O47  1  0.159478  0.308764  0.092048  1
  O  O48  1  0.698451  0.146268  0.994816  1
  O  O49  1  0.301549  0.646268  0.505184  1
  O  O50  1  0.661613  0.153381  0.784564  1
  O  O51  1  0.698451  0.353732  0.494816  1
