# generated using pymatgen
data_NaV6O11
_symmetry_space_group_name_H-M   'P 1'
_cell_length_a   5.87526223
_cell_length_b   5.87526223
_cell_length_c   13.49737124
_cell_angle_alpha   90.00000000
_cell_angle_beta   90.00000000
_cell_angle_gamma   120.00000000
_symmetry_Int_Tables_number   1
_chemical_formula_structural   NaV6O11
_chemical_formula_sum   'Na2 V12 O22'
_cell_volume   403.49144912
_cell_formula_units_Z   2
loop_
 _symmetry_equiv_pos_site_id
 _symmetry_equiv_pos_as_xyz
  1  'x, y, z'
loop_
 _atom_site_type_symbol
 _atom_site_label
 _atom_site_symmetry_multiplicity
 _atom_site_fract_x
 _atom_site_fract_y
 _atom_site_fract_z
 _atom_site_occupancy
  Na  Na0  1  0.333333  0.666667  0.233793  1
  Na  Na1  1  0.666667  0.333333  0.733793  1
  V  V2  1  0.000000  0.000000  0.144267  1
  V  V3  1  0.000000  0.000000  0.644267  1
  V  V4  1  0.000000  0.000000  0.347198  1
  V  V5  1  0.000000  0.000000  0.847198  1
  V  V6  1  0.499964  0.999927  0.496084  1
  V  V7  1  0.499964  0.500036  0.496084  1
  V  V8  1  0.000073  0.500036  0.496084  1
  V  V9  1  0.500036  0.000073  0.996084  1
  V  V10  1  0.500036  0.499964  0.996084  1
  V  V11  1  0.999927  0.499964  0.996084  1
  V  V12  1  0.333333  0.666667  0.746796  1
  V  V13  1  0.666667  0.333333  0.246796  1
  O  O14  1  0.333333  0.666667  0.912560  1
  O  O15  1  0.666667  0.333333  0.412560  1
  O  O16  1  0.173713  0.347427  0.421962  1
  O  O17  1  0.173713  0.826287  0.421962  1
  O  O18  1  0.652573  0.826287  0.421962  1
  O  O19  1  0.826287  0.652573  0.921962  1
  O  O20  1  0.826287  0.173713  0.921962  1
  O  O21  1  0.347427  0.173713  0.921962  1
  O  O22  1  0.333333  0.666667  0.578857  1
  O  O23  1  0.666667  0.333333  0.078857  1
  O  O24  1  0.147359  0.294717  0.745992  1
  O  O25  1  0.147359  0.852641  0.745992  1
  O  O26  1  0.705283  0.852641  0.745992  1
  O  O27  1  0.852641  0.705283  0.245992  1
  O  O28  1  0.852641  0.147359  0.245992  1
  O  O29  1  0.294717  0.147359  0.245992  1
  O  O30  1  0.175651  0.351302  0.071738  1
  O  O31  1  0.175651  0.824349  0.071738  1
  O  O32  1  0.648698  0.824349  0.071738  1
  O  O33  1  0.824349  0.648698  0.571738  1
  O  O34  1  0.824349  0.175651  0.571738  1
  O  O35  1  0.351302  0.175651  0.571738  1
