# generated using pymatgen
data_NbS2
_symmetry_space_group_name_H-M   'P 1'
_cell_length_a   11.85187409
_cell_length_b   11.61157877
_cell_length_c   3.35678723
_cell_angle_alpha   85.85853879
_cell_angle_beta   77.73265960
_cell_angle_gamma   16.40880161
_symmetry_Int_Tables_number   1
_chemical_formula_structural   NbS2
_chemical_formula_sum   'Nb1 S2'
_cell_volume   112.09373506
_cell_formula_units_Z   1
loop_
 _symmetry_equiv_pos_site_id
 _symmetry_equiv_pos_as_xyz
  1  'x, y, z'
loop_
 _atom_site_type_symbol
 _atom_site_label
 _atom_site_symmetry_multiplicity
 _atom_site_fract_x
 _atom_site_fract_y
 _atom_site_fract_z
 _atom_site_occupancy
  Nb  Nb0  1  0.922438  0.077562  0.922438  1
  S  S1  1  0.187516  0.676004  0.323996  1
  S  S2  1  0.323996  0.812484  0.187516  1
