# generated using pymatgen
data_LiMnH6O7
_symmetry_space_group_name_H-M   'P 1'
_cell_length_a   7.77012274
_cell_length_b   7.77012274
_cell_length_c   5.65000337
_cell_angle_alpha   90.00000000
_cell_angle_beta   90.00000000
_cell_angle_gamma   120.00000000
_symmetry_Int_Tables_number   1
_chemical_formula_structural   LiMnH6O7
_chemical_formula_sum   'Li2 Mn2 H12 O14'
_cell_volume   295.41673720
_cell_formula_units_Z   2
loop_
 _symmetry_equiv_pos_site_id
 _symmetry_equiv_pos_as_xyz
  1  'x, y, z'
loop_
 _atom_site_type_symbol
 _atom_site_label
 _atom_site_symmetry_multiplicity
 _atom_site_fract_x
 _atom_site_fract_y
 _atom_site_fract_z
 _atom_site_occupancy
  Li  Li0  1  0.000000  0.000000  0.718806  1
  Li  Li1  1  0.000000  0.000000  0.218806  1
  Mn  Mn2  1  0.333333  0.666667  0.001831  1
  Mn  Mn3  1  0.666667  0.333333  0.501831  1
  H  H4  1  0.668407  0.934830  0.457270  1
  H  H5  1  0.331593  0.266422  0.957270  1
  H  H6  1  0.065170  0.733578  0.457270  1
  H  H7  1  0.266422  0.331593  0.457270  1
  H  H8  1  0.733578  0.668407  0.957270  1
  H  H9  1  0.331593  0.065170  0.957270  1
  H  H10  1  0.934830  0.266422  0.957270  1
  H  H11  1  0.668407  0.733578  0.457270  1
  H  H12  1  0.934830  0.668407  0.957270  1
  H  H13  1  0.733578  0.065170  0.957270  1
  H  H14  1  0.266422  0.934830  0.457270  1
  H  H15  1  0.065170  0.331593  0.457270  1
  O  O16  1  0.878269  0.756538  0.968293  1
  O  O17  1  0.552572  0.105143  0.408569  1
  O  O18  1  0.756538  0.878269  0.468293  1
  O  O19  1  0.878269  0.121731  0.968293  1
  O  O20  1  0.121731  0.878269  0.468293  1
  O  O21  1  0.552572  0.447428  0.408569  1
  O  O22  1  0.105143  0.552572  0.908569  1
  O  O23  1  0.447428  0.894857  0.908569  1
  O  O24  1  0.121731  0.243462  0.468293  1
  O  O25  1  0.894857  0.447428  0.408569  1
  O  O26  1  0.447428  0.552572  0.908569  1
  O  O27  1  0.666667  0.333333  0.786459  1
  O  O28  1  0.333333  0.666667  0.286459  1
  O  O29  1  0.243462  0.121731  0.968293  1
