# generated using pymatgen
data_NaZn2H3(SO4)2
_symmetry_space_group_name_H-M   'P 1'
_cell_length_a   6.38264422
_cell_length_b   7.93289329
_cell_length_c   8.99946020
_cell_angle_alpha   99.79430992
_cell_angle_beta   109.57709151
_cell_angle_gamma   112.28069239
_symmetry_Int_Tables_number   1
_chemical_formula_structural   NaZn2H3(SO4)2
_chemical_formula_sum   'Na2 Zn4 H6 S4 O16'
_cell_volume   373.48501872
_cell_formula_units_Z   2
loop_
 _symmetry_equiv_pos_site_id
 _symmetry_equiv_pos_as_xyz
  1  'x, y, z'
loop_
 _atom_site_type_symbol
 _atom_site_label
 _atom_site_symmetry_multiplicity
 _atom_site_fract_x
 _atom_site_fract_y
 _atom_site_fract_z
 _atom_site_occupancy
  Na  Na0  1  0.435579  0.825918  0.089942  1
  Na  Na1  1  0.564421  0.174082  0.910058  1
  Zn  Zn2  1  0.186582  0.172523  0.194335  1
  Zn  Zn3  1  0.813418  0.827477  0.805665  1
  Zn  Zn4  1  0.500000  0.000000  0.500000  1
  Zn  Zn5  1  0.000000  0.000000  0.500000  1
  H  H6  1  0.549912  0.557941  0.269657  1
  H  H7  1  0.450088  0.442059  0.730343  1
  H  H8  1  0.297039  0.552610  0.271248  1
  H  H9  1  0.702961  0.447390  0.728752  1
  H  H10  1  0.388550  0.280137  0.507174  1
  H  H11  1  0.611450  0.719863  0.492826  1
  S  S12  1  0.240761  0.745756  0.702989  1
  S  S13  1  0.934511  0.700291  0.152928  1
  S  S14  1  0.759239  0.254244  0.297011  1
  S  S15  1  0.065489  0.299709  0.847072  1
  O  O16  1  0.409355  0.492072  0.298575  1
  O  O17  1  0.590645  0.507928  0.701425  1
  O  O18  1  0.289253  0.143984  0.431319  1
  O  O19  1  0.710747  0.856016  0.568681  1
  O  O20  1  0.818393  0.742752  0.271284  1
  O  O21  1  0.181607  0.257248  0.728716  1
  O  O22  1  0.792649  0.255098  0.734491  1
  O  O23  1  0.207351  0.744902  0.265509  1
  O  O24  1  0.970678  0.863387  0.074083  1
  O  O25  1  0.029322  0.136613  0.925917  1
  O  O26  1  0.728398  0.079276  0.365319  1
  O  O27  1  0.271602  0.920724  0.634681  1
  O  O28  1  0.509773  0.825371  0.845116  1
  O  O29  1  0.490227  0.174629  0.154884  1
  O  O30  1  0.096406  0.756488  0.806992  1
  O  O31  1  0.903594  0.243512  0.193008  1
