# generated using pymatgen
data_K3Cu2F7
_symmetry_space_group_name_H-M   'P 1'
_cell_length_a   11.02344031
_cell_length_b   11.02344031
_cell_length_c   11.02344031
_cell_angle_alpha   158.61006409
_cell_angle_beta   158.61006409
_cell_angle_gamma   30.43099627
_symmetry_Int_Tables_number   1
_chemical_formula_structural   K3Cu2F7
_chemical_formula_sum   'K3 Cu2 F7'
_cell_volume   178.06480048
_cell_formula_units_Z   1
loop_
 _symmetry_equiv_pos_site_id
 _symmetry_equiv_pos_as_xyz
  1  'x, y, z'
loop_
 _atom_site_type_symbol
 _atom_site_label
 _atom_site_symmetry_multiplicity
 _atom_site_fract_x
 _atom_site_fract_y
 _atom_site_fract_z
 _atom_site_occupancy
  K  K0  1  0.316211  0.316211  0.000000  1
  K  K1  1  0.683789  0.683789  0.000000  1
  K  K2  1  0.500000  0.500000  0.000000  1
  Cu  Cu3  1  0.095975  0.095975  0.000000  1
  Cu  Cu4  1  0.904025  0.904025  0.000000  1
  F  F5  1  0.905323  0.405323  0.500000  1
  F  F6  1  0.405323  0.905323  0.500000  1
  F  F7  1  0.094677  0.594677  0.500000  1
  F  F8  1  0.594677  0.094677  0.500000  1
  F  F9  1  0.000000  0.000000  0.000000  1
  F  F10  1  0.191306  0.191306  0.000000  1
  F  F11  1  0.808694  0.808694  0.000000  1
