# generated using pymatgen
data_Hf2Ag3F14
_symmetry_space_group_name_H-M   'P 1'
_cell_length_a   5.83697563
_cell_length_b   5.83697563
_cell_length_c   9.25560777
_cell_angle_alpha   89.01329213
_cell_angle_beta   90.98670787
_cell_angle_gamma   108.69079540
_symmetry_Int_Tables_number   1
_chemical_formula_structural   Hf2Ag3F14
_chemical_formula_sum   'Hf2 Ag3 F14'
_cell_volume   298.64356351
_cell_formula_units_Z   1
loop_
 _symmetry_equiv_pos_site_id
 _symmetry_equiv_pos_as_xyz
  1  'x, y, z'
loop_
 _atom_site_type_symbol
 _atom_site_label
 _atom_site_symmetry_multiplicity
 _atom_site_fract_x
 _atom_site_fract_y
 _atom_site_fract_z
 _atom_site_occupancy
  Hf  Hf0  1  0.590635  0.409365  0.214378  1
  Hf  Hf1  1  0.409365  0.590635  0.785622  1
  Ag  Ag2  1  0.000000  0.000000  0.000000  1
  Ag  Ag3  1  0.811845  0.188155  0.603963  1
  Ag  Ag4  1  0.188155  0.811845  0.396037  1
  F  F5  1  0.143905  0.268781  0.838222  1
  F  F6  1  0.268781  0.143905  0.161778  1
  F  F7  1  0.856095  0.731219  0.161778  1
  F  F8  1  0.731219  0.856095  0.838222  1
  F  F9  1  0.152472  0.494577  0.616252  1
  F  F10  1  0.500000  0.500000  0.000000  1
  F  F11  1  0.000000  0.000000  0.500000  1
  F  F12  1  0.607938  0.392062  0.706176  1
  F  F13  1  0.392062  0.607938  0.293824  1
  F  F14  1  0.227635  0.772365  0.879337  1
  F  F15  1  0.772365  0.227635  0.120663  1
  F  F16  1  0.505423  0.847528  0.616252  1
  F  F17  1  0.847528  0.505423  0.383748  1
  F  F18  1  0.494577  0.152472  0.383748  1
