# generated using pymatgen
data_Zr6BCl14
_symmetry_space_group_name_H-M   'P 1'
_cell_length_a   9.73775001
_cell_length_b   9.73775001
_cell_length_c   11.72198382
_cell_angle_alpha   90.00000000
_cell_angle_beta   90.00000000
_cell_angle_gamma   96.23393907
_symmetry_Int_Tables_number   1
_chemical_formula_structural   Zr6BCl14
_chemical_formula_sum   'Zr12 B2 Cl28'
_cell_volume   1104.95012108
_cell_formula_units_Z   2
loop_
 _symmetry_equiv_pos_site_id
 _symmetry_equiv_pos_as_xyz
  1  'x, y, z'
loop_
 _atom_site_type_symbol
 _atom_site_label
 _atom_site_symmetry_multiplicity
 _atom_site_fract_x
 _atom_site_fract_y
 _atom_site_fract_z
 _atom_site_occupancy
  Zr  Zr0  1  0.648325  0.648325  0.107843  1
  Zr  Zr1  1  0.851675  0.851675  0.607843  1
  Zr  Zr2  1  0.148325  0.148325  0.392157  1
  Zr  Zr3  1  0.351675  0.351675  0.892157  1
  Zr  Zr4  1  0.452679  0.687795  0.883260  1
  Zr  Zr5  1  0.047321  0.812205  0.383260  1
  Zr  Zr6  1  0.187795  0.952679  0.616740  1
  Zr  Zr7  1  0.312205  0.547321  0.116740  1
  Zr  Zr8  1  0.547321  0.312205  0.116740  1
  Zr  Zr9  1  0.952679  0.187795  0.616740  1
  Zr  Zr10  1  0.812205  0.047321  0.383260  1
  Zr  Zr11  1  0.687795  0.452679  0.883260  1
  B  B12  1  0.500000  0.500000  0.000000  1
  B  B13  1  0.000000  0.000000  0.500000  1
  Cl  Cl14  1  0.249460  0.750540  0.500000  1
  Cl  Cl15  1  0.250540  0.749460  1.000000  1
  Cl  Cl16  1  0.750540  0.249460  0.500000  1
  Cl  Cl17  1  0.749460  0.250540  0.000000  1
  Cl  Cl18  1  0.842277  0.842277  0.241238  1
  Cl  Cl19  1  0.657723  0.657723  0.741238  1
  Cl  Cl20  1  0.342277  0.342277  0.258762  1
  Cl  Cl21  1  0.157723  0.157723  0.758762  1
  Cl  Cl22  1  0.602536  0.102536  0.250000  1
  Cl  Cl23  1  0.897464  0.397464  0.750000  1
  Cl  Cl24  1  0.964705  0.206624  0.251629  1
  Cl  Cl25  1  0.535295  0.293376  0.751629  1
  Cl  Cl26  1  0.706624  0.464705  0.248371  1
  Cl  Cl27  1  0.793376  0.035295  0.748371  1
  Cl  Cl28  1  0.035295  0.793376  0.748371  1
  Cl  Cl29  1  0.464705  0.706624  0.248371  1
  Cl  Cl30  1  0.293376  0.535295  0.751629  1
  Cl  Cl31  1  0.206624  0.964705  0.251629  1
  Cl  Cl32  1  0.136931  0.382154  0.008500  1
  Cl  Cl33  1  0.363069  0.117846  0.508500  1
  Cl  Cl34  1  0.882154  0.636931  0.491500  1
  Cl  Cl35  1  0.617846  0.863069  0.991500  1
  Cl  Cl36  1  0.863069  0.617846  0.991500  1
  Cl  Cl37  1  0.636931  0.882154  0.491500  1
  Cl  Cl38  1  0.117846  0.363069  0.508500  1
  Cl  Cl39  1  0.382154  0.136931  0.008500  1
  Cl  Cl40  1  0.102536  0.602536  0.250000  1
  Cl  Cl41  1  0.397464  0.897464  0.750000  1
