# generated using pymatgen
data_YGe3
_symmetry_space_group_name_H-M   'P 1'
_cell_length_a   10.70880124
_cell_length_b   10.70880124
_cell_length_c   3.94230207
_cell_angle_alpha   90.00000000
_cell_angle_beta   90.00000000
_cell_angle_gamma   158.18118027
_symmetry_Int_Tables_number   1
_chemical_formula_structural   YGe3
_chemical_formula_sum   'Y2 Ge6'
_cell_volume   168.03214970
_cell_formula_units_Z   2
loop_
 _symmetry_equiv_pos_site_id
 _symmetry_equiv_pos_as_xyz
  1  'x, y, z'
loop_
 _atom_site_type_symbol
 _atom_site_label
 _atom_site_symmetry_multiplicity
 _atom_site_fract_x
 _atom_site_fract_y
 _atom_site_fract_z
 _atom_site_occupancy
  Y  Y0  1  0.417611  0.582389  0.250000  1
  Y  Y1  1  0.582389  0.417611  0.750000  1
  Ge  Ge2  1  0.810585  0.189415  0.250000  1
  Ge  Ge3  1  0.189415  0.810585  0.750000  1
  Ge  Ge4  1  0.960764  0.039236  0.750000  1
  Ge  Ge5  1  0.039236  0.960764  0.250000  1
  Ge  Ge6  1  0.308666  0.691334  0.750000  1
  Ge  Ge7  1  0.691334  0.308666  0.250000  1
