# generated using pymatgen
data_CaGa4
_symmetry_space_group_name_H-M   'P 1'
_cell_length_a   4.38333833
_cell_length_b   4.38333833
_cell_length_c   6.17800135
_cell_angle_alpha   69.83220367
_cell_angle_beta   110.16779633
_cell_angle_gamma   90.27913241
_symmetry_Int_Tables_number   1
_chemical_formula_structural   CaGa4
_chemical_formula_sum   'Ca1 Ga4'
_cell_volume   103.71326393
_cell_formula_units_Z   1
loop_
 _symmetry_equiv_pos_site_id
 _symmetry_equiv_pos_as_xyz
  1  'x, y, z'
loop_
 _atom_site_type_symbol
 _atom_site_label
 _atom_site_symmetry_multiplicity
 _atom_site_fract_x
 _atom_site_fract_y
 _atom_site_fract_z
 _atom_site_occupancy
  Ca  Ca0  1  0.000000  0.000000  0.000000  1
  Ga  Ga1  1  0.402046  0.597954  0.770056  1
  Ga  Ga2  1  0.597954  0.402046  0.229944  1
  Ga  Ga3  1  0.764974  0.764974  0.500000  1
  Ga  Ga4  1  0.235026  0.235026  0.500000  1
