# generated using pymatgen
data_GaPt2
_symmetry_space_group_name_H-M   'P 1'
_cell_length_a   3.96705997
_cell_length_b   5.57587950
_cell_length_c   16.68876824
_cell_angle_alpha   90.00000000
_cell_angle_beta   90.00000000
_cell_angle_gamma   90.00000000
_symmetry_Int_Tables_number   1
_chemical_formula_structural   GaPt2
_chemical_formula_sum   'Ga8 Pt16'
_cell_volume   369.15302282
_cell_formula_units_Z   8
loop_
 _symmetry_equiv_pos_site_id
 _symmetry_equiv_pos_as_xyz
  1  'x, y, z'
loop_
 _atom_site_type_symbol
 _atom_site_label
 _atom_site_symmetry_multiplicity
 _atom_site_fract_x
 _atom_site_fract_y
 _atom_site_fract_z
 _atom_site_occupancy
  Ga  Ga0  1  0.500000  0.000000  0.000000  1
  Ga  Ga1  1  0.500000  0.000000  0.500000  1
  Ga  Ga2  1  0.000000  0.794288  0.250000  1
  Ga  Ga3  1  0.000000  0.205712  0.750000  1
  Ga  Ga4  1  0.000000  0.316568  0.093146  1
  Ga  Ga5  1  0.000000  0.683432  0.906854  1
  Ga  Ga6  1  0.000000  0.316568  0.406854  1
  Ga  Ga7  1  0.000000  0.683432  0.593146  1
  Pt  Pt8  1  0.500000  0.500000  0.000000  1
  Pt  Pt9  1  0.500000  0.500000  0.500000  1
  Pt  Pt10  1  0.000000  0.268217  0.250000  1
  Pt  Pt11  1  0.000000  0.731783  0.750000  1
  Pt  Pt12  1  0.000000  0.795771  0.069145  1
  Pt  Pt13  1  0.000000  0.204229  0.930855  1
  Pt  Pt14  1  0.000000  0.795771  0.430855  1
  Pt  Pt15  1  0.000000  0.204229  0.569145  1
  Pt  Pt16  1  0.500000  0.051362  0.155953  1
  Pt  Pt17  1  0.500000  0.948638  0.844047  1
  Pt  Pt18  1  0.500000  0.051362  0.344047  1
  Pt  Pt19  1  0.500000  0.948638  0.655953  1
  Pt  Pt20  1  0.500000  0.557871  0.167997  1
  Pt  Pt21  1  0.500000  0.442129  0.832003  1
  Pt  Pt22  1  0.500000  0.557871  0.332003  1
  Pt  Pt23  1  0.500000  0.442129  0.667997  1
