# generated using pymatgen
data_In9Pb4S17
_symmetry_space_group_name_H-M   'P 1'
_cell_length_a   3.90496495
_cell_length_b   15.48829082
_cell_length_c   23.02619294
_cell_angle_alpha   90.00000000
_cell_angle_beta   90.00000000
_cell_angle_gamma   90.00000000
_symmetry_Int_Tables_number   1
_chemical_formula_structural   In9Pb4S17
_chemical_formula_sum   'In18 Pb8 S34'
_cell_volume   1392.65253541
_cell_formula_units_Z   2
loop_
 _symmetry_equiv_pos_site_id
 _symmetry_equiv_pos_as_xyz
  1  'x, y, z'
loop_
 _atom_site_type_symbol
 _atom_site_label
 _atom_site_symmetry_multiplicity
 _atom_site_fract_x
 _atom_site_fract_y
 _atom_site_fract_z
 _atom_site_occupancy
  In  In0  1  0.500000  0.067046  0.864102  1
  In  In1  1  0.500000  0.932954  0.135898  1
  In  In2  1  0.500000  0.567046  0.635898  1
  In  In3  1  0.500000  0.432954  0.364102  1
  In  In4  1  0.500000  0.269338  0.610100  1
  In  In5  1  0.500000  0.730662  0.389900  1
  In  In6  1  0.500000  0.769338  0.889900  1
  In  In7  1  0.500000  0.230662  0.110100  1
  In  In8  1  0.000000  0.167593  0.739072  1
  In  In9  1  0.000000  0.832407  0.260928  1
  In  In10  1  0.000000  0.667593  0.760928  1
  In  In11  1  0.000000  0.332407  0.239072  1
  In  In12  1  0.000000  0.500000  0.500000  1
  In  In13  1  0.000000  0.000000  0.000000  1
  In  In14  1  0.000000  0.051262  0.577954  1
  In  In15  1  0.000000  0.948738  0.422046  1
  In  In16  1  0.000000  0.551262  0.922046  1
  In  In17  1  0.000000  0.448738  0.077954  1
  Pb  Pb18  1  0.500000  0.294925  0.936174  1
  Pb  Pb19  1  0.500000  0.705075  0.063826  1
  Pb  Pb20  1  0.500000  0.794925  0.563826  1
  Pb  Pb21  1  0.500000  0.205075  0.436174  1
  Pb  Pb22  1  0.500000  0.408165  0.781103  1
  Pb  Pb23  1  0.500000  0.591835  0.218897  1
  Pb  Pb24  1  0.500000  0.908165  0.718897  1
  Pb  Pb25  1  0.500000  0.091835  0.281103  1
  S  S26  1  0.500000  0.067382  0.066756  1
  S  S27  1  0.500000  0.932618  0.933244  1
  S  S28  1  0.500000  0.567382  0.433244  1
  S  S29  1  0.500000  0.432618  0.566756  1
  S  S30  1  0.500000  0.500000  0.000000  1
  S  S31  1  0.500000  0.000000  0.500000  1
  S  S32  1  0.000000  0.212932  0.540406  1
  S  S33  1  0.000000  0.787068  0.459594  1
  S  S34  1  0.000000  0.712932  0.959594  1
  S  S35  1  0.000000  0.287068  0.040406  1
  S  S36  1  0.000000  0.020894  0.790018  1
  S  S37  1  0.000000  0.979106  0.209982  1
  S  S38  1  0.000000  0.520894  0.709982  1
  S  S39  1  0.000000  0.479106  0.290018  1
  S  S40  1  0.000000  0.308495  0.682085  1
  S  S41  1  0.500000  0.104105  0.656895  1
  S  S42  1  0.500000  0.604105  0.843105  1
  S  S43  1  0.500000  0.395895  0.156895  1
  S  S44  1  0.500000  0.219296  0.806321  1
  S  S45  1  0.500000  0.780704  0.193679  1
  S  S46  1  0.500000  0.719296  0.693679  1
  S  S47  1  0.500000  0.280704  0.306321  1
  S  S48  1  0.000000  0.131521  0.929043  1
  S  S49  1  0.000000  0.868479  0.070957  1
  S  S50  1  0.000000  0.631521  0.570957  1
  S  S51  1  0.000000  0.368479  0.429043  1
  S  S52  1  0.000000  0.102080  0.372652  1
  S  S53  1  0.000000  0.897920  0.627348  1
  S  S54  1  0.000000  0.602080  0.127348  1
  S  S55  1  0.000000  0.397920  0.872652  1
  S  S56  1  0.000000  0.191505  0.182085  1
  S  S57  1  0.000000  0.808495  0.817915  1
  S  S58  1  0.000000  0.691505  0.317915  1
  S  S59  1  0.500000  0.895895  0.343105  1
