# generated using pymatgen
data_Li3Sb2P5O18
_symmetry_space_group_name_H-M   'P 1'
_cell_length_a   6.57894191
_cell_length_b   9.78810526
_cell_length_c   11.03884428
_cell_angle_alpha   95.77220495
_cell_angle_beta   92.90230007
_cell_angle_gamma   91.13824854
_symmetry_Int_Tables_number   1
_chemical_formula_structural   Li3Sb2P5O18
_chemical_formula_sum   'Li6 Sb4 P10 O36'
_cell_volume   706.11624391
_cell_formula_units_Z   2
loop_
 _symmetry_equiv_pos_site_id
 _symmetry_equiv_pos_as_xyz
  1  'x, y, z'
loop_
 _atom_site_type_symbol
 _atom_site_label
 _atom_site_symmetry_multiplicity
 _atom_site_fract_x
 _atom_site_fract_y
 _atom_site_fract_z
 _atom_site_occupancy
  Li  Li0  1  0.097271  0.183227  0.690059  1
  Li  Li1  1  0.348494  0.360064  0.837110  1
  Li  Li2  1  0.649663  0.634308  0.166437  1
  Li  Li3  1  0.884822  0.820815  0.336010  1
  Li  Li4  1  0.191313  0.882144  0.642409  1
  Li  Li5  1  0.979902  0.981015  0.123239  1
  Sb  Sb6  1  0.673881  0.230434  0.044115  1
  Sb  Sb7  1  0.231739  0.348608  0.390291  1
  Sb  Sb8  1  0.769319  0.652512  0.611298  1
  Sb  Sb9  1  0.315625  0.763813  0.956441  1
  P  P10  1  0.479926  0.045821  0.795846  1
  P  P11  1  0.225023  0.015870  0.387091  1
  P  P12  1  0.171770  0.280577  0.095353  1
  P  P13  1  0.845817  0.431866  0.815713  1
  P  P14  1  0.725095  0.425112  0.363000  1
  P  P15  1  0.278698  0.572764  0.640988  1
  P  P16  1  0.149891  0.571649  0.189644  1
  P  P17  1  0.821542  0.723233  0.909993  1
  P  P18  1  0.783904  0.984708  0.598711  1
  P  P19  1  0.526220  0.948865  0.199299  1
  O  O20  1  0.970929  0.005489  0.684964  1
  O  O21  1  0.647218  0.081326  0.900119  1
  O  O22  1  0.428604  0.031447  0.311561  1
  O  O23  1  0.752605  0.075804  0.501081  1
  O  O24  1  0.675932  0.050420  0.148644  1
  O  O25  1  0.367059  0.168168  0.758760  1
  O  O26  1  0.218752  0.169127  0.455689  1
  O  O27  1  0.003861  0.173302  0.054676  1
  O  O28  1  0.269175  0.255058  0.222413  1
  O  O29  1  0.023834  0.339916  0.803967  1
  O  O30  1  0.667980  0.381217  0.883290  1
  O  O31  1  0.339724  0.283867  0.006291  1
  O  O32  1  0.917234  0.332264  0.369805  1
  O  O33  1  0.542143  0.356789  0.423495  1
  O  O34  1  0.210979  0.436629  0.558984  1
  O  O35  1  0.768178  0.475258  0.686902  1
  O  O36  1  0.063116  0.425809  0.112955  1
  O  O37  1  0.667082  0.455267  0.235195  1
  O  O38  1  0.332514  0.541563  0.768693  1
  O  O39  1  0.930478  0.577308  0.892884  1
  O  O40  1  0.234313  0.528491  0.316890  1
  O  O41  1  0.790029  0.564674  0.443994  1
  O  O42  1  0.459133  0.647926  0.584158  1
  O  O43  1  0.639111  0.711661  0.988431  1
  O  O44  1  0.092505  0.673876  0.633630  1
  O  O45  1  0.325288  0.620274  0.118108  1
  O  O46  1  0.972534  0.663900  0.203592  1
  O  O47  1  0.750568  0.754413  0.779062  1
  O  O48  1  0.980916  0.826555  0.970395  1
  O  O49  1  0.781515  0.825885  0.534647  1
  O  O50  1  0.629340  0.824696  0.239806  1
  O  O51  1  0.341555  0.925013  0.827141  1
  O  O52  1  0.254101  0.920248  0.483204  1
  O  O53  1  0.587551  0.975704  0.680625  1
  O  O54  1  0.345857  0.915796  0.099735  1
  O  O55  1  0.050557  0.979830  0.294530  1
