# generated using pymatgen
data_Yb5Ge4
_symmetry_space_group_name_H-M   'P 1'
_cell_length_a   7.49618779
_cell_length_b   7.86745552
_cell_length_c   15.51623575
_cell_angle_alpha   90.00000000
_cell_angle_beta   90.00000000
_cell_angle_gamma   90.00000000
_symmetry_Int_Tables_number   1
_chemical_formula_structural   Yb5Ge4
_chemical_formula_sum   'Yb20 Ge16'
_cell_volume   915.08434047
_cell_formula_units_Z   4
loop_
 _symmetry_equiv_pos_site_id
 _symmetry_equiv_pos_as_xyz
  1  'x, y, z'
loop_
 _atom_site_type_symbol
 _atom_site_label
 _atom_site_symmetry_multiplicity
 _atom_site_fract_x
 _atom_site_fract_y
 _atom_site_fract_z
 _atom_site_occupancy
  Yb  Yb0  1  0.321688  0.176842  0.122318  1
  Yb  Yb1  1  0.821688  0.323158  0.377682  1
  Yb  Yb2  1  0.178312  0.676842  0.877682  1
  Yb  Yb3  1  0.678312  0.823158  0.622318  1
  Yb  Yb4  1  0.321688  0.176842  0.377682  1
  Yb  Yb5  1  0.821688  0.323158  0.122318  1
  Yb  Yb6  1  0.178312  0.676842  0.622318  1
  Yb  Yb7  1  0.678312  0.823158  0.877682  1
  Yb  Yb8  1  0.978064  0.820899  0.402469  1
  Yb  Yb9  1  0.478064  0.679101  0.097531  1
  Yb  Yb10  1  0.521936  0.320899  0.597531  1
  Yb  Yb11  1  0.021936  0.179101  0.902469  1
  Yb  Yb12  1  0.021936  0.179101  0.597531  1
  Yb  Yb13  1  0.521936  0.320899  0.902469  1
  Yb  Yb14  1  0.478064  0.679101  0.402469  1
  Yb  Yb15  1  0.978064  0.820899  0.097531  1
  Yb  Yb16  1  0.351109  0.008374  0.750000  1
  Yb  Yb17  1  0.851109  0.491626  0.750000  1
  Yb  Yb18  1  0.148891  0.508374  0.250000  1
  Yb  Yb19  1  0.648891  0.991626  0.250000  1
  Ge  Ge20  1  0.850188  0.525951  0.538217  1
  Ge  Ge21  1  0.350188  0.974049  0.961783  1
  Ge  Ge22  1  0.649812  0.025951  0.461783  1
  Ge  Ge23  1  0.149812  0.474049  0.038217  1
  Ge  Ge24  1  0.149812  0.474049  0.461783  1
  Ge  Ge25  1  0.649812  0.025951  0.038217  1
  Ge  Ge26  1  0.350188  0.974049  0.538217  1
  Ge  Ge27  1  0.850188  0.525951  0.961783  1
  Ge  Ge28  1  0.971892  0.897643  0.750000  1
  Ge  Ge29  1  0.471892  0.602357  0.750000  1
  Ge  Ge30  1  0.528108  0.397643  0.250000  1
  Ge  Ge31  1  0.028108  0.102357  0.250000  1
  Ge  Ge32  1  0.238960  0.372424  0.750000  1
  Ge  Ge33  1  0.738960  0.127576  0.750000  1
  Ge  Ge34  1  0.261040  0.872424  0.250000  1
  Ge  Ge35  1  0.761040  0.627576  0.250000  1
