# generated using pymatgen
data_U2SnRu2
_symmetry_space_group_name_H-M   'P 1'
_cell_length_a   7.57013273
_cell_length_b   7.57013273
_cell_length_c   3.50884594
_cell_angle_alpha   90.00000000
_cell_angle_beta   90.00000000
_cell_angle_gamma   90.00000000
_symmetry_Int_Tables_number   1
_chemical_formula_structural   U2SnRu2
_chemical_formula_sum   'U4 Sn2 Ru4'
_cell_volume   201.08111691
_cell_formula_units_Z   2
loop_
 _symmetry_equiv_pos_site_id
 _symmetry_equiv_pos_as_xyz
  1  'x, y, z'
loop_
 _atom_site_type_symbol
 _atom_site_label
 _atom_site_symmetry_multiplicity
 _atom_site_fract_x
 _atom_site_fract_y
 _atom_site_fract_z
 _atom_site_occupancy
  U  U0  1  0.334638  0.834638  0.500000  1
  U  U1  1  0.834638  0.665362  0.500000  1
  U  U2  1  0.165362  0.334638  0.500000  1
  U  U3  1  0.665362  0.165362  0.500000  1
  Sn  Sn4  1  0.000000  0.000000  0.000000  1
  Sn  Sn5  1  0.500000  0.500000  0.000000  1
  Ru  Ru6  1  0.362321  0.137679  0.000000  1
  Ru  Ru7  1  0.862321  0.362321  0.000000  1
  Ru  Ru8  1  0.137679  0.637679  0.000000  1
  Ru  Ru9  1  0.637679  0.862321  0.000000  1
