# generated using pymatgen
data_NClO6
_symmetry_space_group_name_H-M   'P 1'
_cell_length_a   5.88201620
_cell_length_b   5.88201620
_cell_length_c   7.37088614
_cell_angle_alpha   73.54334346
_cell_angle_beta   106.45665654
_cell_angle_gamma   104.21628550
_symmetry_Int_Tables_number   1
_chemical_formula_structural   NClO6
_chemical_formula_sum   'N2 Cl2 O12'
_cell_volume   230.73213251
_cell_formula_units_Z   2
loop_
 _symmetry_equiv_pos_site_id
 _symmetry_equiv_pos_as_xyz
  1  'x, y, z'
loop_
 _atom_site_type_symbol
 _atom_site_label
 _atom_site_symmetry_multiplicity
 _atom_site_fract_x
 _atom_site_fract_y
 _atom_site_fract_z
 _atom_site_occupancy
  N  N0  1  0.166458  0.166458  0.750000  1
  N  N1  1  0.833542  0.833542  0.250000  1
  Cl  Cl2  1  0.319255  0.319255  0.250000  1
  Cl  Cl3  1  0.680745  0.680745  0.750000  1
  O  O4  1  0.702768  0.964681  0.206889  1
  O  O5  1  0.964681  0.702768  0.293111  1
  O  O6  1  0.751965  0.851152  0.877444  1
  O  O7  1  0.851152  0.751965  0.622556  1
  O  O8  1  0.248035  0.148848  0.122556  1
  O  O9  1  0.148848  0.248035  0.377444  1
  O  O10  1  0.437073  0.693793  0.633628  1
  O  O11  1  0.693793  0.437073  0.866372  1
  O  O12  1  0.562927  0.306207  0.366372  1
  O  O13  1  0.306207  0.562927  0.133628  1
  O  O14  1  0.035319  0.297232  0.706889  1
  O  O15  1  0.297232  0.035319  0.793111  1
