# generated using pymatgen
data_La6Si7Br3
_symmetry_space_group_name_H-M   'P 1'
_cell_length_a   4.14878027
_cell_length_b   11.88718839
_cell_length_c   16.92462746
_cell_angle_alpha   90.00000000
_cell_angle_beta   90.00000000
_cell_angle_gamma   90.00000000
_symmetry_Int_Tables_number   1
_chemical_formula_structural   La6Si7Br3
_chemical_formula_sum   'La12 Si14 Br6'
_cell_volume   834.67748256
_cell_formula_units_Z   2
loop_
 _symmetry_equiv_pos_site_id
 _symmetry_equiv_pos_as_xyz
  1  'x, y, z'
loop_
 _atom_site_type_symbol
 _atom_site_label
 _atom_site_symmetry_multiplicity
 _atom_site_fract_x
 _atom_site_fract_y
 _atom_site_fract_z
 _atom_site_occupancy
  La  La0  1  0.500000  0.342402  0.500000  1
  La  La1  1  0.000000  0.657598  0.000000  1
  La  La2  1  0.500000  0.357567  0.755833  1
  La  La3  1  0.000000  0.642433  0.744167  1
  La  La4  1  0.500000  0.357567  0.244167  1
  La  La5  1  0.000000  0.642433  0.255833  1
  La  La6  1  0.500000  0.064714  0.880196  1
  La  La7  1  0.000000  0.935286  0.619804  1
  La  La8  1  0.500000  0.064714  0.119804  1
  La  La9  1  0.000000  0.935286  0.380196  1
  La  La10  1  0.500000  0.357718  0.000000  1
  La  La11  1  0.000000  0.642282  0.500000  1
  Si  Si12  1  0.000000  0.152968  0.000000  1
  Si  Si13  1  0.500000  0.847032  0.500000  1
  Si  Si14  1  0.500000  0.566362  0.876644  1
  Si  Si15  1  0.000000  0.433638  0.623356  1
  Si  Si16  1  0.500000  0.566362  0.123356  1
  Si  Si17  1  0.000000  0.433638  0.376644  1
  Si  Si18  1  0.000000  0.254480  0.875530  1
  Si  Si19  1  0.500000  0.745520  0.624470  1
  Si  Si20  1  0.000000  0.254480  0.124470  1
  Si  Si21  1  0.500000  0.745520  0.375530  1
  Si  Si22  1  0.000000  0.458492  0.876315  1
  Si  Si23  1  0.500000  0.541508  0.623685  1
  Si  Si24  1  0.500000  0.541508  0.376315  1
  Si  Si25  1  0.000000  0.458492  0.123685  1
  Br  Br26  1  0.500000  0.108377  0.692134  1
  Br  Br27  1  0.000000  0.891623  0.807866  1
  Br  Br28  1  0.000000  0.137861  0.500000  1
  Br  Br29  1  0.500000  0.862139  0.000000  1
  Br  Br30  1  0.500000  0.108377  0.307866  1
  Br  Br31  1  0.000000  0.891623  0.192134  1
