# generated using pymatgen
data_Sr4Zn3F14
_symmetry_space_group_name_H-M   'P 1'
_cell_length_a   6.90409465
_cell_length_b   6.90409465
_cell_length_c   7.22080010
_cell_angle_alpha   90.00000000
_cell_angle_beta   90.00000000
_cell_angle_gamma   120.00000000
_symmetry_Int_Tables_number   1
_chemical_formula_structural   Sr4Zn3F14
_chemical_formula_sum   'Sr4 Zn3 F14'
_cell_volume   298.07765928
_cell_formula_units_Z   1
loop_
 _symmetry_equiv_pos_site_id
 _symmetry_equiv_pos_as_xyz
  1  'x, y, z'
loop_
 _atom_site_type_symbol
 _atom_site_label
 _atom_site_symmetry_multiplicity
 _atom_site_fract_x
 _atom_site_fract_y
 _atom_site_fract_z
 _atom_site_occupancy
  Sr  Sr0  1  0.333333  0.666667  0.000000  1
  Sr  Sr1  1  0.666667  0.333333  0.000000  1
  Sr  Sr2  1  0.000000  0.000000  0.759672  1
  Sr  Sr3  1  0.000000  0.000000  0.240328  1
  Zn  Zn4  1  0.535031  0.000000  0.500000  1
  Zn  Zn5  1  0.464969  0.464969  0.500000  1
  Zn  Zn6  1  0.000000  0.535031  0.500000  1
  F  F7  1  0.238769  0.000000  0.500000  1
  F  F8  1  0.000000  0.607450  0.232591  1
  F  F9  1  0.392550  0.392550  0.232591  1
  F  F10  1  0.666667  0.333333  0.500000  1
  F  F11  1  0.333333  0.666667  0.500000  1
  F  F12  1  0.607450  0.000000  0.232591  1
  F  F13  1  0.761231  0.761231  0.500000  1
  F  F14  1  0.734520  0.734520  0.000000  1
  F  F15  1  0.000000  0.265480  0.000000  1
  F  F16  1  0.265480  0.000000  0.000000  1
  F  F17  1  0.607450  0.000000  0.767409  1
  F  F18  1  0.000000  0.607450  0.767409  1
  F  F19  1  0.392550  0.392550  0.767409  1
  F  F20  1  0.000000  0.238769  0.500000  1
