# generated using pymatgen
data_Th(MnGe)2
_symmetry_space_group_name_H-M   'P 1'
_cell_length_a   6.14400288
_cell_length_b   6.14400288
_cell_length_c   6.14400288
_cell_angle_alpha   141.67102973
_cell_angle_beta   141.67102973
_cell_angle_gamma   55.32464847
_symmetry_Int_Tables_number   1
_chemical_formula_structural   Th(MnGe)2
_chemical_formula_sum   'Th1 Mn2 Ge2'
_cell_volume   88.55079786
_cell_formula_units_Z   1
loop_
 _symmetry_equiv_pos_site_id
 _symmetry_equiv_pos_as_xyz
  1  'x, y, z'
loop_
 _atom_site_type_symbol
 _atom_site_label
 _atom_site_symmetry_multiplicity
 _atom_site_fract_x
 _atom_site_fract_y
 _atom_site_fract_z
 _atom_site_occupancy
  Th  Th0  1  0.000000  0.000000  0.000000  1
  Mn  Mn1  1  0.750000  0.250000  0.500000  1
  Mn  Mn2  1  0.250000  0.750000  0.500000  1
  Ge  Ge3  1  0.622572  0.622572  0.000000  1
  Ge  Ge4  1  0.377428  0.377428  0.000000  1
