# generated using pymatgen
data_Na4GeO4
_symmetry_space_group_name_H-M   'P 1'
_cell_length_a   5.74997963
_cell_length_b   5.76672374
_cell_length_c   8.70238208
_cell_angle_alpha   81.57189974
_cell_angle_beta   71.40412703
_cell_angle_gamma   68.17583655
_symmetry_Int_Tables_number   1
_chemical_formula_structural   Na4GeO4
_chemical_formula_sum   'Na8 Ge2 O8'
_cell_volume   253.76284735
_cell_formula_units_Z   2
loop_
 _symmetry_equiv_pos_site_id
 _symmetry_equiv_pos_as_xyz
  1  'x, y, z'
loop_
 _atom_site_type_symbol
 _atom_site_label
 _atom_site_symmetry_multiplicity
 _atom_site_fract_x
 _atom_site_fract_y
 _atom_site_fract_z
 _atom_site_occupancy
  Na  Na0  1  0.980083  0.235096  0.065558  1
  Na  Na1  1  0.446637  0.741936  0.102274  1
  Na  Na2  1  0.891256  0.772139  0.320543  1
  Na  Na3  1  0.259315  0.743395  0.512120  1
  Na  Na4  1  0.740685  0.256605  0.487880  1
  Na  Na5  1  0.553363  0.258064  0.897726  1
  Na  Na6  1  0.019917  0.764904  0.934442  1
  Na  Na7  1  0.108744  0.227861  0.679457  1
  Ge  Ge8  1  0.343333  0.221762  0.256242  1
  Ge  Ge9  1  0.656667  0.778238  0.743758  1
  O  O10  1  0.337144  0.968178  0.860410  1
  O  O11  1  0.795624  0.526637  0.874211  1
  O  O12  1  0.204376  0.473363  0.125789  1
  O  O13  1  0.858478  0.968584  0.694942  1
  O  O14  1  0.141522  0.031416  0.305058  1
  O  O15  1  0.647523  0.654888  0.571636  1
  O  O16  1  0.662856  0.031822  0.139590  1
  O  O17  1  0.352477  0.345112  0.428364  1
