# generated using pymatgen
data_Bi2Se2Cl7
_symmetry_space_group_name_H-M   'P 1'
_cell_length_a   10.97531868
_cell_length_b   10.97531868
_cell_length_c   10.52050530
_cell_angle_alpha   90.00000000
_cell_angle_beta   90.00000000
_cell_angle_gamma   90.00000000
_symmetry_Int_Tables_number   1
_chemical_formula_structural   Bi2Se2Cl7
_chemical_formula_sum   'Bi8 Se8 Cl28'
_cell_volume   1267.27503098
_cell_formula_units_Z   4
loop_
 _symmetry_equiv_pos_site_id
 _symmetry_equiv_pos_as_xyz
  1  'x, y, z'
loop_
 _atom_site_type_symbol
 _atom_site_label
 _atom_site_symmetry_multiplicity
 _atom_site_fract_x
 _atom_site_fract_y
 _atom_site_fract_z
 _atom_site_occupancy
  Bi  Bi0  1  0.267054  0.390429  0.349590  1
  Bi  Bi1  1  0.890429  0.232946  0.349590  1
  Bi  Bi2  1  0.109571  0.767054  0.349590  1
  Bi  Bi3  1  0.732946  0.609571  0.349590  1
  Bi  Bi4  1  0.232946  0.109571  0.650410  1
  Bi  Bi5  1  0.609571  0.267054  0.650410  1
  Bi  Bi6  1  0.390429  0.732946  0.650410  1
  Bi  Bi7  1  0.767054  0.890429  0.650410  1
  Se  Se8  1  0.128260  0.420682  0.892268  1
  Se  Se9  1  0.920682  0.371740  0.892268  1
  Se  Se10  1  0.079318  0.628260  0.892268  1
  Se  Se11  1  0.871740  0.579318  0.892268  1
  Se  Se12  1  0.371740  0.079318  0.107732  1
  Se  Se13  1  0.579318  0.128260  0.107732  1
  Se  Se14  1  0.420682  0.871740  0.107732  1
  Se  Se15  1  0.628260  0.920682  0.107732  1
  Cl  Cl16  1  0.000000  0.500000  0.328097  1
  Cl  Cl17  1  0.500000  0.000000  0.671903  1
  Cl  Cl18  1  0.500000  0.500000  0.500000  1
  Cl  Cl19  1  0.000000  0.000000  0.500000  1
  Cl  Cl20  1  0.387705  0.198250  0.440201  1
  Cl  Cl21  1  0.698250  0.112295  0.440201  1
  Cl  Cl22  1  0.301750  0.887705  0.440201  1
  Cl  Cl23  1  0.612295  0.801750  0.440201  1
  Cl  Cl24  1  0.112295  0.301750  0.559799  1
  Cl  Cl25  1  0.801750  0.387705  0.559799  1
  Cl  Cl26  1  0.198250  0.612295  0.559799  1
  Cl  Cl27  1  0.887705  0.698250  0.559799  1
  Cl  Cl28  1  0.128308  0.233023  0.226615  1
  Cl  Cl29  1  0.733023  0.371692  0.226615  1
  Cl  Cl30  1  0.266977  0.628308  0.226615  1
  Cl  Cl31  1  0.871692  0.766977  0.226615  1
  Cl  Cl32  1  0.900313  0.854478  0.854508  1
  Cl  Cl33  1  0.354478  0.599687  0.854508  1
  Cl  Cl34  1  0.645522  0.400313  0.854508  1
  Cl  Cl35  1  0.099687  0.145522  0.854508  1
  Cl  Cl36  1  0.599687  0.645522  0.145492  1
  Cl  Cl37  1  0.145522  0.900313  0.145492  1
  Cl  Cl38  1  0.854478  0.099687  0.145492  1
  Cl  Cl39  1  0.400313  0.354478  0.145492  1
  Cl  Cl40  1  0.628308  0.733023  0.773385  1
  Cl  Cl41  1  0.233023  0.871692  0.773385  1
  Cl  Cl42  1  0.766977  0.128308  0.773385  1
  Cl  Cl43  1  0.371692  0.266977  0.773385  1
