# generated using pymatgen
data_Nb3GeTe6
_symmetry_space_group_name_H-M   'P 1'
_cell_length_a   6.53146294
_cell_length_b   11.70524869
_cell_length_c   14.91385474
_cell_angle_alpha   90.00000000
_cell_angle_beta   90.00000000
_cell_angle_gamma   90.00000000
_symmetry_Int_Tables_number   1
_chemical_formula_structural   Nb3GeTe6
_chemical_formula_sum   'Nb12 Ge4 Te24'
_cell_volume   1140.19995863
_cell_formula_units_Z   4
loop_
 _symmetry_equiv_pos_site_id
 _symmetry_equiv_pos_as_xyz
  1  'x, y, z'
loop_
 _atom_site_type_symbol
 _atom_site_label
 _atom_site_symmetry_multiplicity
 _atom_site_fract_x
 _atom_site_fract_y
 _atom_site_fract_z
 _atom_site_occupancy
  Nb  Nb0  1  0.697957  0.967658  0.750000  1
  Nb  Nb1  1  0.197957  0.532342  0.750000  1
  Nb  Nb2  1  0.802043  0.467658  0.250000  1
  Nb  Nb3  1  0.302043  0.032342  0.250000  1
  Nb  Nb4  1  0.962702  0.314436  0.750000  1
  Nb  Nb5  1  0.462702  0.185564  0.750000  1
  Nb  Nb6  1  0.537298  0.814436  0.250000  1
  Nb  Nb7  1  0.037298  0.685564  0.250000  1
  Nb  Nb8  1  0.826205  0.166399  0.250000  1
  Nb  Nb9  1  0.326205  0.333601  0.250000  1
  Nb  Nb10  1  0.673795  0.666399  0.750000  1
  Nb  Nb11  1  0.173795  0.833601  0.750000  1
  Ge  Ge12  1  0.925613  0.924964  0.250000  1
  Ge  Ge13  1  0.425613  0.575036  0.250000  1
  Ge  Ge14  1  0.574387  0.424964  0.750000  1
  Ge  Ge15  1  0.074387  0.075036  0.750000  1
  Te  Te16  1  0.855047  0.817746  0.623191  1
  Te  Te17  1  0.355047  0.682254  0.876809  1
  Te  Te18  1  0.644953  0.317746  0.376809  1
  Te  Te19  1  0.144953  0.182254  0.123191  1
  Te  Te20  1  0.144953  0.182254  0.376809  1
  Te  Te21  1  0.644953  0.317746  0.123191  1
  Te  Te22  1  0.355047  0.682254  0.623191  1
  Te  Te23  1  0.855047  0.817746  0.876809  1
  Te  Te24  1  0.783181  0.159583  0.623843  1
  Te  Te25  1  0.283181  0.340417  0.876157  1
  Te  Te26  1  0.716819  0.659583  0.376157  1
  Te  Te27  1  0.216819  0.840417  0.123843  1
  Te  Te28  1  0.216819  0.840417  0.376157  1
  Te  Te29  1  0.716819  0.659583  0.123843  1
  Te  Te30  1  0.283181  0.340417  0.623843  1
  Te  Te31  1  0.783181  0.159583  0.876157  1
  Te  Te32  1  0.365679  0.993018  0.627055  1
  Te  Te33  1  0.865679  0.506982  0.872945  1
  Te  Te34  1  0.134321  0.493018  0.372945  1
  Te  Te35  1  0.634321  0.006982  0.127055  1
  Te  Te36  1  0.634321  0.006982  0.372945  1
  Te  Te37  1  0.134321  0.493018  0.127055  1
  Te  Te38  1  0.865679  0.506982  0.627055  1
  Te  Te39  1  0.365679  0.993018  0.872945  1
