# generated using pymatgen
data_Na4BeAlSi4ClO12
_symmetry_space_group_name_H-M   'P 1'
_cell_length_a   7.62803025
_cell_length_b   7.62803025
_cell_length_c   7.62803025
_cell_angle_alpha   110.17446230
_cell_angle_beta   110.17446230
_cell_angle_gamma   108.07371116
_symmetry_Int_Tables_number   1
_chemical_formula_structural   Na4BeAlSi4ClO12
_chemical_formula_sum   'Na4 Be1 Al1 Si4 Cl1 O12'
_cell_volume   341.52467154
_cell_formula_units_Z   1
loop_
 _symmetry_equiv_pos_site_id
 _symmetry_equiv_pos_as_xyz
  1  'x, y, z'
loop_
 _atom_site_type_symbol
 _atom_site_label
 _atom_site_symmetry_multiplicity
 _atom_site_fract_x
 _atom_site_fract_y
 _atom_site_fract_z
 _atom_site_occupancy
  Na  Na0  1  0.766098  0.225002  0.853455  1
  Na  Na1  1  0.371547  0.912643  0.146545  1
  Na  Na2  1  0.774998  0.628453  0.541096  1
  Na  Na3  1  0.087357  0.233902  0.458904  1
  Be  Be4  1  1.000000  1.000000  0.000000  1
  Al  Al5  1  0.500000  0.500000  0.000000  1
  Si  Si6  1  0.000959  0.741626  0.233559  1
  Si  Si7  1  0.258374  0.491933  0.259333  1
  Si  Si8  1  0.508067  0.767400  0.766441  1
  Si  Si9  1  0.232600  0.999041  0.740667  1
  Cl  Cl10  1  0.750000  0.250000  0.500000  1
  O  O11  1  0.061982  0.252934  0.113977  1
  O  O12  1  0.173986  0.657351  0.215487  1
  O  O13  1  0.041501  0.826014  0.483365  1
  O  O14  1  0.747066  0.861043  0.809048  1
  O  O15  1  0.138957  0.948005  0.886023  1
  O  O16  1  0.441864  0.958499  0.784513  1
  O  O17  1  0.051995  0.938018  0.190952  1
  O  O18  1  0.312266  0.239626  0.776043  1
  O  O19  1  0.760374  0.536417  0.072640  1
  O  O20  1  0.463777  0.687734  0.927360  1
  O  O21  1  0.463583  0.536223  0.223957  1
  O  O22  1  0.342649  0.558136  0.516635  1
