# generated using pymatgen
data_Ca3MnNiO6
_symmetry_space_group_name_H-M   'P 1'
_cell_length_a   6.39831402
_cell_length_b   6.39831402
_cell_length_c   6.39831402
_cell_angle_alpha   92.19743030
_cell_angle_beta   92.19743030
_cell_angle_gamma   92.19743030
_symmetry_Int_Tables_number   1
_chemical_formula_structural   Ca3MnNiO6
_chemical_formula_sum   'Ca6 Mn2 Ni2 O12'
_cell_volume   261.34380017
_cell_formula_units_Z   2
loop_
 _symmetry_equiv_pos_site_id
 _symmetry_equiv_pos_as_xyz
  1  'x, y, z'
loop_
 _atom_site_type_symbol
 _atom_site_label
 _atom_site_symmetry_multiplicity
 _atom_site_fract_x
 _atom_site_fract_y
 _atom_site_fract_z
 _atom_site_occupancy
  Ca  Ca0  1  0.250000  0.889163  0.610837  1
  Ca  Ca1  1  0.389163  0.750000  0.110837  1
  Ca  Ca2  1  0.110837  0.389163  0.750000  1
  Ca  Ca3  1  0.750000  0.110837  0.389163  1
  Ca  Ca4  1  0.610837  0.250000  0.889163  1
  Ca  Ca5  1  0.889163  0.610837  0.250000  1
  Mn  Mn6  1  0.500000  0.500000  0.500000  1
  Mn  Mn7  1  0.000000  0.000000  0.000000  1
  Ni  Ni8  1  0.750000  0.750000  0.750000  1
  Ni  Ni9  1  0.250000  0.250000  0.250000  1
  O  O10  1  0.541701  0.421208  0.210459  1
  O  O11  1  0.458299  0.578792  0.789541  1
  O  O12  1  0.789541  0.458299  0.578792  1
  O  O13  1  0.578792  0.789541  0.458299  1
  O  O14  1  0.710459  0.921208  0.041701  1
  O  O15  1  0.041701  0.710459  0.921208  1
  O  O16  1  0.078792  0.958299  0.289541  1
  O  O17  1  0.958299  0.289541  0.078792  1
  O  O18  1  0.289541  0.078792  0.958299  1
  O  O19  1  0.421208  0.210459  0.541701  1
  O  O20  1  0.210459  0.541701  0.421208  1
  O  O21  1  0.921208  0.041701  0.710459  1
