# generated using pymatgen
data_CaVO3
_symmetry_space_group_name_H-M   'P 1'
_cell_length_a   5.33834393
_cell_length_b   5.46467809
_cell_length_c   7.71530924
_cell_angle_alpha   90.00000000
_cell_angle_beta   90.00000000
_cell_angle_gamma   90.00000000
_symmetry_Int_Tables_number   1
_chemical_formula_structural   CaVO3
_chemical_formula_sum   'Ca4 V4 O12'
_cell_volume   225.07355577
_cell_formula_units_Z   4
loop_
 _symmetry_equiv_pos_site_id
 _symmetry_equiv_pos_as_xyz
  1  'x, y, z'
loop_
 _atom_site_type_symbol
 _atom_site_label
 _atom_site_symmetry_multiplicity
 _atom_site_fract_x
 _atom_site_fract_y
 _atom_site_fract_z
 _atom_site_occupancy
  Ca  Ca0  1  0.993283  0.545415  0.750000  1
  Ca  Ca1  1  0.506717  0.045415  0.750000  1
  Ca  Ca2  1  0.493283  0.954585  0.250000  1
  Ca  Ca3  1  0.006717  0.454585  0.250000  1
  V  V4  1  0.000000  0.000000  0.500000  1
  V  V5  1  0.500000  0.500000  0.000000  1
  V  V6  1  0.500000  0.500000  0.500000  1
  V  V7  1  0.000000  0.000000  0.000000  1
  O  O8  1  0.214016  0.702048  0.036677  1
  O  O9  1  0.285984  0.202048  0.463323  1
  O  O10  1  0.714016  0.797952  0.963323  1
  O  O11  1  0.785984  0.297952  0.536677  1
  O  O12  1  0.785984  0.297952  0.963323  1
  O  O13  1  0.714016  0.797952  0.536677  1
  O  O14  1  0.285984  0.202048  0.036677  1
  O  O15  1  0.214016  0.702048  0.463323  1
  O  O16  1  0.077465  0.983358  0.750000  1
  O  O17  1  0.422535  0.483358  0.750000  1
  O  O18  1  0.922535  0.016642  0.250000  1
  O  O19  1  0.577465  0.516642  0.250000  1
