# generated using pymatgen
data_Ca9Zn4Bi9
_symmetry_space_group_name_H-M   'P 1'
_cell_length_a   4.69127650
_cell_length_b   12.75886608
_cell_length_c   22.27041516
_cell_angle_alpha   90.00000000
_cell_angle_beta   90.00000000
_cell_angle_gamma   90.00000000
_symmetry_Int_Tables_number   1
_chemical_formula_structural   Ca9Zn4Bi9
_chemical_formula_sum   'Ca18 Zn8 Bi18'
_cell_volume   1333.00390845
_cell_formula_units_Z   2
loop_
 _symmetry_equiv_pos_site_id
 _symmetry_equiv_pos_as_xyz
  1  'x, y, z'
loop_
 _atom_site_type_symbol
 _atom_site_label
 _atom_site_symmetry_multiplicity
 _atom_site_fract_x
 _atom_site_fract_y
 _atom_site_fract_z
 _atom_site_occupancy
  Ca  Ca0  1  0.500000  0.500000  0.500000  1
  Ca  Ca1  1  0.500000  0.000000  0.000000  1
  Ca  Ca2  1  0.000000  0.873940  0.234656  1
  Ca  Ca3  1  0.000000  0.126060  0.765344  1
  Ca  Ca4  1  0.000000  0.373940  0.265344  1
  Ca  Ca5  1  0.000000  0.626060  0.734656  1
  Ca  Ca6  1  0.500000  0.704703  0.100784  1
  Ca  Ca7  1  0.500000  0.295297  0.899216  1
  Ca  Ca8  1  0.500000  0.204703  0.399216  1
  Ca  Ca9  1  0.500000  0.795297  0.600784  1
  Ca  Ca10  1  0.000000  0.927856  0.411299  1
  Ca  Ca11  1  0.000000  0.072144  0.588701  1
  Ca  Ca12  1  0.000000  0.427856  0.088701  1
  Ca  Ca13  1  0.000000  0.572144  0.911299  1
  Ca  Ca14  1  0.000000  0.631149  0.362084  1
  Ca  Ca15  1  0.000000  0.368851  0.637916  1
  Ca  Ca16  1  0.000000  0.131149  0.137916  1
  Ca  Ca17  1  0.000000  0.868851  0.862084  1
  Zn  Zn18  1  0.500000  0.729044  0.952832  1
  Zn  Zn19  1  0.500000  0.270956  0.047168  1
  Zn  Zn20  1  0.500000  0.229044  0.547168  1
  Zn  Zn21  1  0.500000  0.770956  0.452832  1
  Zn  Zn22  1  0.500000  0.889326  0.763065  1
  Zn  Zn23  1  0.500000  0.110674  0.236935  1
  Zn  Zn24  1  0.500000  0.389326  0.736935  1
  Zn  Zn25  1  0.500000  0.610674  0.263065  1
  Bi  Bi26  1  0.500000  0.000000  0.500000  1
  Bi  Bi27  1  0.500000  0.500000  0.000000  1
  Bi  Bi28  1  0.000000  0.613724  0.193193  1
  Bi  Bi29  1  0.000000  0.386276  0.806807  1
  Bi  Bi30  1  0.000000  0.113724  0.306807  1
  Bi  Bi31  1  0.000000  0.886276  0.693193  1
  Bi  Bi32  1  0.500000  0.808946  0.329510  1
  Bi  Bi33  1  0.500000  0.191054  0.670490  1
  Bi  Bi34  1  0.500000  0.308946  0.170490  1
  Bi  Bi35  1  0.500000  0.691054  0.829510  1
  Bi  Bi36  1  0.500000  0.953523  0.144677  1
  Bi  Bi37  1  0.500000  0.046477  0.855323  1
  Bi  Bi38  1  0.500000  0.453523  0.355323  1
  Bi  Bi39  1  0.500000  0.546477  0.644677  1
  Bi  Bi40  1  0.000000  0.809596  0.009061  1
  Bi  Bi41  1  0.000000  0.190404  0.990939  1
  Bi  Bi42  1  0.000000  0.309596  0.490939  1
  Bi  Bi43  1  0.000000  0.690404  0.509061  1
