# generated using pymatgen
data_PuCl3
_symmetry_space_group_name_H-M   'P 1'
_cell_length_a   7.45624164
_cell_length_b   7.45624164
_cell_length_c   4.24290254
_cell_angle_alpha   90.00000000
_cell_angle_beta   90.00000000
_cell_angle_gamma   120.00000000
_symmetry_Int_Tables_number   1
_chemical_formula_structural   PuCl3
_chemical_formula_sum   'Pu2 Cl6'
_cell_volume   204.28366274
_cell_formula_units_Z   2
loop_
 _symmetry_equiv_pos_site_id
 _symmetry_equiv_pos_as_xyz
  1  'x, y, z'
loop_
 _atom_site_type_symbol
 _atom_site_label
 _atom_site_symmetry_multiplicity
 _atom_site_fract_x
 _atom_site_fract_y
 _atom_site_fract_z
 _atom_site_occupancy
  Pu  Pu0  1  0.666667  0.333333  0.750000  1
  Pu  Pu1  1  0.333333  0.666667  0.250000  1
  Cl  Cl2  1  0.608414  0.694819  0.750000  1
  Cl  Cl3  1  0.913595  0.608414  0.250000  1
  Cl  Cl4  1  0.391586  0.305181  0.250000  1
  Cl  Cl5  1  0.086405  0.391586  0.750000  1
  Cl  Cl6  1  0.305181  0.913595  0.750000  1
  Cl  Cl7  1  0.694819  0.086405  0.250000  1
