# generated using pymatgen
data_Sc2O3
_symmetry_space_group_name_H-M   'P 1'
_cell_length_a   8.59299968
_cell_length_b   8.59299968
_cell_length_c   8.59299968
_cell_angle_alpha   109.47122063
_cell_angle_beta   109.47122063
_cell_angle_gamma   109.47122063
_symmetry_Int_Tables_number   1
_chemical_formula_structural   Sc2O3
_chemical_formula_sum   'Sc16 O24'
_cell_volume   488.44143279
_cell_formula_units_Z   8
loop_
 _symmetry_equiv_pos_site_id
 _symmetry_equiv_pos_as_xyz
  1  'x, y, z'
loop_
 _atom_site_type_symbol
 _atom_site_label
 _atom_site_symmetry_multiplicity
 _atom_site_fract_x
 _atom_site_fract_y
 _atom_site_fract_z
 _atom_site_occupancy
  Sc  Sc0  1  0.500000  0.000000  0.500000  1
  Sc  Sc1  1  0.500000  0.500000  0.000000  1
  Sc  Sc2  1  0.000000  0.500000  0.500000  1
  Sc  Sc3  1  0.000000  0.000000  0.000000  1
  Sc  Sc4  1  0.785680  0.250000  0.035680  1
  Sc  Sc5  1  0.714320  0.750000  0.464320  1
  Sc  Sc6  1  0.250000  0.035680  0.785680  1
  Sc  Sc7  1  0.750000  0.464320  0.714320  1
  Sc  Sc8  1  0.035680  0.785680  0.250000  1
  Sc  Sc9  1  0.464320  0.714320  0.750000  1
  Sc  Sc10  1  0.214320  0.750000  0.964320  1
  Sc  Sc11  1  0.285680  0.250000  0.535680  1
  Sc  Sc12  1  0.750000  0.964320  0.214320  1
  Sc  Sc13  1  0.250000  0.535680  0.285680  1
  Sc  Sc14  1  0.964320  0.214320  0.750000  1
  Sc  Sc15  1  0.535680  0.285680  0.250000  1
  O  O16  1  0.489026  0.226452  0.454213  1
  O  O17  1  0.227761  0.273548  0.762574  1
  O  O18  1  0.010974  0.465187  0.737426  1
  O  O19  1  0.272239  0.034813  0.045787  1
  O  O20  1  0.226452  0.454213  0.489026  1
  O  O21  1  0.273548  0.762574  0.227761  1
  O  O22  1  0.465187  0.737426  0.010974  1
  O  O23  1  0.034813  0.045787  0.272239  1
  O  O24  1  0.454213  0.489026  0.226452  1
  O  O25  1  0.762574  0.227761  0.273548  1
  O  O26  1  0.737426  0.010974  0.465187  1
  O  O27  1  0.045787  0.272239  0.034813  1
  O  O28  1  0.510974  0.773548  0.545787  1
  O  O29  1  0.772239  0.726452  0.237426  1
  O  O30  1  0.989026  0.534813  0.262574  1
  O  O31  1  0.727761  0.965187  0.954213  1
  O  O32  1  0.773548  0.545787  0.510974  1
  O  O33  1  0.726452  0.237426  0.772239  1
  O  O34  1  0.534813  0.262574  0.989026  1
  O  O35  1  0.965187  0.954213  0.727761  1
  O  O36  1  0.545787  0.510974  0.773548  1
  O  O37  1  0.237426  0.772239  0.726452  1
  O  O38  1  0.262574  0.989026  0.534813  1
  O  O39  1  0.954213  0.727761  0.965187  1
