# generated using pymatgen
data_Sr(ClO3)2
_symmetry_space_group_name_H-M   'P 1'
_cell_length_a   8.64764207
_cell_length_b   7.42052906
_cell_length_c   6.99344562
_cell_angle_alpha   73.66526646
_cell_angle_beta   55.43280650
_cell_angle_gamma   50.90192703
_symmetry_Int_Tables_number   1
_chemical_formula_structural   Sr(ClO3)2
_chemical_formula_sum   'Sr2 Cl4 O12'
_cell_volume   284.72595843
_cell_formula_units_Z   2
loop_
 _symmetry_equiv_pos_site_id
 _symmetry_equiv_pos_as_xyz
  1  'x, y, z'
loop_
 _atom_site_type_symbol
 _atom_site_label
 _atom_site_symmetry_multiplicity
 _atom_site_fract_x
 _atom_site_fract_y
 _atom_site_fract_z
 _atom_site_occupancy
  Sr  Sr0  1  0.750957  0.249043  0.249043  1
  Sr  Sr1  1  0.000957  0.499043  0.499043  1
  Cl  Cl2  1  0.400620  0.639294  0.992535  1
  Cl  Cl3  1  0.967551  0.992535  0.639294  1
  Cl  Cl4  1  0.257465  0.282449  0.849380  1
  Cl  Cl5  1  0.610706  0.849380  0.282449  1
  O  O6  1  0.194303  0.889395  0.063582  1
  O  O7  1  0.852721  0.063582  0.889395  1
  O  O8  1  0.186418  0.397279  0.055697  1
  O  O9  1  0.360605  0.055697  0.397279  1
  O  O10  1  0.340155  0.398005  0.640257  1
  O  O11  1  0.621584  0.640257  0.398005  1
  O  O12  1  0.727859  0.884819  0.354471  1
  O  O13  1  0.032851  0.354471  0.884819  1
  O  O14  1  0.895529  0.217149  0.522141  1
  O  O15  1  0.365181  0.522141  0.217149  1
  O  O16  1  0.851995  0.909845  0.628417  1
  O  O17  1  0.609743  0.628417  0.909845  1
