# generated using pymatgen
data_TbZn2
_symmetry_space_group_name_H-M   'P 1'
_cell_length_a   5.68209777
_cell_length_b   5.68209777
_cell_length_c   5.68209777
_cell_angle_alpha   133.43023277
_cell_angle_beta   101.70170509
_cell_angle_gamma   96.29875789
_symmetry_Int_Tables_number   1
_chemical_formula_structural   TbZn2
_chemical_formula_sum   'Tb2 Zn4'
_cell_volume   122.18858803
_cell_formula_units_Z   2
loop_
 _symmetry_equiv_pos_site_id
 _symmetry_equiv_pos_as_xyz
  1  'x, y, z'
loop_
 _atom_site_type_symbol
 _atom_site_label
 _atom_site_symmetry_multiplicity
 _atom_site_fract_x
 _atom_site_fract_y
 _atom_site_fract_z
 _atom_site_occupancy
  Tb  Tb0  1  0.779885  0.529885  0.750000  1
  Tb  Tb1  1  0.220115  0.470115  0.250000  1
  Zn  Zn2  1  0.377893  0.834137  0.043756  1
  Zn  Zn3  1  0.622107  0.165863  0.956244  1
  Zn  Zn4  1  0.790381  0.834137  0.456244  1
  Zn  Zn5  1  0.209619  0.165863  0.543756  1
