# generated using pymatgen
data_PtPb4
_symmetry_space_group_name_H-M   'P 1'
_cell_length_a   6.79981674
_cell_length_b   6.79981674
_cell_length_c   6.14472716
_cell_angle_alpha   90.00000000
_cell_angle_beta   90.00000000
_cell_angle_gamma   90.00000000
_symmetry_Int_Tables_number   1
_chemical_formula_structural   PtPb4
_chemical_formula_sum   'Pt2 Pb8'
_cell_volume   284.11686936
_cell_formula_units_Z   2
loop_
 _symmetry_equiv_pos_site_id
 _symmetry_equiv_pos_as_xyz
  1  'x, y, z'
loop_
 _atom_site_type_symbol
 _atom_site_label
 _atom_site_symmetry_multiplicity
 _atom_site_fract_x
 _atom_site_fract_y
 _atom_site_fract_z
 _atom_site_occupancy
  Pt  Pt0  1  0.500000  0.500000  0.000000  1
  Pt  Pt1  1  0.000000  0.000000  0.000000  1
  Pb  Pb2  1  0.825442  0.674558  0.251018  1
  Pb  Pb3  1  0.325442  0.825442  0.251018  1
  Pb  Pb4  1  0.325442  0.174558  0.748982  1
  Pb  Pb5  1  0.674558  0.825442  0.748982  1
  Pb  Pb6  1  0.174558  0.674558  0.748982  1
  Pb  Pb7  1  0.825442  0.325442  0.748982  1
  Pb  Pb8  1  0.174558  0.325442  0.251018  1
  Pb  Pb9  1  0.674558  0.174558  0.251018  1
