# generated using pymatgen
data_EuSnPd
_symmetry_space_group_name_H-M   'P 1'
_cell_length_a   4.73474585
_cell_length_b   7.57235646
_cell_length_c   8.12781858
_cell_angle_alpha   90.00000000
_cell_angle_beta   90.00000000
_cell_angle_gamma   90.00000000
_symmetry_Int_Tables_number   1
_chemical_formula_structural   EuSnPd
_chemical_formula_sum   'Eu4 Sn4 Pd4'
_cell_volume   291.40816957
_cell_formula_units_Z   4
loop_
 _symmetry_equiv_pos_site_id
 _symmetry_equiv_pos_as_xyz
  1  'x, y, z'
loop_
 _atom_site_type_symbol
 _atom_site_label
 _atom_site_symmetry_multiplicity
 _atom_site_fract_x
 _atom_site_fract_y
 _atom_site_fract_z
 _atom_site_occupancy
  Eu  Eu0  1  0.250000  0.522597  0.185401  1
  Eu  Eu1  1  0.750000  0.477403  0.814599  1
  Eu  Eu2  1  0.250000  0.022597  0.314599  1
  Eu  Eu3  1  0.750000  0.977403  0.685401  1
  Sn  Sn4  1  0.250000  0.164821  0.925953  1
  Sn  Sn5  1  0.750000  0.335179  0.425953  1
  Sn  Sn6  1  0.250000  0.664821  0.574047  1
  Sn  Sn7  1  0.750000  0.835179  0.074047  1
  Pd  Pd8  1  0.750000  0.207926  0.105759  1
  Pd  Pd9  1  0.250000  0.292074  0.605759  1
  Pd  Pd10  1  0.750000  0.707926  0.394241  1
  Pd  Pd11  1  0.250000  0.792074  0.894241  1
