# generated using pymatgen
data_LiCuPO4
_symmetry_space_group_name_H-M   'P 1'
_cell_length_a   5.01813378
_cell_length_b   9.71432850
_cell_length_c   8.53886489
_cell_angle_alpha   90.00000000
_cell_angle_beta   126.02742679
_cell_angle_gamma   90.00000000
_symmetry_Int_Tables_number   1
_chemical_formula_structural   LiCuPO4
_chemical_formula_sum   'Li4 Cu4 P4 O16'
_cell_volume   336.63687644
_cell_formula_units_Z   4
loop_
 _symmetry_equiv_pos_site_id
 _symmetry_equiv_pos_as_xyz
  1  'x, y, z'
loop_
 _atom_site_type_symbol
 _atom_site_label
 _atom_site_symmetry_multiplicity
 _atom_site_fract_x
 _atom_site_fract_y
 _atom_site_fract_z
 _atom_site_occupancy
  Li  Li0  1  0.718045  0.330210  0.515598  1
  Li  Li1  1  0.281955  0.669790  0.484402  1
  Li  Li2  1  0.718045  0.169790  0.015598  1
  Li  Li3  1  0.281955  0.830210  0.984402  1
  Cu  Cu4  1  0.243210  0.130251  0.511064  1
  Cu  Cu5  1  0.243210  0.369749  0.011064  1
  Cu  Cu6  1  0.756790  0.869749  0.488936  1
  Cu  Cu7  1  0.756790  0.630251  0.988936  1
  P  P8  1  0.554592  0.905472  0.753245  1
  P  P9  1  0.445408  0.094528  0.246755  1
  P  P10  1  0.445408  0.405472  0.746755  1
  P  P11  1  0.554592  0.594528  0.253245  1
  O  O12  1  0.396009  0.326431  0.574101  1
  O  O13  1  0.855815  0.622218  0.247630  1
  O  O14  1  0.144185  0.377782  0.752370  1
  O  O15  1  0.520051  0.438189  0.279167  1
  O  O16  1  0.396009  0.173569  0.074101  1
  O  O17  1  0.479949  0.938189  0.220833  1
  O  O18  1  0.479949  0.561811  0.720833  1
  O  O19  1  0.235841  0.636539  0.052788  1
  O  O20  1  0.235841  0.863461  0.552788  1
  O  O21  1  0.764159  0.363461  0.947212  1
  O  O22  1  0.144185  0.122218  0.252370  1
  O  O23  1  0.603991  0.826431  0.925899  1
  O  O24  1  0.520051  0.061811  0.779167  1
  O  O25  1  0.764159  0.136539  0.447212  1
  O  O26  1  0.855815  0.877782  0.747630  1
  O  O27  1  0.603991  0.673569  0.425899  1
