# generated using pymatgen
data_U4Te3O4
_symmetry_space_group_name_H-M   'P 1'
_cell_length_a   14.28369515
_cell_length_b   14.28369515
_cell_length_c   14.28369515
_cell_angle_alpha   164.04669839
_cell_angle_beta   164.04669839
_cell_angle_gamma   22.63548052
_symmetry_Int_Tables_number   1
_chemical_formula_structural   U4Te3O4
_chemical_formula_sum   'U4 Te3 O4'
_cell_volume   220.11085769
_cell_formula_units_Z   1
loop_
 _symmetry_equiv_pos_site_id
 _symmetry_equiv_pos_as_xyz
  1  'x, y, z'
loop_
 _atom_site_type_symbol
 _atom_site_label
 _atom_site_symmetry_multiplicity
 _atom_site_fract_x
 _atom_site_fract_y
 _atom_site_fract_z
 _atom_site_occupancy
  U  U0  1  0.568229  0.568229  0.000000  1
  U  U1  1  0.431771  0.431771  0.000000  1
  U  U2  1  0.843859  0.843859  0.000000  1
  U  U3  1  0.156141  0.156141  0.000000  1
  Te  Te4  1  0.000000  0.000000  0.000000  1
  Te  Te5  1  0.289392  0.289392  0.000000  1
  Te  Te6  1  0.710608  0.710608  0.000000  1
  O  O7  1  0.391962  0.891962  0.500000  1
  O  O8  1  0.891962  0.391962  0.500000  1
  O  O9  1  0.608038  0.108038  0.500000  1
  O  O10  1  0.108038  0.608038  0.500000  1
