# generated using pymatgen
data_BeP2
_symmetry_space_group_name_H-M   'P 1'
_cell_length_a   7.11104600
_cell_length_b   7.11104600
_cell_length_c   7.93789537
_cell_angle_alpha   77.08783329
_cell_angle_beta   102.91216671
_cell_angle_gamma   90.00115263
_symmetry_Int_Tables_number   1
_chemical_formula_structural   BeP2
_chemical_formula_sum   'Be8 P16'
_cell_volume   380.82581192
_cell_formula_units_Z   8
loop_
 _symmetry_equiv_pos_site_id
 _symmetry_equiv_pos_as_xyz
  1  'x, y, z'
loop_
 _atom_site_type_symbol
 _atom_site_label
 _atom_site_symmetry_multiplicity
 _atom_site_fract_x
 _atom_site_fract_y
 _atom_site_fract_z
 _atom_site_occupancy
  Be  Be0  1  0.890274  0.230941  0.073204  1
  Be  Be1  1  0.396976  0.230212  0.076483  1
  Be  Be2  1  0.603024  0.769788  0.923517  1
  Be  Be3  1  0.109726  0.769059  0.926796  1
  Be  Be4  1  0.769788  0.603024  0.576483  1
  Be  Be5  1  0.769059  0.109726  0.573204  1
  Be  Be6  1  0.230212  0.396976  0.423517  1
  Be  Be7  1  0.230941  0.890274  0.426796  1
  P  P8  1  0.057165  0.057165  0.750000  1
  P  P9  1  0.057829  0.566848  0.752807  1
  P  P10  1  0.566848  0.057829  0.747193  1
  P  P11  1  0.567728  0.567728  0.750000  1
  P  P12  1  0.107267  0.268802  0.921016  1
  P  P13  1  0.602222  0.270056  0.916630  1
  P  P14  1  0.397778  0.729944  0.083370  1
  P  P15  1  0.892733  0.731198  0.078984  1
  P  P16  1  0.270056  0.602222  0.583370  1
  P  P17  1  0.268802  0.107267  0.578984  1
  P  P18  1  0.729944  0.397778  0.416630  1
  P  P19  1  0.432272  0.432272  0.250000  1
  P  P20  1  0.433152  0.942171  0.252807  1
  P  P21  1  0.942171  0.433152  0.247193  1
  P  P22  1  0.731198  0.892733  0.421016  1
  P  P23  1  0.942835  0.942835  0.250000  1
