# generated using pymatgen
data_K2UBr5
_symmetry_space_group_name_H-M   'P 1'
_cell_length_a   8.59993365
_cell_length_b   9.25527668
_cell_length_c   13.73106415
_cell_angle_alpha   90.00000000
_cell_angle_beta   90.00000000
_cell_angle_gamma   90.00000000
_symmetry_Int_Tables_number   1
_chemical_formula_structural   K2UBr5
_chemical_formula_sum   'K8 U4 Br20'
_cell_volume   1092.92082917
_cell_formula_units_Z   4
loop_
 _symmetry_equiv_pos_site_id
 _symmetry_equiv_pos_as_xyz
  1  'x, y, z'
loop_
 _atom_site_type_symbol
 _atom_site_label
 _atom_site_symmetry_multiplicity
 _atom_site_fract_x
 _atom_site_fract_y
 _atom_site_fract_z
 _atom_site_occupancy
  K  K0  1  0.447126  0.504873  0.672797  1
  K  K1  1  0.947126  0.495127  0.827203  1
  K  K2  1  0.552874  0.004873  0.327203  1
  K  K3  1  0.052874  0.995127  0.172797  1
  K  K4  1  0.552874  0.495127  0.327203  1
  K  K5  1  0.052874  0.504873  0.172797  1
  K  K6  1  0.447126  0.995127  0.672797  1
  K  K7  1  0.947126  0.004873  0.827203  1
  U  U8  1  0.925087  0.750000  0.503499  1
  U  U9  1  0.574913  0.750000  0.003499  1
  U  U10  1  0.074913  0.250000  0.496501  1
  U  U11  1  0.425087  0.250000  0.996501  1
  Br  Br12  1  0.575250  0.750000  0.507146  1
  Br  Br13  1  0.335970  0.955720  0.921976  1
  Br  Br14  1  0.835970  0.044280  0.578024  1
  Br  Br15  1  0.664030  0.455720  0.078024  1
  Br  Br16  1  0.075250  0.250000  0.992854  1
  Br  Br17  1  0.664712  0.750000  0.795407  1
  Br  Br18  1  0.924750  0.750000  0.007146  1
  Br  Br19  1  0.424750  0.250000  0.492854  1
  Br  Br20  1  0.124137  0.750000  0.680015  1
  Br  Br21  1  0.164712  0.250000  0.704593  1
  Br  Br22  1  0.335288  0.250000  0.204593  1
  Br  Br23  1  0.835288  0.750000  0.295407  1
  Br  Br24  1  0.664030  0.044280  0.078024  1
  Br  Br25  1  0.624137  0.250000  0.819985  1
  Br  Br26  1  0.875863  0.250000  0.319985  1
  Br  Br27  1  0.375863  0.750000  0.180015  1
  Br  Br28  1  0.835970  0.455720  0.578024  1
  Br  Br29  1  0.335970  0.544280  0.921976  1
  Br  Br30  1  0.164030  0.955720  0.421976  1
  Br  Br31  1  0.164030  0.544280  0.421976  1
