# generated using pymatgen
data_LuFeO3
_symmetry_space_group_name_H-M   'P 1'
_cell_length_a   5.24099066
_cell_length_b   5.58143741
_cell_length_c   7.66584695
_cell_angle_alpha   90.00000000
_cell_angle_beta   90.00000000
_cell_angle_gamma   90.00000000
_symmetry_Int_Tables_number   1
_chemical_formula_structural   LuFeO3
_chemical_formula_sum   'Lu4 Fe4 O12'
_cell_volume   224.24335834
_cell_formula_units_Z   4
loop_
 _symmetry_equiv_pos_site_id
 _symmetry_equiv_pos_as_xyz
  1  'x, y, z'
loop_
 _atom_site_type_symbol
 _atom_site_label
 _atom_site_symmetry_multiplicity
 _atom_site_fract_x
 _atom_site_fract_y
 _atom_site_fract_z
 _atom_site_occupancy
  Lu  Lu0  1  0.022109  0.928367  0.750000  1
  Lu  Lu1  1  0.522109  0.571633  0.250000  1
  Lu  Lu2  1  0.477891  0.428367  0.750000  1
  Lu  Lu3  1  0.977891  0.071633  0.250000  1
  Fe  Fe4  1  0.000000  0.500000  0.500000  1
  Fe  Fe5  1  0.500000  0.000000  0.500000  1
  Fe  Fe6  1  0.500000  0.000000  0.000000  1
  Fe  Fe7  1  0.000000  0.500000  0.000000  1
  O  O8  1  0.688019  0.308479  0.434055  1
  O  O9  1  0.188019  0.191521  0.565945  1
  O  O10  1  0.811981  0.808479  0.065945  1
  O  O11  1  0.311981  0.691521  0.934055  1
  O  O12  1  0.311981  0.691521  0.565945  1
  O  O13  1  0.811981  0.808479  0.434055  1
  O  O14  1  0.188019  0.191521  0.934055  1
  O  O15  1  0.688019  0.308479  0.065945  1
  O  O16  1  0.129612  0.447489  0.250000  1
  O  O17  1  0.629612  0.052511  0.750000  1
  O  O18  1  0.370388  0.947489  0.250000  1
  O  O19  1  0.870388  0.552511  0.750000  1
