# generated using pymatgen
data_Sc(US2)3
_symmetry_space_group_name_H-M   'P 1'
_cell_length_a   3.77200541
_cell_length_b   13.32969134
_cell_length_c   16.39112929
_cell_angle_alpha   90.00000000
_cell_angle_beta   90.00000000
_cell_angle_gamma   90.00000000
_symmetry_Int_Tables_number   1
_chemical_formula_structural   Sc(US2)3
_chemical_formula_sum   'Sc4 U12 S24'
_cell_volume   824.14053636
_cell_formula_units_Z   4
loop_
 _symmetry_equiv_pos_site_id
 _symmetry_equiv_pos_as_xyz
  1  'x, y, z'
loop_
 _atom_site_type_symbol
 _atom_site_label
 _atom_site_symmetry_multiplicity
 _atom_site_fract_x
 _atom_site_fract_y
 _atom_site_fract_z
 _atom_site_occupancy
  Sc  Sc0  1  0.500000  0.000000  0.000000  1
  Sc  Sc1  1  0.000000  0.500000  0.500000  1
  Sc  Sc2  1  0.500000  0.000000  0.500000  1
  Sc  Sc3  1  0.000000  0.500000  0.000000  1
  U  U4  1  0.500000  0.550804  0.283270  1
  U  U5  1  0.500000  0.449196  0.716730  1
  U  U6  1  0.000000  0.949196  0.783270  1
  U  U7  1  0.000000  0.050804  0.216730  1
  U  U8  1  0.500000  0.250555  0.901131  1
  U  U9  1  0.500000  0.749445  0.098869  1
  U  U10  1  0.000000  0.249445  0.401131  1
  U  U11  1  0.000000  0.750555  0.598869  1
  U  U12  1  0.500000  0.679067  0.848898  1
  U  U13  1  0.500000  0.320933  0.151102  1
  U  U14  1  0.000000  0.820933  0.348898  1
  U  U15  1  0.000000  0.179067  0.651102  1
  S  S16  1  0.500000  0.592601  0.578508  1
  S  S17  1  0.500000  0.407399  0.421492  1
  S  S18  1  0.000000  0.907399  0.078508  1
  S  S19  1  0.000000  0.092601  0.921492  1
  S  S20  1  0.500000  0.874028  0.890716  1
  S  S21  1  0.500000  0.125972  0.109284  1
  S  S22  1  0.000000  0.625972  0.390716  1
  S  S23  1  0.000000  0.374028  0.609284  1
  S  S24  1  0.500000  0.900457  0.246116  1
  S  S25  1  0.500000  0.099543  0.753884  1
  S  S26  1  0.000000  0.599543  0.746116  1
  S  S27  1  0.000000  0.400457  0.253884  1
  S  S28  1  0.500000  0.809909  0.475743  1
  S  S29  1  0.500000  0.190091  0.524257  1
  S  S30  1  0.000000  0.690091  0.975743  1
  S  S31  1  0.000000  0.309909  0.024257  1
  S  S32  1  0.500000  0.524761  0.106398  1
  S  S33  1  0.500000  0.475239  0.893602  1
  S  S34  1  0.000000  0.975239  0.606398  1
  S  S35  1  0.000000  0.024761  0.393602  1
  S  S36  1  0.500000  0.814755  0.711234  1
  S  S37  1  0.500000  0.185245  0.288766  1
  S  S38  1  0.000000  0.685245  0.211234  1
  S  S39  1  0.000000  0.314755  0.788766  1
