# generated using pymatgen
data_Li3Ti2(PO4)3
_symmetry_space_group_name_H-M   'P 1'
_cell_length_a   8.52445951
_cell_length_b   8.90584025
_cell_length_c   14.68657991
_cell_angle_alpha   90.00000000
_cell_angle_beta   124.37395274
_cell_angle_gamma   90.00000000
_symmetry_Int_Tables_number   1
_chemical_formula_structural   Li3Ti2(PO4)3
_chemical_formula_sum   'Li12 Ti8 P12 O48'
_cell_volume   920.26146768
_cell_formula_units_Z   4
loop_
 _symmetry_equiv_pos_site_id
 _symmetry_equiv_pos_as_xyz
  1  'x, y, z'
loop_
 _atom_site_type_symbol
 _atom_site_label
 _atom_site_symmetry_multiplicity
 _atom_site_fract_x
 _atom_site_fract_y
 _atom_site_fract_z
 _atom_site_occupancy
  Li  Li0  1  0.716917  0.511930  0.652564  1
  Li  Li1  1  0.395856  0.414306  0.812553  1
  Li  Li2  1  0.716917  0.988070  0.152564  1
  Li  Li3  1  0.395856  0.085694  0.312553  1
  Li  Li4  1  0.283083  0.488070  0.347436  1
  Li  Li5  1  0.998521  0.217714  0.177919  1
  Li  Li6  1  0.001479  0.717714  0.322081  1
  Li  Li7  1  0.998521  0.282286  0.677919  1
  Li  Li8  1  0.283083  0.011930  0.847436  1
  Li  Li9  1  0.604144  0.585694  0.187447  1
  Li  Li10  1  0.604144  0.914306  0.687447  1
  Li  Li11  1  0.001479  0.782286  0.822081  1
  Ti  Ti12  1  0.652960  0.974170  0.895595  1
  Ti  Ti13  1  0.652960  0.525830  0.395595  1
  Ti  Ti14  1  0.138993  0.035957  0.395306  1
  Ti  Ti15  1  0.347040  0.025830  0.104405  1
  Ti  Ti16  1  0.138993  0.464043  0.895306  1
  Ti  Ti17  1  0.347040  0.474170  0.604405  1
  Ti  Ti18  1  0.861007  0.964043  0.604694  1
  Ti  Ti19  1  0.861007  0.535957  0.104694  1
  P  P20  1  0.267088  0.119607  0.654728  1
  P  P21  1  0.551287  0.249980  0.509499  1
  P  P22  1  0.267088  0.380393  0.154728  1
  P  P23  1  0.035511  0.890773  0.150590  1
  P  P24  1  0.035511  0.609227  0.650590  1
  P  P25  1  0.964489  0.390773  0.349410  1
  P  P26  1  0.448713  0.749980  0.990501  1
  P  P27  1  0.964489  0.109227  0.849410  1
  P  P28  1  0.448713  0.750020  0.490501  1
  P  P29  1  0.732912  0.880393  0.345272  1
  P  P30  1  0.732912  0.619607  0.845272  1
  P  P31  1  0.551287  0.250020  0.009499  1
  O  O32  1  0.703744  0.707640  0.327263  1
  O  O33  1  0.484472  0.861278  0.082306  1
  O  O34  1  0.014342  0.765651  0.688155  1
  O  O35  1  0.156494  0.609416  0.603453  1
  O  O36  1  0.832204  0.955912  0.066178  1
  O  O37  1  0.540753  0.166597  0.098625  1
  O  O38  1  0.397243  0.128673  0.447146  1
  O  O39  1  0.602757  0.628673  0.052854  1
  O  O40  1  0.873965  0.996052  0.749469  1
  O  O41  1  0.167796  0.455912  0.433822  1
  O  O42  1  0.751997  0.319672  0.063197  1
  O  O43  1  0.540753  0.333403  0.598625  1
  O  O44  1  0.126035  0.496052  0.750531  1
  O  O45  1  0.547782  0.528827  0.776380  1
  O  O46  1  0.843506  0.109416  0.896547  1
  O  O47  1  0.703744  0.792360  0.827263  1
  O  O48  1  0.167796  0.044088  0.933822  1
  O  O49  1  0.751997  0.180328  0.563197  1
  O  O50  1  0.397243  0.371327  0.947146  1
  O  O51  1  0.156494  0.890584  0.103453  1
  O  O52  1  0.459247  0.833403  0.901375  1
  O  O53  1  0.128306  0.422052  0.188822  1
  O  O54  1  0.296256  0.207640  0.172737  1
  O  O55  1  0.248003  0.680328  0.936803  1
  O  O56  1  0.829568  0.585717  0.969124  1
  O  O57  1  0.515528  0.138722  0.917694  1
  O  O58  1  0.602757  0.871327  0.552854  1
  O  O59  1  0.126035  0.003948  0.250531  1
  O  O60  1  0.170432  0.414283  0.030876  1
  O  O61  1  0.170432  0.085717  0.530876  1
  O  O62  1  0.547782  0.971173  0.276380  1
  O  O63  1  0.515528  0.361278  0.417694  1
  O  O64  1  0.871694  0.922052  0.311178  1
  O  O65  1  0.248003  0.819672  0.436803  1
  O  O66  1  0.871694  0.577948  0.811178  1
  O  O67  1  0.128306  0.077948  0.688822  1
  O  O68  1  0.829568  0.914283  0.469124  1
  O  O69  1  0.452218  0.028827  0.723620  1
  O  O70  1  0.985658  0.234349  0.311845  1
  O  O71  1  0.985658  0.265651  0.811845  1
  O  O72  1  0.873965  0.503948  0.249469  1
  O  O73  1  0.452218  0.471173  0.223620  1
  O  O74  1  0.014342  0.734349  0.188155  1
  O  O75  1  0.296256  0.292360  0.672737  1
  O  O76  1  0.484472  0.638722  0.582306  1
  O  O77  1  0.459247  0.666597  0.401375  1
  O  O78  1  0.843506  0.390584  0.396547  1
  O  O79  1  0.832204  0.544088  0.566178  1
