# generated using pymatgen
data_ZrPbS3
_symmetry_space_group_name_H-M   'P 1'
_cell_length_a   3.81662591
_cell_length_b   9.22525494
_cell_length_c   14.17110881
_cell_angle_alpha   90.00000000
_cell_angle_beta   90.00000000
_cell_angle_gamma   90.00000000
_symmetry_Int_Tables_number   1
_chemical_formula_structural   ZrPbS3
_chemical_formula_sum   'Zr4 Pb4 S12'
_cell_volume   498.95548790
_cell_formula_units_Z   4
loop_
 _symmetry_equiv_pos_site_id
 _symmetry_equiv_pos_as_xyz
  1  'x, y, z'
loop_
 _atom_site_type_symbol
 _atom_site_label
 _atom_site_symmetry_multiplicity
 _atom_site_fract_x
 _atom_site_fract_y
 _atom_site_fract_z
 _atom_site_occupancy
  Zr  Zr0  1  0.250000  0.665773  0.048739  1
  Zr  Zr1  1  0.750000  0.334227  0.951261  1
  Zr  Zr2  1  0.250000  0.165773  0.451261  1
  Zr  Zr3  1  0.750000  0.834227  0.548739  1
  Pb  Pb4  1  0.250000  0.022803  0.827393  1
  Pb  Pb5  1  0.750000  0.977197  0.172607  1
  Pb  Pb6  1  0.250000  0.522803  0.672607  1
  Pb  Pb7  1  0.750000  0.477197  0.327393  1
  S  S8  1  0.250000  0.509444  0.895307  1
  S  S9  1  0.750000  0.490556  0.104693  1
  S  S10  1  0.250000  0.009444  0.604693  1
  S  S11  1  0.750000  0.990556  0.395307  1
  S  S12  1  0.250000  0.669039  0.490352  1
  S  S13  1  0.750000  0.330961  0.509648  1
  S  S14  1  0.250000  0.169039  0.009648  1
  S  S15  1  0.750000  0.830961  0.990352  1
  S  S16  1  0.750000  0.727395  0.713569  1
  S  S17  1  0.250000  0.272605  0.286431  1
  S  S18  1  0.750000  0.227395  0.786431  1
  S  S19  1  0.250000  0.772605  0.213569  1
