# generated using pymatgen
data_Sb2P5O16
_symmetry_space_group_name_H-M   'P 1'
_cell_length_a   7.56457214
_cell_length_b   10.44398599
_cell_length_c   10.70179316
_cell_angle_alpha   90.00000000
_cell_angle_beta   110.76089352
_cell_angle_gamma   90.00000000
_symmetry_Int_Tables_number   1
_chemical_formula_structural   Sb2P5O16
_chemical_formula_sum   'Sb4 P10 O32'
_cell_volume   790.58818405
_cell_formula_units_Z   2
loop_
 _symmetry_equiv_pos_site_id
 _symmetry_equiv_pos_as_xyz
  1  'x, y, z'
loop_
 _atom_site_type_symbol
 _atom_site_label
 _atom_site_symmetry_multiplicity
 _atom_site_fract_x
 _atom_site_fract_y
 _atom_site_fract_z
 _atom_site_occupancy
  Sb  Sb0  1  0.922202  0.371019  0.128023  1
  Sb  Sb1  1  0.922202  0.628981  0.628023  1
  Sb  Sb2  1  0.377595  0.858818  0.018010  1
  Sb  Sb3  1  0.377595  0.141182  0.518010  1
  P  P4  1  0.606687  0.147992  0.118349  1
  P  P5  1  0.551836  0.705101  0.371754  1
  P  P6  1  0.606687  0.852008  0.618349  1
  P  P7  1  0.501696  0.467185  0.490725  1
  P  P8  1  0.257619  0.117293  0.175683  1
  P  P9  1  0.551836  0.294899  0.871754  1
  P  P10  1  0.501696  0.532815  0.990725  1
  P  P11  1  0.257619  0.882707  0.675683  1
  P  P12  1  0.113664  0.412000  0.467113  1
  P  P13  1  0.113664  0.588000  0.967113  1
  O  O14  1  0.789981  0.218839  0.194296  1
  O  O15  1  0.665647  0.477934  0.107721  1
  O  O16  1  0.628064  0.011077  0.085036  1
  O  O17  1  0.768029  0.692587  0.428239  1
  O  O18  1  0.789981  0.781161  0.694296  1
  O  O19  1  0.475492  0.165449  0.204362  1
  O  O20  1  0.665647  0.522066  0.607721  1
  O  O21  1  0.628064  0.988923  0.585036  1
  O  O22  1  0.467092  0.767589  0.239871  1
  O  O23  1  0.768029  0.307413  0.928239  1
  O  O24  1  0.510826  0.333802  0.443755  1
  O  O25  1  0.317471  0.515751  0.031893  1
  O  O26  1  0.460016  0.564942  0.365363  1
  O  O27  1  0.487716  0.774850  0.483162  1
  O  O28  1  0.218777  0.007024  0.074622  1
  O  O29  1  0.475492  0.834551  0.704362  1
  O  O30  1  0.467092  0.232411  0.739871  1
  O  O31  1  0.257097  0.076203  0.312586  1
  O  O32  1  0.510826  0.666198  0.943755  1
  O  O33  1  0.135237  0.235271  0.115835  1
  O  O34  1  0.317471  0.484249  0.531893  1
  O  O35  1  0.460016  0.435058  0.865363  1
  O  O36  1  0.487716  0.225150  0.983162  1
  O  O37  1  0.001632  0.540760  0.052599  1
  O  O38  1  0.218777  0.992976  0.574622  1
  O  O39  1  0.137500  0.267226  0.478642  1
  O  O40  1  0.257097  0.923797  0.812586  1
  O  O41  1  0.029386  0.459199  0.321320  1
  O  O42  1  0.135237  0.764729  0.615835  1
  O  O43  1  0.001632  0.459240  0.552599  1
  O  O44  1  0.137500  0.732774  0.978642  1
  O  O45  1  0.029386  0.540801  0.821320  1
