# generated using pymatgen
data_Pr2NCl3
_symmetry_space_group_name_H-M   'P 1'
_cell_length_a   8.29061437
_cell_length_b   8.29061437
_cell_length_c   8.29061437
_cell_angle_alpha   135.94084529
_cell_angle_beta   130.66720357
_cell_angle_gamma   68.26670889
_symmetry_Int_Tables_number   1
_chemical_formula_structural   Pr2NCl3
_chemical_formula_sum   'Pr4 N2 Cl6'
_cell_volume   295.34165874
_cell_formula_units_Z   2
loop_
 _symmetry_equiv_pos_site_id
 _symmetry_equiv_pos_as_xyz
  1  'x, y, z'
loop_
 _atom_site_type_symbol
 _atom_site_label
 _atom_site_symmetry_multiplicity
 _atom_site_fract_x
 _atom_site_fract_y
 _atom_site_fract_z
 _atom_site_occupancy
  Pr  Pr0  1  0.082676  0.907022  0.175654  1
  Pr  Pr1  1  0.917324  0.092978  0.824346  1
  Pr  Pr2  1  0.268632  0.592978  0.675654  1
  Pr  Pr3  1  0.731368  0.407022  0.324346  1
  N  N4  1  0.000000  0.750000  0.750000  1
  N  N5  1  0.000000  0.250000  0.250000  1
  Cl  Cl6  1  0.377560  0.203135  0.174426  1
  Cl  Cl7  1  0.622440  0.796865  0.825574  1
  Cl  Cl8  1  0.500000  0.250000  0.750000  1
  Cl  Cl9  1  0.500000  0.750000  0.250000  1
  Cl  Cl10  1  0.028709  0.703135  0.325574  1
  Cl  Cl11  1  0.971291  0.296865  0.674426  1
