# generated using pymatgen
data_LiGdO2
_symmetry_space_group_name_H-M   'P 1'
_cell_length_a   3.44881507
_cell_length_b   5.36572833
_cell_length_c   11.41555991
_cell_angle_alpha   90.00000000
_cell_angle_beta   90.00000000
_cell_angle_gamma   90.00000000
_symmetry_Int_Tables_number   1
_chemical_formula_structural   LiGdO2
_chemical_formula_sum   'Li4 Gd4 O8'
_cell_volume   211.24955631
_cell_formula_units_Z   4
loop_
 _symmetry_equiv_pos_site_id
 _symmetry_equiv_pos_as_xyz
  1  'x, y, z'
loop_
 _atom_site_type_symbol
 _atom_site_label
 _atom_site_symmetry_multiplicity
 _atom_site_fract_x
 _atom_site_fract_y
 _atom_site_fract_z
 _atom_site_occupancy
  Li  Li0  1  0.750000  0.401671  0.065595  1
  Li  Li1  1  0.250000  0.901671  0.434405  1
  Li  Li2  1  0.750000  0.098329  0.565595  1
  Li  Li3  1  0.250000  0.598329  0.934405  1
  Gd  Gd4  1  0.250000  0.547509  0.640462  1
  Gd  Gd5  1  0.750000  0.452491  0.359538  1
  Gd  Gd6  1  0.750000  0.047509  0.859538  1
  Gd  Gd7  1  0.250000  0.952491  0.140462  1
  O  O8  1  0.250000  0.244267  0.973864  1
  O  O9  1  0.250000  0.255733  0.473864  1
  O  O10  1  0.750000  0.755733  0.026136  1
  O  O11  1  0.750000  0.744267  0.526136  1
  O  O12  1  0.250000  0.806666  0.796073  1
  O  O13  1  0.750000  0.193334  0.203927  1
  O  O14  1  0.750000  0.306666  0.703927  1
  O  O15  1  0.250000  0.693334  0.296073  1
