# generated using pymatgen
data_Zr2Be17
_symmetry_space_group_name_H-M   'P 1'
_cell_length_a   5.67458345
_cell_length_b   5.67458345
_cell_length_c   5.67458345
_cell_angle_alpha   82.93918511
_cell_angle_beta   82.93918511
_cell_angle_gamma   82.93918511
_symmetry_Int_Tables_number   1
_chemical_formula_structural   Zr2Be17
_chemical_formula_sum   'Zr2 Be17'
_cell_volume   178.88416404
_cell_formula_units_Z   1
loop_
 _symmetry_equiv_pos_site_id
 _symmetry_equiv_pos_as_xyz
  1  'x, y, z'
loop_
 _atom_site_type_symbol
 _atom_site_label
 _atom_site_symmetry_multiplicity
 _atom_site_fract_x
 _atom_site_fract_y
 _atom_site_fract_z
 _atom_site_occupancy
  Zr  Zr0  1  0.837371  0.837371  0.837371  1
  Zr  Zr1  1  0.162629  0.162629  0.162629  1
  Be  Be2  1  0.596537  0.596537  0.596537  1
  Be  Be3  1  0.403463  0.403463  0.403463  1
  Be  Be4  1  0.000000  0.500000  0.500000  1
  Be  Be5  1  0.500000  0.000000  0.500000  1
  Be  Be6  1  0.500000  0.500000  0.000000  1
  Be  Be7  1  0.500000  0.213308  0.786692  1
  Be  Be8  1  0.786692  0.500000  0.213308  1
  Be  Be9  1  0.213308  0.786692  0.500000  1
  Be  Be10  1  0.500000  0.786692  0.213308  1
  Be  Be11  1  0.213308  0.500000  0.786692  1
  Be  Be12  1  0.786692  0.213308  0.500000  1
  Be  Be13  1  0.842903  0.842903  0.340561  1
  Be  Be14  1  0.340561  0.842903  0.842903  1
  Be  Be15  1  0.842903  0.340561  0.842903  1
  Be  Be16  1  0.157097  0.659439  0.157097  1
  Be  Be17  1  0.157097  0.157097  0.659439  1
  Be  Be18  1  0.659439  0.157097  0.157097  1
