# generated using pymatgen
data_Ti6CCl14
_symmetry_space_group_name_H-M   'P 1'
_cell_length_a   9.35832872
_cell_length_b   9.35832872
_cell_length_c   11.14377894
_cell_angle_alpha   90.00000000
_cell_angle_beta   90.00000000
_cell_angle_gamma   92.89042695
_symmetry_Int_Tables_number   1
_chemical_formula_structural   Ti6CCl14
_chemical_formula_sum   'Ti12 C2 Cl28'
_cell_volume   974.71178782
_cell_formula_units_Z   2
loop_
 _symmetry_equiv_pos_site_id
 _symmetry_equiv_pos_as_xyz
  1  'x, y, z'
loop_
 _atom_site_type_symbol
 _atom_site_label
 _atom_site_symmetry_multiplicity
 _atom_site_fract_x
 _atom_site_fract_y
 _atom_site_fract_z
 _atom_site_occupancy
  Ti  Ti0  1  0.634768  0.634768  0.097736  1
  Ti  Ti1  1  0.865232  0.865232  0.597736  1
  Ti  Ti2  1  0.134768  0.134768  0.402264  1
  Ti  Ti3  1  0.365232  0.365232  0.902264  1
  Ti  Ti4  1  0.449224  0.675761  0.883959  1
  Ti  Ti5  1  0.050776  0.824239  0.383959  1
  Ti  Ti6  1  0.175761  0.949224  0.616041  1
  Ti  Ti7  1  0.324239  0.550776  0.116041  1
  Ti  Ti8  1  0.550776  0.324239  0.116041  1
  Ti  Ti9  1  0.949224  0.175761  0.616041  1
  Ti  Ti10  1  0.824239  0.050776  0.383959  1
  Ti  Ti11  1  0.675761  0.449224  0.883959  1
  C  C12  1  0.500000  0.500000  0.000000  1
  C  C13  1  0.000000  0.000000  0.500000  1
  Cl  Cl14  1  0.611172  0.111172  0.250000  1
  Cl  Cl15  1  0.888828  0.388828  0.750000  1
  Cl  Cl16  1  0.388828  0.888828  0.750000  1
  Cl  Cl17  1  0.111172  0.611172  0.250000  1
  Cl  Cl18  1  0.396047  0.152088  0.012025  1
  Cl  Cl19  1  0.103953  0.347912  0.512025  1
  Cl  Cl20  1  0.652088  0.896047  0.487975  1
  Cl  Cl21  1  0.847912  0.603953  0.987975  1
  Cl  Cl22  1  0.603953  0.847912  0.987975  1
  Cl  Cl23  1  0.896047  0.652088  0.487975  1
  Cl  Cl24  1  0.747473  0.252527  0.000000  1
  Cl  Cl25  1  0.752527  0.247473  0.500000  1
  Cl  Cl26  1  0.252527  0.747473  0.000000  1
  Cl  Cl27  1  0.247473  0.752527  0.500000  1
  Cl  Cl28  1  0.142010  0.142010  0.758482  1
  Cl  Cl29  1  0.357990  0.357990  0.258482  1
  Cl  Cl30  1  0.642010  0.642010  0.741518  1
  Cl  Cl31  1  0.857990  0.857990  0.241518  1
  Cl  Cl32  1  0.967399  0.209352  0.258674  1
  Cl  Cl33  1  0.532601  0.290648  0.758674  1
  Cl  Cl34  1  0.709352  0.467399  0.241326  1
  Cl  Cl35  1  0.790648  0.032601  0.741326  1
  Cl  Cl36  1  0.032601  0.790648  0.741326  1
  Cl  Cl37  1  0.467399  0.709352  0.241326  1
  Cl  Cl38  1  0.290648  0.532601  0.758674  1
  Cl  Cl39  1  0.209352  0.967399  0.258674  1
  Cl  Cl40  1  0.152088  0.396047  0.012025  1
  Cl  Cl41  1  0.347912  0.103953  0.512025  1
