# generated using pymatgen
data_YMnO3
_symmetry_space_group_name_H-M   'P 1'
_cell_length_a   5.33623054
_cell_length_b   5.88945471
_cell_length_c   7.49550978
_cell_angle_alpha   90.00000000
_cell_angle_beta   90.00000000
_cell_angle_gamma   90.00000000
_symmetry_Int_Tables_number   1
_chemical_formula_structural   YMnO3
_chemical_formula_sum   'Y4 Mn4 O12'
_cell_volume   235.56504432
_cell_formula_units_Z   4
loop_
 _symmetry_equiv_pos_site_id
 _symmetry_equiv_pos_as_xyz
  1  'x, y, z'
loop_
 _atom_site_type_symbol
 _atom_site_label
 _atom_site_symmetry_multiplicity
 _atom_site_fract_x
 _atom_site_fract_y
 _atom_site_fract_z
 _atom_site_occupancy
  Y  Y0  1  0.518156  0.582931  0.250000  1
  Y  Y1  1  0.981844  0.082931  0.250000  1
  Y  Y2  1  0.481844  0.417069  0.750000  1
  Y  Y3  1  0.018156  0.917069  0.750000  1
  Mn  Mn4  1  0.000000  0.500000  0.000000  1
  Mn  Mn5  1  0.500000  0.000000  0.500000  1
  Mn  Mn6  1  0.000000  0.500000  0.500000  1
  Mn  Mn7  1  0.500000  0.000000  0.000000  1
  O  O8  1  0.383135  0.958370  0.250000  1
  O  O9  1  0.116865  0.458370  0.250000  1
  O  O10  1  0.616865  0.041630  0.750000  1
  O  O11  1  0.883135  0.541630  0.750000  1
  O  O12  1  0.800082  0.827167  0.055666  1
  O  O13  1  0.699918  0.327167  0.444334  1
  O  O14  1  0.199918  0.172833  0.555666  1
  O  O15  1  0.300082  0.672833  0.944334  1
  O  O16  1  0.199918  0.172833  0.944334  1
  O  O17  1  0.300082  0.672833  0.555666  1
  O  O18  1  0.800082  0.827167  0.444334  1
  O  O19  1  0.699918  0.327167  0.055666  1
