# generated using pymatgen
data_Hf3P2
_symmetry_space_group_name_H-M   'P 1'
_cell_length_a   3.58213047
_cell_length_b   9.87512793
_cell_length_c   10.20383903
_cell_angle_alpha   90.00000000
_cell_angle_beta   90.00000000
_cell_angle_gamma   90.00000000
_symmetry_Int_Tables_number   1
_chemical_formula_structural   Hf3P2
_chemical_formula_sum   'Hf12 P8'
_cell_volume   360.95056770
_cell_formula_units_Z   4
loop_
 _symmetry_equiv_pos_site_id
 _symmetry_equiv_pos_as_xyz
  1  'x, y, z'
loop_
 _atom_site_type_symbol
 _atom_site_label
 _atom_site_symmetry_multiplicity
 _atom_site_fract_x
 _atom_site_fract_y
 _atom_site_fract_z
 _atom_site_occupancy
  Hf  Hf0  1  0.250000  0.796800  0.216128  1
  Hf  Hf1  1  0.750000  0.203200  0.783872  1
  Hf  Hf2  1  0.750000  0.296800  0.283872  1
  Hf  Hf3  1  0.250000  0.703200  0.716128  1
  Hf  Hf4  1  0.250000  0.435203  0.875286  1
  Hf  Hf5  1  0.750000  0.564797  0.124714  1
  Hf  Hf6  1  0.750000  0.935203  0.624714  1
  Hf  Hf7  1  0.250000  0.064797  0.375286  1
  Hf  Hf8  1  0.250000  0.373828  0.545970  1
  Hf  Hf9  1  0.750000  0.626172  0.454030  1
  Hf  Hf10  1  0.750000  0.873828  0.954030  1
  Hf  Hf11  1  0.250000  0.126172  0.045970  1
  P  P12  1  0.250000  0.679111  0.972604  1
  P  P13  1  0.750000  0.320889  0.027396  1
  P  P14  1  0.750000  0.179111  0.527396  1
  P  P15  1  0.250000  0.820889  0.472604  1
  P  P16  1  0.250000  0.000254  0.806773  1
  P  P17  1  0.750000  0.999746  0.193227  1
  P  P18  1  0.750000  0.500254  0.693227  1
  P  P19  1  0.250000  0.499746  0.306773  1
