# generated using pymatgen
data_Ca2Sn5Pt3
_symmetry_space_group_name_H-M   'P 1'
_cell_length_a   4.50985490
_cell_length_b   7.49949945
_cell_length_c   26.79513401
_cell_angle_alpha   90.00000000
_cell_angle_beta   90.00000000
_cell_angle_gamma   90.00000000
_symmetry_Int_Tables_number   1
_chemical_formula_structural   Ca2Sn5Pt3
_chemical_formula_sum   'Ca8 Sn20 Pt12'
_cell_volume   906.25576054
_cell_formula_units_Z   4
loop_
 _symmetry_equiv_pos_site_id
 _symmetry_equiv_pos_as_xyz
  1  'x, y, z'
loop_
 _atom_site_type_symbol
 _atom_site_label
 _atom_site_symmetry_multiplicity
 _atom_site_fract_x
 _atom_site_fract_y
 _atom_site_fract_z
 _atom_site_occupancy
  Ca  Ca0  1  0.750000  0.753060  0.576616  1
  Ca  Ca1  1  0.250000  0.246940  0.423384  1
  Ca  Ca2  1  0.750000  0.253060  0.923384  1
  Ca  Ca3  1  0.250000  0.746940  0.076616  1
  Ca  Ca4  1  0.750000  0.785424  0.273373  1
  Ca  Ca5  1  0.250000  0.214576  0.726627  1
  Ca  Ca6  1  0.750000  0.285424  0.226627  1
  Ca  Ca7  1  0.250000  0.714576  0.773373  1
  Sn  Sn8  1  0.250000  0.964222  0.956615  1
  Sn  Sn9  1  0.250000  0.539905  0.956454  1
  Sn  Sn10  1  0.750000  0.460095  0.043546  1
  Sn  Sn11  1  0.250000  0.039905  0.543546  1
  Sn  Sn12  1  0.750000  0.960095  0.456454  1
  Sn  Sn13  1  0.750000  0.878037  0.701764  1
  Sn  Sn14  1  0.750000  0.035778  0.043385  1
  Sn  Sn15  1  0.250000  0.464222  0.543385  1
  Sn  Sn16  1  0.750000  0.535778  0.456615  1
  Sn  Sn17  1  0.250000  0.287893  0.131020  1
  Sn  Sn18  1  0.750000  0.712107  0.868980  1
  Sn  Sn19  1  0.250000  0.787893  0.368980  1
  Sn  Sn20  1  0.750000  0.407505  0.346941  1
  Sn  Sn21  1  0.250000  0.121963  0.298236  1
  Sn  Sn22  1  0.750000  0.378037  0.798236  1
  Sn  Sn23  1  0.250000  0.621963  0.201764  1
  Sn  Sn24  1  0.250000  0.092495  0.846941  1
  Sn  Sn25  1  0.250000  0.592495  0.653059  1
  Sn  Sn26  1  0.750000  0.907505  0.153059  1
  Sn  Sn27  1  0.750000  0.212107  0.631020  1
  Pt  Pt28  1  0.750000  0.500436  0.700424  1
  Pt  Pt29  1  0.250000  0.243941  0.027400  1
  Pt  Pt30  1  0.750000  0.756059  0.972600  1
  Pt  Pt31  1  0.250000  0.743941  0.472600  1
  Pt  Pt32  1  0.750000  0.256059  0.527400  1
  Pt  Pt33  1  0.250000  0.459605  0.857193  1
  Pt  Pt34  1  0.750000  0.540395  0.142807  1
  Pt  Pt35  1  0.250000  0.959605  0.642807  1
  Pt  Pt36  1  0.750000  0.040395  0.357193  1
  Pt  Pt37  1  0.250000  0.999564  0.200424  1
  Pt  Pt38  1  0.750000  0.000436  0.799576  1
  Pt  Pt39  1  0.250000  0.499564  0.299576  1
