# generated using pymatgen
data_IrS2
_symmetry_space_group_name_H-M   'P 1'
_cell_length_a   3.61255731
_cell_length_b   5.68606406
_cell_length_c   20.04169609
_cell_angle_alpha   90.00000000
_cell_angle_beta   90.00000000
_cell_angle_gamma   90.00000000
_symmetry_Int_Tables_number   1
_chemical_formula_structural   IrS2
_chemical_formula_sum   'Ir8 S16'
_cell_volume   411.68113477
_cell_formula_units_Z   8
loop_
 _symmetry_equiv_pos_site_id
 _symmetry_equiv_pos_as_xyz
  1  'x, y, z'
loop_
 _atom_site_type_symbol
 _atom_site_label
 _atom_site_symmetry_multiplicity
 _atom_site_fract_x
 _atom_site_fract_y
 _atom_site_fract_z
 _atom_site_occupancy
  Ir  Ir0  1  0.250000  0.941021  0.804023  1
  Ir  Ir1  1  0.750000  0.058979  0.195977  1
  Ir  Ir2  1  0.750000  0.441021  0.695977  1
  Ir  Ir3  1  0.250000  0.558979  0.304023  1
  Ir  Ir4  1  0.250000  0.927279  0.577434  1
  Ir  Ir5  1  0.750000  0.072721  0.422566  1
  Ir  Ir6  1  0.750000  0.427279  0.922566  1
  Ir  Ir7  1  0.250000  0.572721  0.077434  1
  S  S8  1  0.250000  0.221555  0.491016  1
  S  S9  1  0.750000  0.778445  0.508984  1
  S  S10  1  0.750000  0.721555  0.008984  1
  S  S11  1  0.250000  0.278445  0.991016  1
  S  S12  1  0.250000  0.179289  0.262922  1
  S  S13  1  0.750000  0.820711  0.737078  1
  S  S14  1  0.750000  0.679289  0.237078  1
  S  S15  1  0.250000  0.320711  0.762922  1
  S  S16  1  0.250000  0.935848  0.359377  1
  S  S17  1  0.750000  0.064152  0.640623  1
  S  S18  1  0.750000  0.435848  0.140623  1
  S  S19  1  0.250000  0.564152  0.859377  1
  S  S20  1  0.250000  0.546414  0.623466  1
  S  S21  1  0.750000  0.453586  0.376534  1
  S  S22  1  0.750000  0.046414  0.876534  1
  S  S23  1  0.250000  0.953586  0.123466  1
