# generated using pymatgen
data_InPO4
_symmetry_space_group_name_H-M   'P 1'
_cell_length_a   4.88522753
_cell_length_b   7.03001457
_cell_length_c   9.01600130
_cell_angle_alpha   90.00000000
_cell_angle_beta   90.00000000
_cell_angle_gamma   90.00000000
_symmetry_Int_Tables_number   1
_chemical_formula_structural   InPO4
_chemical_formula_sum   'In4 P4 O16'
_cell_volume   309.63852260
_cell_formula_units_Z   4
loop_
 _symmetry_equiv_pos_site_id
 _symmetry_equiv_pos_as_xyz
  1  'x, y, z'
loop_
 _atom_site_type_symbol
 _atom_site_label
 _atom_site_symmetry_multiplicity
 _atom_site_fract_x
 _atom_site_fract_y
 _atom_site_fract_z
 _atom_site_occupancy
  In  In0  1  0.500000  0.500000  0.500000  1
  In  In1  1  0.000000  0.500000  0.000000  1
  In  In2  1  0.500000  0.000000  0.500000  1
  In  In3  1  0.000000  0.000000  0.000000  1
  P  P4  1  0.982263  0.750000  0.676218  1
  P  P5  1  0.482263  0.250000  0.823782  1
  P  P6  1  0.017737  0.250000  0.323782  1
  P  P7  1  0.517737  0.750000  0.176218  1
  O  O8  1  0.152909  0.434985  0.375366  1
  O  O9  1  0.652909  0.565015  0.124634  1
  O  O10  1  0.847091  0.934985  0.624634  1
  O  O11  1  0.347091  0.065015  0.875366  1
  O  O12  1  0.847091  0.565015  0.624634  1
  O  O13  1  0.347091  0.434985  0.875366  1
  O  O14  1  0.152909  0.065015  0.375366  1
  O  O15  1  0.652909  0.934985  0.124634  1
  O  O16  1  0.212220  0.750000  0.121576  1
  O  O17  1  0.712220  0.250000  0.378424  1
  O  O18  1  0.787780  0.250000  0.878424  1
  O  O19  1  0.287780  0.750000  0.621576  1
  O  O20  1  0.536537  0.750000  0.351565  1
  O  O21  1  0.036537  0.250000  0.148435  1
  O  O22  1  0.463463  0.250000  0.648435  1
  O  O23  1  0.963463  0.750000  0.851565  1
