# generated using pymatgen
data_In2O3
_symmetry_space_group_name_H-M   'P 1'
_cell_length_a   5.87940660
_cell_length_b   5.87940660
_cell_length_c   5.87940660
_cell_angle_alpha   56.72062910
_cell_angle_beta   56.72062910
_cell_angle_gamma   56.72062910
_symmetry_Int_Tables_number   1
_chemical_formula_structural   In2O3
_chemical_formula_sum   'In4 O6'
_cell_volume   132.82809572
_cell_formula_units_Z   2
loop_
 _symmetry_equiv_pos_site_id
 _symmetry_equiv_pos_as_xyz
  1  'x, y, z'
loop_
 _atom_site_type_symbol
 _atom_site_label
 _atom_site_symmetry_multiplicity
 _atom_site_fract_x
 _atom_site_fract_y
 _atom_site_fract_z
 _atom_site_occupancy
  In  In0  1  0.357215  0.357215  0.357215  1
  In  In1  1  0.142785  0.142785  0.142785  1
  In  In2  1  0.857215  0.857215  0.857215  1
  In  In3  1  0.642785  0.642785  0.642785  1
  O  O4  1  0.546721  0.953279  0.250000  1
  O  O5  1  0.750000  0.453279  0.046721  1
  O  O6  1  0.046721  0.750000  0.453279  1
  O  O7  1  0.953279  0.250000  0.546721  1
  O  O8  1  0.453279  0.046721  0.750000  1
  O  O9  1  0.250000  0.546721  0.953279  1
