# generated using pymatgen
data_Li11Ge6
_symmetry_space_group_name_H-M   'P 1'
_cell_length_a   12.62266340
_cell_length_b   12.62266340
_cell_length_c   10.62123939
_cell_angle_alpha   90.00000000
_cell_angle_beta   90.00000000
_cell_angle_gamma   160.29758287
_symmetry_Int_Tables_number   1
_chemical_formula_structural   Li11Ge6
_chemical_formula_sum   'Li22 Ge12'
_cell_volume   570.53331682
_cell_formula_units_Z   2
loop_
 _symmetry_equiv_pos_site_id
 _symmetry_equiv_pos_as_xyz
  1  'x, y, z'
loop_
 _atom_site_type_symbol
 _atom_site_label
 _atom_site_symmetry_multiplicity
 _atom_site_fract_x
 _atom_site_fract_y
 _atom_site_fract_z
 _atom_site_occupancy
  Li  Li0  1  0.820154  0.179846  0.880252  1
  Li  Li1  1  0.179846  0.820154  0.119748  1
  Li  Li2  1  0.179846  0.820154  0.380252  1
  Li  Li3  1  0.820154  0.179846  0.619748  1
  Li  Li4  1  0.090536  0.909464  0.000706  1
  Li  Li5  1  0.909464  0.090536  0.999294  1
  Li  Li6  1  0.909464  0.090536  0.500706  1
  Li  Li7  1  0.090536  0.909464  0.499294  1
  Li  Li8  1  0.856697  0.143303  0.250000  1
  Li  Li9  1  0.143303  0.856697  0.750000  1
  Li  Li10  1  0.974127  0.025873  0.250000  1
  Li  Li11  1  0.025873  0.974127  0.750000  1
  Li  Li12  1  0.360545  0.639455  0.750000  1
  Li  Li13  1  0.639455  0.360545  0.250000  1
  Li  Li14  1  0.465000  0.535000  0.887405  1
  Li  Li15  1  0.535000  0.465000  0.112595  1
  Li  Li16  1  0.535000  0.465000  0.387405  1
  Li  Li17  1  0.465000  0.535000  0.612595  1
  Li  Li18  1  0.241731  0.758269  0.605580  1
  Li  Li19  1  0.758269  0.241731  0.394420  1
  Li  Li20  1  0.758269  0.241731  0.105580  1
  Li  Li21  1  0.241731  0.758269  0.894420  1
  Ge  Ge22  1  0.080729  0.919271  0.250000  1
  Ge  Ge23  1  0.919271  0.080729  0.750000  1
  Ge  Ge24  1  0.271573  0.728427  0.250000  1
  Ge  Ge25  1  0.728427  0.271573  0.750000  1
  Ge  Ge26  1  0.671149  0.328851  0.552031  1
  Ge  Ge27  1  0.328851  0.671149  0.447969  1
  Ge  Ge28  1  0.328851  0.671149  0.052031  1
  Ge  Ge29  1  0.671149  0.328851  0.947969  1
  Ge  Ge30  1  0.575501  0.424499  0.633983  1
  Ge  Ge31  1  0.424499  0.575501  0.366017  1
  Ge  Ge32  1  0.424499  0.575501  0.133983  1
  Ge  Ge33  1  0.575501  0.424499  0.866017  1
