# generated using pymatgen
data_BAsPbO5
_symmetry_space_group_name_H-M   'P 1'
_cell_length_a   7.26578806
_cell_length_b   7.26578806
_cell_length_c   7.01246809
_cell_angle_alpha   90.00000000
_cell_angle_beta   90.00000000
_cell_angle_gamma   120.00000000
_symmetry_Int_Tables_number   1
_chemical_formula_structural   BAsPbO5
_chemical_formula_sum   'B3 As3 Pb3 O15'
_cell_volume   320.60255611
_cell_formula_units_Z   3
loop_
 _symmetry_equiv_pos_site_id
 _symmetry_equiv_pos_as_xyz
  1  'x, y, z'
loop_
 _atom_site_type_symbol
 _atom_site_label
 _atom_site_symmetry_multiplicity
 _atom_site_fract_x
 _atom_site_fract_y
 _atom_site_fract_z
 _atom_site_occupancy
  B  B0  1  0.772221  0.426723  0.566404  1
  B  B1  1  0.654503  0.227779  0.233071  1
  B  B2  1  0.573277  0.345497  0.899738  1
  As  As3  1  0.668430  0.738425  0.711210  1
  As  As4  1  0.069996  0.331570  0.377877  1
  As  As5  1  0.261575  0.930004  0.044543  1
  Pb  Pb6  1  0.062699  0.331697  0.877560  1
  Pb  Pb7  1  0.268998  0.937301  0.544226  1
  Pb  Pb8  1  0.668303  0.731002  0.210893  1
  O  O9  1  0.660228  0.376293  0.091495  1
  O  O10  1  0.623707  0.283936  0.424828  1
  O  O11  1  0.716064  0.339772  0.758162  1
  O  O12  1  0.823305  0.924464  0.873598  1
  O  O13  1  0.101159  0.176695  0.540265  1
  O  O14  1  0.075536  0.898841  0.206932  1
  O  O15  1  0.484325  0.997809  0.191285  1
  O  O16  1  0.002191  0.486515  0.524618  1
  O  O17  1  0.513485  0.515675  0.857952  1
  O  O18  1  0.205922  0.731627  0.889484  1
  O  O19  1  0.268373  0.474295  0.222818  1
  O  O20  1  0.525705  0.794078  0.556151  1
  O  O21  1  0.348786  0.149782  0.889330  1
  O  O22  1  0.850218  0.199004  0.222663  1
  O  O23  1  0.800996  0.651214  0.555996  1
