# generated using pymatgen
data_KPH3O4F
_symmetry_space_group_name_H-M   'P 1'
_cell_length_a   6.73522724
_cell_length_b   7.71740657
_cell_length_c   9.58191977
_cell_angle_alpha   90.00000000
_cell_angle_beta   100.90594350
_cell_angle_gamma   90.00000000
_symmetry_Int_Tables_number   1
_chemical_formula_structural   KPH3O4F
_chemical_formula_sum   'K4 P4 H12 O16 F4'
_cell_volume   489.05838983
_cell_formula_units_Z   4
loop_
 _symmetry_equiv_pos_site_id
 _symmetry_equiv_pos_as_xyz
  1  'x, y, z'
loop_
 _atom_site_type_symbol
 _atom_site_label
 _atom_site_symmetry_multiplicity
 _atom_site_fract_x
 _atom_site_fract_y
 _atom_site_fract_z
 _atom_site_occupancy
  K  K0  1  0.159072  0.723282  0.042900  1
  K  K1  1  0.840928  0.223282  0.457100  1
  K  K2  1  0.840928  0.276718  0.957100  1
  K  K3  1  0.159072  0.776718  0.542900  1
  P  P4  1  0.382695  0.200620  0.171574  1
  P  P5  1  0.617305  0.700620  0.328426  1
  P  P6  1  0.617305  0.799380  0.828426  1
  P  P7  1  0.382695  0.299380  0.671574  1
  H  H8  1  0.112398  0.026749  0.239751  1
  H  H9  1  0.887602  0.526749  0.260249  1
  H  H10  1  0.887602  0.973251  0.760249  1
  H  H11  1  0.112398  0.473251  0.739751  1
  H  H12  1  0.593011  0.979008  0.165443  1
  H  H13  1  0.406989  0.479008  0.334557  1
  H  H14  1  0.406989  0.020992  0.834557  1
  H  H15  1  0.593011  0.520992  0.665443  1
  H  H16  1  0.629868  0.812147  0.538728  1
  H  H17  1  0.370132  0.312147  0.961272  1
  H  H18  1  0.370132  0.187853  0.461272  1
  H  H19  1  0.629868  0.687853  0.038728  1
  O  O20  1  0.357023  0.354672  0.059975  1
  O  O21  1  0.588279  0.388442  0.652403  1
  O  O22  1  0.411721  0.611558  0.347597  1
  O  O23  1  0.588279  0.111558  0.152403  1
  O  O24  1  0.406992  0.218346  0.819414  1
  O  O25  1  0.593008  0.718346  0.680586  1
  O  O26  1  0.593008  0.781654  0.180586  1
  O  O27  1  0.406992  0.281654  0.319414  1
  O  O28  1  0.206262  0.427243  0.636838  1
  O  O29  1  0.793738  0.927243  0.863162  1
  O  O30  1  0.793738  0.572757  0.363162  1
  O  O31  1  0.206262  0.072757  0.136838  1
  O  O32  1  0.642977  0.645328  0.940025  1
  O  O33  1  0.357023  0.145328  0.559975  1
  O  O34  1  0.411721  0.888442  0.847597  1
  O  O35  1  0.642977  0.854672  0.440025  1
  F  F36  1  0.035100  0.982117  0.319759  1
  F  F37  1  0.964900  0.482117  0.180241  1
  F  F38  1  0.964900  0.017883  0.680241  1
  F  F39  1  0.035100  0.517883  0.819759  1
