# generated using pymatgen
data_Cr2P
_symmetry_space_group_name_H-M   'P 1'
_cell_length_a   6.84341011
_cell_length_b   6.84341011
_cell_length_c   6.84341011
_cell_angle_alpha   124.86965367
_cell_angle_beta   122.80448764
_cell_angle_gamma   83.48372414
_symmetry_Int_Tables_number   1
_chemical_formula_structural   Cr2P
_chemical_formula_sum   'Cr12 P6'
_cell_volume   211.87663662
_cell_formula_units_Z   6
loop_
 _symmetry_equiv_pos_site_id
 _symmetry_equiv_pos_as_xyz
  1  'x, y, z'
loop_
 _atom_site_type_symbol
 _atom_site_label
 _atom_site_symmetry_multiplicity
 _atom_site_fract_x
 _atom_site_fract_y
 _atom_site_fract_z
 _atom_site_occupancy
  Cr  Cr0  1  0.204909  0.742160  0.947069  1
  Cr  Cr1  1  0.795091  0.742160  0.537251  1
  Cr  Cr2  1  0.416826  0.252879  0.419274  1
  Cr  Cr3  1  0.583174  0.002448  0.836053  1
  Cr  Cr4  1  0.833605  0.252879  0.836053  1
  Cr  Cr5  1  0.166395  0.002448  0.419274  1
  Cr  Cr6  1  0.712094  0.979043  0.266949  1
  Cr  Cr7  1  0.287906  0.554854  0.266949  1
  Cr  Cr8  1  0.214923  0.065855  0.850932  1
  Cr  Cr9  1  0.785077  0.636009  0.850932  1
  Cr  Cr10  1  0.500000  0.451185  0.951185  1
  Cr  Cr11  1  0.000000  0.372966  0.372966  1
  P  P12  1  0.937425  0.664235  0.271658  1
  P  P13  1  0.062575  0.334233  0.726811  1
  P  P14  1  0.392577  0.664235  0.726811  1
  P  P15  1  0.607423  0.334233  0.271658  1
  P  P16  1  0.500000  0.920077  0.420077  1
  P  P17  1  0.000000  0.026399  0.026399  1
