# generated using pymatgen
data_SbRh
_symmetry_space_group_name_H-M   'P 1'
_cell_length_a   3.91651646
_cell_length_b   6.05694853
_cell_length_c   6.42334932
_cell_angle_alpha   90.00000000
_cell_angle_beta   90.00000000
_cell_angle_gamma   90.00000000
_symmetry_Int_Tables_number   1
_chemical_formula_structural   SbRh
_chemical_formula_sum   'Sb4 Rh4'
_cell_volume   152.37558294
_cell_formula_units_Z   4
loop_
 _symmetry_equiv_pos_site_id
 _symmetry_equiv_pos_as_xyz
  1  'x, y, z'
loop_
 _atom_site_type_symbol
 _atom_site_label
 _atom_site_symmetry_multiplicity
 _atom_site_fract_x
 _atom_site_fract_y
 _atom_site_fract_z
 _atom_site_occupancy
  Sb  Sb0  1  0.750000  0.803422  0.591535  1
  Sb  Sb1  1  0.250000  0.196578  0.408465  1
  Sb  Sb2  1  0.750000  0.303422  0.908465  1
  Sb  Sb3  1  0.250000  0.696578  0.091535  1
  Rh  Rh4  1  0.750000  0.993467  0.194283  1
  Rh  Rh5  1  0.250000  0.006533  0.805717  1
  Rh  Rh6  1  0.750000  0.493467  0.305717  1
  Rh  Rh7  1  0.250000  0.506533  0.694283  1
