# generated using pymatgen
data_Cs3In2Cl9
_symmetry_space_group_name_H-M   'P 1'
_cell_length_a   9.85289856
_cell_length_b   9.85289856
_cell_length_c   9.85289856
_cell_angle_alpha   83.00681669
_cell_angle_beta   83.00681669
_cell_angle_gamma   83.00681669
_symmetry_Int_Tables_number   1
_chemical_formula_structural   Cs3In2Cl9
_chemical_formula_sum   'Cs6 In4 Cl18'
_cell_volume   936.76985245
_cell_formula_units_Z   2
loop_
 _symmetry_equiv_pos_site_id
 _symmetry_equiv_pos_as_xyz
  1  'x, y, z'
loop_
 _atom_site_type_symbol
 _atom_site_label
 _atom_site_symmetry_multiplicity
 _atom_site_fract_x
 _atom_site_fract_y
 _atom_site_fract_z
 _atom_site_occupancy
  Cs  Cs0  1  0.089594  0.410406  0.750000  1
  Cs  Cs1  1  0.410406  0.750000  0.089594  1
  Cs  Cs2  1  0.750000  0.089594  0.410406  1
  Cs  Cs3  1  0.910406  0.589594  0.250000  1
  Cs  Cs4  1  0.589594  0.250000  0.910406  1
  Cs  Cs5  1  0.250000  0.910406  0.589594  1
  In  In6  1  0.845882  0.845882  0.845882  1
  In  In7  1  0.654118  0.654118  0.654118  1
  In  In8  1  0.154118  0.154118  0.154118  1
  In  In9  1  0.345882  0.345882  0.345882  1
  Cl  Cl10  1  0.237451  0.572106  0.408943  1
  Cl  Cl11  1  0.572106  0.408943  0.237451  1
  Cl  Cl12  1  0.408943  0.237451  0.572106  1
  Cl  Cl13  1  0.927894  0.262549  0.091057  1
  Cl  Cl14  1  0.262549  0.091057  0.927894  1
  Cl  Cl15  1  0.091057  0.927894  0.262549  1
  Cl  Cl16  1  0.762549  0.427894  0.591057  1
  Cl  Cl17  1  0.427894  0.591057  0.762549  1
  Cl  Cl18  1  0.591057  0.762549  0.427894  1
  Cl  Cl19  1  0.072106  0.737451  0.908943  1
  Cl  Cl20  1  0.900490  0.750000  0.599510  1
  Cl  Cl21  1  0.599510  0.900490  0.750000  1
  Cl  Cl22  1  0.750000  0.599510  0.900490  1
  Cl  Cl23  1  0.099510  0.250000  0.400490  1
  Cl  Cl24  1  0.400490  0.099510  0.250000  1
  Cl  Cl25  1  0.250000  0.400490  0.099510  1
  Cl  Cl26  1  0.908943  0.072106  0.737451  1
  Cl  Cl27  1  0.737451  0.908943  0.072106  1
