# generated using pymatgen
data_CrS2
_symmetry_space_group_name_H-M   'P 1'
_cell_length_a   3.31264684
_cell_length_b   3.31264684
_cell_length_c   10.71193000
_cell_angle_alpha   85.87144095
_cell_angle_beta   94.12855905
_cell_angle_gamma   119.85812961
_symmetry_Int_Tables_number   1
_chemical_formula_structural   CrS2
_chemical_formula_sum   'Cr1 S2'
_cell_volume   101.59203242
_cell_formula_units_Z   1
loop_
 _symmetry_equiv_pos_site_id
 _symmetry_equiv_pos_as_xyz
  1  'x, y, z'
loop_
 _atom_site_type_symbol
 _atom_site_label
 _atom_site_symmetry_multiplicity
 _atom_site_fract_x
 _atom_site_fract_y
 _atom_site_fract_z
 _atom_site_occupancy
  Cr  Cr0  1  0.000000  0.000000  0.500000  1
  S  S1  1  0.686548  0.313452  0.627942  1
  S  S2  1  0.313452  0.686548  0.372058  1
