# generated using pymatgen
data_H5NO5
_symmetry_space_group_name_H-M   'P 1'
_cell_length_a   6.77249668
_cell_length_b   13.00210928
_cell_length_c   11.00674760
_cell_angle_alpha   90.00000000
_cell_angle_beta   119.29252805
_cell_angle_gamma   90.00000000
_symmetry_Int_Tables_number   1
_chemical_formula_structural   H5NO5
_chemical_formula_sum   'H40 N8 O40'
_cell_volume   845.28737526
_cell_formula_units_Z   8
loop_
 _symmetry_equiv_pos_site_id
 _symmetry_equiv_pos_as_xyz
  1  'x, y, z'
loop_
 _atom_site_type_symbol
 _atom_site_label
 _atom_site_symmetry_multiplicity
 _atom_site_fract_x
 _atom_site_fract_y
 _atom_site_fract_z
 _atom_site_occupancy
  H  H0  1  0.279958  0.774177  0.040724  1
  H  H1  1  0.120239  0.036348  0.257688  1
  H  H2  1  0.120239  0.463652  0.757688  1
  H  H3  1  0.879761  0.536348  0.242312  1
  H  H4  1  0.720042  0.274177  0.459276  1
  H  H5  1  0.720042  0.225823  0.959276  1
  H  H6  1  0.279958  0.725823  0.540724  1
  H  H7  1  0.456229  0.849975  0.163251  1
  H  H8  1  0.543771  0.349975  0.336749  1
  H  H9  1  0.543771  0.150025  0.836749  1
  H  H10  1  0.456229  0.650025  0.663251  1
  H  H11  1  0.574991  0.666096  0.404425  1
  H  H12  1  0.425009  0.166096  0.095575  1
  H  H13  1  0.425009  0.333904  0.595575  1
  H  H14  1  0.574991  0.833904  0.904425  1
  H  H15  1  0.420649  0.713641  0.233493  1
  H  H16  1  0.579351  0.213641  0.266507  1
  H  H17  1  0.579351  0.286359  0.766507  1
  H  H18  1  0.420649  0.786359  0.733493  1
  H  H19  1  0.407006  0.587266  0.280517  1
  H  H20  1  0.592994  0.087266  0.219483  1
  H  H21  1  0.592994  0.412734  0.719483  1
  H  H22  1  0.407006  0.912734  0.780517  1
  H  H23  1  0.911610  0.831273  0.775316  1
  H  H24  1  0.879761  0.963652  0.742312  1
  H  H25  1  0.911610  0.668727  0.275316  1
  H  H26  1  0.088390  0.168727  0.224684  1
  H  H27  1  0.088390  0.331273  0.724684  1
  H  H28  1  0.074626  0.208936  0.598047  1
  H  H29  1  0.074626  0.291064  0.098047  1
  H  H30  1  0.925374  0.791064  0.401953  1
  H  H31  1  0.062111  0.687271  0.823329  1
  H  H32  1  0.937889  0.187271  0.676671  1
  H  H33  1  0.937889  0.312729  0.176671  1
  H  H34  1  0.062111  0.812729  0.323329  1
  H  H35  1  0.791831  0.879192  0.608606  1
  H  H36  1  0.208169  0.379192  0.891394  1
  H  H37  1  0.208169  0.120808  0.391394  1
  H  H38  1  0.791831  0.620808  0.108606  1
  H  H39  1  0.925374  0.708936  0.901953  1
  N  N40  1  0.884657  0.581520  0.595519  1
  N  N41  1  0.115343  0.081520  0.904481  1
  N  N42  1  0.115343  0.418480  0.404481  1
  N  N43  1  0.884657  0.918480  0.095519  1
  N  N44  1  0.699901  0.960849  0.395931  1
  N  N45  1  0.300099  0.460849  0.104069  1
  N  N46  1  0.300099  0.039151  0.604069  1
  N  N47  1  0.699901  0.539151  0.895931  1
  O  O48  1  0.416649  0.777824  0.134005  1
  O  O49  1  0.583351  0.277824  0.365995  1
  O  O50  1  0.583351  0.222176  0.865995  1
  O  O51  1  0.424883  0.661549  0.313344  1
  O  O52  1  0.575117  0.161549  0.186656  1
  O  O53  1  0.575117  0.338451  0.686656  1
  O  O54  1  0.424883  0.838451  0.813344  1
  O  O55  1  0.796950  0.501687  0.529122  1
  O  O56  1  0.203050  0.001687  0.970878  1
  O  O57  1  0.203050  0.498313  0.470878  1
  O  O58  1  0.796950  0.998313  0.029122  1
  O  O59  1  0.809827  0.670607  0.547496  1
  O  O60  1  0.190173  0.170607  0.952504  1
  O  O61  1  0.190173  0.329393  0.452504  1
  O  O62  1  0.809827  0.829393  0.047496  1
  O  O63  1  0.059037  0.576749  0.719193  1
  O  O64  1  0.940963  0.076749  0.780807  1
  O  O65  1  0.940963  0.423251  0.280807  1
  O  O66  1  0.059037  0.923251  0.219193  1
  O  O67  1  0.029957  0.741794  0.874820  1
  O  O68  1  0.970043  0.241794  0.625180  1
  O  O69  1  0.970043  0.258206  0.125180  1
  O  O70  1  0.029957  0.758206  0.374820  1
  O  O71  1  0.818310  0.890138  0.707444  1
  O  O72  1  0.181690  0.390138  0.792556  1
  O  O73  1  0.181690  0.109862  0.292556  1
  O  O74  1  0.818310  0.609862  0.207444  1
  O  O75  1  0.736594  0.038876  0.468660  1
  O  O76  1  0.263406  0.538876  0.031340  1
  O  O77  1  0.263406  0.961124  0.531340  1
  O  O78  1  0.736594  0.461124  0.968660  1
  O  O79  1  0.739743  0.870308  0.450435  1
  O  O80  1  0.260257  0.370308  0.049565  1
  O  O81  1  0.260257  0.129692  0.549565  1
  O  O82  1  0.739743  0.629692  0.950435  1
  O  O83  1  0.621364  0.967074  0.264108  1
  O  O84  1  0.378636  0.467074  0.235892  1
  O  O85  1  0.378636  0.032926  0.735892  1
  O  O86  1  0.621364  0.532926  0.764108  1
  O  O87  1  0.416649  0.722176  0.634005  1
