# generated using pymatgen
data_KAuSe2
_symmetry_space_group_name_H-M   'P 1'
_cell_length_a   7.90503855
_cell_length_b   7.90503855
_cell_length_c   3.75964757
_cell_angle_alpha   90.00000000
_cell_angle_beta   90.00000000
_cell_angle_gamma   90.00000000
_symmetry_Int_Tables_number   1
_chemical_formula_structural   KAuSe2
_chemical_formula_sum   'K2 Au2 Se4'
_cell_volume   234.93900241
_cell_formula_units_Z   2
loop_
 _symmetry_equiv_pos_site_id
 _symmetry_equiv_pos_as_xyz
  1  'x, y, z'
loop_
 _atom_site_type_symbol
 _atom_site_label
 _atom_site_symmetry_multiplicity
 _atom_site_fract_x
 _atom_site_fract_y
 _atom_site_fract_z
 _atom_site_occupancy
  K  K0  1  0.500000  0.500000  0.000000  1
  K  K1  1  0.000000  0.000000  0.000000  1
  Au  Au2  1  0.500000  0.000000  0.000000  1
  Au  Au3  1  0.000000  0.500000  0.000000  1
  Se  Se4  1  0.150140  0.349860  0.500000  1
  Se  Se5  1  0.349860  0.849860  0.500000  1
  Se  Se6  1  0.650140  0.150140  0.500000  1
  Se  Se7  1  0.849860  0.650140  0.500000  1
