# generated using pymatgen
data_Cu5(Si2O7)2
_symmetry_space_group_name_H-M   'P 1'
_cell_length_a   5.71809038
_cell_length_b   7.64469940
_cell_length_c   7.72680010
_cell_angle_alpha   114.39629862
_cell_angle_beta   88.19573554
_cell_angle_gamma   109.70877602
_symmetry_Int_Tables_number   1
_chemical_formula_structural   Cu5(Si2O7)2
_chemical_formula_sum   'Cu5 Si4 O14'
_cell_volume   287.28521375
_cell_formula_units_Z   1
loop_
 _symmetry_equiv_pos_site_id
 _symmetry_equiv_pos_as_xyz
  1  'x, y, z'
loop_
 _atom_site_type_symbol
 _atom_site_label
 _atom_site_symmetry_multiplicity
 _atom_site_fract_x
 _atom_site_fract_y
 _atom_site_fract_z
 _atom_site_occupancy
  Cu  Cu0  1  0.914356  0.606279  0.184705  1
  Cu  Cu1  1  0.315129  0.426107  0.280076  1
  Cu  Cu2  1  0.684871  0.573893  0.719924  1
  Cu  Cu3  1  0.085644  0.393721  0.815295  1
  Cu  Cu4  1  0.000000  0.000000  0.000000  1
  Si  Si5  1  0.488026  0.237483  0.854635  1
  Si  Si6  1  0.802997  0.213076  0.413394  1
  Si  Si7  1  0.197003  0.786924  0.586606  1
  Si  Si8  1  0.511974  0.762517  0.145365  1
  O  O9  1  0.307972  0.224307  0.024934  1
  O  O10  1  0.436529  0.000785  0.708214  1
  O  O11  1  0.589967  0.628958  0.243862  1
  O  O12  1  0.998570  0.785476  0.751286  1
  O  O13  1  0.090729  0.811954  0.410171  1
  O  O14  1  0.909271  0.188046  0.589829  1
  O  O15  1  0.784066  0.365371  0.947344  1
  O  O16  1  0.563471  0.999215  0.291786  1
  O  O17  1  0.289100  0.590997  0.530857  1
  O  O18  1  0.001430  0.214524  0.248714  1
  O  O19  1  0.710900  0.409003  0.469143  1
  O  O20  1  0.410033  0.371042  0.756138  1
  O  O21  1  0.692028  0.775693  0.975066  1
  O  O22  1  0.215934  0.634629  0.052656  1
