# generated using pymatgen
data_Cu3(AsO4)2
_symmetry_space_group_name_H-M   'P 1'
_cell_length_a   5.11414905
_cell_length_b   5.58368662
_cell_length_c   6.48608739
_cell_angle_alpha   108.85939866
_cell_angle_beta   87.15551926
_cell_angle_gamma   111.88256627
_symmetry_Int_Tables_number   1
_chemical_formula_structural   Cu3(AsO4)2
_chemical_formula_sum   'Cu3 As2 O8'
_cell_volume   162.11343461
_cell_formula_units_Z   1
loop_
 _symmetry_equiv_pos_site_id
 _symmetry_equiv_pos_as_xyz
  1  'x, y, z'
loop_
 _atom_site_type_symbol
 _atom_site_label
 _atom_site_symmetry_multiplicity
 _atom_site_fract_x
 _atom_site_fract_y
 _atom_site_fract_z
 _atom_site_occupancy
  Cu  Cu0  1  0.000000  0.000000  0.000000  1
  Cu  Cu1  1  0.737051  0.201980  0.674606  1
  Cu  Cu2  1  0.262949  0.798020  0.325394  1
  As  As3  1  0.636661  0.344553  0.217730  1
  As  As4  1  0.363339  0.655447  0.782270  1
  O  O5  1  0.380652  0.873670  0.633309  1
  O  O6  1  0.619348  0.126330  0.366691  1
  O  O7  1  0.220302  0.794716  0.023892  1
  O  O8  1  0.779698  0.205284  0.976108  1
  O  O9  1  0.688288  0.653792  0.840589  1
  O  O10  1  0.859109  0.667580  0.356638  1
  O  O11  1  0.140891  0.332420  0.643362  1
  O  O12  1  0.311712  0.346208  0.159411  1
