# generated using pymatgen
data_InI2
_symmetry_space_group_name_H-M   'P 1'
_cell_length_a   8.54678905
_cell_length_b   11.31898350
_cell_length_c   11.60514310
_cell_angle_alpha   90.00000000
_cell_angle_beta   90.00000000
_cell_angle_gamma   90.00000000
_symmetry_Int_Tables_number   1
_chemical_formula_structural   InI2
_chemical_formula_sum   'In8 I16'
_cell_volume   1122.69273358
_cell_formula_units_Z   8
loop_
 _symmetry_equiv_pos_site_id
 _symmetry_equiv_pos_as_xyz
  1  'x, y, z'
loop_
 _atom_site_type_symbol
 _atom_site_label
 _atom_site_symmetry_multiplicity
 _atom_site_fract_x
 _atom_site_fract_y
 _atom_site_fract_z
 _atom_site_occupancy
  In  In0  1  0.250000  0.000000  0.676085  1
  In  In1  1  0.250000  0.500000  0.823915  1
  In  In2  1  0.750000  0.000000  0.323915  1
  In  In3  1  0.750000  0.500000  0.176085  1
  In  In4  1  0.658079  0.250000  0.750000  1
  In  In5  1  0.841921  0.750000  0.750000  1
  In  In6  1  0.341921  0.750000  0.250000  1
  In  In7  1  0.158079  0.250000  0.250000  1
  I  I8  1  0.508078  0.956285  0.815082  1
  I  I9  1  0.508078  0.543715  0.684918  1
  I  I10  1  0.991922  0.456285  0.684918  1
  I  I11  1  0.991922  0.043715  0.815082  1
  I  I12  1  0.491922  0.043715  0.184918  1
  I  I13  1  0.491922  0.456285  0.315082  1
  I  I14  1  0.008078  0.543715  0.315082  1
  I  I15  1  0.008078  0.956285  0.184918  1
  I  I16  1  0.345478  0.191983  0.546802  1
  I  I17  1  0.345478  0.308017  0.953198  1
  I  I18  1  0.154522  0.691983  0.953198  1
  I  I19  1  0.154522  0.808017  0.546802  1
  I  I20  1  0.654522  0.808017  0.453198  1
  I  I21  1  0.654522  0.691983  0.046802  1
  I  I22  1  0.845478  0.308017  0.046802  1
  I  I23  1  0.845478  0.191983  0.453198  1
