# generated using pymatgen
data_Li2TiPO4F
_symmetry_space_group_name_H-M   'P 1'
_cell_length_a   5.41647185
_cell_length_b   5.48043837
_cell_length_c   7.35265288
_cell_angle_alpha   105.68198955
_cell_angle_beta   105.95451216
_cell_angle_gamma   95.86381360
_symmetry_Int_Tables_number   1
_chemical_formula_structural   Li2TiPO4F
_chemical_formula_sum   'Li4 Ti2 P2 O8 F2'
_cell_volume   198.33710993
_cell_formula_units_Z   2
loop_
 _symmetry_equiv_pos_site_id
 _symmetry_equiv_pos_as_xyz
  1  'x, y, z'
loop_
 _atom_site_type_symbol
 _atom_site_label
 _atom_site_symmetry_multiplicity
 _atom_site_fract_x
 _atom_site_fract_y
 _atom_site_fract_z
 _atom_site_occupancy
  Li  Li0  1  0.423395  0.766626  0.848512  1
  Li  Li1  1  0.874474  0.538669  0.151707  1
  Li  Li2  1  0.009434  0.504455  0.521138  1
  Li  Li3  1  0.546748  0.187207  0.159625  1
  Ti  Ti4  1  0.998577  0.002104  0.997399  1
  Ti  Ti5  1  0.007312  0.013380  0.503061  1
  P  P6  1  0.624767  0.339254  0.755675  1
  P  P7  1  0.379029  0.662945  0.237701  1
  O  O8  1  0.216306  0.730442  0.382871  1
  O  O9  1  0.772374  0.268124  0.603366  1
  O  O10  1  0.675154  0.680000  0.340434  1
  O  O11  1  0.348573  0.853360  0.110704  1
  O  O12  1  0.654822  0.156286  0.890407  1
  O  O13  1  0.740963  0.620368  0.902294  1
  O  O14  1  0.332832  0.335162  0.653067  1
  O  O15  1  0.265174  0.381098  0.101432  1
  F  F16  1  0.908842  0.205140  0.270380  1
  F  F17  1  0.089591  0.827499  0.728815  1
