# generated using pymatgen
data_AlPd2
_symmetry_space_group_name_H-M   'P 1'
_cell_length_a   4.12153867
_cell_length_b   5.48030226
_cell_length_c   7.85104787
_cell_angle_alpha   90.00000000
_cell_angle_beta   90.00000000
_cell_angle_gamma   90.00000000
_symmetry_Int_Tables_number   1
_chemical_formula_structural   AlPd2
_chemical_formula_sum   'Al4 Pd8'
_cell_volume   177.33379838
_cell_formula_units_Z   4
loop_
 _symmetry_equiv_pos_site_id
 _symmetry_equiv_pos_as_xyz
  1  'x, y, z'
loop_
 _atom_site_type_symbol
 _atom_site_label
 _atom_site_symmetry_multiplicity
 _atom_site_fract_x
 _atom_site_fract_y
 _atom_site_fract_z
 _atom_site_occupancy
  Al  Al0  1  0.750000  0.303236  0.604710  1
  Al  Al1  1  0.250000  0.696764  0.395290  1
  Al  Al2  1  0.750000  0.803236  0.895290  1
  Al  Al3  1  0.250000  0.196764  0.104710  1
  Pd  Pd4  1  0.750000  0.959242  0.211346  1
  Pd  Pd5  1  0.250000  0.040758  0.788654  1
  Pd  Pd6  1  0.750000  0.459242  0.288654  1
  Pd  Pd7  1  0.250000  0.540758  0.711346  1
  Pd  Pd8  1  0.750000  0.834250  0.566959  1
  Pd  Pd9  1  0.250000  0.165750  0.433041  1
  Pd  Pd10  1  0.750000  0.334250  0.933041  1
  Pd  Pd11  1  0.250000  0.665750  0.066959  1
