# generated using pymatgen
data_Mg2PHO5
_symmetry_space_group_name_H-M   'P 1'
_cell_length_a   6.20164673
_cell_length_b   7.45925146
_cell_length_c   8.36219025
_cell_angle_alpha   90.00000000
_cell_angle_beta   90.00000000
_cell_angle_gamma   90.00000000
_symmetry_Int_Tables_number   1
_chemical_formula_structural   Mg2PHO5
_chemical_formula_sum   'Mg8 P4 H4 O20'
_cell_volume   386.83193086
_cell_formula_units_Z   4
loop_
 _symmetry_equiv_pos_site_id
 _symmetry_equiv_pos_as_xyz
  1  'x, y, z'
loop_
 _atom_site_type_symbol
 _atom_site_label
 _atom_site_symmetry_multiplicity
 _atom_site_fract_x
 _atom_site_fract_y
 _atom_site_fract_z
 _atom_site_occupancy
  Mg  Mg0  1  0.250000  0.576601  0.175828  1
  Mg  Mg1  1  0.750000  0.423399  0.824172  1
  Mg  Mg2  1  0.750000  0.076601  0.324172  1
  Mg  Mg3  1  0.250000  0.923399  0.675828  1
  Mg  Mg4  1  0.500000  0.000000  0.000000  1
  Mg  Mg5  1  0.000000  0.000000  0.000000  1
  Mg  Mg6  1  0.500000  0.500000  0.500000  1
  Mg  Mg7  1  0.000000  0.500000  0.500000  1
  P  P8  1  0.250000  0.334178  0.823618  1
  P  P9  1  0.750000  0.665822  0.176382  1
  P  P10  1  0.750000  0.834178  0.676382  1
  P  P11  1  0.250000  0.165822  0.323618  1
  H  H12  1  0.250000  0.734204  0.946387  1
  H  H13  1  0.750000  0.265796  0.053613  1
  H  H14  1  0.750000  0.234204  0.553613  1
  H  H15  1  0.250000  0.765796  0.446387  1
  O  O16  1  0.250000  0.813638  0.039452  1
  O  O17  1  0.750000  0.186362  0.960548  1
  O  O18  1  0.750000  0.313638  0.460548  1
  O  O19  1  0.250000  0.686362  0.539452  1
  O  O20  1  0.250000  0.439290  0.979136  1
  O  O21  1  0.750000  0.560710  0.020864  1
  O  O22  1  0.750000  0.939290  0.520864  1
  O  O23  1  0.250000  0.060710  0.479136  1
  O  O24  1  0.454148  0.123571  0.222512  1
  O  O25  1  0.954148  0.876429  0.777488  1
  O  O26  1  0.545852  0.623571  0.277488  1
  O  O27  1  0.045852  0.376429  0.722512  1
  O  O28  1  0.545852  0.876429  0.777488  1
  O  O29  1  0.045852  0.123571  0.222512  1
  O  O30  1  0.454148  0.376429  0.722512  1
  O  O31  1  0.954148  0.623571  0.277488  1
  O  O32  1  0.250000  0.372514  0.364401  1
  O  O33  1  0.750000  0.627486  0.635599  1
  O  O34  1  0.750000  0.872514  0.135599  1
  O  O35  1  0.250000  0.127486  0.864401  1
