# generated using pymatgen
data_Rb2NiH12(SeO7)2
_symmetry_space_group_name_H-M   'P 1'
_cell_length_a   6.43945924
_cell_length_b   12.74284440
_cell_length_c   9.36987670
_cell_angle_alpha   90.00000000
_cell_angle_beta   104.91767845
_cell_angle_gamma   90.00000000
_symmetry_Int_Tables_number   1
_chemical_formula_structural   Rb2NiH12(SeO7)2
_chemical_formula_sum   'Rb4 Ni2 H24 Se4 O28'
_cell_volume   742.95096178
_cell_formula_units_Z   2
loop_
 _symmetry_equiv_pos_site_id
 _symmetry_equiv_pos_as_xyz
  1  'x, y, z'
loop_
 _atom_site_type_symbol
 _atom_site_label
 _atom_site_symmetry_multiplicity
 _atom_site_fract_x
 _atom_site_fract_y
 _atom_site_fract_z
 _atom_site_occupancy
  Rb  Rb0  1  0.657835  0.153799  0.866202  1
  Rb  Rb1  1  0.342165  0.653799  0.633798  1
  Rb  Rb2  1  0.342165  0.846201  0.133798  1
  Rb  Rb3  1  0.657835  0.346201  0.366202  1
  Ni  Ni4  1  0.000000  0.000000  0.500000  1
  Ni  Ni5  1  0.000000  0.500000  0.000000  1
  H  H6  1  0.321905  0.363075  0.027687  1
  H  H7  1  0.927924  0.593929  0.732766  1
  H  H8  1  0.072076  0.093929  0.767234  1
  H  H9  1  0.072076  0.406071  0.267234  1
  H  H10  1  0.927924  0.906071  0.232766  1
  H  H11  1  0.999504  0.681712  0.856065  1
  H  H12  1  0.000496  0.181712  0.643935  1
  H  H13  1  0.000496  0.318288  0.143935  1
  H  H14  1  0.999504  0.818288  0.356065  1
  H  H15  1  0.313404  0.590501  0.203920  1
  H  H16  1  0.686596  0.090501  0.296080  1
  H  H17  1  0.686596  0.409499  0.796080  1
  H  H18  1  0.313404  0.909499  0.703920  1
  H  H19  1  0.091565  0.627373  0.237971  1
  H  H20  1  0.678095  0.863075  0.472313  1
  H  H21  1  0.908435  0.127373  0.262029  1
  H  H22  1  0.321905  0.136925  0.527687  1
  H  H23  1  0.678095  0.636925  0.972313  1
  H  H24  1  0.668130  0.944374  0.597792  1
  H  H25  1  0.331870  0.444374  0.902208  1
  H  H26  1  0.331870  0.055626  0.402208  1
  H  H27  1  0.668130  0.555626  0.097792  1
  H  H28  1  0.908435  0.372627  0.762029  1
  H  H29  1  0.091565  0.872627  0.737971  1
  Se  Se30  1  0.267651  0.140364  0.096349  1
  Se  Se31  1  0.267651  0.359636  0.596349  1
  Se  Se32  1  0.732349  0.640364  0.403651  1
  Se  Se33  1  0.732349  0.859636  0.903651  1
  O  O34  1  0.161903  0.611349  0.157791  1
  O  O35  1  0.838097  0.111349  0.342209  1
  O  O36  1  0.838097  0.388651  0.842209  1
  O  O37  1  0.161903  0.888651  0.657791  1
  O  O38  1  0.576495  0.756285  0.915822  1
  O  O39  1  0.709296  0.562380  0.002918  1
  O  O40  1  0.290704  0.062380  0.497082  1
  O  O41  1  0.290704  0.437620  0.997082  1
  O  O42  1  0.709296  0.937620  0.502918  1
  O  O43  1  0.576495  0.743715  0.415822  1
  O  O44  1  0.025867  0.892637  0.332636  1
  O  O45  1  0.974133  0.392637  0.167364  1
  O  O46  1  0.974133  0.107363  0.667364  1
  O  O47  1  0.025867  0.607363  0.832636  1
  O  O48  1  0.423505  0.243715  0.084178  1
  O  O49  1  0.403016  0.435164  0.736890  1
  O  O50  1  0.596984  0.935164  0.763110  1
  O  O51  1  0.596984  0.564836  0.263110  1
  O  O52  1  0.403016  0.064836  0.236890  1
  O  O53  1  0.034557  0.317560  0.627130  1
  O  O54  1  0.965443  0.817560  0.872870  1
  O  O55  1  0.965443  0.682440  0.372870  1
  O  O56  1  0.222635  0.431095  0.441920  1
  O  O57  1  0.777365  0.931095  0.058080  1
  O  O58  1  0.777365  0.568905  0.558080  1
  O  O59  1  0.222635  0.068905  0.941920  1
  O  O60  1  0.423505  0.256285  0.584178  1
  O  O61  1  0.034557  0.182440  0.127130  1
