# generated using pymatgen
data_Fe3Sn2
_symmetry_space_group_name_H-M   'P 1'
_cell_length_a   7.28134628
_cell_length_b   7.28134628
_cell_length_c   7.28134628
_cell_angle_alpha   42.94429273
_cell_angle_beta   42.94429273
_cell_angle_gamma   42.94429273
_symmetry_Int_Tables_number   1
_chemical_formula_structural   Fe3Sn2
_chemical_formula_sum   'Fe6 Sn4'
_cell_volume   162.39267987
_cell_formula_units_Z   2
loop_
 _symmetry_equiv_pos_site_id
 _symmetry_equiv_pos_as_xyz
  1  'x, y, z'
loop_
 _atom_site_type_symbol
 _atom_site_label
 _atom_site_symmetry_multiplicity
 _atom_site_fract_x
 _atom_site_fract_y
 _atom_site_fract_z
 _atom_site_occupancy
  Fe  Fe0  1  0.872147  0.393253  0.393253  1
  Fe  Fe1  1  0.393253  0.872147  0.393253  1
  Fe  Fe2  1  0.393253  0.393253  0.872147  1
  Fe  Fe3  1  0.606747  0.606747  0.127853  1
  Fe  Fe4  1  0.127853  0.606747  0.606747  1
  Fe  Fe5  1  0.606747  0.127853  0.606747  1
  Sn  Sn6  1  0.894888  0.894888  0.894888  1
  Sn  Sn7  1  0.105112  0.105112  0.105112  1
  Sn  Sn8  1  0.669268  0.669268  0.669268  1
  Sn  Sn9  1  0.330732  0.330732  0.330732  1
