# generated using pymatgen
data_SrIn4Pt
_symmetry_space_group_name_H-M   'P 1'
_cell_length_a   8.95915235
_cell_length_b   8.95915235
_cell_length_c   7.62327547
_cell_angle_alpha   90.00000000
_cell_angle_beta   90.00000000
_cell_angle_gamma   150.16973959
_symmetry_Int_Tables_number   1
_chemical_formula_structural   SrIn4Pt
_chemical_formula_sum   'Sr2 In8 Pt2'
_cell_volume   304.37525983
_cell_formula_units_Z   2
loop_
 _symmetry_equiv_pos_site_id
 _symmetry_equiv_pos_as_xyz
  1  'x, y, z'
loop_
 _atom_site_type_symbol
 _atom_site_label
 _atom_site_symmetry_multiplicity
 _atom_site_fract_x
 _atom_site_fract_y
 _atom_site_fract_z
 _atom_site_occupancy
  Sr  Sr0  1  0.125717  0.874283  0.750000  1
  Sr  Sr1  1  0.874283  0.125717  0.250000  1
  In  In2  1  0.315379  0.684621  0.950353  1
  In  In3  1  0.500000  0.500000  0.500000  1
  In  In4  1  0.684621  0.315379  0.450353  1
  In  In5  1  0.684621  0.315379  0.049647  1
  In  In6  1  0.315379  0.684621  0.549647  1
  In  In7  1  0.067440  0.932560  0.250000  1
  In  In8  1  0.932560  0.067440  0.750000  1
  In  In9  1  0.500000  0.500000  0.000000  1
  Pt  Pt10  1  0.775273  0.224727  0.750000  1
  Pt  Pt11  1  0.224727  0.775273  0.250000  1
