# generated using pymatgen
data_La2NiO4
_symmetry_space_group_name_H-M   'P 1'
_cell_length_a   6.79705141
_cell_length_b   6.79705141
_cell_length_c   5.69043660
_cell_angle_alpha   90.00000000
_cell_angle_beta   90.00000000
_cell_angle_gamma   132.08538126
_symmetry_Int_Tables_number   1
_chemical_formula_structural   La2NiO4
_chemical_formula_sum   'La4 Ni2 O8'
_cell_volume   195.10866638
_cell_formula_units_Z   2
loop_
 _symmetry_equiv_pos_site_id
 _symmetry_equiv_pos_as_xyz
  1  'x, y, z'
loop_
 _atom_site_type_symbol
 _atom_site_label
 _atom_site_symmetry_multiplicity
 _atom_site_fract_x
 _atom_site_fract_y
 _atom_site_fract_z
 _atom_site_occupancy
  La  La0  1  0.362927  0.637073  0.984777  1
  La  La1  1  0.637073  0.362927  0.015223  1
  La  La2  1  0.862927  0.137073  0.515223  1
  La  La3  1  0.137073  0.862927  0.484777  1
  Ni  Ni4  1  0.000000  0.000000  0.000000  1
  Ni  Ni5  1  0.500000  0.500000  0.500000  1
  O  O6  1  0.767465  0.732535  0.750000  1
  O  O7  1  0.732535  0.767465  0.250000  1
  O  O8  1  0.820689  0.179311  0.936637  1
  O  O9  1  0.679311  0.320689  0.436637  1
  O  O10  1  0.267465  0.232535  0.750000  1
  O  O11  1  0.232535  0.267465  0.250000  1
  O  O12  1  0.320689  0.679311  0.563363  1
  O  O13  1  0.179311  0.820689  0.063363  1
