# generated using pymatgen
data_LiBeH3
_symmetry_space_group_name_H-M   'P 1'
_cell_length_a   6.05026896
_cell_length_b   6.17207177
_cell_length_c   6.81432241
_cell_angle_alpha   103.99761050
_cell_angle_beta   97.22049059
_cell_angle_gamma   90.37632158
_symmetry_Int_Tables_number   1
_chemical_formula_structural   LiBeH3
_chemical_formula_sum   'Li6 Be6 H18'
_cell_volume   244.77027236
_cell_formula_units_Z   6
loop_
 _symmetry_equiv_pos_site_id
 _symmetry_equiv_pos_as_xyz
  1  'x, y, z'
loop_
 _atom_site_type_symbol
 _atom_site_label
 _atom_site_symmetry_multiplicity
 _atom_site_fract_x
 _atom_site_fract_y
 _atom_site_fract_z
 _atom_site_occupancy
  Li  Li0  1  0.010723  0.751898  0.004562  1
  Li  Li1  1  0.989277  0.248102  0.995438  1
  Li  Li2  1  0.746706  0.073046  0.297330  1
  Li  Li3  1  0.253294  0.926954  0.702670  1
  Li  Li4  1  0.761385  0.567757  0.315212  1
  Li  Li5  1  0.238615  0.432243  0.684788  1
  Be  Be6  1  0.228058  0.047381  0.324787  1
  Be  Be7  1  0.771942  0.952619  0.675213  1
  Be  Be8  1  0.225065  0.618036  0.316491  1
  Be  Be9  1  0.774935  0.381964  0.683509  1
  Be  Be10  1  0.434624  0.282543  0.127858  1
  Be  Be11  1  0.565376  0.717457  0.872142  1
  H  H12  1  0.293683  0.820415  0.269452  1
  H  H13  1  0.706317  0.179585  0.730548  1
  H  H14  1  0.424212  0.503639  0.260675  1
  H  H15  1  0.575788  0.496361  0.739325  1
  H  H16  1  0.423027  0.136414  0.264795  1
  H  H17  1  0.576973  0.863586  0.735205  1
  H  H18  1  0.200047  0.636665  0.520386  1
  H  H19  1  0.799953  0.363335  0.479614  1
  H  H20  1  0.221209  0.133061  0.535480  1
  H  H21  1  0.778791  0.866939  0.464520  1
  H  H22  1  0.025988  0.537322  0.184368  1
  H  H23  1  0.974012  0.462678  0.815632  1
  H  H24  1  0.331122  0.722895  0.888142  1
  H  H25  1  0.668878  0.277105  0.111858  1
  H  H26  1  0.292907  0.229539  0.938391  1
  H  H27  1  0.707093  0.770461  0.061609  1
  H  H28  1  0.971840  0.937240  0.804821  1
  H  H29  1  0.028160  0.062760  0.195179  1
