# generated using pymatgen
data_NiP3W2
_symmetry_space_group_name_H-M   'P 1'
_cell_length_a   6.54227171
_cell_length_b   6.54227171
_cell_length_c   8.53993983
_cell_angle_alpha   75.45094056
_cell_angle_beta   104.54905944
_cell_angle_gamma   151.17763451
_symmetry_Int_Tables_number   1
_chemical_formula_structural   NiP3W2
_chemical_formula_sum   'Ni2 P6 W4'
_cell_volume   170.18549448
_cell_formula_units_Z   2
loop_
 _symmetry_equiv_pos_site_id
 _symmetry_equiv_pos_as_xyz
  1  'x, y, z'
loop_
 _atom_site_type_symbol
 _atom_site_label
 _atom_site_symmetry_multiplicity
 _atom_site_fract_x
 _atom_site_fract_y
 _atom_site_fract_z
 _atom_site_occupancy
  Ni  Ni0  1  0.000000  1.000000  0.500000  1
  Ni  Ni1  1  0.500000  0.500000  0.000000  1
  P  P2  1  0.374017  0.625983  0.434819  1
  P  P3  1  0.625983  0.374017  0.565181  1
  P  P4  1  0.680527  0.319473  0.154668  1
  P  P5  1  0.018755  0.981245  0.806823  1
  P  P6  1  0.981245  0.018755  0.193177  1
  P  P7  1  0.319473  0.680527  0.845332  1
  W  W8  1  0.825506  0.174494  0.625064  1
  W  W9  1  0.174494  0.825506  0.374936  1
  W  W10  1  0.676732  0.323268  0.868097  1
  W  W11  1  0.323268  0.676732  0.131903  1
