# generated using pymatgen
data_YbNiSn
_symmetry_space_group_name_H-M   'P 1'
_cell_length_a   4.45137239
_cell_length_b   7.16229498
_cell_length_c   7.63156166
_cell_angle_alpha   90.00000000
_cell_angle_beta   90.00000000
_cell_angle_gamma   90.00000000
_symmetry_Int_Tables_number   1
_chemical_formula_structural   YbNiSn
_chemical_formula_sum   'Yb4 Ni4 Sn4'
_cell_volume   243.30977031
_cell_formula_units_Z   4
loop_
 _symmetry_equiv_pos_site_id
 _symmetry_equiv_pos_as_xyz
  1  'x, y, z'
loop_
 _atom_site_type_symbol
 _atom_site_label
 _atom_site_symmetry_multiplicity
 _atom_site_fract_x
 _atom_site_fract_y
 _atom_site_fract_z
 _atom_site_occupancy
  Yb  Yb0  1  0.250000  0.975462  0.815764  1
  Yb  Yb1  1  0.750000  0.024538  0.184236  1
  Yb  Yb2  1  0.250000  0.475462  0.684236  1
  Yb  Yb3  1  0.750000  0.524538  0.315764  1
  Ni  Ni4  1  0.750000  0.293805  0.895718  1
  Ni  Ni5  1  0.250000  0.206195  0.395718  1
  Ni  Ni6  1  0.750000  0.793805  0.604282  1
  Ni  Ni7  1  0.250000  0.706195  0.104282  1
  Sn  Sn8  1  0.250000  0.832234  0.423970  1
  Sn  Sn9  1  0.750000  0.667766  0.923970  1
  Sn  Sn10  1  0.250000  0.332234  0.076030  1
  Sn  Sn11  1  0.750000  0.167766  0.576030  1
