# generated using pymatgen
data_HfSb2
_symmetry_space_group_name_H-M   'P 1'
_cell_length_a   3.90256277
_cell_length_b   9.99321237
_cell_length_c   15.11902339
_cell_angle_alpha   90.00000000
_cell_angle_beta   90.00000000
_cell_angle_gamma   90.00000000
_symmetry_Int_Tables_number   1
_chemical_formula_structural   HfSb2
_chemical_formula_sum   'Hf8 Sb16'
_cell_volume   589.62888790
_cell_formula_units_Z   8
loop_
 _symmetry_equiv_pos_site_id
 _symmetry_equiv_pos_as_xyz
  1  'x, y, z'
loop_
 _atom_site_type_symbol
 _atom_site_label
 _atom_site_symmetry_multiplicity
 _atom_site_fract_x
 _atom_site_fract_y
 _atom_site_fract_z
 _atom_site_occupancy
  Hf  Hf0  1  0.500000  0.521556  0.251749  1
  Hf  Hf1  1  0.500000  0.478444  0.748251  1
  Hf  Hf2  1  0.000000  0.021556  0.248251  1
  Hf  Hf3  1  0.000000  0.978444  0.751749  1
  Hf  Hf4  1  0.000000  0.833496  0.493342  1
  Hf  Hf5  1  0.000000  0.166504  0.506658  1
  Hf  Hf6  1  0.500000  0.333496  0.006658  1
  Hf  Hf7  1  0.500000  0.666504  0.993342  1
  Sb  Sb8  1  0.000000  0.512674  0.104690  1
  Sb  Sb9  1  0.000000  0.487326  0.895310  1
  Sb  Sb10  1  0.500000  0.012674  0.395310  1
  Sb  Sb11  1  0.500000  0.987326  0.604690  1
  Sb  Sb12  1  0.000000  0.732476  0.302044  1
  Sb  Sb13  1  0.000000  0.267524  0.697956  1
  Sb  Sb14  1  0.500000  0.232476  0.197956  1
  Sb  Sb15  1  0.500000  0.767524  0.802044  1
  Sb  Sb16  1  0.000000  0.880909  0.942731  1
  Sb  Sb17  1  0.000000  0.119091  0.057269  1
  Sb  Sb18  1  0.500000  0.380909  0.557269  1
  Sb  Sb19  1  0.500000  0.619091  0.442731  1
  Sb  Sb20  1  0.000000  0.659503  0.655204  1
  Sb  Sb21  1  0.000000  0.340497  0.344796  1
  Sb  Sb22  1  0.500000  0.159503  0.844796  1
  Sb  Sb23  1  0.500000  0.840497  0.155204  1
