# generated using pymatgen
data_SmFeO3
_symmetry_space_group_name_H-M   'P 1'
_cell_length_a   5.44908640
_cell_length_b   5.68044112
_cell_length_c   7.81482215
_cell_angle_alpha   90.00000000
_cell_angle_beta   90.00000000
_cell_angle_gamma   90.00000000
_symmetry_Int_Tables_number   1
_chemical_formula_structural   SmFeO3
_chemical_formula_sum   'Sm4 Fe4 O12'
_cell_volume   241.89386592
_cell_formula_units_Z   4
loop_
 _symmetry_equiv_pos_site_id
 _symmetry_equiv_pos_as_xyz
  1  'x, y, z'
loop_
 _atom_site_type_symbol
 _atom_site_label
 _atom_site_symmetry_multiplicity
 _atom_site_fract_x
 _atom_site_fract_y
 _atom_site_fract_z
 _atom_site_occupancy
  Sm  Sm0  1  0.515308  0.560496  0.250000  1
  Sm  Sm1  1  0.984692  0.060496  0.250000  1
  Sm  Sm2  1  0.484692  0.439504  0.750000  1
  Sm  Sm3  1  0.015308  0.939504  0.750000  1
  Fe  Fe4  1  0.500000  0.000000  0.000000  1
  Fe  Fe5  1  0.000000  0.500000  0.500000  1
  Fe  Fe6  1  0.500000  0.000000  0.500000  1
  Fe  Fe7  1  0.000000  0.500000  0.000000  1
  O  O8  1  0.397460  0.966301  0.250000  1
  O  O9  1  0.102540  0.466301  0.250000  1
  O  O10  1  0.602540  0.033699  0.750000  1
  O  O11  1  0.897460  0.533699  0.750000  1
  O  O12  1  0.802280  0.800978  0.053607  1
  O  O13  1  0.697720  0.300978  0.446393  1
  O  O14  1  0.197720  0.199022  0.553607  1
  O  O15  1  0.302280  0.699022  0.946393  1
  O  O16  1  0.197720  0.199022  0.946393  1
  O  O17  1  0.302280  0.699022  0.553607  1
  O  O18  1  0.802280  0.800978  0.446393  1
  O  O19  1  0.697720  0.300978  0.053607  1
