# generated using pymatgen
data_Eu2Ge2O7
_symmetry_space_group_name_H-M   'P 1'
_cell_length_a   7.03795832
_cell_length_b   7.03795832
_cell_length_c   12.72625873
_cell_angle_alpha   90.00000000
_cell_angle_beta   90.00000000
_cell_angle_gamma   90.00000000
_symmetry_Int_Tables_number   1
_chemical_formula_structural   Eu2Ge2O7
_chemical_formula_sum   'Eu8 Ge8 O28'
_cell_volume   630.36795781
_cell_formula_units_Z   4
loop_
 _symmetry_equiv_pos_site_id
 _symmetry_equiv_pos_as_xyz
  1  'x, y, z'
loop_
 _atom_site_type_symbol
 _atom_site_label
 _atom_site_symmetry_multiplicity
 _atom_site_fract_x
 _atom_site_fract_y
 _atom_site_fract_z
 _atom_site_occupancy
  Eu  Eu0  1  0.649905  0.117541  0.364827  1
  Eu  Eu1  1  0.350095  0.882459  0.864827  1
  Eu  Eu2  1  0.117541  0.649905  0.635173  1
  Eu  Eu3  1  0.617541  0.850095  0.114827  1
  Eu  Eu4  1  0.382459  0.149905  0.614827  1
  Eu  Eu5  1  0.850095  0.617541  0.885173  1
  Eu  Eu6  1  0.149905  0.382459  0.385173  1
  Eu  Eu7  1  0.882459  0.350095  0.135173  1
  Ge  Ge8  1  0.843522  0.095467  0.877936  1
  Ge  Ge9  1  0.156478  0.904533  0.377936  1
  Ge  Ge10  1  0.095467  0.843522  0.122064  1
  Ge  Ge11  1  0.595467  0.656478  0.627936  1
  Ge  Ge12  1  0.404533  0.343522  0.127936  1
  Ge  Ge13  1  0.656478  0.595467  0.372064  1
  Ge  Ge14  1  0.343522  0.404533  0.872064  1
  Ge  Ge15  1  0.904533  0.156478  0.622064  1
  O  O16  1  0.856667  0.304624  0.953631  1
  O  O17  1  0.143333  0.695376  0.453631  1
  O  O18  1  0.304624  0.856667  0.046369  1
  O  O19  1  0.804624  0.643333  0.703631  1
  O  O20  1  0.195376  0.356667  0.203631  1
  O  O21  1  0.643333  0.804624  0.296369  1
  O  O22  1  0.356667  0.195376  0.796369  1
  O  O23  1  0.695376  0.143333  0.546369  1
  O  O24  1  0.660687  0.939928  0.926558  1
  O  O25  1  0.339313  0.060072  0.426558  1
  O  O26  1  0.939928  0.660687  0.073442  1
  O  O27  1  0.439928  0.839313  0.676558  1
  O  O28  1  0.560072  0.160687  0.176558  1
  O  O29  1  0.839313  0.439928  0.323442  1
  O  O30  1  0.160687  0.560072  0.823442  1
  O  O31  1  0.060072  0.339313  0.573442  1
  O  O32  1  0.303073  0.303073  0.000000  1
  O  O33  1  0.196927  0.803073  0.250000  1
  O  O34  1  0.803073  0.196927  0.750000  1
  O  O35  1  0.696927  0.696927  0.500000  1
  O  O36  1  0.077406  0.975896  0.626601  1
  O  O37  1  0.524104  0.577406  0.876601  1
  O  O38  1  0.475896  0.422594  0.376601  1
  O  O39  1  0.577406  0.524104  0.123399  1
  O  O40  1  0.422594  0.475896  0.623399  1
  O  O41  1  0.922594  0.024104  0.126601  1
  O  O42  1  0.975896  0.077406  0.373399  1
  O  O43  1  0.024104  0.922594  0.873399  1
