# generated using pymatgen
data_Pd7Se4
_symmetry_space_group_name_H-M   'P 1'
_cell_length_a   5.43502758
_cell_length_b   7.02426631
_cell_length_c   10.32102683
_cell_angle_alpha   90.00000000
_cell_angle_beta   90.00000000
_cell_angle_gamma   90.00000000
_symmetry_Int_Tables_number   1
_chemical_formula_structural   Pd7Se4
_chemical_formula_sum   'Pd14 Se8'
_cell_volume   394.02667857
_cell_formula_units_Z   2
loop_
 _symmetry_equiv_pos_site_id
 _symmetry_equiv_pos_as_xyz
  1  'x, y, z'
loop_
 _atom_site_type_symbol
 _atom_site_label
 _atom_site_symmetry_multiplicity
 _atom_site_fract_x
 _atom_site_fract_y
 _atom_site_fract_z
 _atom_site_occupancy
  Pd  Pd0  1  0.349165  0.188875  0.583814  1
  Pd  Pd1  1  0.349165  0.811125  0.416186  1
  Pd  Pd2  1  0.650835  0.311125  0.083814  1
  Pd  Pd3  1  0.650835  0.688875  0.916186  1
  Pd  Pd4  1  0.003555  0.084185  0.774450  1
  Pd  Pd5  1  0.003555  0.915815  0.225550  1
  Pd  Pd6  1  0.996445  0.415815  0.274450  1
  Pd  Pd7  1  0.996445  0.584185  0.725550  1
  Pd  Pd8  1  0.338102  0.371961  0.868769  1
  Pd  Pd9  1  0.338102  0.628039  0.131231  1
  Pd  Pd10  1  0.661898  0.128039  0.368769  1
  Pd  Pd11  1  0.661898  0.871961  0.631231  1
  Pd  Pd12  1  0.675939  0.500000  0.500000  1
  Pd  Pd13  1  0.324061  0.000000  0.000000  1
  Se  Se14  1  0.682685  0.324137  0.720672  1
  Se  Se15  1  0.682685  0.675863  0.279328  1
  Se  Se16  1  0.317315  0.175863  0.220672  1
  Se  Se17  1  0.317315  0.824137  0.779328  1
  Se  Se18  1  0.170313  0.500000  0.500000  1
  Se  Se19  1  0.829687  0.000000  0.000000  1
  Se  Se20  1  0.999235  0.000000  0.500000  1
  Se  Se21  1  0.000765  0.500000  0.000000  1
