# generated using pymatgen
data_Na3TlO2
_symmetry_space_group_name_H-M   'P 1'
_cell_length_a   5.41190661
_cell_length_b   6.81945151
_cell_length_c   11.65282964
_cell_angle_alpha   90.00000000
_cell_angle_beta   90.00000000
_cell_angle_gamma   90.00000000
_symmetry_Int_Tables_number   1
_chemical_formula_structural   Na3TlO2
_chemical_formula_sum   'Na12 Tl4 O8'
_cell_volume   430.06206565
_cell_formula_units_Z   4
loop_
 _symmetry_equiv_pos_site_id
 _symmetry_equiv_pos_as_xyz
  1  'x, y, z'
loop_
 _atom_site_type_symbol
 _atom_site_label
 _atom_site_symmetry_multiplicity
 _atom_site_fract_x
 _atom_site_fract_y
 _atom_site_fract_z
 _atom_site_occupancy
  Na  Na0  1  0.747250  0.001441  0.333803  1
  Na  Na1  1  0.247250  0.501441  0.166197  1
  Na  Na2  1  0.752750  0.001441  0.833803  1
  Na  Na3  1  0.252750  0.998559  0.666197  1
  Na  Na4  1  0.748256  0.250000  0.077078  1
  Na  Na5  1  0.248256  0.750000  0.422922  1
  Na  Na6  1  0.251744  0.750000  0.922922  1
  Na  Na7  1  0.751744  0.250000  0.577078  1
  Na  Na8  1  0.252750  0.501441  0.666197  1
  Na  Na9  1  0.752750  0.498559  0.833803  1
  Na  Na10  1  0.747250  0.498559  0.333803  1
  Na  Na11  1  0.247250  0.998559  0.166197  1
  Tl  Tl12  1  0.738008  0.750000  0.590708  1
  Tl  Tl13  1  0.238008  0.250000  0.909292  1
  Tl  Tl14  1  0.261992  0.250000  0.409292  1
  Tl  Tl15  1  0.761992  0.750000  0.090708  1
  O  O16  1  0.490792  0.750000  0.757913  1
  O  O17  1  0.990792  0.250000  0.742087  1
  O  O18  1  0.509208  0.250000  0.242087  1
  O  O19  1  0.009208  0.750000  0.257913  1
  O  O20  1  0.500000  0.500000  0.500000  1
  O  O21  1  0.000000  0.500000  0.000000  1
  O  O22  1  0.500000  0.000000  0.500000  1
  O  O23  1  0.000000  0.000000  0.000000  1
