# generated using pymatgen
data_TlF3
_symmetry_space_group_name_H-M   'P 1'
_cell_length_a   5.03605312
_cell_length_b   5.90977673
_cell_length_c   7.27018506
_cell_angle_alpha   90.00000000
_cell_angle_beta   90.00000000
_cell_angle_gamma   90.00000000
_symmetry_Int_Tables_number   1
_chemical_formula_structural   TlF3
_chemical_formula_sum   'Tl4 F12'
_cell_volume   216.37488090
_cell_formula_units_Z   4
loop_
 _symmetry_equiv_pos_site_id
 _symmetry_equiv_pos_as_xyz
  1  'x, y, z'
loop_
 _atom_site_type_symbol
 _atom_site_label
 _atom_site_symmetry_multiplicity
 _atom_site_fract_x
 _atom_site_fract_y
 _atom_site_fract_z
 _atom_site_occupancy
  Tl  Tl0  1  0.960762  0.629389  0.750000  1
  Tl  Tl1  1  0.460762  0.870611  0.250000  1
  Tl  Tl2  1  0.539238  0.129389  0.750000  1
  Tl  Tl3  1  0.039238  0.370611  0.250000  1
  F  F4  1  0.330799  0.158058  0.429709  1
  F  F5  1  0.830799  0.341942  0.570291  1
  F  F6  1  0.169201  0.658058  0.070291  1
  F  F7  1  0.669201  0.841942  0.929709  1
  F  F8  1  0.642810  0.540168  0.250000  1
  F  F9  1  0.142810  0.959832  0.750000  1
  F  F10  1  0.857190  0.040168  0.250000  1
  F  F11  1  0.357190  0.459832  0.750000  1
  F  F12  1  0.330799  0.158058  0.070291  1
  F  F13  1  0.830799  0.341942  0.929709  1
  F  F14  1  0.169201  0.658058  0.429709  1
  F  F15  1  0.669201  0.841942  0.570291  1
