# generated using pymatgen
data_Na3InS3
_symmetry_space_group_name_H-M   'P 1'
_cell_length_a   10.53703713
_cell_length_b   10.53703713
_cell_length_c   7.46700518
_cell_angle_alpha   69.35361039
_cell_angle_beta   110.64638961
_cell_angle_gamma   100.17125360
_symmetry_Int_Tables_number   1
_chemical_formula_structural   Na3InS3
_chemical_formula_sum   'Na12 In4 S12'
_cell_volume   724.68760328
_cell_formula_units_Z   4
loop_
 _symmetry_equiv_pos_site_id
 _symmetry_equiv_pos_as_xyz
  1  'x, y, z'
loop_
 _atom_site_type_symbol
 _atom_site_label
 _atom_site_symmetry_multiplicity
 _atom_site_fract_x
 _atom_site_fract_y
 _atom_site_fract_z
 _atom_site_occupancy
  Na  Na0  1  0.009052  0.826990  0.542802  1
  Na  Na1  1  0.826990  0.009052  0.957198  1
  Na  Na2  1  0.990948  0.173010  0.457198  1
  Na  Na3  1  0.173010  0.990948  0.042802  1
  Na  Na4  1  0.230090  0.636820  0.412616  1
  Na  Na5  1  0.636820  0.230090  0.087384  1
  Na  Na6  1  0.769910  0.363180  0.587384  1
  Na  Na7  1  0.363180  0.769910  0.912616  1
  Na  Na8  1  0.722204  0.722204  0.250000  1
  Na  Na9  1  0.277796  0.277796  0.750000  1
  Na  Na10  1  0.435956  0.435956  0.250000  1
  Na  Na11  1  0.564044  0.564044  0.750000  1
  In  In12  1  0.427935  0.082710  0.596467  1
  In  In13  1  0.572065  0.917290  0.403533  1
  In  In14  1  0.917290  0.572065  0.096467  1
  In  In15  1  0.082710  0.427935  0.903533  1
  S  S16  1  0.887038  0.586498  0.737606  1
  S  S17  1  0.413502  0.112962  0.237606  1
  S  S18  1  0.586498  0.887038  0.762394  1
  S  S19  1  0.112962  0.413502  0.262394  1
  S  S20  1  0.996459  0.782745  0.185568  1
  S  S21  1  0.782745  0.996459  0.314432  1
  S  S22  1  0.003541  0.217255  0.814432  1
  S  S23  1  0.217255  0.003541  0.685568  1
  S  S24  1  0.704686  0.473675  0.170940  1
  S  S25  1  0.473675  0.704686  0.329060  1
  S  S26  1  0.295314  0.526325  0.829060  1
  S  S27  1  0.526325  0.295314  0.670940  1
