# generated using pymatgen
data_LiH2N
_symmetry_space_group_name_H-M   'P 1'
_cell_length_a   6.37532104
_cell_length_b   6.37532104
_cell_length_c   6.37532104
_cell_angle_alpha   132.98849549
_cell_angle_beta   132.98849549
_cell_angle_gamma   68.67221553
_symmetry_Int_Tables_number   1
_chemical_formula_structural   LiH2N
_chemical_formula_sum   'Li4 H8 N4'
_cell_volume   136.14790313
_cell_formula_units_Z   4
loop_
 _symmetry_equiv_pos_site_id
 _symmetry_equiv_pos_as_xyz
  1  'x, y, z'
loop_
 _atom_site_type_symbol
 _atom_site_label
 _atom_site_symmetry_multiplicity
 _atom_site_fract_x
 _atom_site_fract_y
 _atom_site_fract_z
 _atom_site_occupancy
  Li  Li0  1  0.000000  0.000000  0.000000  1
  Li  Li1  1  0.250000  0.750000  0.500000  1
  Li  Li2  1  0.492110  0.992110  0.500000  1
  Li  Li3  1  0.007890  0.507890  0.500000  1
  H  H4  1  0.694077  0.584081  0.657194  1
  H  H5  1  0.926887  0.036883  0.342806  1
  H  H6  1  0.963117  0.305923  0.890004  1
  H  H7  1  0.415919  0.073113  0.109996  1
  H  H8  1  0.541947  0.469279  0.257938  1
  H  H9  1  0.211341  0.284009  0.742062  1
  H  H10  1  0.715991  0.458053  0.927332  1
  H  H11  1  0.530721  0.788659  0.072668  1
  N  N12  1  0.639706  0.658433  0.526545  1
  N  N13  1  0.131888  0.113161  0.473455  1
  N  N14  1  0.886839  0.360294  0.018728  1
  N  N15  1  0.341567  0.868112  0.981272  1
