# generated using pymatgen
data_Na2Mo2O7
_symmetry_space_group_name_H-M   'P 1'
_cell_length_a   7.04258085
_cell_length_b   7.04258085
_cell_length_c   15.12861631
_cell_angle_alpha   90.00000000
_cell_angle_beta   90.00000000
_cell_angle_gamma   117.41069240
_symmetry_Int_Tables_number   1
_chemical_formula_structural   Na2Mo2O7
_chemical_formula_sum   'Na8 Mo8 O28'
_cell_volume   666.10629468
_cell_formula_units_Z   4
loop_
 _symmetry_equiv_pos_site_id
 _symmetry_equiv_pos_as_xyz
  1  'x, y, z'
loop_
 _atom_site_type_symbol
 _atom_site_label
 _atom_site_symmetry_multiplicity
 _atom_site_fract_x
 _atom_site_fract_y
 _atom_site_fract_z
 _atom_site_occupancy
  Na  Na0  1  0.182798  0.817202  0.151491  1
  Na  Na1  1  0.317202  0.682798  0.651491  1
  Na  Na2  1  0.817202  0.182798  0.848509  1
  Na  Na3  1  0.682798  0.317202  0.348509  1
  Na  Na4  1  0.750051  0.750051  0.500000  1
  Na  Na5  1  0.749949  0.749949  1.000000  1
  Na  Na6  1  0.249949  0.249949  0.500000  1
  Na  Na7  1  0.250051  0.250051  1.000000  1
  Mo  Mo8  1  0.255959  0.744041  0.413512  1
  Mo  Mo9  1  0.244041  0.755959  0.913512  1
  Mo  Mo10  1  0.744041  0.255959  0.586488  1
  Mo  Mo11  1  0.755959  0.244041  0.086488  1
  Mo  Mo12  1  0.670811  0.829189  0.250000  1
  Mo  Mo13  1  0.829189  0.670811  0.750000  1
  Mo  Mo14  1  0.329189  0.170811  0.750000  1
  Mo  Mo15  1  0.170811  0.329189  0.250000  1
  O  O16  1  0.138584  0.861416  0.997013  1
  O  O17  1  0.361416  0.638584  0.497013  1
  O  O18  1  0.861416  0.138584  0.002987  1
  O  O19  1  0.638584  0.361416  0.502987  1
  O  O20  1  0.124913  0.875087  0.466559  1
  O  O21  1  0.375087  0.624913  0.966559  1
  O  O22  1  0.875087  0.124913  0.533441  1
  O  O23  1  0.624913  0.375087  0.033441  1
  O  O24  1  0.382254  0.617746  0.218110  1
  O  O25  1  0.117746  0.882254  0.718110  1
  O  O26  1  0.617746  0.382254  0.781890  1
  O  O27  1  0.882254  0.117746  0.281890  1
  O  O28  1  0.188474  0.212451  0.837250  1
  O  O29  1  0.311526  0.287549  0.337250  1
  O  O30  1  0.212451  0.188474  0.162750  1
  O  O31  1  0.287549  0.311526  0.662750  1
  O  O32  1  0.974403  0.429259  0.155565  1
  O  O33  1  0.525597  0.070741  0.655565  1
  O  O34  1  0.429259  0.974403  0.844435  1
  O  O35  1  0.070741  0.525597  0.344435  1
  O  O36  1  0.025597  0.570741  0.844435  1
  O  O37  1  0.474403  0.929259  0.344435  1
  O  O38  1  0.570741  0.025597  0.155565  1
  O  O39  1  0.929259  0.474403  0.655565  1
  O  O40  1  0.712451  0.688474  0.337250  1
  O  O41  1  0.787549  0.811526  0.837250  1
  O  O42  1  0.688474  0.712451  0.662750  1
  O  O43  1  0.811526  0.787549  0.162750  1
