# generated using pymatgen
data_Sr2Cu(ClO)2
_symmetry_space_group_name_H-M   'P 1'
_cell_length_a   8.51377180
_cell_length_b   8.51377180
_cell_length_c   8.51377180
_cell_angle_alpha   152.89888364
_cell_angle_beta   152.89888364
_cell_angle_gamma   38.70206641
_symmetry_Int_Tables_number   1
_chemical_formula_structural   Sr2Cu(ClO)2
_chemical_formula_sum   'Sr2 Cu1 Cl2 O2'
_cell_volume   127.85789963
_cell_formula_units_Z   1
loop_
 _symmetry_equiv_pos_site_id
 _symmetry_equiv_pos_as_xyz
  1  'x, y, z'
loop_
 _atom_site_type_symbol
 _atom_site_label
 _atom_site_symmetry_multiplicity
 _atom_site_fract_x
 _atom_site_fract_y
 _atom_site_fract_z
 _atom_site_occupancy
  Sr  Sr0  1  0.606459  0.606459  0.000000  1
  Sr  Sr1  1  0.393541  0.393541  0.000000  1
  Cu  Cu2  1  0.000000  0.000000  0.000000  1
  Cl  Cl3  1  0.182409  0.182409  0.000000  1
  Cl  Cl4  1  0.817591  0.817591  0.000000  1
  O  O5  1  0.000000  0.500000  0.500000  1
  O  O6  1  0.500000  0.000000  0.500000  1
