# generated using pymatgen
data_Tl6SBr4
_symmetry_space_group_name_H-M   'P 1'
_cell_length_a   9.00879850
_cell_length_b   9.00879850
_cell_length_c   9.56734126
_cell_angle_alpha   90.00000000
_cell_angle_beta   90.00000000
_cell_angle_gamma   90.00000000
_symmetry_Int_Tables_number   1
_chemical_formula_structural   Tl6SBr4
_chemical_formula_sum   'Tl12 S2 Br8'
_cell_volume   776.47059124
_cell_formula_units_Z   2
loop_
 _symmetry_equiv_pos_site_id
 _symmetry_equiv_pos_as_xyz
  1  'x, y, z'
loop_
 _atom_site_type_symbol
 _atom_site_label
 _atom_site_symmetry_multiplicity
 _atom_site_fract_x
 _atom_site_fract_y
 _atom_site_fract_z
 _atom_site_occupancy
  Tl  Tl0  1  0.686818  0.894184  0.500000  1
  Tl  Tl1  1  0.313182  0.105816  0.500000  1
  Tl  Tl2  1  0.605816  0.813182  0.000000  1
  Tl  Tl3  1  0.105816  0.686818  0.500000  1
  Tl  Tl4  1  0.894184  0.313182  0.500000  1
  Tl  Tl5  1  0.186818  0.605816  0.000000  1
  Tl  Tl6  1  0.813182  0.394184  0.000000  1
  Tl  Tl7  1  0.394184  0.186818  0.000000  1
  Tl  Tl8  1  0.000000  0.000000  0.800402  1
  Tl  Tl9  1  0.500000  0.500000  0.699598  1
  Tl  Tl10  1  0.000000  0.000000  0.199598  1
  Tl  Tl11  1  0.500000  0.500000  0.300402  1
  S  S12  1  0.000000  0.000000  0.500000  1
  S  S13  1  0.500000  0.500000  0.000000  1
  Br  Br14  1  0.169931  0.330069  0.750000  1
  Br  Br15  1  0.669931  0.169931  0.750000  1
  Br  Br16  1  0.330069  0.830069  0.750000  1
  Br  Br17  1  0.830069  0.669931  0.750000  1
  Br  Br18  1  0.830069  0.669931  0.250000  1
  Br  Br19  1  0.330069  0.830069  0.250000  1
  Br  Br20  1  0.669931  0.169931  0.250000  1
  Br  Br21  1  0.169931  0.330069  0.250000  1
