# generated using pymatgen
data_TiGa3
_symmetry_space_group_name_H-M   'P 1'
_cell_length_a   5.16503692
_cell_length_b   5.16503692
_cell_length_c   5.16503692
_cell_angle_alpha   136.76381081
_cell_angle_beta   136.76381081
_cell_angle_gamma   62.80165627
_symmetry_Int_Tables_number   1
_chemical_formula_structural   TiGa3
_chemical_formula_sum   'Ti1 Ga3'
_cell_volume   63.85396908
_cell_formula_units_Z   1
loop_
 _symmetry_equiv_pos_site_id
 _symmetry_equiv_pos_as_xyz
  1  'x, y, z'
loop_
 _atom_site_type_symbol
 _atom_site_label
 _atom_site_symmetry_multiplicity
 _atom_site_fract_x
 _atom_site_fract_y
 _atom_site_fract_z
 _atom_site_occupancy
  Ti  Ti0  1  0.000000  0.000000  0.000000  1
  Ga  Ga1  1  0.750000  0.250000  0.500000  1
  Ga  Ga2  1  0.250000  0.750000  0.500000  1
  Ga  Ga3  1  0.500000  0.500000  0.000000  1
