# generated using pymatgen
data_Li4Ge5O12
_symmetry_space_group_name_H-M   'P 1'
_cell_length_a   5.20554663
_cell_length_b   9.30536414
_cell_length_c   9.75050004
_cell_angle_alpha   73.00028755
_cell_angle_beta   77.74516388
_cell_angle_gamma   78.88635488
_symmetry_Int_Tables_number   1
_chemical_formula_structural   Li4Ge5O12
_chemical_formula_sum   'Li8 Ge10 O24'
_cell_volume   437.04229205
_cell_formula_units_Z   2
loop_
 _symmetry_equiv_pos_site_id
 _symmetry_equiv_pos_as_xyz
  1  'x, y, z'
loop_
 _atom_site_type_symbol
 _atom_site_label
 _atom_site_symmetry_multiplicity
 _atom_site_fract_x
 _atom_site_fract_y
 _atom_site_fract_z
 _atom_site_occupancy
  Li  Li0  1  0.687950  0.231775  0.443969  1
  Li  Li1  1  0.312050  0.768225  0.556031  1
  Li  Li2  1  0.272953  0.906471  0.022945  1
  Li  Li3  1  0.727047  0.093529  0.977055  1
  Li  Li4  1  0.861425  0.593113  0.594661  1
  Li  Li5  1  0.138575  0.406887  0.405339  1
  Li  Li6  1  0.348807  0.576262  0.112333  1
  Li  Li7  1  0.651193  0.423738  0.887667  1
  Ge  Ge8  1  0.882742  0.405674  0.148478  1
  Ge  Ge9  1  0.117258  0.594326  0.851522  1
  Ge  Ge10  1  0.740226  0.903620  0.732482  1
  Ge  Ge11  1  0.259774  0.096380  0.267518  1
  Ge  Ge12  1  0.591564  0.578686  0.354690  1
  Ge  Ge13  1  0.408436  0.421314  0.645310  1
  Ge  Ge14  1  0.806972  0.900309  0.317144  1
  Ge  Ge15  1  0.193028  0.099691  0.682856  1
  Ge  Ge16  1  0.811498  0.744929  0.065118  1
  Ge  Ge17  1  0.188502  0.255071  0.934882  1
  O  O18  1  0.091372  0.935714  0.371413  1
  O  O19  1  0.908628  0.064286  0.628587  1
  O  O20  1  0.266951  0.567002  0.483776  1
  O  O21  1  0.733049  0.432998  0.516224  1
  O  O22  1  0.319091  0.263142  0.568620  1
  O  O23  1  0.680909  0.736858  0.431380  1
  O  O24  1  0.443269  0.580326  0.729879  1
  O  O25  1  0.556731  0.419674  0.270121  1
  O  O26  1  0.050711  0.432454  0.775198  1
  O  O27  1  0.949289  0.567546  0.224802  1
  O  O28  1  0.950296  0.740656  0.697986  1
  O  O29  1  0.049704  0.259344  0.302014  1
  O  O30  1  0.511633  0.271747  0.811265  1
  O  O31  1  0.488367  0.728253  0.188735  1
  O  O32  1  0.233189  0.422745  0.013313  1
  O  O33  1  0.766811  0.577255  0.986687  1
  O  O34  1  0.148570  0.731642  0.951235  1
  O  O35  1  0.851430  0.268358  0.048765  1
  O  O36  1  0.439419  0.937920  0.660642  1
  O  O37  1  0.560581  0.062080  0.339358  1
  O  O38  1  0.102686  0.101211  0.867124  1
  O  O39  1  0.897314  0.898789  0.132876  1
  O  O40  1  0.345797  0.099691  0.081920  1
  O  O41  1  0.654203  0.900309  0.918080  1
