# generated using pymatgen
data_BiP2O7
_symmetry_space_group_name_H-M   'P 1'
_cell_length_a   7.63933223
_cell_length_b   8.85097509
_cell_length_c   10.18215580
_cell_angle_alpha   90.00000000
_cell_angle_beta   110.57449028
_cell_angle_gamma   90.00000000
_symmetry_Int_Tables_number   1
_chemical_formula_structural   BiP2O7
_chemical_formula_sum   'Bi4 P8 O28'
_cell_volume   644.55852451
_cell_formula_units_Z   4
loop_
 _symmetry_equiv_pos_site_id
 _symmetry_equiv_pos_as_xyz
  1  'x, y, z'
loop_
 _atom_site_type_symbol
 _atom_site_label
 _atom_site_symmetry_multiplicity
 _atom_site_fract_x
 _atom_site_fract_y
 _atom_site_fract_z
 _atom_site_occupancy
  Bi  Bi0  1  0.260574  0.494395  0.752175  1
  Bi  Bi1  1  0.260574  0.005605  0.252175  1
  Bi  Bi2  1  0.739426  0.994395  0.747825  1
  Bi  Bi3  1  0.739426  0.505605  0.247825  1
  P  P4  1  0.319803  0.704830  0.059114  1
  P  P5  1  0.680197  0.295170  0.940886  1
  P  P6  1  0.319803  0.795170  0.559114  1
  P  P7  1  0.075108  0.254958  0.457505  1
  P  P8  1  0.924892  0.754958  0.042495  1
  P  P9  1  0.924892  0.745042  0.542495  1
  P  P10  1  0.075108  0.245042  0.957505  1
  P  P11  1  0.680197  0.204830  0.440886  1
  O  O12  1  0.444116  0.908567  0.663587  1
  O  O13  1  0.026702  0.103894  0.865092  1
  O  O14  1  0.199591  0.359405  0.919520  1
  O  O15  1  0.026702  0.396106  0.365092  1
  O  O16  1  0.973298  0.896106  0.134908  1
  O  O17  1  0.800409  0.640595  0.080480  1
  O  O18  1  0.973298  0.603894  0.634908  1
  O  O19  1  0.885092  0.162579  0.438902  1
  O  O20  1  0.830639  0.711045  0.384795  1
  O  O21  1  0.681908  0.309101  0.091899  1
  O  O22  1  0.800409  0.859405  0.580480  1
  O  O23  1  0.640995  0.372368  0.399655  1
  O  O24  1  0.885092  0.337421  0.938902  1
  O  O25  1  0.830639  0.788955  0.884795  1
  O  O26  1  0.681908  0.190899  0.591899  1
  O  O27  1  0.555884  0.091433  0.336413  1
  O  O28  1  0.444116  0.591433  0.163587  1
  O  O29  1  0.169361  0.288955  0.615205  1
  O  O30  1  0.640995  0.127632  0.899655  1
  O  O31  1  0.555884  0.408567  0.836413  1
  O  O32  1  0.359005  0.872368  0.100345  1
  O  O33  1  0.318092  0.809101  0.408101  1
  O  O34  1  0.169361  0.211045  0.115205  1
  O  O35  1  0.114908  0.662579  0.061098  1
  O  O36  1  0.359005  0.627632  0.600345  1
  O  O37  1  0.199591  0.140595  0.419520  1
  O  O38  1  0.318092  0.690899  0.908101  1
  O  O39  1  0.114908  0.837421  0.561098  1
