# generated using pymatgen
data_XeF4
_symmetry_space_group_name_H-M   'P 1'
_cell_length_a   5.27337585
_cell_length_b   5.98961592
_cell_length_c   7.27114639
_cell_angle_alpha   90.00000000
_cell_angle_beta   125.76496099
_cell_angle_gamma   90.00000000
_symmetry_Int_Tables_number   1
_chemical_formula_structural   XeF4
_chemical_formula_sum   'Xe2 F8'
_cell_volume   186.35328123
_cell_formula_units_Z   2
loop_
 _symmetry_equiv_pos_site_id
 _symmetry_equiv_pos_as_xyz
  1  'x, y, z'
loop_
 _atom_site_type_symbol
 _atom_site_label
 _atom_site_symmetry_multiplicity
 _atom_site_fract_x
 _atom_site_fract_y
 _atom_site_fract_z
 _atom_site_occupancy
  Xe  Xe0  1  0.000000  0.500000  0.000000  1
  Xe  Xe1  1  0.000000  0.000000  0.500000  1
  F  F2  1  0.426122  0.349243  0.159456  1
  F  F3  1  0.573878  0.849243  0.340544  1
  F  F4  1  0.048240  0.991195  0.799981  1
  F  F5  1  0.951760  0.491195  0.700019  1
  F  F6  1  0.951760  0.008805  0.200019  1
  F  F7  1  0.048240  0.508805  0.299981  1
  F  F8  1  0.426122  0.150757  0.659456  1
  F  F9  1  0.573878  0.650757  0.840544  1
