# generated using pymatgen
data_W2C
_symmetry_space_group_name_H-M   'P 1'
_cell_length_a   4.75632168
_cell_length_b   5.23726546
_cell_length_c   6.11103445
_cell_angle_alpha   90.00000000
_cell_angle_beta   90.00000000
_cell_angle_gamma   90.00000000
_symmetry_Int_Tables_number   1
_chemical_formula_structural   W2C
_chemical_formula_sum   'W8 C4'
_cell_volume   152.22659690
_cell_formula_units_Z   4
loop_
 _symmetry_equiv_pos_site_id
 _symmetry_equiv_pos_as_xyz
  1  'x, y, z'
loop_
 _atom_site_type_symbol
 _atom_site_label
 _atom_site_symmetry_multiplicity
 _atom_site_fract_x
 _atom_site_fract_y
 _atom_site_fract_z
 _atom_site_occupancy
  W  W0  1  0.244805  0.081187  0.376420  1
  W  W1  1  0.744805  0.918813  0.123580  1
  W  W2  1  0.255195  0.581187  0.123580  1
  W  W3  1  0.755195  0.418813  0.376420  1
  W  W4  1  0.244805  0.581187  0.623580  1
  W  W5  1  0.744805  0.418813  0.876420  1
  W  W6  1  0.255195  0.081187  0.876420  1
  W  W7  1  0.755195  0.918813  0.623580  1
  C  C8  1  0.500000  0.750000  0.378250  1
  C  C9  1  0.000000  0.250000  0.121750  1
  C  C10  1  0.500000  0.250000  0.621750  1
  C  C11  1  0.000000  0.750000  0.878250  1
