# generated using pymatgen
data_CoBMo
_symmetry_space_group_name_H-M   'P 1'
_cell_length_a   3.24330922
_cell_length_b   5.74856991
_cell_length_c   6.62006818
_cell_angle_alpha   90.00000000
_cell_angle_beta   90.00000000
_cell_angle_gamma   90.00000000
_symmetry_Int_Tables_number   1
_chemical_formula_structural   CoBMo
_chemical_formula_sum   'Co4 B4 Mo4'
_cell_volume   123.42713159
_cell_formula_units_Z   4
loop_
 _symmetry_equiv_pos_site_id
 _symmetry_equiv_pos_as_xyz
  1  'x, y, z'
loop_
 _atom_site_type_symbol
 _atom_site_label
 _atom_site_symmetry_multiplicity
 _atom_site_fract_x
 _atom_site_fract_y
 _atom_site_fract_z
 _atom_site_occupancy
  Co  Co0  1  0.750000  0.856339  0.557084  1
  Co  Co1  1  0.250000  0.143661  0.442916  1
  Co  Co2  1  0.750000  0.356339  0.942916  1
  Co  Co3  1  0.250000  0.643661  0.057084  1
  B  B4  1  0.250000  0.771965  0.375038  1
  B  B5  1  0.750000  0.228035  0.624962  1
  B  B6  1  0.250000  0.271965  0.124962  1
  B  B7  1  0.750000  0.728035  0.875038  1
  Mo  Mo8  1  0.250000  0.527845  0.673917  1
  Mo  Mo9  1  0.750000  0.472155  0.326083  1
  Mo  Mo10  1  0.250000  0.027845  0.826083  1
  Mo  Mo11  1  0.750000  0.972155  0.173917  1
