# generated using pymatgen
data_Na3P6N11
_symmetry_space_group_name_H-M   'P 1'
_cell_length_a   10.19146407
_cell_length_b   10.19146407
_cell_length_c   10.19146407
_cell_angle_alpha   90.00000000
_cell_angle_beta   90.00000000
_cell_angle_gamma   90.00000000
_symmetry_Int_Tables_number   1
_chemical_formula_structural   Na3P6N11
_chemical_formula_sum   'Na12 P24 N44'
_cell_volume   1058.54599449
_cell_formula_units_Z   4
loop_
 _symmetry_equiv_pos_site_id
 _symmetry_equiv_pos_as_xyz
  1  'x, y, z'
loop_
 _atom_site_type_symbol
 _atom_site_label
 _atom_site_symmetry_multiplicity
 _atom_site_fract_x
 _atom_site_fract_y
 _atom_site_fract_z
 _atom_site_occupancy
  Na  Na0  1  0.522030  0.522030  0.522030  1
  Na  Na1  1  0.977970  0.477970  0.022030  1
  Na  Na2  1  0.022030  0.977970  0.477970  1
  Na  Na3  1  0.477970  0.022030  0.977970  1
  Na  Na4  1  0.873519  0.873519  0.873519  1
  Na  Na5  1  0.626481  0.126481  0.373519  1
  Na  Na6  1  0.373519  0.626481  0.126481  1
  Na  Na7  1  0.126481  0.373519  0.626481  1
  Na  Na8  1  0.219374  0.219374  0.219374  1
  Na  Na9  1  0.280626  0.780626  0.719374  1
  Na  Na10  1  0.719374  0.280626  0.780626  1
  Na  Na11  1  0.780626  0.719374  0.280626  1
  P  P12  1  0.937014  0.016091  0.174014  1
  P  P13  1  0.674014  0.562986  0.983909  1
  P  P14  1  0.825986  0.437014  0.483909  1
  P  P15  1  0.562986  0.983909  0.674014  1
  P  P16  1  0.483909  0.825986  0.437014  1
  P  P17  1  0.983909  0.674014  0.562986  1
  P  P18  1  0.174014  0.937014  0.016091  1
  P  P19  1  0.016091  0.174014  0.937014  1
  P  P20  1  0.437014  0.483909  0.825986  1
  P  P21  1  0.062986  0.516091  0.325986  1
  P  P22  1  0.516091  0.325986  0.062986  1
  P  P23  1  0.325986  0.062986  0.516091  1
  P  P24  1  0.311026  0.925637  0.266540  1
  P  P25  1  0.811026  0.574363  0.733460  1
  P  P26  1  0.688974  0.425637  0.233460  1
  P  P27  1  0.574363  0.733460  0.811026  1
  P  P28  1  0.233460  0.688974  0.425637  1
  P  P29  1  0.733460  0.811026  0.574363  1
  P  P30  1  0.925637  0.266540  0.311026  1
  P  P31  1  0.266540  0.311026  0.925637  1
  P  P32  1  0.425637  0.233460  0.688974  1
  P  P33  1  0.074363  0.766540  0.188974  1
  P  P34  1  0.766540  0.188974  0.074363  1
  P  P35  1  0.188974  0.074363  0.766540  1
  N  N36  1  0.711143  0.711143  0.711143  1
  N  N37  1  0.878827  0.786023  0.521221  1
  N  N38  1  0.978779  0.121173  0.286023  1
  N  N39  1  0.121173  0.286023  0.978779  1
  N  N40  1  0.478779  0.378827  0.713977  1
  N  N41  1  0.021221  0.621173  0.213977  1
  N  N42  1  0.621173  0.213977  0.021221  1
  N  N43  1  0.213977  0.021221  0.621173  1
  N  N44  1  0.460872  0.875070  0.287095  1
  N  N45  1  0.960872  0.624930  0.712905  1
  N  N46  1  0.539128  0.375070  0.212905  1
  N  N47  1  0.624930  0.712905  0.960872  1
  N  N48  1  0.963879  0.536121  0.463879  1
  N  N49  1  0.536121  0.463879  0.963879  1
  N  N50  1  0.463879  0.963879  0.536121  1
  N  N51  1  0.036121  0.036121  0.036121  1
  N  N52  1  0.288857  0.211143  0.788857  1
  N  N53  1  0.211143  0.788857  0.288857  1
  N  N54  1  0.788857  0.288857  0.211143  1
  N  N55  1  0.378827  0.713977  0.478779  1
  N  N56  1  0.460867  0.629076  0.772277  1
  N  N57  1  0.786023  0.521221  0.878827  1
  N  N58  1  0.713977  0.478779  0.378827  1
  N  N59  1  0.521221  0.878827  0.786023  1
  N  N60  1  0.272277  0.039133  0.370924  1
  N  N61  1  0.370924  0.272277  0.039133  1
  N  N62  1  0.039133  0.370924  0.272277  1
  N  N63  1  0.212905  0.539128  0.375070  1
  N  N64  1  0.870924  0.227723  0.960867  1
  N  N65  1  0.960867  0.870924  0.227723  1
  N  N66  1  0.129075  0.727723  0.539133  1
  N  N67  1  0.629076  0.772277  0.460867  1
  N  N68  1  0.539133  0.129075  0.727723  1
  N  N69  1  0.772277  0.460867  0.629076  1
  N  N70  1  0.727723  0.539133  0.129075  1
  N  N71  1  0.227723  0.960867  0.870924  1
  N  N72  1  0.039128  0.124930  0.787095  1
  N  N73  1  0.787095  0.039128  0.124930  1
  N  N74  1  0.124930  0.787095  0.039128  1
  N  N75  1  0.375070  0.212905  0.539128  1
  N  N76  1  0.287095  0.460872  0.875070  1
  N  N77  1  0.875070  0.287095  0.460872  1
  N  N78  1  0.712905  0.960872  0.624930  1
  N  N79  1  0.286023  0.978779  0.121173  1
