# generated using pymatgen
data_Li2TiPCO7
_symmetry_space_group_name_H-M   'P 1'
_cell_length_a   5.11468068
_cell_length_b   6.39912156
_cell_length_c   8.59754537
_cell_angle_alpha   90.00000000
_cell_angle_beta   93.47544088
_cell_angle_gamma   90.00000000
_symmetry_Int_Tables_number   1
_chemical_formula_structural   Li2TiPCO7
_chemical_formula_sum   'Li4 Ti2 P2 C2 O14'
_cell_volume   280.87552916
_cell_formula_units_Z   2
loop_
 _symmetry_equiv_pos_site_id
 _symmetry_equiv_pos_as_xyz
  1  'x, y, z'
loop_
 _atom_site_type_symbol
 _atom_site_label
 _atom_site_symmetry_multiplicity
 _atom_site_fract_x
 _atom_site_fract_y
 _atom_site_fract_z
 _atom_site_occupancy
  Li  Li0  1  0.750742  0.009095  0.220973  1
  Li  Li1  1  0.249258  0.990905  0.779027  1
  Li  Li2  1  0.249258  0.509095  0.779027  1
  Li  Li3  1  0.750742  0.490905  0.220973  1
  Ti  Ti4  1  0.794575  0.750000  0.657948  1
  Ti  Ti5  1  0.205425  0.250000  0.342052  1
  P  P6  1  0.712825  0.250000  0.576685  1
  P  P7  1  0.287175  0.750000  0.423315  1
  C  C8  1  0.731063  0.750000  0.945939  1
  C  C9  1  0.268937  0.250000  0.054061  1
  O  O10  1  0.530710  0.750000  0.839799  1
  O  O11  1  0.961480  0.750000  0.885787  1
  O  O12  1  0.469290  0.250000  0.160201  1
  O  O13  1  0.182926  0.943905  0.331647  1
  O  O14  1  0.182926  0.556095  0.331647  1
  O  O15  1  0.181160  0.750000  0.589285  1
  O  O16  1  0.818840  0.250000  0.410715  1
  O  O17  1  0.817074  0.443905  0.668353  1
  O  O18  1  0.817074  0.056095  0.668353  1
  O  O19  1  0.408597  0.250000  0.563354  1
  O  O20  1  0.700593  0.750000  0.090657  1
  O  O21  1  0.299407  0.250000  0.909343  1
  O  O22  1  0.591403  0.750000  0.436646  1
  O  O23  1  0.038520  0.250000  0.114213  1
