# generated using pymatgen
data_NiH12C2(SN3)2
_symmetry_space_group_name_H-M   'P 1'
_cell_length_a   7.10526636
_cell_length_b   7.10526636
_cell_length_c   5.72157696
_cell_angle_alpha   77.32670583
_cell_angle_beta   102.67329417
_cell_angle_gamma   108.84264496
_symmetry_Int_Tables_number   1
_chemical_formula_structural   NiH12C2(SN3)2
_chemical_formula_sum   'Ni1 H12 C2 S2 N6'
_cell_volume   263.23911629
_cell_formula_units_Z   1
loop_
 _symmetry_equiv_pos_site_id
 _symmetry_equiv_pos_as_xyz
  1  'x, y, z'
loop_
 _atom_site_type_symbol
 _atom_site_label
 _atom_site_symmetry_multiplicity
 _atom_site_fract_x
 _atom_site_fract_y
 _atom_site_fract_z
 _atom_site_occupancy
  Ni  Ni0  1  0.000000  0.000000  0.000000  1
  H  H1  1  0.996606  0.714642  0.749468  1
  H  H2  1  0.714642  0.996606  0.250532  1
  H  H3  1  0.003394  0.285358  0.250532  1
  H  H4  1  0.285358  0.003394  0.749468  1
  H  H5  1  0.762111  0.721054  0.724477  1
  H  H6  1  0.721054  0.762111  0.275523  1
  H  H7  1  0.237889  0.278946  0.275523  1
  H  H8  1  0.278946  0.237889  0.724477  1
  H  H9  1  0.869126  0.608443  0.976688  1
  H  H10  1  0.608443  0.869126  0.023312  1
  H  H11  1  0.130874  0.391557  0.023312  1
  H  H12  1  0.391557  0.130874  0.976688  1
  C  C13  1  0.763900  0.236100  0.547027  1
  C  C14  1  0.236100  0.763900  0.452973  1
  S  S15  1  0.643780  0.356220  0.317187  1
  S  S16  1  0.356220  0.643780  0.682813  1
  N  N17  1  0.104450  0.269452  0.158718  1
  N  N18  1  0.269452  0.104450  0.841282  1
  N  N19  1  0.853182  0.146818  0.708522  1
  N  N20  1  0.146818  0.853182  0.291478  1
  N  N21  1  0.895550  0.730548  0.841282  1
  N  N22  1  0.730548  0.895550  0.158718  1
