# generated using pymatgen
data_LiCu5P3O13
_symmetry_space_group_name_H-M   'P 1'
_cell_length_a   6.24785731
_cell_length_b   8.24237191
_cell_length_c   9.90626012
_cell_angle_alpha   92.35063029
_cell_angle_beta   90.23161432
_cell_angle_gamma   90.35820260
_symmetry_Int_Tables_number   1
_chemical_formula_structural   LiCu5P3O13
_chemical_formula_sum   'Li2 Cu10 P6 O26'
_cell_volume   509.70035425
_cell_formula_units_Z   2
loop_
 _symmetry_equiv_pos_site_id
 _symmetry_equiv_pos_as_xyz
  1  'x, y, z'
loop_
 _atom_site_type_symbol
 _atom_site_label
 _atom_site_symmetry_multiplicity
 _atom_site_fract_x
 _atom_site_fract_y
 _atom_site_fract_z
 _atom_site_occupancy
  Li  Li0  1  0.750826  0.566842  0.544669  1
  Li  Li1  1  0.249174  0.433158  0.455331  1
  Cu  Cu2  1  0.498603  0.860851  0.214819  1
  Cu  Cu3  1  0.256837  0.567712  0.102567  1
  Cu  Cu4  1  0.995514  0.859784  0.216084  1
  Cu  Cu5  1  0.004486  0.140216  0.783916  1
  Cu  Cu6  1  0.501397  0.139149  0.785181  1
  Cu  Cu7  1  0.748831  0.221457  0.455386  1
  Cu  Cu8  1  0.743163  0.432288  0.897433  1
  Cu  Cu9  1  0.251169  0.778543  0.544614  1
  Cu  Cu10  1  0.254945  0.854259  0.920722  1
  Cu  Cu11  1  0.745055  0.145741  0.079278  1
  P  P12  1  0.252723  0.486400  0.769041  1
  P  P13  1  0.249781  0.131966  0.507816  1
  P  P14  1  0.749313  0.841775  0.886060  1
  P  P15  1  0.250687  0.158225  0.113940  1
  P  P16  1  0.747277  0.513600  0.230959  1
  P  P17  1  0.750219  0.868034  0.492184  1
  O  O18  1  0.757412  0.200147  0.884004  1
  O  O19  1  0.543162  0.901380  0.812652  1
  O  O20  1  0.758411  0.658228  0.879381  1
  O  O21  1  0.745412  0.908624  0.036659  1
  O  O22  1  0.748697  0.385406  0.111186  1
  O  O23  1  0.952571  0.622623  0.219890  1
  O  O24  1  0.251303  0.614594  0.888814  1
  O  O25  1  0.249472  0.092315  0.663514  1
  O  O26  1  0.750528  0.907685  0.336486  1
  O  O27  1  0.058197  0.241670  0.473229  1
  O  O28  1  0.045060  0.091611  0.184876  1
  O  O29  1  0.251786  0.965488  0.430295  1
  O  O30  1  0.558824  0.755529  0.524367  1
  O  O31  1  0.242588  0.799853  0.115996  1
  O  O32  1  0.540108  0.618371  0.220471  1
  O  O33  1  0.249387  0.563975  0.628546  1
  O  O34  1  0.941803  0.758330  0.526771  1
  O  O35  1  0.748214  0.034512  0.569705  1
  O  O36  1  0.241589  0.341772  0.120619  1
  O  O37  1  0.047429  0.377377  0.780110  1
  O  O38  1  0.954940  0.908389  0.815124  1
  O  O39  1  0.750613  0.436025  0.371454  1
  O  O40  1  0.459892  0.381629  0.779529  1
  O  O41  1  0.254588  0.091376  0.963341  1
  O  O42  1  0.456838  0.098620  0.187348  1
  O  O43  1  0.441176  0.244471  0.475633  1
