# generated using pymatgen
data_In5Bi3
_symmetry_space_group_name_H-M   'P 1'
_cell_length_a   8.99298772
_cell_length_b   8.99298772
_cell_length_c   8.99298772
_cell_angle_alpha   124.13612856
_cell_angle_beta   124.13612856
_cell_angle_gamma   82.97386609
_symmetry_Int_Tables_number   1
_chemical_formula_structural   In5Bi3
_chemical_formula_sum   'In10 Bi6'
_cell_volume   478.17948230
_cell_formula_units_Z   2
loop_
 _symmetry_equiv_pos_site_id
 _symmetry_equiv_pos_as_xyz
  1  'x, y, z'
loop_
 _atom_site_type_symbol
 _atom_site_label
 _atom_site_symmetry_multiplicity
 _atom_site_fract_x
 _atom_site_fract_y
 _atom_site_fract_z
 _atom_site_occupancy
  In  In0  1  0.000000  0.000000  0.000000  1
  In  In1  1  0.500000  0.500000  0.000000  1
  In  In2  1  0.811975  0.311975  0.792403  1
  In  In3  1  0.311975  0.519572  0.500000  1
  In  In4  1  0.019572  0.811975  0.500000  1
  In  In5  1  0.688025  0.480428  0.500000  1
  In  In6  1  0.980428  0.188025  0.500000  1
  In  In7  1  0.480428  0.980428  0.792403  1
  In  In8  1  0.188025  0.688025  0.207597  1
  In  In9  1  0.519572  0.019572  0.207597  1
  Bi  Bi10  1  0.250000  0.250000  0.000000  1
  Bi  Bi11  1  0.750000  0.750000  0.000000  1
  Bi  Bi12  1  0.850781  0.350781  0.201562  1
  Bi  Bi13  1  0.350781  0.149219  0.500000  1
  Bi  Bi14  1  0.649219  0.850781  0.500000  1
  Bi  Bi15  1  0.149219  0.649219  0.798438  1
