# generated using pymatgen
data_Ti3Zn2O8
_symmetry_space_group_name_H-M   'P 1'
_cell_length_a   8.48263376
_cell_length_b   8.48263376
_cell_length_c   8.48263376
_cell_angle_alpha   90.00000000
_cell_angle_beta   90.00000000
_cell_angle_gamma   90.00000000
_symmetry_Int_Tables_number   1
_chemical_formula_structural   Ti3Zn2O8
_chemical_formula_sum   'Ti12 Zn8 O32'
_cell_volume   610.36855269
_cell_formula_units_Z   4
loop_
 _symmetry_equiv_pos_site_id
 _symmetry_equiv_pos_as_xyz
  1  'x, y, z'
loop_
 _atom_site_type_symbol
 _atom_site_label
 _atom_site_symmetry_multiplicity
 _atom_site_fract_x
 _atom_site_fract_y
 _atom_site_fract_z
 _atom_site_occupancy
  Ti  Ti0  1  0.625000  0.135905  0.114095  1
  Ti  Ti1  1  0.614095  0.875000  0.864095  1
  Ti  Ti2  1  0.635905  0.385905  0.375000  1
  Ti  Ti3  1  0.364095  0.885905  0.125000  1
  Ti  Ti4  1  0.885905  0.125000  0.364095  1
  Ti  Ti5  1  0.114095  0.625000  0.135905  1
  Ti  Ti6  1  0.385905  0.375000  0.635905  1
  Ti  Ti7  1  0.864095  0.614095  0.875000  1
  Ti  Ti8  1  0.135905  0.114095  0.625000  1
  Ti  Ti9  1  0.375000  0.635905  0.385905  1
  Ti  Ti10  1  0.875000  0.864095  0.614095  1
  Ti  Ti11  1  0.125000  0.364095  0.885905  1
  Zn  Zn12  1  0.256028  0.256028  0.256028  1
  Zn  Zn13  1  0.006028  0.493972  0.506028  1
  Zn  Zn14  1  0.493972  0.506028  0.006028  1
  Zn  Zn15  1  0.506028  0.006028  0.493972  1
  Zn  Zn16  1  0.756028  0.243972  0.743972  1
  Zn  Zn17  1  0.243972  0.743972  0.756028  1
  Zn  Zn18  1  0.743972  0.756028  0.243972  1
  Zn  Zn19  1  0.993972  0.993972  0.993972  1
  O  O20  1  0.109207  0.145158  0.858521  1
  O  O21  1  0.609207  0.354842  0.141479  1
  O  O22  1  0.145158  0.858521  0.109207  1
  O  O23  1  0.854842  0.358521  0.390793  1
  O  O24  1  0.858521  0.109207  0.145158  1
  O  O25  1  0.641479  0.890793  0.645158  1
  O  O26  1  0.359207  0.608521  0.604842  1
  O  O27  1  0.859207  0.891479  0.395158  1
  O  O28  1  0.640793  0.108521  0.895158  1
  O  O29  1  0.891479  0.395158  0.859207  1
  O  O30  1  0.895158  0.640793  0.108521  1
  O  O31  1  0.395158  0.859207  0.891479  1
  O  O32  1  0.608521  0.604842  0.359207  1
  O  O33  1  0.604842  0.359207  0.608521  1
  O  O34  1  0.108521  0.895158  0.640793  1
  O  O35  1  0.391479  0.104842  0.140793  1
  O  O36  1  0.104842  0.140793  0.391479  1
  O  O37  1  0.141479  0.609207  0.354842  1
  O  O38  1  0.358521  0.390793  0.854842  1
  O  O39  1  0.645158  0.641479  0.890793  1
  O  O40  1  0.391341  0.391341  0.391341  1
  O  O41  1  0.141341  0.358659  0.641341  1
  O  O42  1  0.641341  0.141341  0.358659  1
  O  O43  1  0.358659  0.641341  0.141341  1
  O  O44  1  0.108659  0.608659  0.891341  1
  O  O45  1  0.891341  0.108659  0.608659  1
  O  O46  1  0.608659  0.891341  0.108659  1
  O  O47  1  0.858659  0.858659  0.858659  1
  O  O48  1  0.140793  0.391479  0.104842  1
  O  O49  1  0.890793  0.645158  0.641479  1
  O  O50  1  0.390793  0.854842  0.358521  1
  O  O51  1  0.354842  0.141479  0.609207  1
