# generated using pymatgen
data_KSb4F13
_symmetry_space_group_name_H-M   'P 1'
_cell_length_a   7.63984536
_cell_length_b   7.63984536
_cell_length_c   7.63984536
_cell_angle_alpha   100.10871800
_cell_angle_beta   100.10871800
_cell_angle_gamma   130.46375971
_symmetry_Int_Tables_number   1
_chemical_formula_structural   KSb4F13
_chemical_formula_sum   'K1 Sb4 F13'
_cell_volume   308.05244513
_cell_formula_units_Z   1
loop_
 _symmetry_equiv_pos_site_id
 _symmetry_equiv_pos_as_xyz
  1  'x, y, z'
loop_
 _atom_site_type_symbol
 _atom_site_label
 _atom_site_symmetry_multiplicity
 _atom_site_fract_x
 _atom_site_fract_y
 _atom_site_fract_z
 _atom_site_occupancy
  K  K0  1  0.500000  0.500000  0.000000  1
  Sb  Sb1  1  0.985614  0.705113  0.683989  1
  Sb  Sb2  1  0.698375  0.014386  0.719499  1
  Sb  Sb3  1  0.294887  0.978876  0.280501  1
  Sb  Sb4  1  0.021124  0.301625  0.316011  1
  F  F5  1  0.533232  0.667036  0.667677  1
  F  F6  1  0.134444  0.466768  0.133803  1
  F  F7  1  0.332964  0.000641  0.866197  1
  F  F8  1  0.999359  0.865556  0.332323  1
  F  F9  1  0.313139  0.237142  0.225598  1
  F  F10  1  0.250000  0.750000  0.500000  1
  F  F11  1  0.516588  0.235159  0.549790  1
  F  F12  1  0.033202  0.483412  0.718571  1
  F  F13  1  0.764841  0.314631  0.281429  1
  F  F14  1  0.685369  0.966798  0.450210  1
  F  F15  1  0.011544  0.087542  0.774402  1
  F  F16  1  0.762858  0.988456  0.075997  1
  F  F17  1  0.912458  0.686861  0.924003  1
