# generated using pymatgen
data_CeSnPt
_symmetry_space_group_name_H-M   'P 1'
_cell_length_a   4.65012713
_cell_length_b   7.40549237
_cell_length_c   8.08439535
_cell_angle_alpha   90.00000000
_cell_angle_beta   90.00000000
_cell_angle_gamma   90.00000000
_symmetry_Int_Tables_number   1
_chemical_formula_structural   CeSnPt
_chemical_formula_sum   'Ce4 Sn4 Pt4'
_cell_volume   278.39812671
_cell_formula_units_Z   4
loop_
 _symmetry_equiv_pos_site_id
 _symmetry_equiv_pos_as_xyz
  1  'x, y, z'
loop_
 _atom_site_type_symbol
 _atom_site_label
 _atom_site_symmetry_multiplicity
 _atom_site_fract_x
 _atom_site_fract_y
 _atom_site_fract_z
 _atom_site_occupancy
  Ce  Ce0  1  0.750000  0.487859  0.802192  1
  Ce  Ce1  1  0.250000  0.012141  0.302192  1
  Ce  Ce2  1  0.750000  0.987859  0.697808  1
  Ce  Ce3  1  0.250000  0.512141  0.197808  1
  Sn  Sn4  1  0.250000  0.676939  0.584760  1
  Sn  Sn5  1  0.250000  0.176939  0.915240  1
  Sn  Sn6  1  0.750000  0.323061  0.415240  1
  Sn  Sn7  1  0.750000  0.823061  0.084760  1
  Pt  Pt8  1  0.250000  0.781376  0.911729  1
  Pt  Pt9  1  0.250000  0.281376  0.588271  1
  Pt  Pt10  1  0.750000  0.718624  0.411729  1
  Pt  Pt11  1  0.750000  0.218624  0.088271  1
