# generated using pymatgen
data_H4CSN2
_symmetry_space_group_name_H-M   'P 1'
_cell_length_a   5.74980095
_cell_length_b   7.92450374
_cell_length_c   8.66005262
_cell_angle_alpha   90.00000000
_cell_angle_beta   90.00000000
_cell_angle_gamma   90.00000000
_symmetry_Int_Tables_number   1
_chemical_formula_structural   H4CSN2
_chemical_formula_sum   'H16 C4 S4 N8'
_cell_volume   394.58940128
_cell_formula_units_Z   4
loop_
 _symmetry_equiv_pos_site_id
 _symmetry_equiv_pos_as_xyz
  1  'x, y, z'
loop_
 _atom_site_type_symbol
 _atom_site_label
 _atom_site_symmetry_multiplicity
 _atom_site_fract_x
 _atom_site_fract_y
 _atom_site_fract_z
 _atom_site_occupancy
  H  H0  1  0.804831  0.093187  0.487107  1
  H  H1  1  0.304831  0.406813  0.512893  1
  H  H2  1  0.695169  0.593187  0.012893  1
  H  H3  1  0.195169  0.906813  0.987107  1
  H  H4  1  0.195169  0.906813  0.512893  1
  H  H5  1  0.695169  0.593187  0.487107  1
  H  H6  1  0.304831  0.406813  0.987107  1
  H  H7  1  0.804831  0.093187  0.012893  1
  H  H8  1  0.595372  0.205841  0.379023  1
  H  H9  1  0.595372  0.205841  0.120977  1
  H  H10  1  0.904628  0.705841  0.120977  1
  H  H11  1  0.404628  0.794159  0.879023  1
  H  H12  1  0.404628  0.794159  0.620977  1
  H  H13  1  0.904628  0.705841  0.379023  1
  H  H14  1  0.095372  0.294159  0.879023  1
  H  H15  1  0.095372  0.294159  0.620977  1
  C  C16  1  0.660089  0.581770  0.250000  1
  C  C17  1  0.839911  0.081770  0.250000  1
  C  C18  1  0.339911  0.418230  0.750000  1
  C  C19  1  0.160089  0.918230  0.750000  1
  S  S20  1  0.907586  0.034413  0.750000  1
  S  S21  1  0.407586  0.465587  0.250000  1
  S  S22  1  0.592414  0.534413  0.750000  1
  S  S23  1  0.092414  0.965587  0.250000  1
  N  N24  1  0.738380  0.129190  0.382308  1
  N  N25  1  0.761620  0.629190  0.382308  1
  N  N26  1  0.238380  0.370810  0.882308  1
  N  N27  1  0.738380  0.129190  0.117692  1
  N  N28  1  0.261620  0.870810  0.617692  1
  N  N29  1  0.261620  0.870810  0.882308  1
  N  N30  1  0.761620  0.629190  0.117692  1
  N  N31  1  0.238380  0.370810  0.617692  1
