# generated using pymatgen
data_Na4Co7(PO4)6
_symmetry_space_group_name_H-M   'P 1'
_cell_length_a   9.01306762
_cell_length_b   9.01306762
_cell_length_c   6.54024613
_cell_angle_alpha   80.72568675
_cell_angle_beta   99.27431325
_cell_angle_gamma   72.19527303
_symmetry_Int_Tables_number   1
_chemical_formula_structural   Na4Co7(PO4)6
_chemical_formula_sum   'Na4 Co7 P6 O24'
_cell_volume   486.55909005
_cell_formula_units_Z   1
loop_
 _symmetry_equiv_pos_site_id
 _symmetry_equiv_pos_as_xyz
  1  'x, y, z'
loop_
 _atom_site_type_symbol
 _atom_site_label
 _atom_site_symmetry_multiplicity
 _atom_site_fract_x
 _atom_site_fract_y
 _atom_site_fract_z
 _atom_site_occupancy
  Na  Na0  1  0.940567  0.059433  0.479868  1
  Na  Na1  1  0.323978  0.676022  0.557844  1
  Na  Na2  1  0.708873  0.520434  0.510865  1
  Na  Na3  1  0.479566  0.291127  0.510865  1
  Co  Co4  1  0.360495  0.996622  0.817671  1
  Co  Co5  1  0.003378  0.639505  0.817671  1
  Co  Co6  1  0.015559  0.356890  0.184274  1
  Co  Co7  1  0.643110  0.984441  0.184274  1
  Co  Co8  1  0.662582  0.652392  0.997947  1
  Co  Co9  1  0.347608  0.337418  0.997947  1
  Co  Co10  1  0.005012  0.994988  0.003595  1
  P  P11  1  0.679449  0.320551  0.943419  1
  P  P12  1  0.333267  0.666733  0.077405  1
  P  P13  1  0.285527  0.080209  0.289722  1
  P  P14  1  0.919791  0.714473  0.289722  1
  P  P15  1  0.096542  0.278006  0.711378  1
  P  P16  1  0.721994  0.903458  0.711378  1
  O  O17  1  0.558337  0.441663  0.749460  1
  O  O18  1  0.452151  0.547849  0.272888  1
  O  O19  1  0.805107  0.194893  0.874152  1
  O  O20  1  0.205173  0.794827  0.139597  1
  O  O21  1  0.424077  0.747498  0.928163  1
  O  O22  1  0.252502  0.575923  0.928163  1
  O  O23  1  0.762227  0.413539  0.084576  1
  O  O24  1  0.586461  0.237773  0.084576  1
  O  O25  1  0.983832  0.342432  0.489859  1
  O  O26  1  0.657568  0.016168  0.489859  1
  O  O27  1  0.350156  0.972142  0.513019  1
  O  O28  1  0.027858  0.649844  0.513019  1
  O  O29  1  0.033636  0.387374  0.863741  1
  O  O30  1  0.612626  0.966364  0.863741  1
  O  O31  1  0.393099  0.016268  0.136264  1
  O  O32  1  0.983732  0.606901  0.136264  1
  O  O33  1  0.111794  0.097963  0.783720  1
  O  O34  1  0.280199  0.260010  0.270620  1
  O  O35  1  0.739990  0.719801  0.270620  1
  O  O36  1  0.276369  0.267791  0.725574  1
  O  O37  1  0.732209  0.723631  0.725574  1
  O  O38  1  0.895785  0.896923  0.220042  1
  O  O39  1  0.103077  0.104215  0.220042  1
  O  O40  1  0.902037  0.888206  0.783720  1
