# generated using pymatgen
data_CaH4SO6
_symmetry_space_group_name_H-M   'P 1'
_cell_length_a   8.19557327
_cell_length_b   8.19557327
_cell_length_c   5.76418689
_cell_angle_alpha   80.76294360
_cell_angle_beta   99.23705640
_cell_angle_gamma   46.04663867
_symmetry_Int_Tables_number   1
_chemical_formula_structural   CaH4SO6
_chemical_formula_sum   'Ca2 H8 S2 O12'
_cell_volume   254.16540930
_cell_formula_units_Z   2
loop_
 _symmetry_equiv_pos_site_id
 _symmetry_equiv_pos_as_xyz
  1  'x, y, z'
loop_
 _atom_site_type_symbol
 _atom_site_label
 _atom_site_symmetry_multiplicity
 _atom_site_fract_x
 _atom_site_fract_y
 _atom_site_fract_z
 _atom_site_occupancy
  Ca  Ca0  1  0.329921  0.329921  0.750000  1
  Ca  Ca1  1  0.670079  0.670079  0.250000  1
  H  H2  1  0.247457  0.739193  0.409989  1
  H  H3  1  0.739193  0.247457  0.090011  1
  H  H4  1  0.752543  0.260807  0.590011  1
  H  H5  1  0.260807  0.752543  0.909989  1
  H  H6  1  0.840044  0.340051  0.757649  1
  H  H7  1  0.340051  0.840044  0.742351  1
  H  H8  1  0.159956  0.659949  0.242351  1
  H  H9  1  0.659949  0.159956  0.257649  1
  S  S10  1  0.828551  0.828551  0.750000  1
  S  S11  1  0.171449  0.171449  0.250000  1
  O  O12  1  0.082037  0.687072  0.915795  1
  O  O13  1  0.313509  0.141703  0.095249  1
  O  O14  1  0.686491  0.858297  0.904751  1
  O  O15  1  0.858297  0.686491  0.595249  1
  O  O16  1  0.362742  0.777217  0.919098  1
  O  O17  1  0.777217  0.362742  0.580902  1
  O  O18  1  0.637258  0.222783  0.080902  1
  O  O19  1  0.222783  0.637258  0.419098  1
  O  O20  1  0.917963  0.312928  0.084205  1
  O  O21  1  0.312928  0.917963  0.415795  1
  O  O22  1  0.141703  0.313509  0.404751  1
  O  O23  1  0.687072  0.082037  0.584205  1
