# generated using pymatgen
data_NdCu3(RuO3)4
_symmetry_space_group_name_H-M   'P 1'
_cell_length_a   6.52413407
_cell_length_b   6.52413407
_cell_length_c   6.52413407
_cell_angle_alpha   109.47122063
_cell_angle_beta   109.47122063
_cell_angle_gamma   109.47122063
_symmetry_Int_Tables_number   1
_chemical_formula_structural   NdCu3(RuO3)4
_chemical_formula_sum   'Nd1 Cu3 Ru4 O12'
_cell_volume   213.76999180
_cell_formula_units_Z   1
loop_
 _symmetry_equiv_pos_site_id
 _symmetry_equiv_pos_as_xyz
  1  'x, y, z'
loop_
 _atom_site_type_symbol
 _atom_site_label
 _atom_site_symmetry_multiplicity
 _atom_site_fract_x
 _atom_site_fract_y
 _atom_site_fract_z
 _atom_site_occupancy
  Nd  Nd0  1  0.000000  0.000000  0.000000  1
  Cu  Cu1  1  0.500000  1.000000  0.500000  1
  Cu  Cu2  1  0.000000  0.500000  0.500000  1
  Cu  Cu3  1  0.500000  0.500000  0.000000  1
  Ru  Ru4  1  0.500000  1.000000  0.000000  1
  Ru  Ru5  1  0.000000  1.000000  0.500000  1
  Ru  Ru6  1  0.000000  0.500000  0.000000  1
  Ru  Ru7  1  0.500000  0.500000  0.500000  1
  O  O8  1  0.695383  0.170071  0.865453  1
  O  O9  1  0.304617  0.829929  0.134547  1
  O  O10  1  0.695383  0.829929  0.525312  1
  O  O11  1  0.170071  0.474688  0.304617  1
  O  O12  1  0.474688  0.304617  0.170071  1
  O  O13  1  0.865453  0.695383  0.170071  1
  O  O14  1  0.829929  0.134547  0.304617  1
  O  O15  1  0.525312  0.695383  0.829929  1
  O  O16  1  0.304617  0.170071  0.474688  1
  O  O17  1  0.829929  0.525312  0.695383  1
  O  O18  1  0.134547  0.304617  0.829929  1
  O  O19  1  0.170071  0.865453  0.695383  1
