# generated using pymatgen
data_Mg2Cu
_symmetry_space_group_name_H-M   'P 1'
_cell_length_a   10.21424010
_cell_length_b   9.52573517
_cell_length_c   5.22844490
_cell_angle_alpha   82.06819035
_cell_angle_beta   67.46887387
_cell_angle_gamma   30.46293578
_symmetry_Int_Tables_number   1
_chemical_formula_structural   Mg2Cu
_chemical_formula_sum   'Mg8 Cu4'
_cell_volume   217.21267914
_cell_formula_units_Z   4
loop_
 _symmetry_equiv_pos_site_id
 _symmetry_equiv_pos_as_xyz
  1  'x, y, z'
loop_
 _atom_site_type_symbol
 _atom_site_label
 _atom_site_symmetry_multiplicity
 _atom_site_fract_x
 _atom_site_fract_y
 _atom_site_fract_z
 _atom_site_occupancy
  Mg  Mg0  1  0.083299  0.083299  0.916701  1
  Mg  Mg1  1  0.916701  0.916701  0.083299  1
  Mg  Mg2  1  0.166701  0.166701  0.333299  1
  Mg  Mg3  1  0.333299  0.333299  0.166701  1
  Mg  Mg4  1  0.584242  0.915758  0.584242  1
  Mg  Mg5  1  0.915758  0.584242  0.915758  1
  Mg  Mg6  1  0.665758  0.334242  0.665758  1
  Mg  Mg7  1  0.334242  0.665758  0.334242  1
  Cu  Cu8  1  0.626682  0.626682  0.373318  1
  Cu  Cu9  1  0.373318  0.373318  0.626682  1
  Cu  Cu10  1  0.623318  0.623318  0.876682  1
  Cu  Cu11  1  0.876682  0.876682  0.623318  1
