# generated using pymatgen
data_FeCu2SnSe4
_symmetry_space_group_name_H-M   'P 1'
_cell_length_a   6.98012921
_cell_length_b   6.98012921
_cell_length_c   6.98012921
_cell_angle_alpha   131.19259173
_cell_angle_beta   131.19259173
_cell_angle_gamma   71.50726932
_symmetry_Int_Tables_number   1
_chemical_formula_structural   FeCu2SnSe4
_chemical_formula_sum   'Fe1 Cu2 Sn1 Se4'
_cell_volume   188.45260354
_cell_formula_units_Z   1
loop_
 _symmetry_equiv_pos_site_id
 _symmetry_equiv_pos_as_xyz
  1  'x, y, z'
loop_
 _atom_site_type_symbol
 _atom_site_label
 _atom_site_symmetry_multiplicity
 _atom_site_fract_x
 _atom_site_fract_y
 _atom_site_fract_z
 _atom_site_occupancy
  Fe  Fe0  1  0.000000  0.000000  0.000000  1
  Cu  Cu1  1  0.750000  0.250000  0.500000  1
  Cu  Cu2  1  0.250000  0.750000  0.500000  1
  Sn  Sn3  1  0.500000  0.500000  0.000000  1
  Se  Se4  1  0.364008  0.903582  0.000000  1
  Se  Se5  1  0.635992  0.635992  0.539574  1
  Se  Se6  1  0.096418  0.096418  0.460426  1
  Se  Se7  1  0.903582  0.364008  1.000000  1
