# generated using pymatgen
data_YMn12
_symmetry_space_group_name_H-M   'P 1'
_cell_length_a   6.30959727
_cell_length_b   6.30959727
_cell_length_c   6.30959727
_cell_angle_alpha   98.01050658
_cell_angle_beta   98.01050658
_cell_angle_gamma   136.16113974
_symmetry_Int_Tables_number   1
_chemical_formula_structural   YMn12
_chemical_formula_sum   'Y1 Mn12'
_cell_volume   161.40608896
_cell_formula_units_Z   1
loop_
 _symmetry_equiv_pos_site_id
 _symmetry_equiv_pos_as_xyz
  1  'x, y, z'
loop_
 _atom_site_type_symbol
 _atom_site_label
 _atom_site_symmetry_multiplicity
 _atom_site_fract_x
 _atom_site_fract_y
 _atom_site_fract_z
 _atom_site_occupancy
  Y  Y0  1  0.000000  0.000000  0.000000  1
  Mn  Mn1  1  0.500000  1.000000  1.000000  1
  Mn  Mn2  1  1.000000  0.365377  0.365377  1
  Mn  Mn3  1  0.634623  1.000000  0.634623  1
  Mn  Mn4  1  0.365377  1.000000  0.365377  1
  Mn  Mn5  1  1.000000  0.634623  0.634623  1
  Mn  Mn6  1  0.500000  0.270443  0.770443  1
  Mn  Mn7  1  0.729557  0.500000  0.229557  1
  Mn  Mn8  1  0.270443  0.500000  0.770443  1
  Mn  Mn9  1  0.500000  0.729557  0.229557  1
  Mn  Mn10  1  1.000000  0.500000  1.000000  1
  Mn  Mn11  1  1.000000  1.000000  0.500000  1
  Mn  Mn12  1  0.500000  0.500000  0.500000  1
