# generated using pymatgen
data_Ti3(BiO3)4
_symmetry_space_group_name_H-M   'P 1'
_cell_length_a   16.93558584
_cell_length_b   16.93558584
_cell_length_c   5.47042459
_cell_angle_alpha   90.00000000
_cell_angle_beta   90.00000000
_cell_angle_gamma   161.18667839
_symmetry_Int_Tables_number   1
_chemical_formula_structural   Ti3(BiO3)4
_chemical_formula_sum   'Ti6 Bi8 O24'
_cell_volume   505.97850174
_cell_formula_units_Z   2
loop_
 _symmetry_equiv_pos_site_id
 _symmetry_equiv_pos_as_xyz
  1  'x, y, z'
loop_
 _atom_site_type_symbol
 _atom_site_label
 _atom_site_symmetry_multiplicity
 _atom_site_fract_x
 _atom_site_fract_y
 _atom_site_fract_z
 _atom_site_occupancy
  Ti  Ti0  1  0.827097  0.081514  0.496637  1
  Ti  Ti1  1  0.081514  0.827097  0.503363  1
  Ti  Ti2  1  0.327097  0.581514  0.003363  1
  Ti  Ti3  1  0.581514  0.327097  0.996637  1
  Ti  Ti4  1  0.961115  0.961115  0.500000  1
  Ti  Ti5  1  0.461115  0.461115  0.000000  1
  Bi  Bi6  1  0.819820  0.242805  0.974807  1
  Bi  Bi7  1  0.242805  0.819820  0.025193  1
  Bi  Bi8  1  0.319820  0.742805  0.525193  1
  Bi  Bi9  1  0.742805  0.319820  0.474807  1
  Bi  Bi10  1  0.937178  0.069119  0.996952  1
  Bi  Bi11  1  0.069119  0.937178  0.003048  1
  Bi  Bi12  1  0.437178  0.569119  0.503048  1
  Bi  Bi13  1  0.569119  0.437178  0.496952  1
  O  O14  1  0.517002  0.764808  0.296563  1
  O  O15  1  0.764808  0.517002  0.703437  1
  O  O16  1  0.017002  0.264808  0.203437  1
  O  O17  1  0.264808  0.017002  0.796563  1
  O  O18  1  0.597897  0.816191  0.776725  1
  O  O19  1  0.816191  0.597897  0.223275  1
  O  O20  1  0.097897  0.316191  0.723275  1
  O  O21  1  0.316191  0.097897  0.276725  1
  O  O22  1  0.765552  0.124148  0.564216  1
  O  O23  1  0.124148  0.765552  0.435784  1
  O  O24  1  0.265552  0.624148  0.935784  1
  O  O25  1  0.624148  0.265552  0.064216  1
  O  O26  1  0.850647  0.966505  0.423494  1
  O  O27  1  0.966505  0.850647  0.576506  1
  O  O28  1  0.185334  0.164927  0.247099  1
  O  O29  1  0.164927  0.185334  0.752901  1
  O  O30  1  0.685334  0.664927  0.252901  1
  O  O31  1  0.664927  0.685334  0.747099  1
  O  O32  1  0.008067  0.506474  0.241126  1
  O  O33  1  0.506474  0.008067  0.758874  1
  O  O34  1  0.508067  0.006474  0.258874  1
  O  O35  1  0.006474  0.508067  0.741126  1
  O  O36  1  0.466505  0.350647  0.923494  1
  O  O37  1  0.350647  0.466505  0.076506  1
