# generated using pymatgen
data_La3B2N5
_symmetry_space_group_name_H-M   'P 1'
_cell_length_a   7.65741031
_cell_length_b   14.83516731
_cell_length_c   9.70057776
_cell_angle_alpha   90.00000000
_cell_angle_beta   90.00099345
_cell_angle_gamma   90.00000000
_symmetry_Int_Tables_number   1
_chemical_formula_structural   La3B2N5
_chemical_formula_sum   'La24 B16 N40'
_cell_volume   1101.97557466
_cell_formula_units_Z   8
loop_
 _symmetry_equiv_pos_site_id
 _symmetry_equiv_pos_as_xyz
  1  'x, y, z'
loop_
 _atom_site_type_symbol
 _atom_site_label
 _atom_site_symmetry_multiplicity
 _atom_site_fract_x
 _atom_site_fract_y
 _atom_site_fract_z
 _atom_site_occupancy
  La  La0  1  0.378257  0.193788  0.297844  1
  La  La1  1  0.121743  0.693788  0.702156  1
  La  La2  1  0.621743  0.806212  0.702156  1
  La  La3  1  0.878257  0.306212  0.297844  1
  La  La4  1  0.129634  0.111633  0.010927  1
  La  La5  1  0.370366  0.611633  0.989073  1
  La  La6  1  0.870366  0.888367  0.989073  1
  La  La7  1  0.629634  0.388367  0.010927  1
  La  La8  1  0.138074  0.965768  0.317824  1
  La  La9  1  0.361926  0.465768  0.682176  1
  La  La10  1  0.861926  0.034232  0.682176  1
  La  La11  1  0.638074  0.534232  0.317824  1
  La  La12  1  0.623417  0.109690  0.004501  1
  La  La13  1  0.876583  0.609690  0.995499  1
  La  La14  1  0.376583  0.890310  0.995499  1
  La  La15  1  0.123417  0.390310  0.004501  1
  La  La16  1  0.877242  0.753076  0.326634  1
  La  La17  1  0.622758  0.253076  0.673366  1
  La  La18  1  0.122758  0.246924  0.673366  1
  La  La19  1  0.377242  0.746924  0.326634  1
  La  La20  1  0.617344  0.969528  0.325405  1
  La  La21  1  0.882656  0.469528  0.674595  1
  La  La22  1  0.382656  0.030472  0.674595  1
  La  La23  1  0.117344  0.530472  0.325405  1
  B  B24  1  0.966234  0.858016  0.559267  1
  B  B25  1  0.533766  0.358016  0.440733  1
  B  B26  1  0.033766  0.141984  0.440733  1
  B  B27  1  0.466234  0.641984  0.559267  1
  B  B28  1  0.876219  0.105582  0.230184  1
  B  B29  1  0.623781  0.605582  0.769816  1
  B  B30  1  0.123781  0.894418  0.769816  1
  B  B31  1  0.376219  0.394418  0.230184  1
  B  B32  1  0.779587  0.646065  0.559222  1
  B  B33  1  0.720413  0.146065  0.440778  1
  B  B34  1  0.220413  0.353935  0.440778  1
  B  B35  1  0.279587  0.853935  0.559222  1
  B  B36  1  0.375742  0.248054  0.905830  1
  B  B37  1  0.124258  0.748054  0.094170  1
  B  B38  1  0.624258  0.751946  0.094170  1
  B  B39  1  0.875742  0.251946  0.905830  1
  N  N40  1  0.838899  0.899486  0.473036  1
  N  N41  1  0.661101  0.399486  0.526964  1
  N  N42  1  0.161101  0.100514  0.526964  1
  N  N43  1  0.338899  0.600514  0.473036  1
  N  N44  1  0.708524  0.140447  0.287752  1
  N  N45  1  0.791476  0.640447  0.712248  1
  N  N46  1  0.291476  0.859553  0.712248  1
  N  N47  1  0.208524  0.359553  0.287752  1
  N  N48  1  0.046075  0.138286  0.287581  1
  N  N49  1  0.453925  0.638286  0.712419  1
  N  N50  1  0.953925  0.861714  0.712419  1
  N  N51  1  0.546075  0.361714  0.287581  1
  N  N52  1  0.377731  0.235536  0.055665  1
  N  N53  1  0.122269  0.735536  0.944335  1
  N  N54  1  0.622269  0.764464  0.944335  1
  N  N55  1  0.877731  0.264464  0.055665  1
  N  N56  1  0.411607  0.890985  0.472650  1
  N  N57  1  0.088393  0.390985  0.527350  1
  N  N58  1  0.588393  0.109015  0.527350  1
  N  N59  1  0.911607  0.609015  0.472650  1
  N  N60  1  0.121957  0.838014  0.161252  1
  N  N61  1  0.378043  0.338014  0.838748  1
  N  N62  1  0.878043  0.161986  0.838748  1
  N  N63  1  0.621957  0.661986  0.161252  1
  N  N64  1  0.631912  0.979266  0.843978  1
  N  N65  1  0.868088  0.479266  0.156022  1
  N  N66  1  0.368088  0.020734  0.156022  1
  N  N67  1  0.131912  0.520734  0.843978  1
  N  N68  1  0.627985  0.832668  0.184756  1
  N  N69  1  0.872015  0.332668  0.815244  1
  N  N70  1  0.372015  0.167332  0.815244  1
  N  N71  1  0.127985  0.667332  0.184756  1
  N  N72  1  0.123707  0.970877  0.862608  1
  N  N73  1  0.376293  0.470877  0.137392  1
  N  N74  1  0.876293  0.029123  0.137392  1
  N  N75  1  0.623707  0.529123  0.862608  1
  N  N76  1  0.121554  0.813874  0.493317  1
  N  N77  1  0.378446  0.313874  0.506683  1
  N  N78  1  0.878446  0.186126  0.506683  1
  N  N79  1  0.621554  0.686126  0.493317  1
