# generated using pymatgen
data_Si3CCl8
_symmetry_space_group_name_H-M   'P 1'
_cell_length_a   9.04004014
_cell_length_b   9.49105431
_cell_length_c   9.63584286
_cell_angle_alpha   96.90005379
_cell_angle_beta   115.65585727
_cell_angle_gamma   102.12501265
_symmetry_Int_Tables_number   1
_chemical_formula_structural   Si3CCl8
_chemical_formula_sum   'Si6 C2 Cl16'
_cell_volume   707.40977482
_cell_formula_units_Z   2
loop_
 _symmetry_equiv_pos_site_id
 _symmetry_equiv_pos_as_xyz
  1  'x, y, z'
loop_
 _atom_site_type_symbol
 _atom_site_label
 _atom_site_symmetry_multiplicity
 _atom_site_fract_x
 _atom_site_fract_y
 _atom_site_fract_z
 _atom_site_occupancy
  Si  Si0  1  0.979737  0.291951  0.227842  1
  Si  Si1  1  0.897798  0.565811  0.405078  1
  Si  Si2  1  0.705384  0.219435  0.341351  1
  Si  Si3  1  0.020263  0.708049  0.772158  1
  Si  Si4  1  0.294616  0.780565  0.658649  1
  Si  Si5  1  0.102202  0.434189  0.594922  1
  C  C6  1  0.087215  0.635618  0.618800  1
  C  C7  1  0.912785  0.364382  0.381200  1
  Cl  Cl8  1  0.670708  0.577883  0.396302  1
  Cl  Cl9  1  0.916246  0.674021  0.240266  1
  Cl  Cl10  1  0.722250  0.008024  0.303132  1
  Cl  Cl11  1  0.277750  0.991976  0.696868  1
  Cl  Cl12  1  0.083754  0.325979  0.759734  1
  Cl  Cl13  1  0.503569  0.767879  0.853101  1
  Cl  Cl14  1  0.644136  0.235157  0.521930  1
  Cl  Cl15  1  0.355864  0.764843  0.478070  1
  Cl  Cl16  1  0.085274  0.122573  0.282336  1
  Cl  Cl17  1  0.914726  0.877427  0.717664  1
  Cl  Cl18  1  0.773805  0.215407  0.005745  1
  Cl  Cl19  1  0.226195  0.784593  0.994255  1
  Cl  Cl20  1  0.155911  0.446060  0.203445  1
  Cl  Cl21  1  0.844089  0.553940  0.796555  1
  Cl  Cl22  1  0.329292  0.422117  0.603698  1
  Cl  Cl23  1  0.496431  0.232121  0.146899  1
