# generated using pymatgen
data_AgH2ClO5
_symmetry_space_group_name_H-M   'P 1'
_cell_length_a   8.05477661
_cell_length_b   8.13747592
_cell_length_c   13.75687915
_cell_angle_alpha   90.00000000
_cell_angle_beta   90.00000000
_cell_angle_gamma   90.00000000
_symmetry_Int_Tables_number   1
_chemical_formula_structural   AgH2ClO5
_chemical_formula_sum   'Ag8 H16 Cl8 O40'
_cell_volume   901.70221987
_cell_formula_units_Z   8
loop_
 _symmetry_equiv_pos_site_id
 _symmetry_equiv_pos_as_xyz
  1  'x, y, z'
loop_
 _atom_site_type_symbol
 _atom_site_label
 _atom_site_symmetry_multiplicity
 _atom_site_fract_x
 _atom_site_fract_y
 _atom_site_fract_z
 _atom_site_occupancy
  Ag  Ag0  1  0.885945  0.237000  0.160793  1
  Ag  Ag1  1  0.385945  0.763000  0.339207  1
  Ag  Ag2  1  0.614055  0.737000  0.839207  1
  Ag  Ag3  1  0.114055  0.263000  0.660793  1
  Ag  Ag4  1  0.114055  0.763000  0.839207  1
  Ag  Ag5  1  0.614055  0.237000  0.660793  1
  Ag  Ag6  1  0.385945  0.263000  0.160793  1
  Ag  Ag7  1  0.885945  0.737000  0.339207  1
  H  H8  1  0.654489  0.404975  0.036674  1
  H  H9  1  0.154489  0.595025  0.463326  1
  H  H10  1  0.845511  0.904975  0.963326  1
  H  H11  1  0.345511  0.095025  0.536674  1
  H  H12  1  0.345511  0.595025  0.963326  1
  H  H13  1  0.845511  0.404975  0.536674  1
  H  H14  1  0.154489  0.095025  0.036674  1
  H  H15  1  0.654489  0.904975  0.463326  1
  H  H16  1  0.650514  0.508256  0.133110  1
  H  H17  1  0.150514  0.491744  0.366890  1
  H  H18  1  0.849486  0.008256  0.866890  1
  H  H19  1  0.349486  0.991744  0.633110  1
  H  H20  1  0.349486  0.491744  0.866890  1
  H  H21  1  0.849486  0.508256  0.633110  1
  H  H22  1  0.150514  0.991744  0.133110  1
  H  H23  1  0.650514  0.008256  0.366890  1
  Cl  Cl24  1  0.618254  0.364739  0.376152  1
  Cl  Cl25  1  0.118254  0.635261  0.123848  1
  Cl  Cl26  1  0.881746  0.864739  0.623848  1
  Cl  Cl27  1  0.381746  0.135261  0.876152  1
  Cl  Cl28  1  0.381746  0.635261  0.623848  1
  Cl  Cl29  1  0.881746  0.364739  0.876152  1
  Cl  Cl30  1  0.118254  0.135261  0.376152  1
  Cl  Cl31  1  0.618254  0.864739  0.123848  1
  O  O32  1  0.643189  0.394867  0.107744  1
  O  O33  1  0.143189  0.605133  0.392256  1
  O  O34  1  0.856811  0.894867  0.892256  1
  O  O35  1  0.356811  0.105133  0.607744  1
  O  O36  1  0.356811  0.605133  0.892256  1
  O  O37  1  0.856811  0.394867  0.607744  1
  O  O38  1  0.143189  0.105133  0.107744  1
  O  O39  1  0.643189  0.894867  0.392256  1
  O  O40  1  0.509407  0.465926  0.315293  1
  O  O41  1  0.009407  0.534074  0.184707  1
  O  O42  1  0.990593  0.965926  0.684707  1
  O  O43  1  0.490593  0.034074  0.815293  1
  O  O44  1  0.490593  0.534074  0.684707  1
  O  O45  1  0.990593  0.465926  0.815293  1
  O  O46  1  0.009407  0.034074  0.315293  1
  O  O47  1  0.509407  0.965926  0.184707  1
  O  O48  1  0.673901  0.222659  0.317736  1
  O  O49  1  0.173901  0.777341  0.182264  1
  O  O50  1  0.826099  0.722659  0.682264  1
  O  O51  1  0.326099  0.277341  0.817736  1
  O  O52  1  0.326099  0.777341  0.682264  1
  O  O53  1  0.826099  0.222659  0.817736  1
  O  O54  1  0.173901  0.277341  0.317736  1
  O  O55  1  0.673901  0.722659  0.182264  1
  O  O56  1  0.764240  0.462166  0.405289  1
  O  O57  1  0.264240  0.537834  0.094711  1
  O  O58  1  0.735760  0.962166  0.594711  1
  O  O59  1  0.235760  0.037834  0.905289  1
  O  O60  1  0.235760  0.537834  0.594711  1
  O  O61  1  0.735760  0.462166  0.905289  1
  O  O62  1  0.264240  0.037834  0.405289  1
  O  O63  1  0.764240  0.962166  0.094711  1
  O  O64  1  0.531846  0.306986  0.462066  1
  O  O65  1  0.031846  0.693014  0.037934  1
  O  O66  1  0.968154  0.806986  0.537934  1
  O  O67  1  0.468154  0.193014  0.962066  1
  O  O68  1  0.468154  0.693014  0.537934  1
  O  O69  1  0.968154  0.306986  0.962066  1
  O  O70  1  0.031846  0.193014  0.462066  1
  O  O71  1  0.531846  0.806986  0.037934  1
