# generated using pymatgen
data_CsAgBr2
_symmetry_space_group_name_H-M   'P 1'
_cell_length_a   10.43640602
_cell_length_b   10.43640602
_cell_length_c   6.04444603
_cell_angle_alpha   90.00000000
_cell_angle_beta   90.00000000
_cell_angle_gamma   154.16470641
_symmetry_Int_Tables_number   1
_chemical_formula_structural   CsAgBr2
_chemical_formula_sum   'Cs2 Ag2 Br4'
_cell_volume   286.90050746
_cell_formula_units_Z   2
loop_
 _symmetry_equiv_pos_site_id
 _symmetry_equiv_pos_as_xyz
  1  'x, y, z'
loop_
 _atom_site_type_symbol
 _atom_site_label
 _atom_site_symmetry_multiplicity
 _atom_site_fract_x
 _atom_site_fract_y
 _atom_site_fract_z
 _atom_site_occupancy
  Cs  Cs0  1  0.415434  0.584566  0.250000  1
  Cs  Cs1  1  0.584566  0.415434  0.750000  1
  Ag  Ag2  1  0.799102  0.200898  0.750000  1
  Ag  Ag3  1  0.200898  0.799102  0.250000  1
  Br  Br4  1  0.069301  0.930699  0.250000  1
  Br  Br5  1  0.930699  0.069301  0.750000  1
  Br  Br6  1  0.225305  0.774695  0.750000  1
  Br  Br7  1  0.774695  0.225305  0.250000  1
