# generated using pymatgen
data_Zr6Ni(SnH5)2
_symmetry_space_group_name_H-M   'P 1'
_cell_length_a   8.16474681
_cell_length_b   8.16474681
_cell_length_c   7.36734552
_cell_angle_alpha   90.00000000
_cell_angle_beta   90.00000000
_cell_angle_gamma   120.00000000
_symmetry_Int_Tables_number   1
_chemical_formula_structural   Zr6Ni(SnH5)2
_chemical_formula_sum   'Zr12 Ni2 Sn4 H20'
_cell_volume   425.33107514
_cell_formula_units_Z   2
loop_
 _symmetry_equiv_pos_site_id
 _symmetry_equiv_pos_as_xyz
  1  'x, y, z'
loop_
 _atom_site_type_symbol
 _atom_site_label
 _atom_site_symmetry_multiplicity
 _atom_site_fract_x
 _atom_site_fract_y
 _atom_site_fract_z
 _atom_site_occupancy
  Zr  Zr0  1  0.952528  0.368152  0.250000  1
  Zr  Zr1  1  0.368152  0.952528  0.750000  1
  Zr  Zr2  1  0.415624  0.047472  0.250000  1
  Zr  Zr3  1  0.631848  0.584376  0.250000  1
  Zr  Zr4  1  0.741442  0.000000  0.500000  1
  Zr  Zr5  1  0.258558  0.258558  0.000000  1
  Zr  Zr6  1  0.000000  0.741442  0.000000  1
  Zr  Zr7  1  0.000000  0.741442  0.500000  1
  Zr  Zr8  1  0.258558  0.258558  0.500000  1
  Zr  Zr9  1  0.741442  0.000000  0.000000  1
  Zr  Zr10  1  0.047472  0.415624  0.750000  1
  Zr  Zr11  1  0.584376  0.631848  0.750000  1
  Ni  Ni12  1  0.000000  0.000000  0.750000  1
  Ni  Ni13  1  0.000000  0.000000  0.250000  1
  Sn  Sn14  1  0.333333  0.666667  0.040436  1
  Sn  Sn15  1  0.333333  0.666667  0.459564  1
  Sn  Sn16  1  0.666667  0.333333  0.959564  1
  Sn  Sn17  1  0.666667  0.333333  0.540436  1
  H  H18  1  0.000000  0.000000  0.500000  1
  H  H19  1  0.000000  0.000000  0.000000  1
  H  H20  1  0.273279  0.000000  0.500000  1
  H  H21  1  0.726721  0.726721  0.000000  1
  H  H22  1  0.000000  0.273279  0.000000  1
  H  H23  1  0.000000  0.273279  0.500000  1
  H  H24  1  0.726721  0.726721  0.500000  1
  H  H25  1  0.273279  0.000000  0.000000  1
  H  H26  1  0.297115  0.401480  0.750000  1
  H  H27  1  0.598520  0.895636  0.750000  1
  H  H28  1  0.104364  0.702885  0.750000  1
  H  H29  1  0.702885  0.104364  0.250000  1
  H  H30  1  0.895636  0.598520  0.250000  1
  H  H31  1  0.401480  0.297115  0.250000  1
  H  H32  1  0.239258  0.121558  0.750000  1
  H  H33  1  0.878442  0.117700  0.750000  1
  H  H34  1  0.882300  0.760742  0.750000  1
  H  H35  1  0.760742  0.882300  0.250000  1
  H  H36  1  0.121558  0.239258  0.250000  1
  H  H37  1  0.117700  0.878442  0.250000  1
