# generated using pymatgen
data_V2Pb2O7
_symmetry_space_group_name_H-M   'P 1'
_cell_length_a   7.24462006
_cell_length_b   7.36218933
_cell_length_c   13.75794751
_cell_angle_alpha   90.00000000
_cell_angle_beta   107.33675801
_cell_angle_gamma   90.00000000
_symmetry_Int_Tables_number   1
_chemical_formula_structural   V2Pb2O7
_chemical_formula_sum   'V8 Pb8 O28'
_cell_volume   700.46097602
_cell_formula_units_Z   4
loop_
 _symmetry_equiv_pos_site_id
 _symmetry_equiv_pos_as_xyz
  1  'x, y, z'
loop_
 _atom_site_type_symbol
 _atom_site_label
 _atom_site_symmetry_multiplicity
 _atom_site_fract_x
 _atom_site_fract_y
 _atom_site_fract_z
 _atom_site_occupancy
  V  V0  1  0.615000  0.175126  0.415396  1
  V  V1  1  0.385000  0.675126  0.084604  1
  V  V2  1  0.385000  0.824874  0.584604  1
  V  V3  1  0.615000  0.324874  0.915396  1
  V  V4  1  0.793632  0.433525  0.611187  1
  V  V5  1  0.206368  0.933525  0.888813  1
  V  V6  1  0.206368  0.566475  0.388813  1
  V  V7  1  0.793632  0.066475  0.111187  1
  Pb  Pb8  1  0.325343  0.331908  0.656424  1
  Pb  Pb9  1  0.674657  0.831908  0.843576  1
  Pb  Pb10  1  0.674657  0.668092  0.343576  1
  Pb  Pb11  1  0.325343  0.168092  0.156424  1
  Pb  Pb12  1  0.048737  0.103727  0.369455  1
  Pb  Pb13  1  0.951263  0.603727  0.130545  1
  Pb  Pb14  1  0.951263  0.896273  0.630545  1
  Pb  Pb15  1  0.048737  0.396273  0.869455  1
  O  O16  1  0.392328  0.404638  0.842860  1
  O  O17  1  0.607672  0.904638  0.657140  1
  O  O18  1  0.607672  0.595362  0.157140  1
  O  O19  1  0.392328  0.095362  0.342860  1
  O  O20  1  0.288368  0.676077  0.651857  1
  O  O21  1  0.711632  0.176077  0.848143  1
  O  O22  1  0.711632  0.323923  0.348143  1
  O  O23  1  0.288368  0.823923  0.151857  1
  O  O24  1  0.219563  0.003777  0.549418  1
  O  O25  1  0.780437  0.503777  0.950582  1
  O  O26  1  0.780437  0.996223  0.450582  1
  O  O27  1  0.219563  0.496223  0.049418  1
  O  O28  1  0.398648  0.790253  0.969748  1
  O  O29  1  0.601352  0.290253  0.530252  1
  O  O30  1  0.601352  0.209747  0.030252  1
  O  O31  1  0.398648  0.709747  0.469748  1
  O  O32  1  0.157446  0.384220  0.456905  1
  O  O33  1  0.842554  0.884220  0.043095  1
  O  O34  1  0.842554  0.615780  0.543095  1
  O  O35  1  0.157446  0.115780  0.956905  1
  O  O36  1  0.003921  0.192686  0.165679  1
  O  O37  1  0.996079  0.692686  0.334321  1
  O  O38  1  0.996079  0.807314  0.834321  1
  O  O39  1  0.003921  0.307314  0.665679  1
  O  O40  1  0.282415  0.491213  0.291330  1
  O  O41  1  0.717585  0.991213  0.208670  1
  O  O42  1  0.717585  0.508787  0.708670  1
  O  O43  1  0.282415  0.008787  0.791330  1
