# generated using pymatgen
data_Zn2BIr2
_symmetry_space_group_name_H-M   'P 1'
_cell_length_a   13.46773018
_cell_length_b   13.46773018
_cell_length_c   10.29398254
_cell_angle_alpha   90.00000000
_cell_angle_beta   90.00000000
_cell_angle_gamma   167.90253794
_symmetry_Int_Tables_number   1
_chemical_formula_structural   Zn2BIr2
_chemical_formula_sum   'Zn12 B6 Ir12'
_cell_volume   391.30215246
_cell_formula_units_Z   6
loop_
 _symmetry_equiv_pos_site_id
 _symmetry_equiv_pos_as_xyz
  1  'x, y, z'
loop_
 _atom_site_type_symbol
 _atom_site_label
 _atom_site_symmetry_multiplicity
 _atom_site_fract_x
 _atom_site_fract_y
 _atom_site_fract_z
 _atom_site_occupancy
  Zn  Zn0  1  0.088643  0.911357  0.119805  1
  Zn  Zn1  1  0.911357  0.088643  0.880195  1
  Zn  Zn2  1  0.911357  0.088643  0.619805  1
  Zn  Zn3  1  0.088643  0.911357  0.380195  1
  Zn  Zn4  1  0.239172  0.760828  0.610927  1
  Zn  Zn5  1  0.760828  0.239172  0.389073  1
  Zn  Zn6  1  0.000000  0.000000  0.000000  1
  Zn  Zn7  1  0.000000  0.000000  0.500000  1
  Zn  Zn8  1  0.819705  0.180295  0.750000  1
  Zn  Zn9  1  0.180295  0.819705  0.250000  1
  Zn  Zn10  1  0.239172  0.760828  0.889073  1
  Zn  Zn11  1  0.760828  0.239172  0.110927  1
  B  B12  1  0.138513  0.861487  0.606325  1
  B  B13  1  0.861487  0.138513  0.393675  1
  B  B14  1  0.861487  0.138513  0.106325  1
  B  B15  1  0.138513  0.861487  0.893675  1
  B  B16  1  0.958912  0.041088  0.250000  1
  B  B17  1  0.041088  0.958912  0.750000  1
  Ir  Ir18  1  0.331441  0.668559  0.530593  1
  Ir  Ir19  1  0.668559  0.331441  0.469407  1
  Ir  Ir20  1  0.668559  0.331441  0.030593  1
  Ir  Ir21  1  0.331441  0.668559  0.969407  1
  Ir  Ir22  1  0.519139  0.480861  0.250000  1
  Ir  Ir23  1  0.480861  0.519139  0.750000  1
  Ir  Ir24  1  0.328701  0.671299  0.250000  1
  Ir  Ir25  1  0.671299  0.328701  0.750000  1
  Ir  Ir26  1  0.574692  0.425308  0.609145  1
  Ir  Ir27  1  0.425308  0.574692  0.390855  1
  Ir  Ir28  1  0.425308  0.574692  0.109145  1
  Ir  Ir29  1  0.574692  0.425308  0.890855  1
