# generated using pymatgen
data_V3AsC
_symmetry_space_group_name_H-M   'P 1'
_cell_length_a   5.31578992
_cell_length_b   5.31578992
_cell_length_c   7.69123778
_cell_angle_alpha   90.00000000
_cell_angle_beta   90.00000000
_cell_angle_gamma   145.87912615
_symmetry_Int_Tables_number   1
_chemical_formula_structural   V3AsC
_chemical_formula_sum   'V6 As2 C2'
_cell_volume   121.91264603
_cell_formula_units_Z   2
loop_
 _symmetry_equiv_pos_site_id
 _symmetry_equiv_pos_as_xyz
  1  'x, y, z'
loop_
 _atom_site_type_symbol
 _atom_site_label
 _atom_site_symmetry_multiplicity
 _atom_site_fract_x
 _atom_site_fract_y
 _atom_site_fract_z
 _atom_site_occupancy
  V  V0  1  0.873465  0.126535  0.550947  1
  V  V1  1  0.454710  0.545290  0.250000  1
  V  V2  1  0.545290  0.454710  0.750000  1
  V  V3  1  0.873465  0.126535  0.949053  1
  V  V4  1  0.126535  0.873465  0.050947  1
  V  V5  1  0.126535  0.873465  0.449053  1
  As  As6  1  0.758358  0.241642  0.250000  1
  As  As7  1  0.241642  0.758358  0.750000  1
  C  C8  1  0.500000  0.500000  0.500000  1
  C  C9  1  0.500000  0.500000  0.000000  1
