# generated using pymatgen
data_Pb2SO5
_symmetry_space_group_name_H-M   'P 1'
_cell_length_a   7.56453697
_cell_length_b   7.56453697
_cell_length_c   7.18367613
_cell_angle_alpha   67.13570101
_cell_angle_beta   112.86429899
_cell_angle_gamma   134.82624963
_symmetry_Int_Tables_number   1
_chemical_formula_structural   Pb2SO5
_chemical_formula_sum   'Pb4 S2 O10'
_cell_volume   264.47459752
_cell_formula_units_Z   2
loop_
 _symmetry_equiv_pos_site_id
 _symmetry_equiv_pos_as_xyz
  1  'x, y, z'
loop_
 _atom_site_type_symbol
 _atom_site_label
 _atom_site_symmetry_multiplicity
 _atom_site_fract_x
 _atom_site_fract_y
 _atom_site_fract_z
 _atom_site_occupancy
  Pb  Pb0  1  0.525249  0.474751  0.268932  1
  Pb  Pb1  1  0.474751  0.525249  0.731068  1
  Pb  Pb2  1  0.145605  0.854395  0.100991  1
  Pb  Pb3  1  0.854395  0.145605  0.899009  1
  S  S4  1  0.827577  0.172423  0.342965  1
  S  S5  1  0.172423  0.827577  0.657035  1
  O  O6  1  0.252637  0.252637  0.000000  1
  O  O7  1  0.747363  0.747363  0.000000  1
  O  O8  1  0.711343  0.288657  0.287615  1
  O  O9  1  0.288657  0.711343  0.712385  1
  O  O10  1  0.356280  0.063419  0.747656  1
  O  O11  1  0.063419  0.356280  0.252344  1
  O  O12  1  0.889062  0.110938  0.570707  1
  O  O13  1  0.110938  0.889062  0.429293  1
  O  O14  1  0.936581  0.643720  0.747656  1
  O  O15  1  0.643720  0.936581  0.252344  1
