# generated using pymatgen
data_Zr9S2
_symmetry_space_group_name_H-M   'P 1'
_cell_length_a   11.91430105
_cell_length_b   11.91430105
_cell_length_c   11.91430105
_cell_angle_alpha   131.47200143
_cell_angle_beta   131.47200143
_cell_angle_gamma   71.06423255
_symmetry_Int_Tables_number   1
_chemical_formula_structural   Zr9S2
_chemical_formula_sum   'Zr36 S8'
_cell_volume   929.69015979
_cell_formula_units_Z   4
loop_
 _symmetry_equiv_pos_site_id
 _symmetry_equiv_pos_as_xyz
  1  'x, y, z'
loop_
 _atom_site_type_symbol
 _atom_site_label
 _atom_site_symmetry_multiplicity
 _atom_site_fract_x
 _atom_site_fract_y
 _atom_site_fract_z
 _atom_site_occupancy
  Zr  Zr0  1  0.574672  0.426272  0.148400  1
  Zr  Zr1  1  0.176272  0.527873  0.351600  1
  Zr  Zr2  1  0.176272  0.824672  0.648400  1
  Zr  Zr3  1  0.175328  0.823728  0.351600  1
  Zr  Zr4  1  0.472127  0.823728  0.648400  1
  Zr  Zr5  1  0.573728  0.722127  0.148400  1
  Zr  Zr6  1  0.573728  0.425328  0.851600  1
  Zr  Zr7  1  0.277873  0.426272  0.851600  1
  Zr  Zr8  1  0.521448  0.693566  0.827882  1
  Zr  Zr9  1  0.443566  0.115685  0.672118  1
  Zr  Zr10  1  0.443566  0.771448  0.327882  1
  Zr  Zr11  1  0.228552  0.556434  0.672118  1
  Zr  Zr12  1  0.884315  0.556434  0.327882  1
  Zr  Zr13  1  0.306434  0.134315  0.827882  1
  Zr  Zr14  1  0.306434  0.478552  0.172118  1
  Zr  Zr15  1  0.865685  0.693566  0.172118  1
  Zr  Zr16  1  0.987928  0.267650  0.720278  1
  Zr  Zr17  1  0.017650  0.797372  0.779722  1
  Zr  Zr18  1  0.017650  0.237928  0.220278  1
  Zr  Zr19  1  0.762072  0.982350  0.779722  1
  Zr  Zr20  1  0.202628  0.982350  0.220278  1
  Zr  Zr21  1  0.732350  0.452628  0.720278  1
  Zr  Zr22  1  0.732350  0.012072  0.279722  1
  Zr  Zr23  1  0.547372  0.267650  0.279722  1
  Zr  Zr24  1  0.134994  0.134994  0.000000  1
  Zr  Zr25  1  0.884994  0.384994  0.500000  1
  Zr  Zr26  1  0.615006  0.115006  0.500000  1
  Zr  Zr27  1  0.865006  0.865006  0.000000  1
  Zr  Zr28  1  0.375000  0.304128  0.429128  1
  Zr  Zr29  1  0.054128  0.125000  0.429128  1
  Zr  Zr30  1  0.695872  0.625000  0.570872  1
  Zr  Zr31  1  0.875000  0.945872  0.570872  1
  Zr  Zr32  1  0.375000  0.945872  0.070872  1
  Zr  Zr33  1  0.695872  0.125000  0.070872  1
  Zr  Zr34  1  0.054128  0.625000  0.929128  1
  Zr  Zr35  1  0.875000  0.304128  0.929128  1
  S  S36  1  0.022117  0.522117  0.044235  1
  S  S37  1  0.272117  0.727883  0.000000  1
  S  S38  1  0.727883  0.272117  0.000000  1
  S  S39  1  0.477883  0.977883  0.955765  1
  S  S40  1  0.727883  0.727883  0.455765  1
  S  S41  1  0.477883  0.522117  0.500000  1
  S  S42  1  0.022117  0.977883  0.500000  1
  S  S43  1  0.272117  0.272117  0.544235  1
