# generated using pymatgen
data_LaBN2
_symmetry_space_group_name_H-M   'P 1'
_cell_length_a   6.64884605
_cell_length_b   6.94939254
_cell_length_c   7.82097533
_cell_angle_alpha   105.90805670
_cell_angle_beta   90.58451544
_cell_angle_gamma   116.14807651
_symmetry_Int_Tables_number   1
_chemical_formula_structural   LaBN2
_chemical_formula_sum   'La6 B6 N12'
_cell_volume   308.35264728
_cell_formula_units_Z   6
loop_
 _symmetry_equiv_pos_site_id
 _symmetry_equiv_pos_as_xyz
  1  'x, y, z'
loop_
 _atom_site_type_symbol
 _atom_site_label
 _atom_site_symmetry_multiplicity
 _atom_site_fract_x
 _atom_site_fract_y
 _atom_site_fract_z
 _atom_site_occupancy
  La  La0  1  0.538415  0.785219  0.062192  1
  La  La1  1  0.461585  0.214781  0.937808  1
  La  La2  1  0.468471  0.217653  0.421816  1
  La  La3  1  0.531529  0.782347  0.578184  1
  La  La4  1  0.942104  0.665740  0.298372  1
  La  La5  1  0.057896  0.334260  0.701628  1
  B  B6  1  0.898310  0.210249  0.327790  1
  B  B7  1  0.101710  0.777426  0.985653  1
  B  B8  1  0.898290  0.222574  0.014347  1
  B  B9  1  0.101690  0.789751  0.672210  1
  B  B10  1  0.266351  0.418699  0.225428  1
  B  B11  1  0.733649  0.581301  0.774572  1
  N  N12  1  0.146824  0.358418  0.043117  1
  N  N13  1  0.853176  0.641582  0.956883  1
  N  N14  1  0.227486  0.782654  0.828035  1
  N  N15  1  0.765243  0.053603  0.421424  1
  N  N16  1  0.234757  0.946397  0.578576  1
  N  N17  1  0.772514  0.217346  0.171965  1
  N  N18  1  0.486357  0.482412  0.748645  1
  N  N19  1  0.513643  0.517588  0.251355  1
  N  N20  1  0.760600  0.090393  0.839908  1
  N  N21  1  0.239400  0.909607  0.160092  1
  N  N22  1  0.144893  0.367025  0.378557  1
  N  N23  1  0.855107  0.632975  0.621443  1
