# generated using pymatgen
data_DyGeAu
_symmetry_space_group_name_H-M   'P 1'
_cell_length_a   4.48064434
_cell_length_b   4.48064434
_cell_length_c   7.32916360
_cell_angle_alpha   90.00000000
_cell_angle_beta   90.00000000
_cell_angle_gamma   120.00000000
_symmetry_Int_Tables_number   1
_chemical_formula_structural   DyGeAu
_chemical_formula_sum   'Dy2 Ge2 Au2'
_cell_volume   127.42833014
_cell_formula_units_Z   2
loop_
 _symmetry_equiv_pos_site_id
 _symmetry_equiv_pos_as_xyz
  1  'x, y, z'
loop_
 _atom_site_type_symbol
 _atom_site_label
 _atom_site_symmetry_multiplicity
 _atom_site_fract_x
 _atom_site_fract_y
 _atom_site_fract_z
 _atom_site_occupancy
  Dy  Dy0  1  0.000000  0.000000  0.842264  1
  Dy  Dy1  1  0.000000  0.000000  0.342264  1
  Ge  Ge2  1  0.666667  0.333333  0.050461  1
  Ge  Ge3  1  0.333333  0.666667  0.550461  1
  Au  Au4  1  0.666667  0.333333  0.633275  1
  Au  Au5  1  0.333333  0.666667  0.133275  1
