# generated using pymatgen
data_Sr4(PPd)5
_symmetry_space_group_name_H-M   'P 1'
_cell_length_a   15.90948206
_cell_length_b   15.90948206
_cell_length_c   8.70568692
_cell_angle_alpha   90.00000000
_cell_angle_beta   90.00000000
_cell_angle_gamma   164.75004960
_symmetry_Int_Tables_number   1
_chemical_formula_structural   Sr4(PPd)5
_chemical_formula_sum   'Sr8 P10 Pd10'
_cell_volume   579.59020638
_cell_formula_units_Z   2
loop_
 _symmetry_equiv_pos_site_id
 _symmetry_equiv_pos_as_xyz
  1  'x, y, z'
loop_
 _atom_site_type_symbol
 _atom_site_label
 _atom_site_symmetry_multiplicity
 _atom_site_fract_x
 _atom_site_fract_y
 _atom_site_fract_z
 _atom_site_occupancy
  Sr  Sr0  1  0.193565  0.806435  0.504277  1
  Sr  Sr1  1  0.806435  0.193565  0.495723  1
  Sr  Sr2  1  0.806435  0.193565  0.004277  1
  Sr  Sr3  1  0.193565  0.806435  0.995723  1
  Sr  Sr4  1  0.420838  0.579162  0.000244  1
  Sr  Sr5  1  0.579162  0.420838  0.500244  1
  Sr  Sr6  1  0.579162  0.420838  0.999756  1
  Sr  Sr7  1  0.420838  0.579162  0.499756  1
  P  P8  1  0.729060  0.270940  0.250000  1
  P  P9  1  0.957651  0.042349  0.250000  1
  P  P10  1  0.956679  0.043321  0.750000  1
  P  P11  1  0.042349  0.957651  0.750000  1
  P  P12  1  0.043321  0.956679  0.250000  1
  P  P13  1  0.343070  0.656930  0.750000  1
  P  P14  1  0.656930  0.343070  0.250000  1
  P  P15  1  0.655725  0.344275  0.750000  1
  P  P16  1  0.270940  0.729060  0.750000  1
  P  P17  1  0.344275  0.655725  0.250000  1
  Pd  Pd18  1  0.266481  0.733519  0.250000  1
  Pd  Pd19  1  0.733519  0.266481  0.750000  1
  Pd  Pd20  1  0.000000  0.000000  0.500000  1
  Pd  Pd21  1  0.120073  0.879927  0.250000  1
  Pd  Pd22  1  0.879927  0.120073  0.750000  1
  Pd  Pd23  1  0.881439  0.118561  0.250000  1
  Pd  Pd24  1  0.118561  0.881439  0.750000  1
  Pd  Pd25  1  0.499942  0.500058  0.250000  1
  Pd  Pd26  1  0.500058  0.499942  0.750000  1
  Pd  Pd27  1  0.000000  0.000000  0.000000  1
