# generated using pymatgen
data_Zr2(V2Sb3)3
_symmetry_space_group_name_H-M   'P 1'
_cell_length_a   9.76661389
_cell_length_b   9.76661389
_cell_length_c   7.24146066
_cell_angle_alpha   90.00000000
_cell_angle_beta   90.00000000
_cell_angle_gamma   90.00000000
_symmetry_Int_Tables_number   1
_chemical_formula_structural   Zr2(V2Sb3)3
_chemical_formula_sum   'Zr4 V12 Sb18'
_cell_volume   690.73937499
_cell_formula_units_Z   2
loop_
 _symmetry_equiv_pos_site_id
 _symmetry_equiv_pos_as_xyz
  1  'x, y, z'
loop_
 _atom_site_type_symbol
 _atom_site_label
 _atom_site_symmetry_multiplicity
 _atom_site_fract_x
 _atom_site_fract_y
 _atom_site_fract_z
 _atom_site_occupancy
  Zr  Zr0  1  0.500000  0.000000  0.085258  1
  Zr  Zr1  1  0.000000  0.500000  0.914742  1
  Zr  Zr2  1  0.500000  0.000000  0.586959  1
  Zr  Zr3  1  0.000000  0.500000  0.413041  1
  V  V4  1  0.138931  0.000000  0.159266  1
  V  V5  1  0.361069  0.500000  0.840734  1
  V  V6  1  0.000000  0.138931  0.840734  1
  V  V7  1  0.500000  0.638931  0.159266  1
  V  V8  1  0.000000  0.861069  0.840734  1
  V  V9  1  0.861069  0.000000  0.159266  1
  V  V10  1  0.250000  0.750000  0.000000  1
  V  V11  1  0.250000  0.250000  0.000000  1
  V  V12  1  0.750000  0.750000  0.000000  1
  V  V13  1  0.638931  0.500000  0.840734  1
  V  V14  1  0.500000  0.361069  0.159266  1
  V  V15  1  0.750000  0.250000  0.000000  1
  Sb  Sb16  1  0.827308  0.672692  0.653095  1
  Sb  Sb17  1  0.251943  0.000000  0.817299  1
  Sb  Sb18  1  0.248057  0.500000  0.182701  1
  Sb  Sb19  1  0.672692  0.172692  0.346905  1
  Sb  Sb20  1  0.172692  0.327308  0.653095  1
  Sb  Sb21  1  0.827308  0.327308  0.653095  1
  Sb  Sb22  1  0.751943  0.500000  0.182701  1
  Sb  Sb23  1  0.327308  0.827308  0.346905  1
  Sb  Sb24  1  0.000000  0.251943  0.182701  1
  Sb  Sb25  1  0.672692  0.827308  0.346905  1
  Sb  Sb26  1  0.000000  0.000000  0.500000  1
  Sb  Sb27  1  0.500000  0.751943  0.817299  1
  Sb  Sb28  1  0.000000  0.748057  0.182701  1
  Sb  Sb29  1  0.172692  0.672692  0.653095  1
  Sb  Sb30  1  0.748057  0.000000  0.817299  1
  Sb  Sb31  1  0.327308  0.172692  0.346905  1
  Sb  Sb32  1  0.500000  0.248057  0.817299  1
  Sb  Sb33  1  0.500000  0.500000  0.500000  1
