# generated using pymatgen
data_Cr3GeC
_symmetry_space_group_name_H-M   'P 1'
_cell_length_a   5.34181686
_cell_length_b   5.34181686
_cell_length_c   7.64834607
_cell_angle_alpha   90.00000000
_cell_angle_beta   90.00000000
_cell_angle_gamma   148.85679516
_symmetry_Int_Tables_number   1
_chemical_formula_structural   Cr3GeC
_chemical_formula_sum   'Cr6 Ge2 C2'
_cell_volume   112.87201770
_cell_formula_units_Z   2
loop_
 _symmetry_equiv_pos_site_id
 _symmetry_equiv_pos_as_xyz
  1  'x, y, z'
loop_
 _atom_site_type_symbol
 _atom_site_label
 _atom_site_symmetry_multiplicity
 _atom_site_fract_x
 _atom_site_fract_y
 _atom_site_fract_z
 _atom_site_occupancy
  Cr  Cr0  1  0.874424  0.125576  0.455670  1
  Cr  Cr1  1  0.125576  0.874424  0.544330  1
  Cr  Cr2  1  0.874424  0.125576  0.044330  1
  Cr  Cr3  1  0.125576  0.874424  0.955670  1
  Cr  Cr4  1  0.530937  0.469063  0.250000  1
  Cr  Cr5  1  0.469063  0.530937  0.750000  1
  Ge  Ge6  1  0.239806  0.760194  0.250000  1
  Ge  Ge7  1  0.760194  0.239806  0.750000  1
  C  C8  1  0.500000  0.500000  0.500000  1
  C  C9  1  0.500000  0.500000  1.000000  1
