# generated using pymatgen
data_CaIn2Au
_symmetry_space_group_name_H-M   'P 1'
_cell_length_a   5.94514135
_cell_length_b   5.94514135
_cell_length_c   7.73819890
_cell_angle_alpha   90.00000000
_cell_angle_beta   90.00000000
_cell_angle_gamma   134.31837597
_symmetry_Int_Tables_number   1
_chemical_formula_structural   CaIn2Au
_chemical_formula_sum   'Ca2 In4 Au2'
_cell_volume   195.68381077
_cell_formula_units_Z   2
loop_
 _symmetry_equiv_pos_site_id
 _symmetry_equiv_pos_as_xyz
  1  'x, y, z'
loop_
 _atom_site_type_symbol
 _atom_site_label
 _atom_site_symmetry_multiplicity
 _atom_site_fract_x
 _atom_site_fract_y
 _atom_site_fract_z
 _atom_site_occupancy
  Ca  Ca0  1  0.925310  0.074690  0.750000  1
  Ca  Ca1  1  0.074690  0.925310  0.250000  1
  In  In2  1  0.634934  0.365066  0.949432  1
  In  In3  1  0.634934  0.365066  0.550568  1
  In  In4  1  0.365066  0.634934  0.050568  1
  In  In5  1  0.365066  0.634934  0.449432  1
  Au  Au6  1  0.211795  0.788205  0.750000  1
  Au  Au7  1  0.788205  0.211795  0.250000  1
