# generated using pymatgen
data_TbCoO3
_symmetry_space_group_name_H-M   'P 1'
_cell_length_a   5.20259280
_cell_length_b   5.46816311
_cell_length_c   7.44666870
_cell_angle_alpha   90.00000000
_cell_angle_beta   90.00000000
_cell_angle_gamma   90.00000000
_symmetry_Int_Tables_number   1
_chemical_formula_structural   TbCoO3
_chemical_formula_sum   'Tb4 Co4 O12'
_cell_volume   211.84749298
_cell_formula_units_Z   4
loop_
 _symmetry_equiv_pos_site_id
 _symmetry_equiv_pos_as_xyz
  1  'x, y, z'
loop_
 _atom_site_type_symbol
 _atom_site_label
 _atom_site_symmetry_multiplicity
 _atom_site_fract_x
 _atom_site_fract_y
 _atom_site_fract_z
 _atom_site_occupancy
  Tb  Tb0  1  0.517592  0.568503  0.250000  1
  Tb  Tb1  1  0.982408  0.068503  0.250000  1
  Tb  Tb2  1  0.482408  0.431497  0.750000  1
  Tb  Tb3  1  0.017592  0.931497  0.750000  1
  Co  Co4  1  0.000000  0.500000  0.000000  1
  Co  Co5  1  0.500000  0.000000  0.500000  1
  Co  Co6  1  0.000000  0.500000  0.500000  1
  Co  Co7  1  0.500000  0.000000  0.000000  1
  O  O8  1  0.402531  0.973444  0.250000  1
  O  O9  1  0.097469  0.473444  0.250000  1
  O  O10  1  0.597469  0.026556  0.750000  1
  O  O11  1  0.902531  0.526556  0.750000  1
  O  O12  1  0.803767  0.799132  0.049961  1
  O  O13  1  0.696233  0.299132  0.450039  1
  O  O14  1  0.196233  0.200868  0.549961  1
  O  O15  1  0.303767  0.700868  0.950039  1
  O  O16  1  0.196233  0.200868  0.950039  1
  O  O17  1  0.303767  0.700868  0.549961  1
  O  O18  1  0.803767  0.799132  0.450039  1
  O  O19  1  0.696233  0.299132  0.049961  1
