# generated using pymatgen
data_Li5Br2N
_symmetry_space_group_name_H-M   'P 1'
_cell_length_a   6.94072714
_cell_length_b   6.94072714
_cell_length_c   6.94072714
_cell_angle_alpha   147.22436384
_cell_angle_beta   127.96113160
_cell_angle_gamma   62.87562143
_symmetry_Int_Tables_number   1
_chemical_formula_structural   Li5Br2N
_chemical_formula_sum   'Li5 Br2 N1'
_cell_volume   141.23224335
_cell_formula_units_Z   1
loop_
 _symmetry_equiv_pos_site_id
 _symmetry_equiv_pos_as_xyz
  1  'x, y, z'
loop_
 _atom_site_type_symbol
 _atom_site_label
 _atom_site_symmetry_multiplicity
 _atom_site_fract_x
 _atom_site_fract_y
 _atom_site_fract_z
 _atom_site_occupancy
  Li  Li0  1  0.903113  0.120194  0.782919  1
  Li  Li1  1  0.096887  0.879806  0.217081  1
  Li  Li2  1  0.662725  0.879806  0.782919  1
  Li  Li3  1  1.000000  0.500000  0.500000  1
  Li  Li4  1  0.337275  0.120194  0.217081  1
  Br  Br5  1  0.326342  0.326342  0.000000  1
  Br  Br6  1  0.673658  0.673658  0.000000  1
  N  N7  1  0.000000  0.000000  0.000000  1
