# generated using pymatgen
data_Mo2N
_symmetry_space_group_name_H-M   'P 1'
_cell_length_a   5.04359470
_cell_length_b   5.04359470
_cell_length_c   5.04359470
_cell_angle_alpha   130.00391632
_cell_angle_beta   130.00391632
_cell_angle_gamma   73.40050393
_symmetry_Int_Tables_number   1
_chemical_formula_structural   Mo2N
_chemical_formula_sum   'Mo4 N2'
_cell_volume   73.47926797
_cell_formula_units_Z   2
loop_
 _symmetry_equiv_pos_site_id
 _symmetry_equiv_pos_as_xyz
  1  'x, y, z'
loop_
 _atom_site_type_symbol
 _atom_site_label
 _atom_site_symmetry_multiplicity
 _atom_site_fract_x
 _atom_site_fract_y
 _atom_site_fract_z
 _atom_site_occupancy
  Mo  Mo0  1  0.989801  0.489801  0.500000  1
  Mo  Mo1  1  0.239801  0.239801  0.000000  1
  Mo  Mo2  1  0.510199  0.010199  0.500000  1
  Mo  Mo3  1  0.760199  0.760199  0.000000  1
  N  N4  1  0.250000  0.750000  0.500000  1
  N  N5  1  0.500000  0.500000  0.000000  1
