# generated using pymatgen
data_NpCl4
_symmetry_space_group_name_H-M   'P 1'
_cell_length_a   7.04777300
_cell_length_b   7.04777300
_cell_length_c   7.04777300
_cell_angle_alpha   107.67768125
_cell_angle_beta   107.67768125
_cell_angle_gamma   113.12111795
_symmetry_Int_Tables_number   1
_chemical_formula_structural   NpCl4
_chemical_formula_sum   'Np2 Cl8'
_cell_volume   268.65877653
_cell_formula_units_Z   2
loop_
 _symmetry_equiv_pos_site_id
 _symmetry_equiv_pos_as_xyz
  1  'x, y, z'
loop_
 _atom_site_type_symbol
 _atom_site_label
 _atom_site_symmetry_multiplicity
 _atom_site_fract_x
 _atom_site_fract_y
 _atom_site_fract_z
 _atom_site_occupancy
  Np  Np0  1  0.250000  0.750000  0.500000  1
  Np  Np1  1  1.000000  0.000000  0.000000  1
  Cl  Cl2  1  0.375889  0.064595  0.311293  1
  Cl  Cl3  1  0.314595  0.503302  0.188707  1
  Cl  Cl4  1  0.935405  0.246698  0.311293  1
  Cl  Cl5  1  0.874111  0.685405  0.188707  1
  Cl  Cl6  1  0.496698  0.685405  0.811293  1
  Cl  Cl7  1  0.935405  0.624111  0.688707  1
  Cl  Cl8  1  0.753302  0.064595  0.688707  1
  Cl  Cl9  1  0.314595  0.125889  0.811293  1
