# generated using pymatgen
data_Ca5Bi3
_symmetry_space_group_name_H-M   'P 1'
_cell_length_a   8.48198457
_cell_length_b   9.78173357
_cell_length_c   12.84128530
_cell_angle_alpha   90.00000000
_cell_angle_beta   90.00000000
_cell_angle_gamma   90.00000000
_symmetry_Int_Tables_number   1
_chemical_formula_structural   Ca5Bi3
_chemical_formula_sum   'Ca20 Bi12'
_cell_volume   1065.42234903
_cell_formula_units_Z   4
loop_
 _symmetry_equiv_pos_site_id
 _symmetry_equiv_pos_as_xyz
  1  'x, y, z'
loop_
 _atom_site_type_symbol
 _atom_site_label
 _atom_site_symmetry_multiplicity
 _atom_site_fract_x
 _atom_site_fract_y
 _atom_site_fract_z
 _atom_site_occupancy
  Ca  Ca0  1  0.306838  0.956359  0.076126  1
  Ca  Ca1  1  0.806838  0.043641  0.423874  1
  Ca  Ca2  1  0.693162  0.456359  0.923874  1
  Ca  Ca3  1  0.193162  0.543641  0.576126  1
  Ca  Ca4  1  0.693162  0.043641  0.923874  1
  Ca  Ca5  1  0.193162  0.956359  0.576126  1
  Ca  Ca6  1  0.306838  0.543641  0.076126  1
  Ca  Ca7  1  0.806838  0.456359  0.423874  1
  Ca  Ca8  1  0.680104  0.750000  0.228910  1
  Ca  Ca9  1  0.180104  0.250000  0.271090  1
  Ca  Ca10  1  0.319896  0.250000  0.771090  1
  Ca  Ca11  1  0.819896  0.750000  0.728910  1
  Ca  Ca12  1  0.150718  0.750000  0.290753  1
  Ca  Ca13  1  0.650718  0.250000  0.209247  1
  Ca  Ca14  1  0.849282  0.250000  0.709247  1
  Ca  Ca15  1  0.349282  0.750000  0.790753  1
  Ca  Ca16  1  0.535124  0.750000  0.505450  1
  Ca  Ca17  1  0.035124  0.250000  0.994550  1
  Ca  Ca18  1  0.464876  0.250000  0.494550  1
  Ca  Ca19  1  0.964876  0.750000  0.005450  1
  Bi  Bi20  1  0.935051  0.012918  0.170866  1
  Bi  Bi21  1  0.435051  0.987082  0.329134  1
  Bi  Bi22  1  0.064949  0.512918  0.829134  1
  Bi  Bi23  1  0.564949  0.487082  0.670866  1
  Bi  Bi24  1  0.064949  0.987082  0.829134  1
  Bi  Bi25  1  0.564949  0.012918  0.670866  1
  Bi  Bi26  1  0.935051  0.487082  0.170866  1
  Bi  Bi27  1  0.435051  0.512918  0.329134  1
  Bi  Bi28  1  0.578682  0.750000  0.983752  1
  Bi  Bi29  1  0.078682  0.250000  0.516248  1
  Bi  Bi30  1  0.421318  0.250000  0.016248  1
  Bi  Bi31  1  0.921318  0.750000  0.483752  1
