# generated using pymatgen
data_Cd4As2I3
_symmetry_space_group_name_H-M   'P 1'
_cell_length_a   13.30855151
_cell_length_b   13.30855151
_cell_length_c   13.30855151
_cell_angle_alpha   90.00000000
_cell_angle_beta   90.00000000
_cell_angle_gamma   90.00000000
_symmetry_Int_Tables_number   1
_chemical_formula_structural   Cd4As2I3
_chemical_formula_sum   'Cd32 As16 I24'
_cell_volume   2357.17794826
_cell_formula_units_Z   8
loop_
 _symmetry_equiv_pos_site_id
 _symmetry_equiv_pos_as_xyz
  1  'x, y, z'
loop_
 _atom_site_type_symbol
 _atom_site_label
 _atom_site_symmetry_multiplicity
 _atom_site_fract_x
 _atom_site_fract_y
 _atom_site_fract_z
 _atom_site_occupancy
  Cd  Cd0  1  0.033963  0.000898  0.256056  1
  Cd  Cd1  1  0.256056  0.033963  0.000898  1
  Cd  Cd2  1  0.000898  0.256056  0.033963  1
  Cd  Cd3  1  0.499102  0.743944  0.533963  1
  Cd  Cd4  1  0.756056  0.466037  0.999102  1
  Cd  Cd5  1  0.999102  0.756056  0.466037  1
  Cd  Cd6  1  0.243944  0.966037  0.500898  1
  Cd  Cd7  1  0.743944  0.533963  0.499102  1
  Cd  Cd8  1  0.500898  0.243944  0.966037  1
  Cd  Cd9  1  0.533963  0.499102  0.743944  1
  Cd  Cd10  1  0.966037  0.500898  0.243944  1
  Cd  Cd11  1  0.466037  0.999102  0.756056  1
  Cd  Cd12  1  0.966037  0.999102  0.743944  1
  Cd  Cd13  1  0.743944  0.966037  0.999102  1
  Cd  Cd14  1  0.999102  0.743944  0.966037  1
  Cd  Cd15  1  0.500898  0.256056  0.466037  1
  Cd  Cd16  1  0.243944  0.533963  0.000898  1
  Cd  Cd17  1  0.000898  0.243944  0.533963  1
  Cd  Cd18  1  0.756056  0.033963  0.499102  1
  Cd  Cd19  1  0.256056  0.466037  0.500898  1
  Cd  Cd20  1  0.499102  0.756056  0.033963  1
  Cd  Cd21  1  0.466037  0.500898  0.256056  1
  Cd  Cd22  1  0.033963  0.499102  0.756056  1
  Cd  Cd23  1  0.533963  0.000898  0.243944  1
  Cd  Cd24  1  0.221433  0.221433  0.221433  1
  Cd  Cd25  1  0.278567  0.778567  0.721433  1
  Cd  Cd26  1  0.721433  0.278567  0.778567  1
  Cd  Cd27  1  0.778567  0.721433  0.278567  1
  Cd  Cd28  1  0.778567  0.778567  0.778567  1
  Cd  Cd29  1  0.721433  0.221433  0.278567  1
  Cd  Cd30  1  0.278567  0.721433  0.221433  1
  Cd  Cd31  1  0.221433  0.278567  0.721433  1
  As  As32  1  0.108287  0.108287  0.108287  1
  As  As33  1  0.391713  0.891713  0.608287  1
  As  As34  1  0.608287  0.391713  0.891713  1
  As  As35  1  0.891713  0.608287  0.391713  1
  As  As36  1  0.891713  0.891713  0.891713  1
  As  As37  1  0.608287  0.108287  0.391713  1
  As  As38  1  0.391713  0.608287  0.108287  1
  As  As39  1  0.108287  0.391713  0.608287  1
  As  As40  1  0.446563  0.446563  0.446563  1
  As  As41  1  0.053437  0.553437  0.946563  1
  As  As42  1  0.946563  0.053437  0.553437  1
  As  As43  1  0.553437  0.946563  0.053437  1
  As  As44  1  0.553437  0.553437  0.553437  1
  As  As45  1  0.946563  0.446563  0.053437  1
  As  As46  1  0.053437  0.946563  0.446563  1
  As  As47  1  0.446563  0.053437  0.946563  1
  I  I48  1  0.186113  0.438151  0.262123  1
  I  I49  1  0.262123  0.186113  0.438151  1
  I  I50  1  0.438151  0.262123  0.186113  1
  I  I51  1  0.061849  0.737877  0.686113  1
  I  I52  1  0.762123  0.313887  0.561849  1
  I  I53  1  0.561849  0.762123  0.313887  1
  I  I54  1  0.237877  0.813887  0.938151  1
  I  I55  1  0.737877  0.686113  0.061849  1
  I  I56  1  0.938151  0.237877  0.813887  1
  I  I57  1  0.686113  0.061849  0.737877  1
  I  I58  1  0.813887  0.938151  0.237877  1
  I  I59  1  0.313887  0.561849  0.762123  1
  I  I60  1  0.813887  0.561849  0.737877  1
  I  I61  1  0.737877  0.813887  0.561849  1
  I  I62  1  0.561849  0.737877  0.813887  1
  I  I63  1  0.938151  0.262123  0.313887  1
  I  I64  1  0.237877  0.686113  0.438151  1
  I  I65  1  0.438151  0.237877  0.686113  1
  I  I66  1  0.762123  0.186113  0.061849  1
  I  I67  1  0.262123  0.313887  0.938151  1
  I  I68  1  0.061849  0.762123  0.186113  1
  I  I69  1  0.313887  0.938151  0.262123  1
  I  I70  1  0.186113  0.061849  0.762123  1
  I  I71  1  0.686113  0.438151  0.237877  1
