# generated using pymatgen
data_Ba5(TiN3)2
_symmetry_space_group_name_H-M   'P 1'
_cell_length_a   6.62905500
_cell_length_b   9.53783480
_cell_length_c   9.95295118
_cell_angle_alpha   106.19705179
_cell_angle_beta   101.84976188
_cell_angle_gamma   108.84005945
_symmetry_Int_Tables_number   1
_chemical_formula_structural   Ba5(TiN3)2
_chemical_formula_sum   'Ba10 Ti4 N12'
_cell_volume   540.88066734
_cell_formula_units_Z   2
loop_
 _symmetry_equiv_pos_site_id
 _symmetry_equiv_pos_as_xyz
  1  'x, y, z'
loop_
 _atom_site_type_symbol
 _atom_site_label
 _atom_site_symmetry_multiplicity
 _atom_site_fract_x
 _atom_site_fract_y
 _atom_site_fract_z
 _atom_site_occupancy
  Ba  Ba0  1  0.574565  0.411094  0.127125  1
  Ba  Ba1  1  0.425435  0.588906  0.872875  1
  Ba  Ba2  1  0.165690  0.866850  0.446816  1
  Ba  Ba3  1  0.834310  0.133150  0.553184  1
  Ba  Ba4  1  0.206330  0.447203  0.395909  1
  Ba  Ba5  1  0.793670  0.552797  0.604091  1
  Ba  Ba6  1  0.036400  0.722869  0.048274  1
  Ba  Ba7  1  0.963600  0.277131  0.951726  1
  Ba  Ba8  1  0.802803  0.014230  0.138308  1
  Ba  Ba9  1  0.197197  0.985770  0.861692  1
  Ti  Ti10  1  0.470407  0.242591  0.709396  1
  Ti  Ti11  1  0.529593  0.757409  0.290604  1
  Ti  Ti12  1  0.446422  0.153358  0.307985  1
  Ti  Ti13  1  0.553578  0.846642  0.692015  1
  N  N14  1  0.254914  0.700716  0.668405  1
  N  N15  1  0.745086  0.299284  0.331595  1
  N  N16  1  0.758959  0.834294  0.846758  1
  N  N17  1  0.241041  0.165706  0.153242  1
  N  N18  1  0.264989  0.566424  0.175142  1
  N  N19  1  0.735011  0.433576  0.824858  1
  N  N20  1  0.767959  0.755502  0.207145  1
  N  N21  1  0.232041  0.244498  0.792855  1
  N  N22  1  0.454748  0.936547  0.271259  1
  N  N23  1  0.545252  0.063453  0.728741  1
  N  N24  1  0.387697  0.218417  0.498921  1
  N  N25  1  0.612303  0.781583  0.501079  1
