# generated using pymatgen
data_ErGePd2
_symmetry_space_group_name_H-M   'P 1'
_cell_length_a   5.60410012
_cell_length_b   7.15365604
_cell_length_c   7.32839032
_cell_angle_alpha   90.00000000
_cell_angle_beta   90.00000000
_cell_angle_gamma   90.00000000
_symmetry_Int_Tables_number   1
_chemical_formula_structural   ErGePd2
_chemical_formula_sum   'Er4 Ge4 Pd8'
_cell_volume   293.79373649
_cell_formula_units_Z   4
loop_
 _symmetry_equiv_pos_site_id
 _symmetry_equiv_pos_as_xyz
  1  'x, y, z'
loop_
 _atom_site_type_symbol
 _atom_site_label
 _atom_site_symmetry_multiplicity
 _atom_site_fract_x
 _atom_site_fract_y
 _atom_site_fract_z
 _atom_site_occupancy
  Er  Er0  1  0.644283  0.250000  0.975139  1
  Er  Er1  1  0.855717  0.250000  0.475139  1
  Er  Er2  1  0.355717  0.750000  0.024861  1
  Er  Er3  1  0.144283  0.750000  0.524861  1
  Ge  Ge4  1  0.358874  0.250000  0.621601  1
  Ge  Ge5  1  0.858874  0.750000  0.878399  1
  Ge  Ge6  1  0.641126  0.750000  0.378399  1
  Ge  Ge7  1  0.141126  0.250000  0.121601  1
  Pd  Pd8  1  0.412019  0.051275  0.317176  1
  Pd  Pd9  1  0.087981  0.051275  0.817176  1
  Pd  Pd10  1  0.412019  0.448725  0.317176  1
  Pd  Pd11  1  0.912019  0.551275  0.182824  1
  Pd  Pd12  1  0.587981  0.551275  0.682824  1
  Pd  Pd13  1  0.087981  0.448725  0.817176  1
  Pd  Pd14  1  0.587981  0.948725  0.682824  1
  Pd  Pd15  1  0.912019  0.948725  0.182824  1
