# generated using pymatgen
data_EuC2(SN)2
_symmetry_space_group_name_H-M   'P 1'
_cell_length_a   6.04420015
_cell_length_b   6.04420015
_cell_length_c   8.12078852
_cell_angle_alpha   88.99992092
_cell_angle_beta   91.00007908
_cell_angle_gamma   115.54545252
_symmetry_Int_Tables_number   1
_chemical_formula_structural   EuC2(SN)2
_chemical_formula_sum   'Eu2 C4 S4 N4'
_cell_volume   267.61297623
_cell_formula_units_Z   2
loop_
 _symmetry_equiv_pos_site_id
 _symmetry_equiv_pos_as_xyz
  1  'x, y, z'
loop_
 _atom_site_type_symbol
 _atom_site_label
 _atom_site_symmetry_multiplicity
 _atom_site_fract_x
 _atom_site_fract_y
 _atom_site_fract_z
 _atom_site_occupancy
  Eu  Eu0  1  0.912175  0.912175  0.250000  1
  Eu  Eu1  1  0.087825  0.087825  0.750000  1
  C  C2  1  0.513295  0.752044  0.898460  1
  C  C3  1  0.247956  0.486705  0.398460  1
  C  C4  1  0.486705  0.247956  0.101540  1
  C  C5  1  0.752044  0.513295  0.601540  1
  S  S6  1  0.765054  0.359900  0.173354  1
  S  S7  1  0.359900  0.765054  0.326646  1
  S  S8  1  0.234946  0.640100  0.826646  1
  S  S9  1  0.640100  0.234946  0.673354  1
  N  N10  1  0.719241  0.838306  0.949984  1
  N  N11  1  0.161694  0.280759  0.449984  1
  N  N12  1  0.838306  0.719241  0.550016  1
  N  N13  1  0.280759  0.161694  0.050016  1
