# generated using pymatgen
data_Al3Fe2Si3
_symmetry_space_group_name_H-M   'P 1'
_cell_length_a   7.13622484
_cell_length_b   8.35758510
_cell_length_c   15.63509367
_cell_angle_alpha   90.00000000
_cell_angle_beta   113.23684018
_cell_angle_gamma   90.00000000
_symmetry_Int_Tables_number   1
_chemical_formula_structural   Al3Fe2Si3
_chemical_formula_sum   'Al24 Fe16 Si24'
_cell_volume   856.85925862
_cell_formula_units_Z   8
loop_
 _symmetry_equiv_pos_site_id
 _symmetry_equiv_pos_as_xyz
  1  'x, y, z'
loop_
 _atom_site_type_symbol
 _atom_site_label
 _atom_site_symmetry_multiplicity
 _atom_site_fract_x
 _atom_site_fract_y
 _atom_site_fract_z
 _atom_site_occupancy
  Al  Al0  1  0.925474  0.877848  0.722942  1
  Al  Al1  1  0.074526  0.377848  0.777058  1
  Al  Al2  1  0.074526  0.122152  0.277058  1
  Al  Al3  1  0.925474  0.622152  0.222942  1
  Al  Al4  1  0.624027  0.376755  0.675237  1
  Al  Al5  1  0.375973  0.876755  0.824763  1
  Al  Al6  1  0.375973  0.623245  0.324763  1
  Al  Al7  1  0.624027  0.123245  0.175237  1
  Al  Al8  1  0.102863  0.886449  0.056059  1
  Al  Al9  1  0.897137  0.386449  0.443941  1
  Al  Al10  1  0.897137  0.113551  0.943941  1
  Al  Al11  1  0.102863  0.613551  0.556059  1
  Al  Al12  1  0.100794  0.362835  0.050228  1
  Al  Al13  1  0.899206  0.862835  0.449772  1
  Al  Al14  1  0.899206  0.637165  0.949772  1
  Al  Al15  1  0.100794  0.137165  0.550228  1
  Al  Al16  1  0.489710  0.794937  0.177799  1
  Al  Al17  1  0.510290  0.294937  0.322201  1
  Al  Al18  1  0.510290  0.205063  0.822201  1
  Al  Al19  1  0.489710  0.705063  0.677799  1
  Al  Al20  1  0.492381  0.452852  0.168791  1
  Al  Al21  1  0.507619  0.952852  0.331209  1
  Al  Al22  1  0.507619  0.547148  0.831209  1
  Al  Al23  1  0.492381  0.047148  0.668791  1
  Fe  Fe24  1  0.704322  0.876585  0.969812  1
  Fe  Fe25  1  0.295678  0.376585  0.530188  1
  Fe  Fe26  1  0.295678  0.123415  0.030188  1
  Fe  Fe27  1  0.704322  0.623415  0.469812  1
  Fe  Fe28  1  0.702203  0.373469  0.965357  1
  Fe  Fe29  1  0.297797  0.873469  0.534643  1
  Fe  Fe30  1  0.297797  0.626531  0.034643  1
  Fe  Fe31  1  0.702203  0.126531  0.465357  1
  Fe  Fe32  1  0.174876  0.863136  0.228861  1
  Fe  Fe33  1  0.825124  0.363136  0.271139  1
  Fe  Fe34  1  0.825124  0.136864  0.771139  1
  Fe  Fe35  1  0.174876  0.636864  0.728861  1
  Fe  Fe36  1  0.171700  0.382849  0.227139  1
  Fe  Fe37  1  0.828300  0.882849  0.272861  1
  Fe  Fe38  1  0.828300  0.617151  0.772861  1
  Fe  Fe39  1  0.171700  0.117151  0.727139  1
  Si  Si40  1  0.639085  0.878857  0.533589  1
  Si  Si41  1  0.360915  0.378857  0.966411  1
  Si  Si42  1  0.360915  0.121143  0.466411  1
  Si  Si43  1  0.639085  0.621143  0.033589  1
  Si  Si44  1  0.611039  0.372386  0.510781  1
  Si  Si45  1  0.388961  0.872386  0.989219  1
  Si  Si46  1  0.388961  0.627614  0.489219  1
  Si  Si47  1  0.611039  0.127614  0.010781  1
  Si  Si48  1  0.831318  0.889020  0.126768  1
  Si  Si49  1  0.168682  0.389020  0.373232  1
  Si  Si50  1  0.168682  0.110980  0.873232  1
  Si  Si51  1  0.831318  0.610980  0.626768  1
  Si  Si52  1  0.830474  0.354369  0.124218  1
  Si  Si53  1  0.169526  0.854369  0.375782  1
  Si  Si54  1  0.169526  0.645631  0.875782  1
  Si  Si55  1  0.830474  0.145631  0.624218  1
  Si  Si56  1  0.183566  0.878215  0.651551  1
  Si  Si57  1  0.816434  0.378215  0.848449  1
  Si  Si58  1  0.816434  0.121785  0.348449  1
  Si  Si59  1  0.183566  0.621785  0.151551  1
  Si  Si60  1  0.262809  0.375251  0.672396  1
  Si  Si61  1  0.737191  0.875251  0.827604  1
  Si  Si62  1  0.737191  0.624749  0.327604  1
  Si  Si63  1  0.262809  0.124749  0.172396  1
