# generated using pymatgen
data_TlTeF5
_symmetry_space_group_name_H-M   'P 1'
_cell_length_a   4.95224263
_cell_length_b   6.28077468
_cell_length_c   17.12731099
_cell_angle_alpha   90.00000000
_cell_angle_beta   90.00000000
_cell_angle_gamma   90.00000000
_symmetry_Int_Tables_number   1
_chemical_formula_structural   TlTeF5
_chemical_formula_sum   'Tl4 Te4 F20'
_cell_volume   532.72651290
_cell_formula_units_Z   4
loop_
 _symmetry_equiv_pos_site_id
 _symmetry_equiv_pos_as_xyz
  1  'x, y, z'
loop_
 _atom_site_type_symbol
 _atom_site_label
 _atom_site_symmetry_multiplicity
 _atom_site_fract_x
 _atom_site_fract_y
 _atom_site_fract_z
 _atom_site_occupancy
  Tl  Tl0  1  0.322297  0.750000  0.565632  1
  Tl  Tl1  1  0.822297  0.250000  0.934368  1
  Tl  Tl2  1  0.677703  0.250000  0.434368  1
  Tl  Tl3  1  0.177703  0.750000  0.065632  1
  Te  Te4  1  0.044567  0.750000  0.336072  1
  Te  Te5  1  0.544567  0.250000  0.163928  1
  Te  Te6  1  0.955433  0.250000  0.663928  1
  Te  Te7  1  0.455433  0.750000  0.836072  1
  F  F8  1  0.219282  0.472906  0.698500  1
  F  F9  1  0.719282  0.527094  0.801500  1
  F  F10  1  0.780718  0.972906  0.301500  1
  F  F11  1  0.280718  0.027094  0.198500  1
  F  F12  1  0.780718  0.527094  0.301500  1
  F  F13  1  0.280718  0.472906  0.198500  1
  F  F14  1  0.219282  0.027094  0.698500  1
  F  F15  1  0.719282  0.972906  0.801500  1
  F  F16  1  0.696266  0.750000  0.925035  1
  F  F17  1  0.196266  0.250000  0.574965  1
  F  F18  1  0.303734  0.250000  0.074965  1
  F  F19  1  0.803734  0.750000  0.425035  1
  F  F20  1  0.281849  0.976328  0.904200  1
  F  F21  1  0.781849  0.023672  0.595800  1
  F  F22  1  0.718151  0.476328  0.095800  1
  F  F23  1  0.218151  0.523672  0.404200  1
  F  F24  1  0.718151  0.023672  0.095800  1
  F  F25  1  0.218151  0.976328  0.404200  1
  F  F26  1  0.281849  0.523672  0.904200  1
  F  F27  1  0.781849  0.476328  0.595800  1
