# generated using pymatgen
data_TlCdCl3
_symmetry_space_group_name_H-M   'P 1'
_cell_length_a   4.04572016
_cell_length_b   9.18009054
_cell_length_c   15.16895074
_cell_angle_alpha   90.00000000
_cell_angle_beta   90.00000000
_cell_angle_gamma   90.00000000
_symmetry_Int_Tables_number   1
_chemical_formula_structural   TlCdCl3
_chemical_formula_sum   'Tl4 Cd4 Cl12'
_cell_volume   563.37600408
_cell_formula_units_Z   4
loop_
 _symmetry_equiv_pos_site_id
 _symmetry_equiv_pos_as_xyz
  1  'x, y, z'
loop_
 _atom_site_type_symbol
 _atom_site_label
 _atom_site_symmetry_multiplicity
 _atom_site_fract_x
 _atom_site_fract_y
 _atom_site_fract_z
 _atom_site_occupancy
  Tl  Tl0  1  0.250000  0.934077  0.320215  1
  Tl  Tl1  1  0.750000  0.065923  0.679785  1
  Tl  Tl2  1  0.250000  0.434077  0.179785  1
  Tl  Tl3  1  0.750000  0.565923  0.820215  1
  Cd  Cd4  1  0.250000  0.670049  0.551953  1
  Cd  Cd5  1  0.750000  0.329951  0.448047  1
  Cd  Cd6  1  0.250000  0.170049  0.948047  1
  Cd  Cd7  1  0.750000  0.829951  0.051953  1
  Cl  Cl8  1  0.250000  0.517047  0.400253  1
  Cl  Cl9  1  0.750000  0.482953  0.599747  1
  Cl  Cl10  1  0.250000  0.017047  0.099747  1
  Cl  Cl11  1  0.750000  0.982953  0.900253  1
  Cl  Cl12  1  0.250000  0.669802  0.990432  1
  Cl  Cl13  1  0.750000  0.330198  0.009568  1
  Cl  Cl14  1  0.250000  0.169802  0.509568  1
  Cl  Cl15  1  0.750000  0.830198  0.490432  1
  Cl  Cl16  1  0.750000  0.711640  0.205478  1
  Cl  Cl17  1  0.250000  0.288360  0.794522  1
  Cl  Cl18  1  0.750000  0.211640  0.294522  1
  Cl  Cl19  1  0.250000  0.788360  0.705478  1
