# generated using pymatgen
data_CeSi
_symmetry_space_group_name_H-M   'P 1'
_cell_length_a   3.89421407
_cell_length_b   5.84072856
_cell_length_c   8.16471242
_cell_angle_alpha   90.00000000
_cell_angle_beta   90.00000000
_cell_angle_gamma   90.00000000
_symmetry_Int_Tables_number   1
_chemical_formula_structural   CeSi
_chemical_formula_sum   'Ce4 Si4'
_cell_volume   185.70677049
_cell_formula_units_Z   4
loop_
 _symmetry_equiv_pos_site_id
 _symmetry_equiv_pos_as_xyz
  1  'x, y, z'
loop_
 _atom_site_type_symbol
 _atom_site_label
 _atom_site_symmetry_multiplicity
 _atom_site_fract_x
 _atom_site_fract_y
 _atom_site_fract_z
 _atom_site_occupancy
  Ce  Ce0  1  0.250000  0.383871  0.680937  1
  Ce  Ce1  1  0.750000  0.616129  0.319063  1
  Ce  Ce2  1  0.750000  0.883871  0.819063  1
  Ce  Ce3  1  0.250000  0.116129  0.180937  1
  Si  Si4  1  0.250000  0.877895  0.534348  1
  Si  Si5  1  0.750000  0.122105  0.465652  1
  Si  Si6  1  0.750000  0.377895  0.965652  1
  Si  Si7  1  0.250000  0.622105  0.034348  1
