# generated using pymatgen
data_CeGeIr
_symmetry_space_group_name_H-M   'P 1'
_cell_length_a   4.39859823
_cell_length_b   7.03606335
_cell_length_c   7.67076504
_cell_angle_alpha   90.00000000
_cell_angle_beta   90.00000000
_cell_angle_gamma   90.00000000
_symmetry_Int_Tables_number   1
_chemical_formula_structural   CeGeIr
_chemical_formula_sum   'Ce4 Ge4 Ir4'
_cell_volume   237.40109425
_cell_formula_units_Z   4
loop_
 _symmetry_equiv_pos_site_id
 _symmetry_equiv_pos_as_xyz
  1  'x, y, z'
loop_
 _atom_site_type_symbol
 _atom_site_label
 _atom_site_symmetry_multiplicity
 _atom_site_fract_x
 _atom_site_fract_y
 _atom_site_fract_z
 _atom_site_occupancy
  Ce  Ce0  1  0.750000  0.513550  0.799891  1
  Ce  Ce1  1  0.250000  0.986450  0.299891  1
  Ce  Ce2  1  0.750000  0.013550  0.700109  1
  Ce  Ce3  1  0.250000  0.486450  0.200109  1
  Ge  Ge4  1  0.250000  0.821434  0.917614  1
  Ge  Ge5  1  0.250000  0.321434  0.582386  1
  Ge  Ge6  1  0.750000  0.178566  0.082386  1
  Ge  Ge7  1  0.750000  0.678566  0.417614  1
  Ir  Ir8  1  0.250000  0.218321  0.909697  1
  Ir  Ir9  1  0.250000  0.718321  0.590303  1
  Ir  Ir10  1  0.750000  0.281679  0.409697  1
  Ir  Ir11  1  0.750000  0.781679  0.090303  1
