# generated using pymatgen
data_SbIF5
_symmetry_space_group_name_H-M   'P 1'
_cell_length_a   8.56084419
_cell_length_b   16.45767772
_cell_length_c   17.05865584
_cell_angle_alpha   90.00000000
_cell_angle_beta   99.65972326
_cell_angle_gamma   90.00000000
_symmetry_Int_Tables_number   1
_chemical_formula_structural   SbIF5
_chemical_formula_sum   'Sb16 I16 F80'
_cell_volume   2369.34505546
_cell_formula_units_Z   16
loop_
 _symmetry_equiv_pos_site_id
 _symmetry_equiv_pos_as_xyz
  1  'x, y, z'
loop_
 _atom_site_type_symbol
 _atom_site_label
 _atom_site_symmetry_multiplicity
 _atom_site_fract_x
 _atom_site_fract_y
 _atom_site_fract_z
 _atom_site_occupancy
  Sb  Sb0  1  0.136941  0.219234  0.725150  1
  Sb  Sb1  1  0.863059  0.719234  0.774850  1
  Sb  Sb2  1  0.863059  0.780766  0.274850  1
  Sb  Sb3  1  0.136941  0.280766  0.225150  1
  Sb  Sb4  1  0.022405  0.240158  0.966649  1
  Sb  Sb5  1  0.977595  0.740158  0.533351  1
  Sb  Sb6  1  0.977595  0.759842  0.033351  1
  Sb  Sb7  1  0.022405  0.259842  0.466649  1
  Sb  Sb8  1  0.912534  0.994833  0.731033  1
  Sb  Sb9  1  0.087466  0.494833  0.768967  1
  Sb  Sb10  1  0.087466  0.005167  0.268967  1
  Sb  Sb11  1  0.912534  0.505167  0.231033  1
  Sb  Sb12  1  0.586056  0.286055  0.697195  1
  Sb  Sb13  1  0.413944  0.786055  0.802805  1
  Sb  Sb14  1  0.413944  0.713945  0.302805  1
  Sb  Sb15  1  0.586056  0.213945  0.197195  1
  I  I16  1  0.730031  0.507647  0.479998  1
  I  I17  1  0.269969  0.007647  0.020002  1
  I  I18  1  0.269969  0.492353  0.520002  1
  I  I19  1  0.730031  0.992353  0.979998  1
  I  I20  1  0.498162  0.584590  0.594345  1
  I  I21  1  0.501838  0.084590  0.905655  1
  I  I22  1  0.501838  0.415410  0.405655  1
  I  I23  1  0.498162  0.915410  0.094345  1
  I  I24  1  0.652131  0.518906  0.914462  1
  I  I25  1  0.347869  0.018906  0.585538  1
  I  I26  1  0.347869  0.481094  0.085538  1
  I  I27  1  0.652131  0.981094  0.414462  1
  I  I28  1  0.569709  0.384145  0.978068  1
  I  I29  1  0.430291  0.884145  0.521932  1
  I  I30  1  0.430291  0.615855  0.021932  1
  I  I31  1  0.569709  0.115855  0.478068  1
  F  F32  1  0.280131  0.174295  0.817407  1
  F  F33  1  0.719869  0.674295  0.682593  1
  F  F34  1  0.719869  0.825705  0.182593  1
  F  F35  1  0.280131  0.325705  0.317407  1
  F  F36  1  0.995244  0.249708  0.352501  1
  F  F37  1  0.004756  0.749708  0.147499  1
  F  F38  1  0.004756  0.750292  0.647499  1
  F  F39  1  0.995244  0.250292  0.852501  1
  F  F40  1  0.805230  0.280828  0.688334  1
  F  F41  1  0.194770  0.780828  0.811666  1
  F  F42  1  0.194770  0.719172  0.311666  1
  F  F43  1  0.805230  0.219172  0.188334  1
  F  F44  1  0.245445  0.242942  0.475254  1
  F  F45  1  0.754555  0.742942  0.024746  1
  F  F46  1  0.754555  0.757058  0.524746  1
  F  F47  1  0.245445  0.257058  0.975254  1
  F  F48  1  0.055564  0.375988  0.455473  1
  F  F49  1  0.944436  0.875988  0.044527  1
  F  F50  1  0.944436  0.624012  0.544527  1
  F  F51  1  0.055564  0.124012  0.955473  1
  F  F52  1  0.224080  0.139748  0.657962  1
  F  F53  1  0.775920  0.639748  0.842038  1
  F  F54  1  0.775920  0.860252  0.342038  1
  F  F55  1  0.224080  0.360252  0.157962  1
  F  F56  1  0.353796  0.289562  0.703370  1
  F  F57  1  0.646204  0.789562  0.796630  1
  F  F58  1  0.646204  0.710438  0.296630  1
  F  F59  1  0.353796  0.210438  0.203370  1
  F  F60  1  0.974236  0.113007  0.739280  1
  F  F61  1  0.025764  0.613007  0.760720  1
  F  F62  1  0.025764  0.886993  0.260720  1
  F  F63  1  0.974236  0.386993  0.239280  1
  F  F64  1  0.049873  0.276711  0.580919  1
  F  F65  1  0.950127  0.776711  0.919081  1
  F  F66  1  0.950127  0.723289  0.419081  1
  F  F67  1  0.049873  0.223289  0.080919  1
  F  F68  1  0.986951  0.146677  0.479545  1
  F  F69  1  0.013049  0.646677  0.020455  1
  F  F70  1  0.013049  0.853323  0.520455  1
  F  F71  1  0.986951  0.353323  0.979545  1
  F  F72  1  0.800325  0.280681  0.459430  1
  F  F73  1  0.199675  0.780681  0.040570  1
  F  F74  1  0.199675  0.719319  0.540570  1
  F  F75  1  0.800325  0.219319  0.959430  1
  F  F76  1  0.100936  0.974897  0.688293  1
  F  F77  1  0.899064  0.474897  0.811707  1
  F  F78  1  0.899064  0.025103  0.311707  1
  F  F79  1  0.100936  0.525103  0.188293  1
  F  F80  1  0.798976  0.018242  0.627439  1
  F  F81  1  0.201024  0.518242  0.872561  1
  F  F82  1  0.201024  0.981758  0.372561  1
  F  F83  1  0.798976  0.481758  0.127439  1
  F  F84  1  0.729402  0.021846  0.775726  1
  F  F85  1  0.270598  0.521847  0.724274  1
  F  F86  1  0.270598  0.978154  0.224274  1
  F  F87  1  0.729402  0.478154  0.275726  1
  F  F88  1  0.552624  0.378673  0.629237  1
  F  F89  1  0.447376  0.878673  0.870763  1
  F  F90  1  0.447376  0.621327  0.370763  1
  F  F91  1  0.552624  0.121327  0.129237  1
  F  F92  1  0.027819  0.979818  0.835944  1
  F  F93  1  0.972181  0.479818  0.664056  1
  F  F94  1  0.972181  0.020182  0.164056  1
  F  F95  1  0.027819  0.520182  0.335944  1
  F  F96  1  0.148292  0.382459  0.778599  1
  F  F97  1  0.851708  0.882459  0.721401  1
  F  F98  1  0.851708  0.617541  0.221401  1
  F  F99  1  0.148292  0.117541  0.278599  1
  F  F100  1  0.400121  0.691941  0.736816  1
  F  F101  1  0.599879  0.191941  0.763184  1
  F  F102  1  0.599879  0.308059  0.263184  1
  F  F103  1  0.400121  0.808059  0.236816  1
  F  F104  1  0.471020  0.717876  0.894816  1
  F  F105  1  0.528980  0.217876  0.605184  1
  F  F106  1  0.528980  0.282124  0.105184  1
  F  F107  1  0.471020  0.782124  0.394816  1
  F  F108  1  0.380369  0.854502  0.711547  1
  F  F109  1  0.619631  0.354502  0.788453  1
  F  F110  1  0.619631  0.145498  0.288453  1
  F  F111  1  0.380369  0.645498  0.211547  1
