# generated using pymatgen
data_LaSi2Ru3
_symmetry_space_group_name_H-M   'P 1'
_cell_length_a   5.69385233
_cell_length_b   5.69385233
_cell_length_c   7.21774122
_cell_angle_alpha   90.00000000
_cell_angle_beta   90.00000000
_cell_angle_gamma   120.00000000
_symmetry_Int_Tables_number   1
_chemical_formula_structural   LaSi2Ru3
_chemical_formula_sum   'La2 Si4 Ru6'
_cell_volume   202.64894066
_cell_formula_units_Z   2
loop_
 _symmetry_equiv_pos_site_id
 _symmetry_equiv_pos_as_xyz
  1  'x, y, z'
loop_
 _atom_site_type_symbol
 _atom_site_label
 _atom_site_symmetry_multiplicity
 _atom_site_fract_x
 _atom_site_fract_y
 _atom_site_fract_z
 _atom_site_occupancy
  La  La0  1  0.000000  0.000000  0.500000  1
  La  La1  1  0.000000  0.000000  0.000000  1
  Si  Si2  1  0.333333  0.666667  0.500000  1
  Si  Si3  1  0.666667  0.333333  0.000000  1
  Si  Si4  1  0.666667  0.333333  0.500000  1
  Si  Si5  1  0.333333  0.666667  0.000000  1
  Ru  Ru6  1  0.485233  0.485233  0.750000  1
  Ru  Ru7  1  0.000000  0.485233  0.250000  1
  Ru  Ru8  1  0.514767  0.514767  0.250000  1
  Ru  Ru9  1  0.514767  0.000000  0.750000  1
  Ru  Ru10  1  0.000000  0.514767  0.750000  1
  Ru  Ru11  1  0.485233  0.000000  0.250000  1
