# generated using pymatgen
data_B2Mo
_symmetry_space_group_name_H-M   'P 1'
_cell_length_a   7.20393374
_cell_length_b   7.20393374
_cell_length_c   7.20393374
_cell_angle_alpha   24.26346970
_cell_angle_beta   24.26346970
_cell_angle_gamma   24.26346970
_symmetry_Int_Tables_number   1
_chemical_formula_structural   B2Mo
_chemical_formula_sum   'B4 Mo2'
_cell_volume   55.49074596
_cell_formula_units_Z   2
loop_
 _symmetry_equiv_pos_site_id
 _symmetry_equiv_pos_as_xyz
  1  'x, y, z'
loop_
 _atom_site_type_symbol
 _atom_site_label
 _atom_site_symmetry_multiplicity
 _atom_site_fract_x
 _atom_site_fract_y
 _atom_site_fract_z
 _atom_site_occupancy
  B  B0  1  0.667804  0.667804  0.667804  1
  B  B1  1  0.332196  0.332196  0.332196  1
  B  B2  1  0.818437  0.818437  0.818437  1
  B  B3  1  0.181563  0.181563  0.181563  1
  Mo  Mo4  1  0.924419  0.924419  0.924419  1
  Mo  Mo5  1  0.075581  0.075581  0.075581  1
