# generated using pymatgen
data_Rb3Mn2Br7
_symmetry_space_group_name_H-M   'P 1'
_cell_length_a   14.42218796
_cell_length_b   14.42218796
_cell_length_c   14.42218796
_cell_angle_alpha   158.38590048
_cell_angle_beta   158.38590048
_cell_angle_gamma   30.75388542
_symmetry_Int_Tables_number   1
_chemical_formula_structural   Rb3Mn2Br7
_chemical_formula_sum   'Rb3 Mn2 Br7'
_cell_volume   406.75619994
_cell_formula_units_Z   1
loop_
 _symmetry_equiv_pos_site_id
 _symmetry_equiv_pos_as_xyz
  1  'x, y, z'
loop_
 _atom_site_type_symbol
 _atom_site_label
 _atom_site_symmetry_multiplicity
 _atom_site_fract_x
 _atom_site_fract_y
 _atom_site_fract_z
 _atom_site_occupancy
  Rb  Rb0  1  0.180824  0.180824  0.000000  1
  Rb  Rb1  1  0.000000  0.000000  0.000000  1
  Rb  Rb2  1  0.819176  0.819176  0.000000  1
  Mn  Mn3  1  0.400082  0.400082  0.000000  1
  Mn  Mn4  1  0.599918  0.599918  0.000000  1
  Br  Br5  1  0.904080  0.404080  0.500000  1
  Br  Br6  1  0.404080  0.904080  0.500000  1
  Br  Br7  1  0.305558  0.305558  0.000000  1
  Br  Br8  1  0.500000  0.500000  0.000000  1
  Br  Br9  1  0.694442  0.694442  0.000000  1
  Br  Br10  1  0.095920  0.595920  0.500000  1
  Br  Br11  1  0.595920  0.095920  0.500000  1
