# generated using pymatgen
data_CaGeAu
_symmetry_space_group_name_H-M   'P 1'
_cell_length_a   4.55712113
_cell_length_b   7.84862483
_cell_length_c   21.76446009
_cell_angle_alpha   90.00000000
_cell_angle_beta   90.00000000
_cell_angle_gamma   90.00000000
_symmetry_Int_Tables_number   1
_chemical_formula_structural   CaGeAu
_chemical_formula_sum   'Ca12 Ge12 Au12'
_cell_volume   778.45236166
_cell_formula_units_Z   12
loop_
 _symmetry_equiv_pos_site_id
 _symmetry_equiv_pos_as_xyz
  1  'x, y, z'
loop_
 _atom_site_type_symbol
 _atom_site_label
 _atom_site_symmetry_multiplicity
 _atom_site_fract_x
 _atom_site_fract_y
 _atom_site_fract_z
 _atom_site_occupancy
  Ca  Ca0  1  0.250000  0.716394  0.000607  1
  Ca  Ca1  1  0.750000  0.283606  0.999393  1
  Ca  Ca2  1  0.750000  0.216394  0.499393  1
  Ca  Ca3  1  0.250000  0.783606  0.500607  1
  Ca  Ca4  1  0.250000  0.791332  0.166128  1
  Ca  Ca5  1  0.750000  0.208668  0.833872  1
  Ca  Ca6  1  0.750000  0.291332  0.333872  1
  Ca  Ca7  1  0.250000  0.708668  0.666128  1
  Ca  Ca8  1  0.250000  0.707541  0.332950  1
  Ca  Ca9  1  0.750000  0.292459  0.667050  1
  Ca  Ca10  1  0.750000  0.207541  0.167050  1
  Ca  Ca11  1  0.250000  0.792459  0.832950  1
  Ge  Ge12  1  0.750000  0.586173  0.103618  1
  Ge  Ge13  1  0.750000  0.913827  0.603618  1
  Ge  Ge14  1  0.250000  0.086173  0.396382  1
  Ge  Ge15  1  0.250000  0.416917  0.771154  1
  Ge  Ge16  1  0.750000  0.583083  0.228846  1
  Ge  Ge17  1  0.750000  0.916917  0.728846  1
  Ge  Ge18  1  0.250000  0.413827  0.896382  1
  Ge  Ge19  1  0.250000  0.083083  0.271154  1
  Ge  Ge20  1  0.250000  0.409998  0.569076  1
  Ge  Ge21  1  0.750000  0.590002  0.430924  1
  Ge  Ge22  1  0.750000  0.909998  0.930924  1
  Ge  Ge23  1  0.250000  0.090002  0.069076  1
  Au  Au24  1  0.250000  0.084084  0.932448  1
  Au  Au25  1  0.750000  0.915916  0.067552  1
  Au  Au26  1  0.750000  0.584084  0.567552  1
  Au  Au27  1  0.250000  0.415916  0.432448  1
  Au  Au28  1  0.250000  0.087546  0.738311  1
  Au  Au29  1  0.750000  0.587546  0.761689  1
  Au  Au30  1  0.250000  0.412454  0.238311  1
  Au  Au31  1  0.250000  0.083640  0.594211  1
  Au  Au32  1  0.750000  0.916360  0.405789  1
  Au  Au33  1  0.750000  0.583640  0.905789  1
  Au  Au34  1  0.250000  0.416360  0.094211  1
  Au  Au35  1  0.750000  0.912454  0.261689  1
