# generated using pymatgen
data_Yb5Si4
_symmetry_space_group_name_H-M   'P 1'
_cell_length_a   7.51486441
_cell_length_b   7.80974719
_cell_length_c   15.47795151
_cell_angle_alpha   90.00000000
_cell_angle_beta   90.00000000
_cell_angle_gamma   90.00000000
_symmetry_Int_Tables_number   1
_chemical_formula_structural   Yb5Si4
_chemical_formula_sum   'Yb20 Si16'
_cell_volume   908.38845570
_cell_formula_units_Z   4
loop_
 _symmetry_equiv_pos_site_id
 _symmetry_equiv_pos_as_xyz
  1  'x, y, z'
loop_
 _atom_site_type_symbol
 _atom_site_label
 _atom_site_symmetry_multiplicity
 _atom_site_fract_x
 _atom_site_fract_y
 _atom_site_fract_z
 _atom_site_occupancy
  Yb  Yb0  1  0.316514  0.181340  0.122524  1
  Yb  Yb1  1  0.816514  0.318660  0.377476  1
  Yb  Yb2  1  0.183486  0.681340  0.877476  1
  Yb  Yb3  1  0.683486  0.818660  0.622524  1
  Yb  Yb4  1  0.316514  0.181340  0.377476  1
  Yb  Yb5  1  0.816514  0.318660  0.122524  1
  Yb  Yb6  1  0.183486  0.681340  0.622524  1
  Yb  Yb7  1  0.683486  0.818660  0.877476  1
  Yb  Yb8  1  0.966623  0.820687  0.401127  1
  Yb  Yb9  1  0.466623  0.679313  0.098873  1
  Yb  Yb10  1  0.533377  0.320687  0.598873  1
  Yb  Yb11  1  0.033377  0.179313  0.901127  1
  Yb  Yb12  1  0.033377  0.179313  0.598873  1
  Yb  Yb13  1  0.533377  0.320687  0.901127  1
  Yb  Yb14  1  0.466623  0.679313  0.401127  1
  Yb  Yb15  1  0.966623  0.820687  0.098873  1
  Yb  Yb16  1  0.359672  0.008626  0.750000  1
  Yb  Yb17  1  0.859672  0.491374  0.750000  1
  Yb  Yb18  1  0.140328  0.508626  0.250000  1
  Yb  Yb19  1  0.640328  0.991374  0.250000  1
  Si  Si20  1  0.863581  0.523859  0.537263  1
  Si  Si21  1  0.363581  0.976141  0.962737  1
  Si  Si22  1  0.636419  0.023859  0.462737  1
  Si  Si23  1  0.136419  0.476141  0.037263  1
  Si  Si24  1  0.136419  0.476141  0.462737  1
  Si  Si25  1  0.636419  0.023859  0.037263  1
  Si  Si26  1  0.363581  0.976141  0.537263  1
  Si  Si27  1  0.863581  0.523859  0.962737  1
  Si  Si28  1  0.973353  0.904551  0.750000  1
  Si  Si29  1  0.473353  0.595449  0.750000  1
  Si  Si30  1  0.526647  0.404551  0.250000  1
  Si  Si31  1  0.026647  0.095449  0.250000  1
  Si  Si32  1  0.252468  0.379520  0.750000  1
  Si  Si33  1  0.752468  0.120480  0.750000  1
  Si  Si34  1  0.247532  0.879520  0.250000  1
  Si  Si35  1  0.747532  0.620480  0.250000  1
