# generated using pymatgen
data_CuH2(SeO3)2
_symmetry_space_group_name_H-M   'P 1'
_cell_length_a   5.84363262
_cell_length_b   7.42330571
_cell_length_c   8.50610000
_cell_angle_alpha   90.00000000
_cell_angle_beta   130.13920490
_cell_angle_gamma   90.00000000
_symmetry_Int_Tables_number   1
_chemical_formula_structural   CuH2(SeO3)2
_chemical_formula_sum   'Cu2 H4 Se4 O12'
_cell_volume   282.08314309
_cell_formula_units_Z   2
loop_
 _symmetry_equiv_pos_site_id
 _symmetry_equiv_pos_as_xyz
  1  'x, y, z'
loop_
 _atom_site_type_symbol
 _atom_site_label
 _atom_site_symmetry_multiplicity
 _atom_site_fract_x
 _atom_site_fract_y
 _atom_site_fract_z
 _atom_site_occupancy
  Cu  Cu0  1  0.500000  0.000000  0.500000  1
  Cu  Cu1  1  0.500000  0.500000  0.000000  1
  H  H2  1  0.436148  0.401871  0.337662  1
  H  H3  1  0.563852  0.901871  0.162338  1
  H  H4  1  0.436148  0.098129  0.837662  1
  H  H5  1  0.563852  0.598129  0.662338  1
  Se  Se6  1  0.861460  0.335137  0.784094  1
  Se  Se7  1  0.138540  0.835137  0.715906  1
  Se  Se8  1  0.861460  0.164863  0.284094  1
  Se  Se9  1  0.138540  0.664863  0.215906  1
  O  O10  1  0.415378  0.763004  0.966061  1
  O  O11  1  0.584622  0.236996  0.033939  1
  O  O12  1  0.584622  0.263004  0.533939  1
  O  O13  1  0.917204  0.546557  0.244770  1
  O  O14  1  0.415378  0.736996  0.466061  1
  O  O15  1  0.082796  0.046557  0.255230  1
  O  O16  1  0.082796  0.453443  0.755230  1
  O  O17  1  0.917204  0.953443  0.744770  1
  O  O18  1  0.342452  0.482713  0.213083  1
  O  O19  1  0.657548  0.982713  0.286917  1
  O  O20  1  0.657548  0.517287  0.786917  1
  O  O21  1  0.342452  0.017287  0.713083  1
