# generated using pymatgen
data_NaIn2Au
_symmetry_space_group_name_H-M   'P 1'
_cell_length_a   5.71953893
_cell_length_b   5.71953893
_cell_length_c   8.04896430
_cell_angle_alpha   90.00000000
_cell_angle_beta   90.00000000
_cell_angle_gamma   132.58678148
_symmetry_Int_Tables_number   1
_chemical_formula_structural   NaIn2Au
_chemical_formula_sum   'Na2 In4 Au2'
_cell_volume   193.86046630
_cell_formula_units_Z   2
loop_
 _symmetry_equiv_pos_site_id
 _symmetry_equiv_pos_as_xyz
  1  'x, y, z'
loop_
 _atom_site_type_symbol
 _atom_site_label
 _atom_site_symmetry_multiplicity
 _atom_site_fract_x
 _atom_site_fract_y
 _atom_site_fract_z
 _atom_site_occupancy
  Na  Na0  1  0.429743  0.570257  0.250000  1
  Na  Na1  1  0.570257  0.429743  0.750000  1
  In  In2  1  0.859725  0.140275  0.947269  1
  In  In3  1  0.140275  0.859725  0.052731  1
  In  In4  1  0.140275  0.859725  0.447269  1
  In  In5  1  0.859725  0.140275  0.552731  1
  Au  Au6  1  0.715708  0.284292  0.250000  1
  Au  Au7  1  0.284292  0.715708  0.750000  1
