# generated using pymatgen
data_TbCl
_symmetry_space_group_name_H-M   'P 1'
_cell_length_a   9.86647900
_cell_length_b   9.86647900
_cell_length_c   9.86647900
_cell_angle_alpha   22.02836034
_cell_angle_beta   22.02836034
_cell_angle_gamma   22.02836034
_symmetry_Int_Tables_number   1
_chemical_formula_structural   TbCl
_chemical_formula_sum   'Tb2 Cl2'
_cell_volume   118.45303270
_cell_formula_units_Z   2
loop_
 _symmetry_equiv_pos_site_id
 _symmetry_equiv_pos_as_xyz
  1  'x, y, z'
loop_
 _atom_site_type_symbol
 _atom_site_label
 _atom_site_symmetry_multiplicity
 _atom_site_fract_x
 _atom_site_fract_y
 _atom_site_fract_z
 _atom_site_occupancy
  Tb  Tb0  1  0.784635  0.784635  0.784635  1
  Tb  Tb1  1  0.215365  0.215365  0.215365  1
  Cl  Cl2  1  0.608965  0.608965  0.608965  1
  Cl  Cl3  1  0.391035  0.391035  0.391035  1
