# generated using pymatgen
data_Zn(IO3)2
_symmetry_space_group_name_H-M   'P 1'
_cell_length_a   5.55175166
_cell_length_b   5.33909033
_cell_length_c   9.46923815
_cell_angle_alpha   90.00000000
_cell_angle_beta   90.42580121
_cell_angle_gamma   90.00000000
_symmetry_Int_Tables_number   1
_chemical_formula_structural   Zn(IO3)2
_chemical_formula_sum   'Zn2 I4 O12'
_cell_volume   280.67281223
_cell_formula_units_Z   2
loop_
 _symmetry_equiv_pos_site_id
 _symmetry_equiv_pos_as_xyz
  1  'x, y, z'
loop_
 _atom_site_type_symbol
 _atom_site_label
 _atom_site_symmetry_multiplicity
 _atom_site_fract_x
 _atom_site_fract_y
 _atom_site_fract_z
 _atom_site_occupancy
  Zn  Zn0  1  0.232418  0.920192  0.746031  1
  Zn  Zn1  1  0.767582  0.420192  0.253969  1
  I  I2  1  0.263521  0.490035  0.066013  1
  I  I3  1  0.736479  0.990035  0.933987  1
  I  I4  1  0.270884  0.015523  0.399763  1
  I  I5  1  0.729116  0.515523  0.600237  1
  O  O6  1  0.446930  0.697682  0.599275  1
  O  O7  1  0.553070  0.197682  0.400725  1
  O  O8  1  0.856346  0.629923  0.433290  1
  O  O9  1  0.143654  0.129923  0.566710  1
  O  O10  1  0.907310  0.702500  0.727654  1
  O  O11  1  0.092690  0.202500  0.272346  1
  O  O12  1  0.651151  0.198985  0.080779  1
  O  O13  1  0.348849  0.698985  0.919221  1
  O  O14  1  0.535665  0.135145  0.800904  1
  O  O15  1  0.464335  0.635145  0.199096  1
  O  O16  1  0.018040  0.147016  0.880460  1
  O  O17  1  0.981960  0.647016  0.119540  1
