# generated using pymatgen
data_Cr2TeO6
_symmetry_space_group_name_H-M   'P 1'
_cell_length_a   4.63130644
_cell_length_b   4.63130644
_cell_length_c   9.17252125
_cell_angle_alpha   90.00000000
_cell_angle_beta   90.00000000
_cell_angle_gamma   90.00000000
_symmetry_Int_Tables_number   1
_chemical_formula_structural   Cr2TeO6
_chemical_formula_sum   'Cr4 Te2 O12'
_cell_volume   196.74140182
_cell_formula_units_Z   2
loop_
 _symmetry_equiv_pos_site_id
 _symmetry_equiv_pos_as_xyz
  1  'x, y, z'
loop_
 _atom_site_type_symbol
 _atom_site_label
 _atom_site_symmetry_multiplicity
 _atom_site_fract_x
 _atom_site_fract_y
 _atom_site_fract_z
 _atom_site_occupancy
  Cr  Cr0  1  0.500000  0.500000  0.334792  1
  Cr  Cr1  1  0.000000  0.000000  0.165208  1
  Cr  Cr2  1  0.000000  0.000000  0.834792  1
  Cr  Cr3  1  0.500000  0.500000  0.665208  1
  Te  Te4  1  0.500000  0.500000  0.000000  1
  Te  Te5  1  0.000000  0.000000  0.500000  1
  O  O6  1  0.799495  0.799495  0.000000  1
  O  O7  1  0.700505  0.299495  0.500000  1
  O  O8  1  0.299495  0.700505  0.500000  1
  O  O9  1  0.200505  0.200505  0.000000  1
  O  O10  1  0.191476  0.191476  0.662929  1
  O  O11  1  0.808524  0.808524  0.662929  1
  O  O12  1  0.191476  0.191476  0.337071  1
  O  O13  1  0.691476  0.308524  0.162929  1
  O  O14  1  0.308524  0.691476  0.162929  1
  O  O15  1  0.308524  0.691476  0.837071  1
  O  O16  1  0.808524  0.808524  0.337071  1
  O  O17  1  0.691476  0.308524  0.837071  1
