# generated using pymatgen
data_Mn3O4
_symmetry_space_group_name_H-M   'P 1'
_cell_length_a   3.05408652
_cell_length_b   9.76829681
_cell_length_c   10.01240414
_cell_angle_alpha   90.00000000
_cell_angle_beta   90.00000000
_cell_angle_gamma   90.00000000
_symmetry_Int_Tables_number   1
_chemical_formula_structural   Mn3O4
_chemical_formula_sum   'Mn12 O16'
_cell_volume   298.70229159
_cell_formula_units_Z   4
loop_
 _symmetry_equiv_pos_site_id
 _symmetry_equiv_pos_as_xyz
  1  'x, y, z'
loop_
 _atom_site_type_symbol
 _atom_site_label
 _atom_site_symmetry_multiplicity
 _atom_site_fract_x
 _atom_site_fract_y
 _atom_site_fract_z
 _atom_site_occupancy
  Mn  Mn0  1  0.702846  0.250000  0.145499  1
  Mn  Mn1  1  0.219837  0.430522  0.385076  1
  Mn  Mn2  1  0.297154  0.750000  0.854501  1
  Mn  Mn3  1  0.219837  0.930522  0.114924  1
  Mn  Mn4  1  0.780163  0.430522  0.885076  1
  Mn  Mn5  1  0.219837  0.569478  0.114924  1
  Mn  Mn6  1  0.780163  0.569478  0.614924  1
  Mn  Mn7  1  0.780163  0.069478  0.885076  1
  Mn  Mn8  1  0.702846  0.750000  0.354501  1
  Mn  Mn9  1  0.297154  0.250000  0.645499  1
  Mn  Mn10  1  0.780163  0.930522  0.614924  1
  Mn  Mn11  1  0.219837  0.069478  0.385076  1
  O  O12  1  0.353799  0.500000  0.750000  1
  O  O13  1  0.353799  0.000000  0.750000  1
  O  O14  1  0.208850  0.750000  0.201946  1
  O  O15  1  0.791150  0.750000  0.701946  1
  O  O16  1  0.789539  0.112038  0.528583  1
  O  O17  1  0.789539  0.612038  0.971417  1
  O  O18  1  0.789539  0.387962  0.528583  1
  O  O19  1  0.210461  0.887962  0.471417  1
  O  O20  1  0.208850  0.250000  0.298054  1
  O  O21  1  0.210461  0.612038  0.471417  1
  O  O22  1  0.210461  0.112038  0.028583  1
  O  O23  1  0.646201  0.000000  0.250000  1
  O  O24  1  0.646201  0.500000  0.250000  1
  O  O25  1  0.791150  0.250000  0.798054  1
  O  O26  1  0.210461  0.387962  0.028583  1
  O  O27  1  0.789539  0.887962  0.971417  1
