# generated using pymatgen
data_V2O3
_symmetry_space_group_name_H-M   'P 1'
_cell_length_a   8.29142249
_cell_length_b   8.29142249
_cell_length_c   8.29142249
_cell_angle_alpha   109.47122063
_cell_angle_beta   109.47122063
_cell_angle_gamma   109.47122063
_symmetry_Int_Tables_number   1
_chemical_formula_structural   V2O3
_chemical_formula_sum   'V16 O24'
_cell_volume   438.79861105
_cell_formula_units_Z   8
loop_
 _symmetry_equiv_pos_site_id
 _symmetry_equiv_pos_as_xyz
  1  'x, y, z'
loop_
 _atom_site_type_symbol
 _atom_site_label
 _atom_site_symmetry_multiplicity
 _atom_site_fract_x
 _atom_site_fract_y
 _atom_site_fract_z
 _atom_site_occupancy
  V  V0  1  0.750000  0.781986  0.031986  1
  V  V1  1  0.781986  0.031986  0.750000  1
  V  V2  1  0.531986  0.750000  0.281986  1
  V  V3  1  0.031986  0.750000  0.781986  1
  V  V4  1  0.718014  0.468014  0.250000  1
  V  V5  1  0.250000  0.718014  0.468014  1
  V  V6  1  0.281986  0.531986  0.750000  1
  V  V7  1  0.468014  0.250000  0.718014  1
  V  V8  1  0.250000  0.218014  0.968014  1
  V  V9  1  0.218014  0.968014  0.250000  1
  V  V10  1  0.968014  0.250000  0.218014  1
  V  V11  1  0.750000  0.281986  0.531986  1
  V  V12  1  0.500000  0.500000  0.500000  1
  V  V13  1  0.000000  0.000000  0.500000  1
  V  V14  1  0.500000  0.000000  0.000000  1
  V  V15  1  0.000000  0.500000  0.000000  1
  O  O16  1  0.274173  0.008367  0.045350  1
  O  O17  1  0.008367  0.045350  0.274173  1
  O  O18  1  0.234193  0.963016  0.508367  1
  O  O19  1  0.265807  0.774173  0.728823  1
  O  O20  1  0.734193  0.225827  0.271177  1
  O  O21  1  0.725827  0.991633  0.954650  1
  O  O22  1  0.536984  0.771177  0.545350  1
  O  O23  1  0.454650  0.463016  0.228823  1
  O  O24  1  0.228823  0.454650  0.463016  1
  O  O25  1  0.271177  0.734193  0.225827  1
  O  O26  1  0.045350  0.274173  0.008367  1
  O  O27  1  0.225827  0.271177  0.734193  1
  O  O28  1  0.036984  0.491633  0.765807  1
  O  O29  1  0.963016  0.508367  0.234193  1
  O  O30  1  0.991633  0.954650  0.725827  1
  O  O31  1  0.771177  0.545350  0.536984  1
  O  O32  1  0.545350  0.536984  0.771177  1
  O  O33  1  0.765807  0.036984  0.491633  1
  O  O34  1  0.508367  0.234193  0.963016  1
  O  O35  1  0.491633  0.765807  0.036984  1
  O  O36  1  0.954650  0.725827  0.991633  1
  O  O37  1  0.728823  0.265807  0.774173  1
  O  O38  1  0.774173  0.728823  0.265807  1
  O  O39  1  0.463016  0.228823  0.454650  1
