# generated using pymatgen
data_Na5InTe4
_symmetry_space_group_name_H-M   'P 1'
_cell_length_a   7.49257900
_cell_length_b   17.79727855
_cell_length_c   20.43844846
_cell_angle_alpha   90.00000000
_cell_angle_beta   90.00000000
_cell_angle_gamma   90.00000000
_symmetry_Int_Tables_number   1
_chemical_formula_structural   Na5InTe4
_chemical_formula_sum   'Na40 In8 Te32'
_cell_volume   2725.41632324
_cell_formula_units_Z   8
loop_
 _symmetry_equiv_pos_site_id
 _symmetry_equiv_pos_as_xyz
  1  'x, y, z'
loop_
 _atom_site_type_symbol
 _atom_site_label
 _atom_site_symmetry_multiplicity
 _atom_site_fract_x
 _atom_site_fract_y
 _atom_site_fract_z
 _atom_site_occupancy
  Na  Na0  1  0.674872  0.331157  0.003262  1
  Na  Na1  1  0.000000  0.750000  0.127520  1
  Na  Na2  1  0.834614  0.085638  0.617616  1
  Na  Na3  1  0.977223  0.991846  0.234734  1
  Na  Na4  1  0.326578  0.676821  0.257476  1
  Na  Na5  1  0.325128  0.168843  0.003262  1
  Na  Na6  1  0.674872  0.831157  0.996738  1
  Na  Na7  1  0.665386  0.085638  0.117616  1
  Na  Na8  1  0.174872  0.668843  0.496738  1
  Na  Na9  1  0.173422  0.676821  0.757476  1
  Na  Na10  1  0.165386  0.414362  0.617616  1
  Na  Na11  1  0.173422  0.176821  0.242524  1
  Na  Na12  1  0.500000  0.750000  0.627520  1
  Na  Na13  1  0.165386  0.914362  0.382384  1
  Na  Na14  1  0.326578  0.176821  0.742524  1
  Na  Na15  1  0.834614  0.585638  0.382384  1
  Na  Na16  1  0.334614  0.414362  0.117616  1
  Na  Na17  1  0.022777  0.008154  0.765266  1
  Na  Na18  1  0.522777  0.991846  0.734734  1
  Na  Na19  1  0.522777  0.491846  0.265266  1
  Na  Na20  1  0.665386  0.585638  0.882384  1
  Na  Na21  1  0.477223  0.008154  0.265266  1
  Na  Na22  1  0.000000  0.250000  0.872480  1
  Na  Na23  1  0.825128  0.331157  0.503262  1
  Na  Na24  1  0.022777  0.508154  0.234734  1
  Na  Na25  1  0.500000  0.000000  0.500000  1
  Na  Na26  1  0.325128  0.668843  0.996738  1
  Na  Na27  1  0.977223  0.491846  0.765266  1
  Na  Na28  1  0.334614  0.914362  0.882384  1
  Na  Na29  1  0.673422  0.323179  0.742524  1
  Na  Na30  1  0.825128  0.831157  0.496738  1
  Na  Na31  1  0.673422  0.823179  0.257476  1
  Na  Na32  1  0.826578  0.823179  0.757476  1
  Na  Na33  1  0.000000  0.000000  0.000000  1
  Na  Na34  1  0.500000  0.250000  0.372480  1
  Na  Na35  1  0.826578  0.323179  0.242524  1
  Na  Na36  1  0.174872  0.168843  0.503262  1
  Na  Na37  1  0.500000  0.500000  0.500000  1
  Na  Na38  1  0.477223  0.508154  0.734734  1
  Na  Na39  1  0.000000  0.500000  0.000000  1
  In  In40  1  0.637061  0.088095  0.878634  1
  In  In41  1  0.862939  0.088095  0.378634  1
  In  In42  1  0.137061  0.911905  0.621366  1
  In  In43  1  0.137061  0.411905  0.378634  1
  In  In44  1  0.362939  0.911905  0.121366  1
  In  In45  1  0.862939  0.588095  0.621366  1
  In  In46  1  0.362939  0.411905  0.878634  1
  In  In47  1  0.637061  0.588095  0.121366  1
  Te  Te48  1  0.260960  0.346753  0.258967  1
  Te  Te49  1  0.775228  0.661452  0.011262  1
  Te  Te50  1  0.224772  0.838548  0.011262  1
  Te  Te51  1  0.240047  0.564221  0.874587  1
  Te  Te52  1  0.759953  0.935779  0.874587  1
  Te  Te53  1  0.239040  0.846753  0.241033  1
  Te  Te54  1  0.724772  0.661452  0.511262  1
  Te  Te55  1  0.758861  0.913316  0.627573  1
  Te  Te56  1  0.740047  0.435779  0.625413  1
  Te  Te57  1  0.758861  0.413316  0.372427  1
  Te  Te58  1  0.240047  0.064221  0.125413  1
  Te  Te59  1  0.760960  0.653247  0.241033  1
  Te  Te60  1  0.739040  0.653247  0.741033  1
  Te  Te61  1  0.239040  0.346753  0.758967  1
  Te  Te62  1  0.759953  0.435779  0.125413  1
  Te  Te63  1  0.740047  0.935779  0.374587  1
  Te  Te64  1  0.275228  0.838548  0.511262  1
  Te  Te65  1  0.258861  0.586684  0.127573  1
  Te  Te66  1  0.259953  0.064221  0.625413  1
  Te  Te67  1  0.259953  0.564221  0.374587  1
  Te  Te68  1  0.775228  0.161452  0.988738  1
  Te  Te69  1  0.258861  0.086684  0.872427  1
  Te  Te70  1  0.724772  0.161452  0.488738  1
  Te  Te71  1  0.739040  0.153247  0.258967  1
  Te  Te72  1  0.241139  0.586684  0.627573  1
  Te  Te73  1  0.241139  0.086684  0.372427  1
  Te  Te74  1  0.260960  0.846753  0.741033  1
  Te  Te75  1  0.760960  0.153247  0.758967  1
  Te  Te76  1  0.741139  0.913316  0.127573  1
  Te  Te77  1  0.224772  0.338548  0.988738  1
  Te  Te78  1  0.741139  0.413316  0.872427  1
  Te  Te79  1  0.275228  0.338548  0.488738  1
