# generated using pymatgen
data_H3SO4F
_symmetry_space_group_name_H-M   'P 1'
_cell_length_a   6.53908746
_cell_length_b   7.69772094
_cell_length_c   8.20396954
_cell_angle_alpha   90.00000000
_cell_angle_beta   90.00000000
_cell_angle_gamma   90.00000000
_symmetry_Int_Tables_number   1
_chemical_formula_structural   H3SO4F
_chemical_formula_sum   'H12 S4 O16 F4'
_cell_volume   412.95558889
_cell_formula_units_Z   4
loop_
 _symmetry_equiv_pos_site_id
 _symmetry_equiv_pos_as_xyz
  1  'x, y, z'
loop_
 _atom_site_type_symbol
 _atom_site_label
 _atom_site_symmetry_multiplicity
 _atom_site_fract_x
 _atom_site_fract_y
 _atom_site_fract_z
 _atom_site_occupancy
  H  H0  1  0.250000  0.420076  0.731610  1
  H  H1  1  0.750000  0.579924  0.268390  1
  H  H2  1  0.750000  0.920076  0.768390  1
  H  H3  1  0.250000  0.079924  0.231610  1
  H  H4  1  0.620141  0.687183  0.415019  1
  H  H5  1  0.120141  0.312817  0.584981  1
  H  H6  1  0.379859  0.187183  0.084981  1
  H  H7  1  0.879859  0.812817  0.915019  1
  H  H8  1  0.620141  0.812817  0.915019  1
  H  H9  1  0.120141  0.187183  0.084981  1
  H  H10  1  0.379859  0.312817  0.584981  1
  H  H11  1  0.879859  0.687183  0.415019  1
  S  S12  1  0.250000  0.692604  0.013350  1
  S  S13  1  0.750000  0.307396  0.986650  1
  S  S14  1  0.750000  0.192604  0.486650  1
  S  S15  1  0.250000  0.807396  0.513350  1
  O  O16  1  0.435860  0.795989  0.028390  1
  O  O17  1  0.935860  0.295989  0.471610  1
  O  O18  1  0.064140  0.795989  0.028390  1
  O  O19  1  0.564140  0.204011  0.971610  1
  O  O20  1  0.250000  0.939380  0.388480  1
  O  O21  1  0.750000  0.060620  0.611520  1
  O  O22  1  0.750000  0.439380  0.111520  1
  O  O23  1  0.250000  0.560620  0.888480  1
  O  O24  1  0.250000  0.180952  0.155239  1
  O  O25  1  0.750000  0.819048  0.844761  1
  O  O26  1  0.750000  0.680952  0.344761  1
  O  O27  1  0.250000  0.319048  0.655239  1
  O  O28  1  0.564140  0.295989  0.471610  1
  O  O29  1  0.064140  0.704011  0.528390  1
  O  O30  1  0.435860  0.704011  0.528390  1
  O  O31  1  0.935860  0.204011  0.971610  1
  F  F32  1  0.250000  0.582754  0.180621  1
  F  F33  1  0.750000  0.417246  0.819379  1
  F  F34  1  0.750000  0.082754  0.319379  1
  F  F35  1  0.250000  0.917246  0.680621  1
