# generated using pymatgen
data_V2P
_symmetry_space_group_name_H-M   'P 1'
_cell_length_a   3.27367484
_cell_length_b   6.18388011
_cell_length_c   7.56755426
_cell_angle_alpha   90.00000000
_cell_angle_beta   90.00000000
_cell_angle_gamma   90.00000000
_symmetry_Int_Tables_number   1
_chemical_formula_structural   V2P
_chemical_formula_sum   'V8 P4'
_cell_volume   153.19766477
_cell_formula_units_Z   4
loop_
 _symmetry_equiv_pos_site_id
 _symmetry_equiv_pos_as_xyz
  1  'x, y, z'
loop_
 _atom_site_type_symbol
 _atom_site_label
 _atom_site_symmetry_multiplicity
 _atom_site_fract_x
 _atom_site_fract_y
 _atom_site_fract_z
 _atom_site_occupancy
  V  V0  1  0.750000  0.638731  0.441174  1
  V  V1  1  0.750000  0.138731  0.058826  1
  V  V2  1  0.250000  0.361269  0.558826  1
  V  V3  1  0.250000  0.861269  0.941174  1
  V  V4  1  0.750000  0.539872  0.833523  1
  V  V5  1  0.750000  0.039872  0.666477  1
  V  V6  1  0.250000  0.460128  0.166477  1
  V  V7  1  0.250000  0.960128  0.333523  1
  P  P8  1  0.750000  0.252304  0.357828  1
  P  P9  1  0.750000  0.752304  0.142172  1
  P  P10  1  0.250000  0.747696  0.642172  1
  P  P11  1  0.250000  0.247696  0.857828  1
