# generated using pymatgen
data_Na3CrCl6
_symmetry_space_group_name_H-M   'P 1'
_cell_length_a   6.90508085
_cell_length_b   6.90508085
_cell_length_c   12.15038264
_cell_angle_alpha   90.00000000
_cell_angle_beta   90.00000000
_cell_angle_gamma   120.00000000
_symmetry_Int_Tables_number   1
_chemical_formula_structural   Na3CrCl6
_chemical_formula_sum   'Na6 Cr2 Cl12'
_cell_volume   501.71619824
_cell_formula_units_Z   2
loop_
 _symmetry_equiv_pos_site_id
 _symmetry_equiv_pos_as_xyz
  1  'x, y, z'
loop_
 _atom_site_type_symbol
 _atom_site_label
 _atom_site_symmetry_multiplicity
 _atom_site_fract_x
 _atom_site_fract_y
 _atom_site_fract_z
 _atom_site_occupancy
  Na  Na0  1  0.000000  0.000000  0.750000  1
  Na  Na1  1  0.000000  0.000000  0.250000  1
  Na  Na2  1  0.666667  0.333333  0.455782  1
  Na  Na3  1  0.666667  0.333333  0.044218  1
  Na  Na4  1  0.333333  0.666667  0.544218  1
  Na  Na5  1  0.333333  0.666667  0.955782  1
  Cr  Cr6  1  0.333333  0.666667  0.250000  1
  Cr  Cr7  1  0.666667  0.333333  0.750000  1
  Cl  Cl8  1  0.382742  0.322485  0.864745  1
  Cl  Cl9  1  0.939744  0.617258  0.864745  1
  Cl  Cl10  1  0.382742  0.060256  0.635255  1
  Cl  Cl11  1  0.939744  0.322485  0.635255  1
  Cl  Cl12  1  0.322485  0.939744  0.135255  1
  Cl  Cl13  1  0.677515  0.617258  0.635255  1
  Cl  Cl14  1  0.060256  0.382742  0.135255  1
  Cl  Cl15  1  0.617258  0.677515  0.135255  1
  Cl  Cl16  1  0.322485  0.382742  0.364745  1
  Cl  Cl17  1  0.617258  0.939744  0.364745  1
  Cl  Cl18  1  0.060256  0.677515  0.364745  1
  Cl  Cl19  1  0.677515  0.060256  0.864745  1
