# generated using pymatgen
data_Er2Co17
_symmetry_space_group_name_H-M   'P 1'
_cell_length_a   8.26937714
_cell_length_b   8.26937714
_cell_length_c   8.07481157
_cell_angle_alpha   90.00000000
_cell_angle_beta   90.00000000
_cell_angle_gamma   120.00000000
_symmetry_Int_Tables_number   1
_chemical_formula_structural   Er2Co17
_chemical_formula_sum   'Er4 Co34'
_cell_volume   478.19895951
_cell_formula_units_Z   2
loop_
 _symmetry_equiv_pos_site_id
 _symmetry_equiv_pos_as_xyz
  1  'x, y, z'
loop_
 _atom_site_type_symbol
 _atom_site_label
 _atom_site_symmetry_multiplicity
 _atom_site_fract_x
 _atom_site_fract_y
 _atom_site_fract_z
 _atom_site_occupancy
  Er  Er0  1  0.000000  0.000000  0.250000  1
  Er  Er1  1  0.000000  0.000000  0.750000  1
  Er  Er2  1  0.333333  0.666667  0.750000  1
  Er  Er3  1  0.666667  0.333333  0.250000  1
  Co  Co4  1  0.500000  0.000000  0.000000  1
  Co  Co5  1  0.500000  0.500000  0.500000  1
  Co  Co6  1  0.000000  0.500000  0.500000  1
  Co  Co7  1  0.000000  0.500000  0.000000  1
  Co  Co8  1  0.500000  0.500000  0.000000  1
  Co  Co9  1  0.500000  0.000000  0.500000  1
  Co  Co10  1  0.328172  0.954311  0.250000  1
  Co  Co11  1  0.373861  0.328172  0.750000  1
  Co  Co12  1  0.954311  0.626139  0.750000  1
  Co  Co13  1  0.045689  0.373861  0.250000  1
  Co  Co14  1  0.626139  0.671828  0.250000  1
  Co  Co15  1  0.373861  0.045689  0.750000  1
  Co  Co16  1  0.671828  0.626139  0.750000  1
  Co  Co17  1  0.671828  0.045689  0.750000  1
  Co  Co18  1  0.954311  0.328172  0.750000  1
  Co  Co19  1  0.045689  0.671828  0.250000  1
  Co  Co20  1  0.626139  0.954311  0.250000  1
  Co  Co21  1  0.328172  0.373861  0.250000  1
  Co  Co22  1  0.166498  0.332996  0.977583  1
  Co  Co23  1  0.833502  0.166498  0.477583  1
  Co  Co24  1  0.332996  0.166498  0.477583  1
  Co  Co25  1  0.667004  0.833502  0.977583  1
  Co  Co26  1  0.166498  0.833502  0.977583  1
  Co  Co27  1  0.833502  0.667004  0.022417  1
  Co  Co28  1  0.833502  0.166498  0.022417  1
  Co  Co29  1  0.833502  0.667004  0.477583  1
  Co  Co30  1  0.332996  0.166498  0.022417  1
  Co  Co31  1  0.667004  0.833502  0.522417  1
  Co  Co32  1  0.166498  0.332996  0.522417  1
  Co  Co33  1  0.166498  0.833502  0.522417  1
  Co  Co34  1  0.333333  0.666667  0.106280  1
  Co  Co35  1  0.666667  0.333333  0.606280  1
  Co  Co36  1  0.666667  0.333333  0.893720  1
  Co  Co37  1  0.333333  0.666667  0.393720  1
