# generated using pymatgen
data_Li6Cu9(PO4)8
_symmetry_space_group_name_H-M   'P 1'
_cell_length_a   8.72810190
_cell_length_b   8.91962047
_cell_length_c   9.06986906
_cell_angle_alpha   111.29392513
_cell_angle_beta   99.19540953
_cell_angle_gamma   104.56944359
_symmetry_Int_Tables_number   1
_chemical_formula_structural   Li6Cu9(PO4)8
_chemical_formula_sum   'Li6 Cu9 P8 O32'
_cell_volume   611.54596720
_cell_formula_units_Z   1
loop_
 _symmetry_equiv_pos_site_id
 _symmetry_equiv_pos_as_xyz
  1  'x, y, z'
loop_
 _atom_site_type_symbol
 _atom_site_label
 _atom_site_symmetry_multiplicity
 _atom_site_fract_x
 _atom_site_fract_y
 _atom_site_fract_z
 _atom_site_occupancy
  Li  Li0  1  0.353539  0.090661  0.975574  1
  Li  Li1  1  0.646461  0.909339  0.024426  1
  Li  Li2  1  0.025439  0.724319  0.266014  1
  Li  Li3  1  0.320595  0.328864  0.356628  1
  Li  Li4  1  0.679405  0.671136  0.643372  1
  Li  Li5  1  0.974561  0.275681  0.733986  1
  Cu  Cu6  1  0.795833  0.273016  0.062359  1
  Cu  Cu7  1  0.712585  0.876138  0.429090  1
  Cu  Cu8  1  0.340327  0.695285  0.441673  1
  Cu  Cu9  1  0.000000  0.500000  0.500000  1
  Cu  Cu10  1  0.659673  0.304715  0.558327  1
  Cu  Cu11  1  0.000000  0.000000  0.000000  1
  Cu  Cu12  1  0.287415  0.123862  0.570910  1
  Cu  Cu13  1  0.204167  0.726984  0.937641  1
  Cu  Cu14  1  0.500000  0.500000  0.000000  1
  P  P15  1  0.595184  0.052592  0.719353  1
  P  P16  1  0.833149  0.624667  0.909415  1
  P  P17  1  0.345813  0.566587  0.726553  1
  P  P18  1  0.034141  0.884037  0.651321  1
  P  P19  1  0.965859  0.115963  0.348679  1
  P  P20  1  0.654187  0.433413  0.273447  1
  P  P21  1  0.166851  0.375333  0.090585  1
  P  P22  1  0.404816  0.947408  0.280647  1
  O  O23  1  0.207524  0.210712  0.079862  1
  O  O24  1  0.279290  0.816125  0.315573  1
  O  O25  1  0.318834  0.954809  0.122416  1
  O  O26  1  0.157095  0.173579  0.406135  1
  O  O27  1  0.583750  0.255623  0.123259  1
  O  O28  1  0.587819  0.565304  0.237373  1
  O  O29  1  0.894526  0.933194  0.338166  1
  O  O30  1  0.566247  0.910580  0.262876  1
  O  O31  1  0.279716  0.477036  0.020289  1
  O  O32  1  0.681166  0.045191  0.877584  1
  O  O33  1  0.988177  0.323250  0.983442  1
  O  O34  1  0.720284  0.522964  0.979711  1
  O  O35  1  0.433753  0.089420  0.737124  1
  O  O36  1  0.105474  0.066806  0.661834  1
  O  O37  1  0.412181  0.434696  0.762627  1
  O  O38  1  0.416250  0.744377  0.876741  1
  O  O39  1  0.846924  0.478867  0.296289  1
  O  O40  1  0.720710  0.183875  0.684427  1
  O  O41  1  0.153076  0.521133  0.703711  1
  O  O42  1  0.090815  0.890373  0.826619  1
  O  O43  1  0.816168  0.524224  0.723202  1
  O  O44  1  0.792476  0.789288  0.920138  1
  O  O45  1  0.446373  0.126871  0.432144  1
  O  O46  1  0.392747  0.569888  0.570451  1
  O  O47  1  0.094704  0.748707  0.533329  1
  O  O48  1  0.905296  0.251293  0.466671  1
  O  O49  1  0.607253  0.430112  0.429549  1
  O  O50  1  0.553627  0.873129  0.567856  1
  O  O51  1  0.842905  0.826421  0.593865  1
  O  O52  1  0.183832  0.475776  0.276798  1
  O  O53  1  0.909185  0.109627  0.173381  1
  O  O54  1  0.011823  0.676750  0.016558  1
