# generated using pymatgen
data_Rb2CoBr4
_symmetry_space_group_name_H-M   'P 1'
_cell_length_a   7.73608643
_cell_length_b   9.89200472
_cell_length_c   13.62155211
_cell_angle_alpha   90.00000000
_cell_angle_beta   90.00000000
_cell_angle_gamma   90.00000000
_symmetry_Int_Tables_number   1
_chemical_formula_structural   Rb2CoBr4
_chemical_formula_sum   'Rb8 Co4 Br16'
_cell_volume   1042.39477124
_cell_formula_units_Z   4
loop_
 _symmetry_equiv_pos_site_id
 _symmetry_equiv_pos_as_xyz
  1  'x, y, z'
loop_
 _atom_site_type_symbol
 _atom_site_label
 _atom_site_symmetry_multiplicity
 _atom_site_fract_x
 _atom_site_fract_y
 _atom_site_fract_z
 _atom_site_occupancy
  Rb  Rb0  1  0.250000  0.126381  0.908159  1
  Rb  Rb1  1  0.750000  0.873619  0.091841  1
  Rb  Rb2  1  0.250000  0.626381  0.591841  1
  Rb  Rb3  1  0.750000  0.373619  0.408159  1
  Rb  Rb4  1  0.250000  0.485401  0.171263  1
  Rb  Rb5  1  0.750000  0.514599  0.828737  1
  Rb  Rb6  1  0.250000  0.985401  0.328737  1
  Rb  Rb7  1  0.750000  0.014599  0.671263  1
  Co  Co8  1  0.250000  0.226735  0.576526  1
  Co  Co9  1  0.250000  0.726735  0.923474  1
  Co  Co10  1  0.750000  0.273265  0.076526  1
  Co  Co11  1  0.750000  0.773265  0.423474  1
  Br  Br12  1  0.501297  0.816371  0.844416  1
  Br  Br13  1  0.001297  0.183629  0.155584  1
  Br  Br14  1  0.998703  0.316371  0.655584  1
  Br  Br15  1  0.498703  0.683629  0.344416  1
  Br  Br16  1  0.501297  0.316371  0.655584  1
  Br  Br17  1  0.498703  0.183629  0.155584  1
  Br  Br18  1  0.001297  0.683629  0.344416  1
  Br  Br19  1  0.998703  0.816371  0.844416  1
  Br  Br20  1  0.750000  0.014853  0.413266  1
  Br  Br21  1  0.250000  0.985147  0.586734  1
  Br  Br22  1  0.750000  0.514853  0.086734  1
  Br  Br23  1  0.250000  0.485147  0.913266  1
  Br  Br24  1  0.750000  0.680889  0.586958  1
  Br  Br25  1  0.250000  0.319111  0.413042  1
  Br  Br26  1  0.750000  0.180889  0.913042  1
  Br  Br27  1  0.250000  0.819111  0.086958  1
