# generated using pymatgen
data_Ge3(BiO3)4
_symmetry_space_group_name_H-M   'P 1'
_cell_length_a   9.23446721
_cell_length_b   9.23446721
_cell_length_c   9.23446721
_cell_angle_alpha   109.47122063
_cell_angle_beta   109.47122063
_cell_angle_gamma   109.47122063
_symmetry_Int_Tables_number   1
_chemical_formula_structural   Ge3(BiO3)4
_chemical_formula_sum   'Ge6 Bi8 O24'
_cell_volume   606.19680023
_cell_formula_units_Z   2
loop_
 _symmetry_equiv_pos_site_id
 _symmetry_equiv_pos_as_xyz
  1  'x, y, z'
loop_
 _atom_site_type_symbol
 _atom_site_label
 _atom_site_symmetry_multiplicity
 _atom_site_fract_x
 _atom_site_fract_y
 _atom_site_fract_z
 _atom_site_occupancy
  Ge  Ge0  1  0.750000  0.875000  0.125000  1
  Ge  Ge1  1  0.625000  0.375000  0.250000  1
  Ge  Ge2  1  0.875000  0.125000  0.750000  1
  Ge  Ge3  1  0.125000  0.750000  0.875000  1
  Ge  Ge4  1  0.375000  0.250000  0.625000  1
  Ge  Ge5  1  0.250000  0.625000  0.375000  1
  Bi  Bi6  1  0.673521  0.673521  0.673521  1
  Bi  Bi7  1  0.326479  0.500000  0.000000  1
  Bi  Bi8  1  0.500000  0.000000  0.326479  1
  Bi  Bi9  1  0.000000  0.326479  0.500000  1
  Bi  Bi10  1  0.500000  0.000000  0.826479  1
  Bi  Bi11  1  0.000000  0.826479  0.500000  1
  Bi  Bi12  1  0.826479  0.500000  0.000000  1
  Bi  Bi13  1  0.173521  0.173521  0.173521  1
  O  O14  1  0.584813  0.445192  0.779608  1
  O  O15  1  0.054808  0.639622  0.334416  1
  O  O16  1  0.720392  0.165584  0.805206  1
  O  O17  1  0.915187  0.694794  0.860378  1
  O  O18  1  0.694794  0.860378  0.915187  1
  O  O19  1  0.860378  0.915187  0.694794  1
  O  O20  1  0.084813  0.279608  0.945192  1
  O  O21  1  0.834416  0.139622  0.554808  1
  O  O22  1  0.665584  0.220392  0.305206  1
  O  O23  1  0.360378  0.194794  0.415187  1
  O  O24  1  0.194794  0.415187  0.360378  1
  O  O25  1  0.945192  0.084813  0.279608  1
  O  O26  1  0.139622  0.554808  0.834416  1
  O  O27  1  0.305206  0.665584  0.220392  1
  O  O28  1  0.415187  0.360378  0.194794  1
  O  O29  1  0.639622  0.334416  0.054808  1
  O  O30  1  0.779608  0.584813  0.445192  1
  O  O31  1  0.445192  0.779608  0.584813  1
  O  O32  1  0.805206  0.720392  0.165584  1
  O  O33  1  0.165584  0.805206  0.720392  1
  O  O34  1  0.334416  0.054808  0.639622  1
  O  O35  1  0.220392  0.305206  0.665584  1
  O  O36  1  0.554808  0.834416  0.139622  1
  O  O37  1  0.279608  0.945192  0.084813  1
