# generated using pymatgen
data_Al2Hg3Cl8
_symmetry_space_group_name_H-M   'P 1'
_cell_length_a   7.30031122
_cell_length_b   15.91830265
_cell_length_c   14.79394174
_cell_angle_alpha   90.00000000
_cell_angle_beta   98.20762306
_cell_angle_gamma   90.00000000
_symmetry_Int_Tables_number   1
_chemical_formula_structural   Al2Hg3Cl8
_chemical_formula_sum   'Al8 Hg12 Cl32'
_cell_volume   1701.57355131
_cell_formula_units_Z   4
loop_
 _symmetry_equiv_pos_site_id
 _symmetry_equiv_pos_as_xyz
  1  'x, y, z'
loop_
 _atom_site_type_symbol
 _atom_site_label
 _atom_site_symmetry_multiplicity
 _atom_site_fract_x
 _atom_site_fract_y
 _atom_site_fract_z
 _atom_site_occupancy
  Al  Al0  1  0.398210  0.683344  0.907514  1
  Al  Al1  1  0.194728  0.399936  0.721027  1
  Al  Al2  1  0.805272  0.899936  0.778973  1
  Al  Al3  1  0.805272  0.600064  0.278973  1
  Al  Al4  1  0.194728  0.100064  0.221027  1
  Al  Al5  1  0.398210  0.816656  0.407514  1
  Al  Al6  1  0.601790  0.316656  0.092486  1
  Al  Al7  1  0.601790  0.183344  0.592486  1
  Hg  Hg8  1  0.630597  0.528681  0.698157  1
  Hg  Hg9  1  0.369403  0.028681  0.801843  1
  Hg  Hg10  1  0.369403  0.471319  0.301843  1
  Hg  Hg11  1  0.630597  0.971319  0.198157  1
  Hg  Hg12  1  0.983586  0.759453  0.530366  1
  Hg  Hg13  1  0.016414  0.259453  0.969634  1
  Hg  Hg14  1  0.016414  0.240547  0.469634  1
  Hg  Hg15  1  0.983586  0.740547  0.030366  1
  Hg  Hg16  1  0.809265  0.639924  0.608959  1
  Hg  Hg17  1  0.190735  0.139924  0.891041  1
  Hg  Hg18  1  0.190735  0.360076  0.391041  1
  Hg  Hg19  1  0.809265  0.860076  0.108959  1
  Cl  Cl20  1  0.480879  0.415945  0.792761  1
  Cl  Cl21  1  0.519121  0.915945  0.707239  1
  Cl  Cl22  1  0.519121  0.584055  0.207239  1
  Cl  Cl23  1  0.480879  0.084055  0.292761  1
  Cl  Cl24  1  0.173452  0.476349  0.600047  1
  Cl  Cl25  1  0.006712  0.062253  0.311877  1
  Cl  Cl26  1  0.993288  0.562253  0.188123  1
  Cl  Cl27  1  0.993288  0.937747  0.688123  1
  Cl  Cl28  1  0.327296  0.671564  0.762525  1
  Cl  Cl29  1  0.672704  0.171564  0.737475  1
  Cl  Cl30  1  0.672704  0.328436  0.237475  1
  Cl  Cl31  1  0.327296  0.828436  0.262525  1
  Cl  Cl32  1  0.405057  0.811326  0.955490  1
  Cl  Cl33  1  0.594943  0.311326  0.544510  1
  Cl  Cl34  1  0.594943  0.188674  0.044510  1
  Cl  Cl35  1  0.405057  0.688674  0.455490  1
  Cl  Cl36  1  0.174611  0.621140  0.971641  1
  Cl  Cl37  1  0.825389  0.121140  0.528359  1
  Cl  Cl38  1  0.825389  0.378860  0.028359  1
  Cl  Cl39  1  0.174611  0.878860  0.471641  1
  Cl  Cl40  1  0.645175  0.614692  0.956162  1
  Cl  Cl41  1  0.354825  0.114692  0.543838  1
  Cl  Cl42  1  0.354825  0.385308  0.043838  1
  Cl  Cl43  1  0.645175  0.885308  0.456162  1
  Cl  Cl44  1  0.006712  0.437747  0.811877  1
  Cl  Cl45  1  0.173452  0.023651  0.100047  1
  Cl  Cl46  1  0.826548  0.523651  0.399953  1
  Cl  Cl47  1  0.826548  0.976349  0.899953  1
  Cl  Cl48  1  0.157878  0.231254  0.190007  1
  Cl  Cl49  1  0.842122  0.731254  0.309993  1
  Cl  Cl50  1  0.842122  0.768746  0.809993  1
  Cl  Cl51  1  0.157878  0.268746  0.690007  1
