# generated using pymatgen
data_TiPCl9
_symmetry_space_group_name_H-M   'P 1'
_cell_length_a   7.27727148
_cell_length_b   9.25107430
_cell_length_c   9.86307457
_cell_angle_alpha   101.35200293
_cell_angle_beta   97.11138144
_cell_angle_gamma   95.33356236
_symmetry_Int_Tables_number   1
_chemical_formula_structural   TiPCl9
_chemical_formula_sum   'Ti2 P2 Cl18'
_cell_volume   641.29484534
_cell_formula_units_Z   2
loop_
 _symmetry_equiv_pos_site_id
 _symmetry_equiv_pos_as_xyz
  1  'x, y, z'
loop_
 _atom_site_type_symbol
 _atom_site_label
 _atom_site_symmetry_multiplicity
 _atom_site_fract_x
 _atom_site_fract_y
 _atom_site_fract_z
 _atom_site_occupancy
  Ti  Ti0  1  0.388128  0.364004  0.324528  1
  Ti  Ti1  1  0.611872  0.635996  0.675472  1
  P  P2  1  0.052026  0.195718  0.776892  1
  P  P3  1  0.947974  0.804282  0.223108  1
  Cl  Cl4  1  0.921107  0.711494  0.750085  1
  Cl  Cl5  1  0.837132  0.609553  0.114976  1
  Cl  Cl6  1  0.374764  0.571135  0.223718  1
  Cl  Cl7  1  0.625236  0.428865  0.776282  1
  Cl  Cl8  1  0.419703  0.170870  0.439395  1
  Cl  Cl9  1  0.580297  0.829130  0.560605  1
  Cl  Cl10  1  0.078893  0.288506  0.249915  1
  Cl  Cl11  1  0.482229  0.758555  0.858818  1
  Cl  Cl12  1  0.517771  0.241445  0.141182  1
  Cl  Cl13  1  0.300179  0.516393  0.545176  1
  Cl  Cl14  1  0.143274  0.884718  0.128772  1
  Cl  Cl15  1  0.699821  0.483607  0.454824  1
  Cl  Cl16  1  0.943661  0.210542  0.589870  1
  Cl  Cl17  1  0.056339  0.789458  0.410130  1
  Cl  Cl18  1  0.245362  0.061130  0.764223  1
  Cl  Cl19  1  0.754638  0.938870  0.235777  1
  Cl  Cl20  1  0.856726  0.115282  0.871228  1
  Cl  Cl21  1  0.162868  0.390447  0.885024  1
