# generated using pymatgen
data_LaAs2
_symmetry_space_group_name_H-M   'P 1'
_cell_length_a   9.75411191
_cell_length_b   9.75411191
_cell_length_c   9.14267331
_cell_angle_alpha   62.07690814
_cell_angle_beta   117.92309186
_cell_angle_gamma   83.23115949
_symmetry_Int_Tables_number   1
_chemical_formula_structural   LaAs2
_chemical_formula_sum   'La8 As16'
_cell_volume   612.51354696
_cell_formula_units_Z   8
loop_
 _symmetry_equiv_pos_site_id
 _symmetry_equiv_pos_as_xyz
  1  'x, y, z'
loop_
 _atom_site_type_symbol
 _atom_site_label
 _atom_site_symmetry_multiplicity
 _atom_site_fract_x
 _atom_site_fract_y
 _atom_site_fract_z
 _atom_site_occupancy
  La  La0  1  0.701559  0.901644  0.216795  1
  La  La1  1  0.098356  0.298441  0.716795  1
  La  La2  1  0.886287  0.673367  0.820078  1
  La  La3  1  0.326633  0.113713  0.320078  1
  La  La4  1  0.728407  0.355105  0.118044  1
  La  La5  1  0.644895  0.271593  0.618044  1
  La  La6  1  0.250837  0.667073  0.424417  1
  La  La7  1  0.332927  0.749163  0.924417  1
  As  As8  1  0.598694  0.653414  0.461013  1
  As  As9  1  0.346586  0.401306  0.961013  1
  As  As10  1  0.713085  0.534938  0.325237  1
  As  As11  1  0.465062  0.286915  0.825237  1
  As  As12  1  0.335433  0.919995  0.134207  1
  As  As13  1  0.080005  0.664567  0.634207  1
  As  As14  1  0.046980  0.450907  0.290508  1
  As  As15  1  0.549093  0.953020  0.790508  1
  As  As16  1  0.872517  0.872731  0.000822  1
  As  As17  1  0.127269  0.127483  0.500822  1
  As  As18  1  0.956687  0.997633  0.750462  1
  As  As19  1  0.002367  0.043313  0.250462  1
  As  As20  1  0.523319  0.730850  0.726644  1
  As  As21  1  0.269150  0.476681  0.226644  1
  As  As22  1  0.690275  0.071542  0.432633  1
  As  As23  1  0.928458  0.309725  0.932633  1
