# generated using pymatgen
data_NiH4SeO5
_symmetry_space_group_name_H-M   'P 1'
_cell_length_a   6.50222720
_cell_length_b   8.83562503
_cell_length_c   9.17736283
_cell_angle_alpha   90.00000000
_cell_angle_beta   124.79816954
_cell_angle_gamma   90.00000000
_symmetry_Int_Tables_number   1
_chemical_formula_structural   NiH4SeO5
_chemical_formula_sum   'Ni4 H16 Se4 O20'
_cell_volume   432.96126278
_cell_formula_units_Z   4
loop_
 _symmetry_equiv_pos_site_id
 _symmetry_equiv_pos_as_xyz
  1  'x, y, z'
loop_
 _atom_site_type_symbol
 _atom_site_label
 _atom_site_symmetry_multiplicity
 _atom_site_fract_x
 _atom_site_fract_y
 _atom_site_fract_z
 _atom_site_occupancy
  Ni  Ni0  1  0.332637  0.637950  0.981775  1
  Ni  Ni1  1  0.667363  0.137950  0.518225  1
  Ni  Ni2  1  0.667363  0.362050  0.018225  1
  Ni  Ni3  1  0.332637  0.862050  0.481775  1
  H  H4  1  0.425851  0.634744  0.358301  1
  H  H5  1  0.574149  0.134744  0.141699  1
  H  H6  1  0.574149  0.365256  0.641699  1
  H  H7  1  0.425851  0.865256  0.858301  1
  H  H8  1  0.197374  0.577307  0.368716  1
  H  H9  1  0.802626  0.077307  0.131284  1
  H  H10  1  0.802626  0.422693  0.631284  1
  H  H11  1  0.197374  0.922693  0.868716  1
  H  H12  1  0.929081  0.146668  0.872187  1
  H  H13  1  0.070919  0.646668  0.627813  1
  H  H14  1  0.197268  0.017093  0.206316  1
  H  H15  1  0.802732  0.517093  0.293684  1
  H  H16  1  0.802732  0.982907  0.793684  1
  H  H17  1  0.197268  0.482907  0.706316  1
  H  H18  1  0.070919  0.853332  0.127813  1
  H  H19  1  0.929081  0.353332  0.372187  1
  Se  Se20  1  0.260940  0.155031  0.662441  1
  Se  Se21  1  0.739060  0.655031  0.837559  1
  Se  Se22  1  0.739060  0.844969  0.337559  1
  Se  Se23  1  0.260940  0.344969  0.162441  1
  O  O24  1  0.956565  0.204099  0.497353  1
  O  O25  1  0.638032  0.908470  0.466740  1
  O  O26  1  0.043435  0.795901  0.502647  1
  O  O27  1  0.956565  0.295901  0.997353  1
  O  O28  1  0.092765  0.563125  0.710462  1
  O  O29  1  0.907235  0.063125  0.789538  1
  O  O30  1  0.361968  0.408470  0.033260  1
  O  O31  1  0.092765  0.936875  0.210462  1
  O  O32  1  0.347310  0.858114  0.925145  1
  O  O33  1  0.652690  0.358114  0.574855  1
  O  O34  1  0.652690  0.141886  0.074855  1
  O  O35  1  0.347310  0.641886  0.425145  1
  O  O36  1  0.361968  0.091530  0.533260  1
  O  O37  1  0.638032  0.591530  0.966740  1
  O  O38  1  0.408024  0.169214  0.233958  1
  O  O39  1  0.591976  0.669214  0.266042  1
  O  O40  1  0.591976  0.830786  0.766042  1
  O  O41  1  0.408024  0.330786  0.733958  1
  O  O42  1  0.043435  0.704099  0.002647  1
  O  O43  1  0.907235  0.436875  0.289538  1
