# generated using pymatgen
data_Ag3BO3
_symmetry_space_group_name_H-M   'P 1'
_cell_length_a   5.95965980
_cell_length_b   5.95965980
_cell_length_c   5.95965980
_cell_angle_alpha   116.59027645
_cell_angle_beta   116.59027645
_cell_angle_gamma   116.59027645
_symmetry_Int_Tables_number   1
_chemical_formula_structural   Ag3BO3
_chemical_formula_sum   'Ag3 B1 O3'
_cell_volume   99.18943604
_cell_formula_units_Z   1
loop_
 _symmetry_equiv_pos_site_id
 _symmetry_equiv_pos_as_xyz
  1  'x, y, z'
loop_
 _atom_site_type_symbol
 _atom_site_label
 _atom_site_symmetry_multiplicity
 _atom_site_fract_x
 _atom_site_fract_y
 _atom_site_fract_z
 _atom_site_occupancy
  Ag  Ag0  1  0.509386  0.490614  0.000000  1
  Ag  Ag1  1  0.000000  0.509386  0.490614  1
  Ag  Ag2  1  0.490614  0.000000  0.509386  1
  B  B3  1  0.000000  0.000000  0.000000  1
  O  O4  1  0.000000  0.136532  0.863468  1
  O  O5  1  0.863468  0.000000  0.136532  1
  O  O6  1  0.136532  0.863468  0.000000  1
