# generated using pymatgen
data_Tl2Te3
_symmetry_space_group_name_H-M   'P 1'
_cell_length_a   7.47172242
_cell_length_b   7.47172242
_cell_length_c   8.18005658
_cell_angle_alpha   76.15258528
_cell_angle_beta   103.84741472
_cell_angle_gamma   127.06604054
_symmetry_Int_Tables_number   1
_chemical_formula_structural   Tl2Te3
_chemical_formula_sum   'Tl4 Te6'
_cell_volume   351.12699012
_cell_formula_units_Z   2
loop_
 _symmetry_equiv_pos_site_id
 _symmetry_equiv_pos_as_xyz
  1  'x, y, z'
loop_
 _atom_site_type_symbol
 _atom_site_label
 _atom_site_symmetry_multiplicity
 _atom_site_fract_x
 _atom_site_fract_y
 _atom_site_fract_z
 _atom_site_occupancy
  Tl  Tl0  1  0.764615  0.548386  0.449280  1
  Tl  Tl1  1  0.548386  0.764615  0.050720  1
  Tl  Tl2  1  0.235385  0.451614  0.550720  1
  Tl  Tl3  1  0.451614  0.235385  0.949280  1
  Te  Te4  1  0.966202  0.322931  0.926998  1
  Te  Te5  1  0.322931  0.966202  0.573002  1
  Te  Te6  1  0.033798  0.677069  0.073002  1
  Te  Te7  1  0.677069  0.033798  0.426998  1
  Te  Te8  1  0.863532  0.863532  0.750000  1
  Te  Te9  1  0.136468  0.136468  0.250000  1
