# generated using pymatgen
data_SrH2Br2O7
_symmetry_space_group_name_H-M   'P 1'
_cell_length_a   7.61099560
_cell_length_b   7.61099560
_cell_length_c   9.00518360
_cell_angle_alpha   54.11146564
_cell_angle_beta   125.88853436
_cell_angle_gamma   118.41570205
_symmetry_Int_Tables_number   1
_chemical_formula_structural   SrH2Br2O7
_chemical_formula_sum   'Sr2 H4 Br4 O14'
_cell_volume   335.36672063
_cell_formula_units_Z   2
loop_
 _symmetry_equiv_pos_site_id
 _symmetry_equiv_pos_as_xyz
  1  'x, y, z'
loop_
 _atom_site_type_symbol
 _atom_site_label
 _atom_site_symmetry_multiplicity
 _atom_site_fract_x
 _atom_site_fract_y
 _atom_site_fract_z
 _atom_site_occupancy
  Sr  Sr0  1  0.148566  0.148566  0.250000  1
  Sr  Sr1  1  0.851434  0.851434  0.750000  1
  H  H2  1  0.717424  0.785206  0.134733  1
  H  H3  1  0.785206  0.717424  0.365267  1
  H  H4  1  0.282576  0.214794  0.865267  1
  H  H5  1  0.214794  0.282576  0.634733  1
  Br  Br6  1  0.329808  0.713897  0.304536  1
  Br  Br7  1  0.713897  0.329808  0.195464  1
  Br  Br8  1  0.670192  0.286103  0.695464  1
  Br  Br9  1  0.286103  0.670192  0.804536  1
  O  O10  1  0.824116  0.824116  0.250000  1
  O  O11  1  0.175884  0.175884  0.750000  1
  O  O12  1  0.223099  0.599128  0.987058  1
  O  O13  1  0.599128  0.223099  0.512942  1
  O  O14  1  0.776901  0.400872  0.012942  1
  O  O15  1  0.400872  0.776901  0.487058  1
  O  O16  1  0.566841  0.755193  0.899768  1
  O  O17  1  0.755193  0.566841  0.600232  1
  O  O18  1  0.433159  0.244807  0.100232  1
  O  O19  1  0.244807  0.433159  0.399768  1
  O  O20  1  0.189601  0.904012  0.621918  1
  O  O21  1  0.904012  0.189601  0.878082  1
  O  O22  1  0.810399  0.095988  0.378082  1
  O  O23  1  0.095988  0.810399  0.121918  1
