# generated using pymatgen
data_Be3P2(H2O5)2
_symmetry_space_group_name_H-M   'P 1'
_cell_length_a   8.40993274
_cell_length_b   8.40993274
_cell_length_c   9.64632004
_cell_angle_alpha   85.36159703
_cell_angle_beta   94.63840297
_cell_angle_gamma   148.08745888
_symmetry_Int_Tables_number   1
_chemical_formula_structural   Be3P2(H2O5)2
_chemical_formula_sum   'Be6 P4 H8 O20'
_cell_volume   359.37853610
_cell_formula_units_Z   2
loop_
 _symmetry_equiv_pos_site_id
 _symmetry_equiv_pos_as_xyz
  1  'x, y, z'
loop_
 _atom_site_type_symbol
 _atom_site_label
 _atom_site_symmetry_multiplicity
 _atom_site_fract_x
 _atom_site_fract_y
 _atom_site_fract_z
 _atom_site_occupancy
  Be  Be0  1  0.293128  0.797768  0.657559  1
  Be  Be1  1  0.797768  0.293128  0.842441  1
  Be  Be2  1  0.706872  0.202232  0.342441  1
  Be  Be3  1  0.202232  0.706872  0.157559  1
  Be  Be4  1  0.188421  0.188421  0.750000  1
  Be  Be5  1  0.811579  0.811579  0.250000  1
  P  P6  1  0.197717  0.886525  0.894697  1
  P  P7  1  0.113475  0.802283  0.394697  1
  P  P8  1  0.802283  0.113475  0.105303  1
  P  P9  1  0.886525  0.197717  0.605303  1
  H  H10  1  0.663537  0.531158  0.688607  1
  H  H11  1  0.765277  0.582487  0.095774  1
  H  H12  1  0.582487  0.765277  0.404226  1
  H  H13  1  0.234723  0.417513  0.904226  1
  H  H14  1  0.417513  0.234723  0.595774  1
  H  H15  1  0.468842  0.336463  0.188607  1
  H  H16  1  0.336463  0.468842  0.311393  1
  H  H17  1  0.531158  0.663537  0.811393  1
  O  O18  1  0.540926  0.187330  0.891568  1
  O  O19  1  0.812670  0.459074  0.391568  1
  O  O20  1  0.459074  0.812670  0.108432  1
  O  O21  1  0.187330  0.540926  0.608432  1
  O  O22  1  0.913724  0.248700  0.956206  1
  O  O23  1  0.630724  0.538451  0.145672  1
  O  O24  1  0.086276  0.751300  0.043794  1
  O  O25  1  0.751300  0.086276  0.456206  1
  O  O26  1  0.900495  0.337209  0.199071  1
  O  O27  1  0.337209  0.900495  0.300929  1
  O  O28  1  0.099505  0.662791  0.800929  1
  O  O29  1  0.662791  0.099505  0.699071  1
  O  O30  1  0.248700  0.913724  0.543794  1
  O  O31  1  0.538451  0.630724  0.354328  1
  O  O32  1  0.369276  0.461549  0.854328  1
  O  O33  1  0.461549  0.369276  0.645672  1
  O  O34  1  0.047561  0.913688  0.832190  1
  O  O35  1  0.086312  0.952439  0.332190  1
  O  O36  1  0.952439  0.086312  0.167810  1
  O  O37  1  0.913688  0.047561  0.667810  1
