# generated using pymatgen
data_U2Co2Sn
_symmetry_space_group_name_H-M   'P 1'
_cell_length_a   7.35523967
_cell_length_b   7.35523967
_cell_length_c   3.38660672
_cell_angle_alpha   90.00000000
_cell_angle_beta   90.00000000
_cell_angle_gamma   90.00000000
_symmetry_Int_Tables_number   1
_chemical_formula_structural   U2Co2Sn
_chemical_formula_sum   'U4 Co4 Sn2'
_cell_volume   183.21390162
_cell_formula_units_Z   2
loop_
 _symmetry_equiv_pos_site_id
 _symmetry_equiv_pos_as_xyz
  1  'x, y, z'
loop_
 _atom_site_type_symbol
 _atom_site_label
 _atom_site_symmetry_multiplicity
 _atom_site_fract_x
 _atom_site_fract_y
 _atom_site_fract_z
 _atom_site_occupancy
  U  U0  1  0.334653  0.834653  0.500000  1
  U  U1  1  0.834653  0.665347  0.500000  1
  U  U2  1  0.165347  0.334653  0.500000  1
  U  U3  1  0.665347  0.165347  0.500000  1
  Co  Co4  1  0.365346  0.134654  0.000000  1
  Co  Co5  1  0.865346  0.365346  0.000000  1
  Co  Co6  1  0.134654  0.634654  0.000000  1
  Co  Co7  1  0.634654  0.865346  0.000000  1
  Sn  Sn8  1  0.000000  0.000000  0.000000  1
  Sn  Sn9  1  0.500000  0.500000  0.000000  1
