# generated using pymatgen
data_Th2CoB10
_symmetry_space_group_name_H-M   'P 1'
_cell_length_a   4.17926552
_cell_length_b   5.61755130
_cell_length_c   11.21942008
_cell_angle_alpha   90.00000000
_cell_angle_beta   90.00000000
_cell_angle_gamma   90.00000000
_symmetry_Int_Tables_number   1
_chemical_formula_structural   Th2CoB10
_chemical_formula_sum   'Th4 Co2 B20'
_cell_volume   263.40100054
_cell_formula_units_Z   2
loop_
 _symmetry_equiv_pos_site_id
 _symmetry_equiv_pos_as_xyz
  1  'x, y, z'
loop_
 _atom_site_type_symbol
 _atom_site_label
 _atom_site_symmetry_multiplicity
 _atom_site_fract_x
 _atom_site_fract_y
 _atom_site_fract_z
 _atom_site_occupancy
  Th  Th0  1  0.500000  0.301837  0.865490  1
  Th  Th1  1  0.500000  0.698163  0.134510  1
  Th  Th2  1  0.500000  0.801837  0.634510  1
  Th  Th3  1  0.500000  0.198163  0.365490  1
  Co  Co4  1  0.000000  0.500000  0.500000  1
  Co  Co5  1  0.000000  0.000000  0.000000  1
  B  B6  1  0.000000  0.127102  0.540017  1
  B  B7  1  0.000000  0.872898  0.459983  1
  B  B8  1  0.000000  0.627102  0.959983  1
  B  B9  1  0.000000  0.372898  0.040017  1
  B  B10  1  0.000000  0.152652  0.697091  1
  B  B11  1  0.000000  0.847348  0.302909  1
  B  B12  1  0.299937  0.200791  0.113493  1
  B  B13  1  0.299937  0.799209  0.886507  1
  B  B14  1  0.700063  0.700791  0.386507  1
  B  B15  1  0.700063  0.299209  0.613493  1
  B  B16  1  0.700063  0.799209  0.886507  1
  B  B17  1  0.700063  0.200791  0.113493  1
  B  B18  1  0.299937  0.299209  0.613493  1
  B  B19  1  0.299937  0.700791  0.386507  1
  B  B20  1  0.000000  0.034739  0.187213  1
  B  B21  1  0.000000  0.965261  0.812787  1
  B  B22  1  0.000000  0.534739  0.312787  1
  B  B23  1  0.000000  0.465261  0.687213  1
  B  B24  1  0.000000  0.347348  0.197091  1
  B  B25  1  0.000000  0.652652  0.802909  1
