# generated using pymatgen
data_Y(HO)3
_symmetry_space_group_name_H-M   'P 1'
_cell_length_a   6.36311706
_cell_length_b   6.36311706
_cell_length_c   3.55261390
_cell_angle_alpha   90.00000000
_cell_angle_beta   90.00000000
_cell_angle_gamma   120.00000000
_symmetry_Int_Tables_number   1
_chemical_formula_structural   Y(HO)3
_chemical_formula_sum   'Y2 H6 O6'
_cell_volume   124.57143534
_cell_formula_units_Z   2
loop_
 _symmetry_equiv_pos_site_id
 _symmetry_equiv_pos_as_xyz
  1  'x, y, z'
loop_
 _atom_site_type_symbol
 _atom_site_label
 _atom_site_symmetry_multiplicity
 _atom_site_fract_x
 _atom_site_fract_y
 _atom_site_fract_z
 _atom_site_occupancy
  Y  Y0  1  0.666667  0.333333  0.750000  1
  Y  Y1  1  0.333333  0.666667  0.250000  1
  H  H2  1  0.721395  0.861554  0.750000  1
  H  H3  1  0.859841  0.721395  0.250000  1
  H  H4  1  0.140159  0.278605  0.750000  1
  H  H5  1  0.278605  0.138446  0.250000  1
  H  H6  1  0.861554  0.140159  0.250000  1
  H  H7  1  0.138446  0.859841  0.750000  1
  O  O8  1  0.914465  0.603152  0.250000  1
  O  O9  1  0.603152  0.688687  0.750000  1
  O  O10  1  0.085535  0.396848  0.750000  1
  O  O11  1  0.396848  0.311313  0.250000  1
  O  O12  1  0.688687  0.085535  0.250000  1
  O  O13  1  0.311313  0.914465  0.750000  1
