# generated using pymatgen
data_Ca(FeO2)2
_symmetry_space_group_name_H-M   'P 1'
_cell_length_a   3.05970086
_cell_length_b   9.32848862
_cell_length_c   10.85976324
_cell_angle_alpha   90.00000000
_cell_angle_beta   90.00000000
_cell_angle_gamma   90.00000000
_symmetry_Int_Tables_number   1
_chemical_formula_structural   Ca(FeO2)2
_chemical_formula_sum   'Ca4 Fe8 O16'
_cell_volume   309.96353964
_cell_formula_units_Z   4
loop_
 _symmetry_equiv_pos_site_id
 _symmetry_equiv_pos_as_xyz
  1  'x, y, z'
loop_
 _atom_site_type_symbol
 _atom_site_label
 _atom_site_symmetry_multiplicity
 _atom_site_fract_x
 _atom_site_fract_y
 _atom_site_fract_z
 _atom_site_occupancy
  Ca  Ca0  1  0.750000  0.743041  0.155579  1
  Ca  Ca1  1  0.250000  0.256959  0.844421  1
  Ca  Ca2  1  0.750000  0.243041  0.344421  1
  Ca  Ca3  1  0.250000  0.756959  0.655579  1
  Fe  Fe4  1  0.250000  0.919478  0.395862  1
  Fe  Fe5  1  0.750000  0.580522  0.895862  1
  Fe  Fe6  1  0.250000  0.419478  0.104138  1
  Fe  Fe7  1  0.750000  0.080522  0.604138  1
  Fe  Fe8  1  0.750000  0.066421  0.110706  1
  Fe  Fe9  1  0.250000  0.933579  0.889294  1
  Fe  Fe10  1  0.750000  0.566421  0.389294  1
  Fe  Fe11  1  0.250000  0.433579  0.610706  1
  O  O12  1  0.250000  0.417961  0.426098  1
  O  O13  1  0.750000  0.582039  0.573902  1
  O  O14  1  0.250000  0.917961  0.073902  1
  O  O15  1  0.750000  0.082039  0.926098  1
  O  O16  1  0.250000  0.525098  0.783862  1
  O  O17  1  0.750000  0.474902  0.216138  1
  O  O18  1  0.250000  0.025098  0.716138  1
  O  O19  1  0.750000  0.974902  0.283862  1
  O  O20  1  0.250000  0.119955  0.475894  1
  O  O21  1  0.750000  0.880045  0.524106  1
  O  O22  1  0.250000  0.619955  0.024106  1
  O  O23  1  0.750000  0.380045  0.975894  1
  O  O24  1  0.750000  0.294784  0.663364  1
  O  O25  1  0.250000  0.705216  0.336636  1
  O  O26  1  0.250000  0.205216  0.163364  1
  O  O27  1  0.750000  0.794784  0.836636  1
