# generated using pymatgen
data_SbP2O7
_symmetry_space_group_name_H-M   'P 1'
_cell_length_a   7.33230147
_cell_length_b   8.58443960
_cell_length_c   9.19781516
_cell_angle_alpha   90.00000000
_cell_angle_beta   113.83253997
_cell_angle_gamma   90.00000000
_symmetry_Int_Tables_number   1
_chemical_formula_structural   SbP2O7
_chemical_formula_sum   'Sb4 P8 O28'
_cell_volume   529.57810512
_cell_formula_units_Z   4
loop_
 _symmetry_equiv_pos_site_id
 _symmetry_equiv_pos_as_xyz
  1  'x, y, z'
loop_
 _atom_site_type_symbol
 _atom_site_label
 _atom_site_symmetry_multiplicity
 _atom_site_fract_x
 _atom_site_fract_y
 _atom_site_fract_z
 _atom_site_occupancy
  Sb  Sb0  1  0.747217  0.910909  0.375507  1
  Sb  Sb1  1  0.747217  0.589091  0.875507  1
  Sb  Sb2  1  0.252783  0.410909  0.124493  1
  Sb  Sb3  1  0.252783  0.089091  0.624493  1
  P  P4  1  0.933992  0.236703  0.251777  1
  P  P5  1  0.933992  0.263297  0.751777  1
  P  P6  1  0.449659  0.765805  0.027472  1
  P  P7  1  0.550341  0.265805  0.472528  1
  P  P8  1  0.449659  0.734195  0.527472  1
  P  P9  1  0.550341  0.234195  0.972528  1
  P  P10  1  0.066008  0.736703  0.248223  1
  P  P11  1  0.066008  0.763297  0.748223  1
  O  O12  1  0.979798  0.093398  0.378588  1
  O  O13  1  0.885529  0.737590  0.296387  1
  O  O14  1  0.873400  0.382427  0.303563  1
  O  O15  1  0.751895  0.159948  0.098938  1
  O  O16  1  0.979798  0.406602  0.878588  1
  O  O17  1  0.885529  0.762410  0.796387  1
  O  O18  1  0.873400  0.117573  0.803563  1
  O  O19  1  0.751895  0.340052  0.598938  1
  O  O20  1  0.521258  0.897113  0.152764  1
  O  O21  1  0.415784  0.609563  0.090640  1
  O  O22  1  0.597769  0.747060  0.446307  1
  O  O23  1  0.402231  0.247060  0.053693  1
  O  O24  1  0.584216  0.109563  0.409360  1
  O  O25  1  0.478742  0.397113  0.347236  1
  O  O26  1  0.521258  0.602887  0.652764  1
  O  O27  1  0.415784  0.890437  0.590640  1
  O  O28  1  0.597769  0.752940  0.946307  1
  O  O29  1  0.402231  0.252940  0.553693  1
  O  O30  1  0.584216  0.390437  0.909360  1
  O  O31  1  0.478742  0.102887  0.847236  1
  O  O32  1  0.248105  0.659948  0.401062  1
  O  O33  1  0.126600  0.882427  0.196437  1
  O  O34  1  0.114471  0.237590  0.203613  1
  O  O35  1  0.020202  0.593398  0.121412  1
  O  O36  1  0.248105  0.840052  0.901062  1
  O  O37  1  0.126600  0.617573  0.696437  1
  O  O38  1  0.114471  0.262410  0.703613  1
  O  O39  1  0.020202  0.906602  0.621412  1
