# generated using pymatgen
data_Cd4OF6
_symmetry_space_group_name_H-M   'P 1'
_cell_length_a   7.64547882
_cell_length_b   7.64547882
_cell_length_c   5.52306885
_cell_angle_alpha   90.00000000
_cell_angle_beta   90.00000000
_cell_angle_gamma   90.00000000
_symmetry_Int_Tables_number   1
_chemical_formula_structural   Cd4OF6
_chemical_formula_sum   'Cd8 O2 F12'
_cell_volume   322.84185661
_cell_formula_units_Z   2
loop_
 _symmetry_equiv_pos_site_id
 _symmetry_equiv_pos_as_xyz
  1  'x, y, z'
loop_
 _atom_site_type_symbol
 _atom_site_label
 _atom_site_symmetry_multiplicity
 _atom_site_fract_x
 _atom_site_fract_y
 _atom_site_fract_z
 _atom_site_occupancy
  Cd  Cd0  1  0.500000  0.248910  0.197157  1
  Cd  Cd1  1  0.500000  0.751090  0.197157  1
  Cd  Cd2  1  0.251090  0.000000  0.697157  1
  Cd  Cd3  1  0.748910  0.000000  0.697157  1
  Cd  Cd4  1  0.248910  0.500000  0.802843  1
  Cd  Cd5  1  0.000000  0.251090  0.302843  1
  Cd  Cd6  1  0.000000  0.748910  0.302843  1
  Cd  Cd7  1  0.751090  0.500000  0.802843  1
  O  O8  1  0.500000  0.500000  0.000000  1
  O  O9  1  0.000000  0.000000  0.500000  1
  F  F10  1  0.500000  0.000000  0.921543  1
  F  F11  1  0.500000  0.000000  0.421543  1
  F  F12  1  0.000000  0.500000  0.578457  1
  F  F13  1  0.000000  0.500000  0.078457  1
  F  F14  1  0.786949  0.786949  0.000000  1
  F  F15  1  0.286949  0.713051  0.500000  1
  F  F16  1  0.286949  0.286949  0.500000  1
  F  F17  1  0.786949  0.213051  0.000000  1
  F  F18  1  0.213051  0.786949  0.000000  1
  F  F19  1  0.713051  0.713051  0.500000  1
  F  F20  1  0.213051  0.213051  0.000000  1
  F  F21  1  0.713051  0.286949  0.500000  1
