# generated using pymatgen
data_Cu(PO3)2
_symmetry_space_group_name_H-M   'P 1'
_cell_length_a   6.83747961
_cell_length_b   6.83747961
_cell_length_c   4.94622073
_cell_angle_alpha   74.63273060
_cell_angle_beta   105.36726940
_cell_angle_gamma   95.50319847
_symmetry_Int_Tables_number   1
_chemical_formula_structural   Cu(PO3)2
_chemical_formula_sum   'Cu2 P4 O12'
_cell_volume   214.91983474
_cell_formula_units_Z   2
loop_
 _symmetry_equiv_pos_site_id
 _symmetry_equiv_pos_as_xyz
  1  'x, y, z'
loop_
 _atom_site_type_symbol
 _atom_site_label
 _atom_site_symmetry_multiplicity
 _atom_site_fract_x
 _atom_site_fract_y
 _atom_site_fract_z
 _atom_site_occupancy
  Cu  Cu0  1  0.126587  0.126587  0.750000  1
  Cu  Cu1  1  0.873413  0.873413  0.250000  1
  P  P2  1  0.379286  0.803498  0.244139  1
  P  P3  1  0.620714  0.196502  0.755861  1
  P  P4  1  0.803498  0.379286  0.255861  1
  P  P5  1  0.196502  0.620714  0.744139  1
  O  O6  1  0.790159  0.043957  0.864976  1
  O  O7  1  0.323815  0.632527  0.508728  1
  O  O8  1  0.873309  0.593912  0.164975  1
  O  O9  1  0.367473  0.676185  0.008728  1
  O  O10  1  0.593912  0.873309  0.335025  1
  O  O11  1  0.043957  0.790159  0.635024  1
  O  O12  1  0.676185  0.367473  0.491272  1
  O  O13  1  0.956043  0.209841  0.364976  1
  O  O14  1  0.406088  0.126691  0.664975  1
  O  O15  1  0.632527  0.323815  0.991272  1
  O  O16  1  0.126691  0.406088  0.835025  1
  O  O17  1  0.209841  0.956043  0.135024  1
