# generated using pymatgen
data_Rb4In2S5
_symmetry_space_group_name_H-M   'P 1'
_cell_length_a   7.76029531
_cell_length_b   9.50543579
_cell_length_c   11.02183750
_cell_angle_alpha   107.28463745
_cell_angle_beta   108.99167660
_cell_angle_gamma   85.51690978
_symmetry_Int_Tables_number   1
_chemical_formula_structural   Rb4In2S5
_chemical_formula_sum   'Rb8 In4 S10'
_cell_volume   733.89756446
_cell_formula_units_Z   2
loop_
 _symmetry_equiv_pos_site_id
 _symmetry_equiv_pos_as_xyz
  1  'x, y, z'
loop_
 _atom_site_type_symbol
 _atom_site_label
 _atom_site_symmetry_multiplicity
 _atom_site_fract_x
 _atom_site_fract_y
 _atom_site_fract_z
 _atom_site_occupancy
  Rb  Rb0  1  0.225987  0.528809  0.660841  1
  Rb  Rb1  1  0.501325  0.789943  0.083073  1
  Rb  Rb2  1  0.889836  0.817026  0.908658  1
  Rb  Rb3  1  0.110164  0.182974  0.091342  1
  Rb  Rb4  1  0.456729  0.811319  0.542311  1
  Rb  Rb5  1  0.543271  0.188681  0.457689  1
  Rb  Rb6  1  0.498675  0.210057  0.916927  1
  Rb  Rb7  1  0.774013  0.471191  0.339159  1
  In  In8  1  0.876375  0.409568  0.830816  1
  In  In9  1  0.968291  0.998996  0.340290  1
  In  In10  1  0.031709  0.001004  0.659710  1
  In  In11  1  0.123625  0.590432  0.169184  1
  S  S12  1  0.742203  0.106561  0.184121  1
  S  S13  1  0.209702  0.476827  0.955363  1
  S  S14  1  0.194254  0.863351  0.229365  1
  S  S15  1  0.805746  0.136649  0.770635  1
  S  S16  1  0.170262  0.156167  0.563501  1
  S  S17  1  0.829738  0.843833  0.436499  1
  S  S18  1  0.790298  0.523173  0.044637  1
  S  S19  1  0.728026  0.520983  0.653702  1
  S  S20  1  0.257797  0.893439  0.815879  1
  S  S21  1  0.271974  0.479017  0.346298  1
