# generated using pymatgen
data_CeSi3N5
_symmetry_space_group_name_H-M   'P 1'
_cell_length_a   4.81583649
_cell_length_b   7.88132275
_cell_length_c   11.31490050
_cell_angle_alpha   90.00000000
_cell_angle_beta   90.00000000
_cell_angle_gamma   90.00000000
_symmetry_Int_Tables_number   1
_chemical_formula_structural   CeSi3N5
_chemical_formula_sum   'Ce4 Si12 N20'
_cell_volume   429.45887797
_cell_formula_units_Z   4
loop_
 _symmetry_equiv_pos_site_id
 _symmetry_equiv_pos_as_xyz
  1  'x, y, z'
loop_
 _atom_site_type_symbol
 _atom_site_label
 _atom_site_symmetry_multiplicity
 _atom_site_fract_x
 _atom_site_fract_y
 _atom_site_fract_z
 _atom_site_occupancy
  Ce  Ce0  1  0.003743  0.440472  0.829711  1
  Ce  Ce1  1  0.496257  0.559528  0.329711  1
  Ce  Ce2  1  0.996257  0.940472  0.670289  1
  Ce  Ce3  1  0.503743  0.059528  0.170289  1
  Si  Si4  1  0.976637  0.532932  0.540906  1
  Si  Si5  1  0.514284  0.161910  0.839376  1
  Si  Si6  1  0.516572  0.293199  0.583337  1
  Si  Si7  1  0.483428  0.793199  0.916663  1
  Si  Si8  1  0.985716  0.838090  0.339376  1
  Si  Si9  1  0.016572  0.206801  0.416663  1
  Si  Si10  1  0.023363  0.032932  0.959094  1
  Si  Si11  1  0.476637  0.967068  0.459094  1
  Si  Si12  1  0.485716  0.661910  0.660624  1
  Si  Si13  1  0.983428  0.706801  0.083337  1
  Si  Si14  1  0.014284  0.338090  0.160624  1
  Si  Si15  1  0.523363  0.467068  0.040906  1
  N  N16  1  0.165660  0.293804  0.294822  1
  N  N17  1  0.170365  0.109879  0.831750  1
  N  N18  1  0.815386  0.018416  0.406875  1
  N  N19  1  0.315386  0.481584  0.593125  1
  N  N20  1  0.329635  0.890121  0.331750  1
  N  N21  1  0.296292  0.149897  0.510296  1
  N  N22  1  0.829635  0.609879  0.668250  1
  N  N23  1  0.953028  0.657498  0.420269  1
  N  N24  1  0.670365  0.390121  0.168250  1
  N  N25  1  0.453028  0.842502  0.579731  1
  N  N26  1  0.703708  0.649897  0.989704  1
  N  N27  1  0.203708  0.850103  0.010296  1
  N  N28  1  0.184614  0.518416  0.093125  1
  N  N29  1  0.665660  0.206196  0.705178  1
  N  N30  1  0.834340  0.793804  0.205178  1
  N  N31  1  0.796292  0.350103  0.489704  1
  N  N32  1  0.046972  0.157498  0.079731  1
  N  N33  1  0.546972  0.342502  0.920269  1
  N  N34  1  0.684614  0.981584  0.906875  1
  N  N35  1  0.334340  0.706196  0.794822  1
