# generated using pymatgen
data_NiH6(CO3)2
_symmetry_space_group_name_H-M   'P 1'
_cell_length_a   8.70719504
_cell_length_b   7.11174271
_cell_length_c   9.30980757
_cell_angle_alpha   90.00000000
_cell_angle_beta   97.48484988
_cell_angle_gamma   90.00000000
_symmetry_Int_Tables_number   1
_chemical_formula_structural   NiH6(CO3)2
_chemical_formula_sum   'Ni4 H24 C8 O24'
_cell_volume   571.58218248
_cell_formula_units_Z   4
loop_
 _symmetry_equiv_pos_site_id
 _symmetry_equiv_pos_as_xyz
  1  'x, y, z'
loop_
 _atom_site_type_symbol
 _atom_site_label
 _atom_site_symmetry_multiplicity
 _atom_site_fract_x
 _atom_site_fract_y
 _atom_site_fract_z
 _atom_site_occupancy
  Ni  Ni0  1  0.500000  0.500000  0.000000  1
  Ni  Ni1  1  0.500000  0.000000  0.500000  1
  Ni  Ni2  1  0.000000  0.500000  0.500000  1
  Ni  Ni3  1  0.000000  0.000000  0.000000  1
  H  H4  1  0.675706  0.971264  0.105153  1
  H  H5  1  0.324294  0.471264  0.394847  1
  H  H6  1  0.324294  0.028736  0.894847  1
  H  H7  1  0.675706  0.528736  0.605153  1
  H  H8  1  0.070794  0.791519  0.275713  1
  H  H9  1  0.929206  0.291519  0.224287  1
  H  H10  1  0.929206  0.208481  0.724287  1
  H  H11  1  0.070794  0.708481  0.775713  1
  H  H12  1  0.783219  0.619284  0.991543  1
  H  H13  1  0.216781  0.119284  0.508457  1
  H  H14  1  0.216781  0.380716  0.008457  1
  H  H15  1  0.783219  0.880716  0.491543  1
  H  H16  1  0.764432  0.099303  0.452346  1
  H  H17  1  0.235568  0.599303  0.047654  1
  H  H18  1  0.235568  0.900697  0.547654  1
  H  H19  1  0.697404  0.906321  0.737981  1
  H  H20  1  0.529748  0.646267  0.279649  1
  H  H21  1  0.470252  0.146267  0.220351  1
  H  H22  1  0.470252  0.353733  0.720351  1
  H  H23  1  0.529748  0.853733  0.779649  1
  H  H24  1  0.697404  0.593679  0.237981  1
  H  H25  1  0.302596  0.093679  0.262019  1
  H  H26  1  0.302596  0.406321  0.762019  1
  H  H27  1  0.764432  0.400697  0.952346  1
  C  C28  1  0.677669  0.115568  0.061429  1
  C  C29  1  0.322331  0.615568  0.438571  1
  C  C30  1  0.322331  0.884432  0.938571  1
  C  C31  1  0.677669  0.384432  0.561429  1
  C  C32  1  0.962487  0.775279  0.726390  1
  C  C33  1  0.037513  0.275279  0.773610  1
  C  C34  1  0.962487  0.724721  0.226390  1
  C  C35  1  0.037513  0.224721  0.273610  1
  O  O36  1  0.717345  0.972771  0.431181  1
  O  O37  1  0.282655  0.472771  0.068819  1
  O  O38  1  0.282655  0.027229  0.568819  1
  O  O39  1  0.717345  0.527229  0.931181  1
  O  O40  1  0.587077  0.608920  0.198543  1
  O  O41  1  0.412923  0.108920  0.301457  1
  O  O42  1  0.412923  0.391080  0.801457  1
  O  O43  1  0.587077  0.891080  0.698543  1
  O  O44  1  0.562959  0.220664  0.076181  1
  O  O45  1  0.437041  0.720664  0.423819  1
  O  O46  1  0.437041  0.779336  0.923819  1
  O  O47  1  0.562959  0.279336  0.576181  1
  O  O48  1  0.795494  0.335286  0.501330  1
  O  O49  1  0.204506  0.835286  0.998670  1
  O  O50  1  0.906750  0.725036  0.598996  1
  O  O51  1  0.795494  0.164714  0.001330  1
  O  O52  1  0.899769  0.602286  0.299233  1
  O  O53  1  0.100231  0.102286  0.200767  1
  O  O54  1  0.100231  0.397714  0.700767  1
  O  O55  1  0.899769  0.897714  0.799233  1
  O  O56  1  0.906750  0.774964  0.098996  1
  O  O57  1  0.093250  0.274964  0.401004  1
  O  O58  1  0.093250  0.225036  0.901004  1
  O  O59  1  0.204506  0.664714  0.498670  1
