# generated using pymatgen
data_BaB8O13
_symmetry_space_group_name_H-M   'P 1'
_cell_length_a   8.75519465
_cell_length_b   8.75519465
_cell_length_c   13.33318025
_cell_angle_alpha   90.00000000
_cell_angle_beta   90.00000000
_cell_angle_gamma   90.00000000
_symmetry_Int_Tables_number   1
_chemical_formula_structural   BaB8O13
_chemical_formula_sum   'Ba4 B32 O52'
_cell_volume   1022.03404376
_cell_formula_units_Z   4
loop_
 _symmetry_equiv_pos_site_id
 _symmetry_equiv_pos_as_xyz
  1  'x, y, z'
loop_
 _atom_site_type_symbol
 _atom_site_label
 _atom_site_symmetry_multiplicity
 _atom_site_fract_x
 _atom_site_fract_y
 _atom_site_fract_z
 _atom_site_occupancy
  Ba  Ba0  1  0.000000  0.539277  0.500000  1
  Ba  Ba1  1  0.460723  0.000000  0.750000  1
  Ba  Ba2  1  0.539277  0.000000  0.250000  1
  Ba  Ba3  1  0.000000  0.460723  0.000000  1
  B  B4  1  0.781388  0.070249  0.998046  1
  B  B5  1  0.218612  0.929751  0.498046  1
  B  B6  1  0.070249  0.781388  0.751954  1
  B  B7  1  0.070249  0.218612  0.748046  1
  B  B8  1  0.929751  0.781388  0.248046  1
  B  B9  1  0.218612  0.070249  0.001954  1
  B  B10  1  0.781388  0.929751  0.501954  1
  B  B11  1  0.929751  0.218612  0.251954  1
  B  B12  1  0.737526  0.806969  0.033215  1
  B  B13  1  0.262474  0.193031  0.533215  1
  B  B14  1  0.806969  0.737526  0.716785  1
  B  B15  1  0.806969  0.262474  0.783215  1
  B  B16  1  0.193031  0.737526  0.283215  1
  B  B17  1  0.262474  0.806969  0.966785  1
  B  B18  1  0.737526  0.193031  0.466785  1
  B  B19  1  0.193031  0.262474  0.216785  1
  B  B20  1  0.632855  0.557144  0.110081  1
  B  B21  1  0.367145  0.442856  0.610081  1
  B  B22  1  0.557144  0.632855  0.639919  1
  B  B23  1  0.557144  0.367145  0.860081  1
  B  B24  1  0.442856  0.632855  0.360081  1
  B  B25  1  0.367145  0.557144  0.889919  1
  B  B26  1  0.632855  0.442856  0.389919  1
  B  B27  1  0.442856  0.367145  0.139919  1
  B  B28  1  0.870363  0.870363  0.875000  1
  B  B29  1  0.129637  0.870363  0.125000  1
  B  B30  1  0.870363  0.129637  0.625000  1
  B  B31  1  0.129637  0.129637  0.375000  1
  B  B32  1  0.282058  0.717942  0.625000  1
  B  B33  1  0.282058  0.282058  0.875000  1
  B  B34  1  0.717942  0.717942  0.375000  1
  B  B35  1  0.717942  0.282058  0.125000  1
  O  O36  1  0.700345  0.959638  0.052497  1
  O  O37  1  0.299655  0.040362  0.552497  1
  O  O38  1  0.959638  0.700345  0.697503  1
  O  O39  1  0.959638  0.299655  0.802497  1
  O  O40  1  0.040362  0.700345  0.302497  1
  O  O41  1  0.299655  0.959638  0.947503  1
  O  O42  1  0.700345  0.040362  0.447503  1
  O  O43  1  0.040362  0.299655  0.197503  1
  O  O44  1  0.849277  0.029244  0.909878  1
  O  O45  1  0.150723  0.970756  0.409878  1
  O  O46  1  0.029244  0.849277  0.840122  1
  O  O47  1  0.029244  0.150723  0.659878  1
  O  O48  1  0.970756  0.849277  0.159878  1
  O  O49  1  0.150723  0.029244  0.090122  1
  O  O50  1  0.849277  0.970756  0.590122  1
  O  O51  1  0.970756  0.150723  0.340122  1
  O  O52  1  0.833332  0.760948  0.958619  1
  O  O53  1  0.166668  0.239052  0.458619  1
  O  O54  1  0.760948  0.833332  0.791381  1
  O  O55  1  0.760948  0.166668  0.708619  1
  O  O56  1  0.239052  0.833332  0.208619  1
  O  O57  1  0.166668  0.760948  0.041381  1
  O  O58  1  0.833332  0.239052  0.541381  1
  O  O59  1  0.239052  0.166668  0.291381  1
  O  O60  1  0.746899  0.450764  0.117148  1
  O  O61  1  0.253101  0.549236  0.617148  1
  O  O62  1  0.450764  0.746899  0.632852  1
  O  O63  1  0.450764  0.253101  0.867148  1
  O  O64  1  0.549236  0.746899  0.367148  1
  O  O65  1  0.253101  0.450764  0.882852  1
  O  O66  1  0.746899  0.549236  0.382852  1
  O  O67  1  0.549236  0.253101  0.132852  1
  O  O68  1  0.786335  0.217298  0.033489  1
  O  O69  1  0.213665  0.782702  0.533489  1
  O  O70  1  0.217298  0.786335  0.716511  1
  O  O71  1  0.217298  0.213665  0.783489  1
  O  O72  1  0.782702  0.786335  0.283489  1
  O  O73  1  0.213665  0.217298  0.966511  1
  O  O74  1  0.786335  0.782702  0.466511  1
  O  O75  1  0.782702  0.213665  0.216511  1
  O  O76  1  0.656804  0.708321  0.092746  1
  O  O77  1  0.343196  0.291679  0.592746  1
  O  O78  1  0.708321  0.656804  0.657254  1
  O  O79  1  0.708321  0.343196  0.842746  1
  O  O80  1  0.291679  0.656804  0.342746  1
  O  O81  1  0.343196  0.708321  0.907254  1
  O  O82  1  0.656804  0.291679  0.407254  1
  O  O83  1  0.291679  0.343196  0.157254  1
  O  O84  1  0.518186  0.481814  0.625000  1
  O  O85  1  0.518186  0.518186  0.875000  1
  O  O86  1  0.481814  0.481814  0.375000  1
  O  O87  1  0.481814  0.518186  0.125000  1
