# generated using pymatgen
data_SrVPO6
_symmetry_space_group_name_H-M   'P 1'
_cell_length_a   5.61900034
_cell_length_b   9.88749876
_cell_length_c   8.58974086
_cell_angle_alpha   90.00000000
_cell_angle_beta   91.73145158
_cell_angle_gamma   90.00000000
_symmetry_Int_Tables_number   1
_chemical_formula_structural   SrVPO6
_chemical_formula_sum   'Sr4 V4 P4 O24'
_cell_volume   477.00972045
_cell_formula_units_Z   4
loop_
 _symmetry_equiv_pos_site_id
 _symmetry_equiv_pos_as_xyz
  1  'x, y, z'
loop_
 _atom_site_type_symbol
 _atom_site_label
 _atom_site_symmetry_multiplicity
 _atom_site_fract_x
 _atom_site_fract_y
 _atom_site_fract_z
 _atom_site_occupancy
  Sr  Sr0  1  0.862429  0.187771  0.071124  1
  Sr  Sr1  1  0.137571  0.687771  0.428876  1
  Sr  Sr2  1  0.137571  0.812229  0.928876  1
  Sr  Sr3  1  0.862429  0.312229  0.571124  1
  V  V4  1  0.344858  0.091290  0.411947  1
  V  V5  1  0.655142  0.591290  0.088053  1
  V  V6  1  0.655142  0.908710  0.588053  1
  V  V7  1  0.344858  0.408710  0.911947  1
  P  P8  1  0.663951  0.893976  0.213854  1
  P  P9  1  0.336049  0.393976  0.286146  1
  P  P10  1  0.336049  0.106024  0.786146  1
  P  P11  1  0.663951  0.606024  0.713854  1
  O  O12  1  0.876220  0.924828  0.113722  1
  O  O13  1  0.123780  0.424828  0.386278  1
  O  O14  1  0.123780  0.075172  0.886278  1
  O  O15  1  0.876220  0.575172  0.613722  1
  O  O16  1  0.681923  0.076605  0.533634  1
  O  O17  1  0.318077  0.576605  0.966366  1
  O  O18  1  0.318077  0.923395  0.466366  1
  O  O19  1  0.681923  0.423395  0.033634  1
  O  O20  1  0.086254  0.136895  0.328167  1
  O  O21  1  0.913746  0.636895  0.171833  1
  O  O22  1  0.913746  0.863105  0.671833  1
  O  O23  1  0.086254  0.363105  0.828167  1
  O  O24  1  0.253277  0.341070  0.119867  1
  O  O25  1  0.746723  0.841070  0.380133  1
  O  O26  1  0.746723  0.658930  0.880133  1
  O  O27  1  0.253277  0.158930  0.619867  1
  O  O28  1  0.526325  0.467788  0.728699  1
  O  O29  1  0.473675  0.967788  0.771301  1
  O  O30  1  0.473675  0.532212  0.271301  1
  O  O31  1  0.526325  0.032212  0.228699  1
  O  O32  1  0.504995  0.215193  0.861170  1
  O  O33  1  0.495005  0.715193  0.638830  1
  O  O34  1  0.495005  0.784807  0.138830  1
  O  O35  1  0.504995  0.284807  0.361170  1
