# generated using pymatgen
data_ErNiB4
_symmetry_space_group_name_H-M   'P 1'
_cell_length_a   6.79174478
_cell_length_b   6.79174478
_cell_length_c   6.79174478
_cell_angle_alpha   112.98662857
_cell_angle_beta   112.98662857
_cell_angle_gamma   102.64839131
_symmetry_Int_Tables_number   1
_chemical_formula_structural   ErNiB4
_chemical_formula_sum   'Er4 Ni4 B16'
_cell_volume   238.64687224
_cell_formula_units_Z   4
loop_
 _symmetry_equiv_pos_site_id
 _symmetry_equiv_pos_as_xyz
  1  'x, y, z'
loop_
 _atom_site_type_symbol
 _atom_site_label
 _atom_site_symmetry_multiplicity
 _atom_site_fract_x
 _atom_site_fract_y
 _atom_site_fract_z
 _atom_site_occupancy
  Er  Er0  1  0.750000  0.250000  0.500000  1
  Er  Er1  1  0.250000  0.750000  0.500000  1
  Er  Er2  1  0.796622  0.796622  0.000000  1
  Er  Er3  1  0.203378  0.203378  0.000000  1
  Ni  Ni4  1  0.728441  0.500000  0.228441  1
  Ni  Ni5  1  0.500000  0.271559  0.771559  1
  Ni  Ni6  1  0.500000  0.728441  0.228441  1
  Ni  Ni7  1  0.271559  0.500000  0.771559  1
  B  B8  1  0.113708  0.580093  0.000000  1
  B  B9  1  0.580093  0.113708  0.000000  1
  B  B10  1  0.886292  0.419907  0.000000  1
  B  B11  1  0.113708  0.113708  0.533615  1
  B  B12  1  0.580093  0.580093  0.466385  1
  B  B13  1  0.419907  0.419907  0.533615  1
  B  B14  1  0.886292  0.886292  0.466385  1
  B  B15  1  0.419907  0.886292  0.000000  1
  B  B16  1  0.275633  0.888510  0.164143  1
  B  B17  1  0.888510  0.724367  0.612877  1
  B  B18  1  0.111490  0.275633  0.387123  1
  B  B19  1  0.724367  0.888510  0.612877  1
  B  B20  1  0.275633  0.111490  0.387123  1
  B  B21  1  0.724367  0.111490  0.835857  1
  B  B22  1  0.888510  0.275633  0.164143  1
  B  B23  1  0.111490  0.724367  0.835857  1
