# generated using pymatgen
data_SrTi11O20
_symmetry_space_group_name_H-M   'P 1'
_cell_length_a   7.18400228
_cell_length_b   7.70659114
_cell_length_c   13.28018377
_cell_angle_alpha   90.28528798
_cell_angle_beta   92.73433235
_cell_angle_gamma   103.73561118
_symmetry_Int_Tables_number   1
_chemical_formula_structural   SrTi11O20
_chemical_formula_sum   'Sr2 Ti22 O40'
_cell_volume   713.30564492
_cell_formula_units_Z   2
loop_
 _symmetry_equiv_pos_site_id
 _symmetry_equiv_pos_as_xyz
  1  'x, y, z'
loop_
 _atom_site_type_symbol
 _atom_site_label
 _atom_site_symmetry_multiplicity
 _atom_site_fract_x
 _atom_site_fract_y
 _atom_site_fract_z
 _atom_site_occupancy
  Sr  Sr0  1  0.461381  0.812417  0.761153  1
  Sr  Sr1  1  0.538619  0.187583  0.238847  1
  Ti  Ti2  1  0.034735  0.430913  0.708450  1
  Ti  Ti3  1  0.697155  0.796545  0.415886  1
  Ti  Ti4  1  0.681940  0.921729  0.998541  1
  Ti  Ti5  1  0.355282  0.635276  0.286570  1
  Ti  Ti6  1  0.678318  0.066512  0.563016  1
  Ti  Ti7  1  0.321682  0.933488  0.436984  1
  Ti  Ti8  1  0.994078  0.704226  0.873566  1
  Ti  Ti9  1  0.981875  0.792792  0.632862  1
  Ti  Ti10  1  0.323690  0.579144  0.512006  1
  Ti  Ti11  1  0.302845  0.203455  0.584114  1
  Ti  Ti12  1  0.336695  0.432624  0.930134  1
  Ti  Ti13  1  0.008517  0.929237  0.203322  1
  Ti  Ti14  1  0.318321  0.711795  0.082956  1
  Ti  Ti15  1  0.663305  0.567376  0.069866  1
  Ti  Ti16  1  0.965265  0.569087  0.291550  1
  Ti  Ti17  1  0.318060  0.078271  0.001459  1
  Ti  Ti18  1  0.676310  0.420856  0.487994  1
  Ti  Ti19  1  0.991483  0.070763  0.796678  1
  Ti  Ti20  1  0.681679  0.288205  0.917044  1
  Ti  Ti21  1  0.005922  0.295774  0.126434  1
  Ti  Ti22  1  0.644718  0.364724  0.713430  1
  Ti  Ti23  1  0.018125  0.207208  0.367138  1
  O  O24  1  0.502771  0.317988  0.033241  1
  O  O25  1  0.850324  0.597452  0.732036  1
  O  O26  1  0.877655  0.116761  0.233427  1
  O  O27  1  0.841305  0.263626  0.799359  1
  O  O28  1  0.503176  0.821858  0.532147  1
  O  O29  1  0.832741  0.818828  0.096796  1
  O  O30  1  0.515253  0.045333  0.904586  1
  O  O31  1  0.495066  0.594792  0.174937  1
  O  O32  1  0.849188  0.766617  0.305390  1
  O  O33  1  0.489422  0.452880  0.603210  1
  O  O34  1  0.174656  0.669958  0.404672  1
  O  O35  1  0.168927  0.824966  0.976767  1
  O  O36  1  0.149676  0.402548  0.267964  1
  O  O37  1  0.826967  0.535250  0.952184  1
  O  O38  1  0.833997  0.046199  0.447143  1
  O  O39  1  0.831073  0.175034  0.023233  1
  O  O40  1  0.173033  0.464750  0.047816  1
  O  O41  1  0.496824  0.178142  0.467853  1
  O  O42  1  0.504934  0.405208  0.825063  1
  O  O43  1  0.497229  0.682012  0.966759  1
  O  O44  1  0.158695  0.736374  0.200641  1
  O  O45  1  0.150812  0.233383  0.694610  1
  O  O46  1  0.830700  0.448537  0.167502  1
  O  O47  1  0.175821  0.044170  0.333381  1
  O  O48  1  0.175671  0.622887  0.627164  1
  O  O49  1  0.166003  0.953801  0.552857  1
  O  O50  1  0.510578  0.547120  0.396790  1
  O  O51  1  0.824329  0.377113  0.372836  1
  O  O52  1  0.824179  0.955830  0.666619  1
  O  O53  1  0.823018  0.671861  0.520610  1
  O  O54  1  0.175410  0.116698  0.124414  1
  O  O55  1  0.167259  0.181172  0.903204  1
  O  O56  1  0.484747  0.954667  0.095414  1
  O  O57  1  0.122345  0.883239  0.766573  1
  O  O58  1  0.825344  0.330042  0.595328  1
  O  O59  1  0.495622  0.879057  0.332189  1
  O  O60  1  0.176982  0.328139  0.479390  1
  O  O61  1  0.824590  0.883302  0.875586  1
  O  O62  1  0.504378  0.120943  0.667811  1
  O  O63  1  0.169300  0.551463  0.832498  1
