# generated using pymatgen
data_Rb2CoCl4
_symmetry_space_group_name_H-M   'P 1'
_cell_length_a   7.34204142
_cell_length_b   9.45127848
_cell_length_c   13.03226723
_cell_angle_alpha   90.00000000
_cell_angle_beta   90.00000000
_cell_angle_gamma   90.00000000
_symmetry_Int_Tables_number   1
_chemical_formula_structural   Rb2CoCl4
_chemical_formula_sum   'Rb8 Co4 Cl16'
_cell_volume   904.33089217
_cell_formula_units_Z   4
loop_
 _symmetry_equiv_pos_site_id
 _symmetry_equiv_pos_as_xyz
  1  'x, y, z'
loop_
 _atom_site_type_symbol
 _atom_site_label
 _atom_site_symmetry_multiplicity
 _atom_site_fract_x
 _atom_site_fract_y
 _atom_site_fract_z
 _atom_site_occupancy
  Rb  Rb0  1  0.250000  0.367329  0.415032  1
  Rb  Rb1  1  0.750000  0.632671  0.584968  1
  Rb  Rb2  1  0.250000  0.867329  0.084968  1
  Rb  Rb3  1  0.750000  0.132671  0.915032  1
  Rb  Rb4  1  0.250000  0.017171  0.673608  1
  Rb  Rb5  1  0.750000  0.982829  0.326392  1
  Rb  Rb6  1  0.250000  0.517171  0.826392  1
  Rb  Rb7  1  0.750000  0.482829  0.173608  1
  Co  Co8  1  0.250000  0.770349  0.423990  1
  Co  Co9  1  0.750000  0.229651  0.576010  1
  Co  Co10  1  0.250000  0.270349  0.076010  1
  Co  Co11  1  0.750000  0.729651  0.923990  1
  Cl  Cl12  1  0.500162  0.321120  0.651162  1
  Cl  Cl13  1  0.000162  0.678880  0.348838  1
  Cl  Cl14  1  0.999838  0.821120  0.848838  1
  Cl  Cl15  1  0.499838  0.178880  0.151162  1
  Cl  Cl16  1  0.499838  0.678880  0.348838  1
  Cl  Cl17  1  0.999838  0.321120  0.651162  1
  Cl  Cl18  1  0.000162  0.178880  0.151162  1
  Cl  Cl19  1  0.500162  0.821120  0.848838  1
  Cl  Cl20  1  0.250000  0.686151  0.586766  1
  Cl  Cl21  1  0.750000  0.313849  0.413234  1
  Cl  Cl22  1  0.250000  0.186151  0.913234  1
  Cl  Cl23  1  0.750000  0.813849  0.086766  1
  Cl  Cl24  1  0.750000  0.491784  0.912035  1
  Cl  Cl25  1  0.250000  0.508216  0.087965  1
  Cl  Cl26  1  0.750000  0.991784  0.587965  1
  Cl  Cl27  1  0.250000  0.008216  0.412035  1
