# generated using pymatgen
data_Sr4As3
_symmetry_space_group_name_H-M   'P 1'
_cell_length_a   11.05090522
_cell_length_b   12.28533131
_cell_length_c   12.93513561
_cell_angle_alpha   90.00000000
_cell_angle_beta   90.00000000
_cell_angle_gamma   90.00000000
_symmetry_Int_Tables_number   1
_chemical_formula_structural   Sr4As3
_chemical_formula_sum   'Sr32 As24'
_cell_volume   1756.12616363
_cell_formula_units_Z   8
loop_
 _symmetry_equiv_pos_site_id
 _symmetry_equiv_pos_as_xyz
  1  'x, y, z'
loop_
 _atom_site_type_symbol
 _atom_site_label
 _atom_site_symmetry_multiplicity
 _atom_site_fract_x
 _atom_site_fract_y
 _atom_site_fract_z
 _atom_site_occupancy
  Sr  Sr0  1  0.000000  0.602530  0.793800  1
  Sr  Sr1  1  0.000000  0.397470  0.206200  1
  Sr  Sr2  1  0.000000  0.102530  0.706200  1
  Sr  Sr3  1  0.000000  0.897470  0.293800  1
  Sr  Sr4  1  0.723576  0.403823  0.764139  1
  Sr  Sr5  1  0.723576  0.596177  0.235861  1
  Sr  Sr6  1  0.276424  0.903823  0.735861  1
  Sr  Sr7  1  0.276424  0.096177  0.264139  1
  Sr  Sr8  1  0.276424  0.596177  0.235861  1
  Sr  Sr9  1  0.276424  0.403823  0.764139  1
  Sr  Sr10  1  0.723576  0.096177  0.264139  1
  Sr  Sr11  1  0.723576  0.903823  0.735861  1
  Sr  Sr12  1  0.000000  0.774205  0.576575  1
  Sr  Sr13  1  0.000000  0.225795  0.423425  1
  Sr  Sr14  1  0.000000  0.274205  0.923425  1
  Sr  Sr15  1  0.000000  0.725795  0.076575  1
  Sr  Sr16  1  0.677038  0.673655  0.932945  1
  Sr  Sr17  1  0.677038  0.326345  0.067055  1
  Sr  Sr18  1  0.322962  0.173655  0.567055  1
  Sr  Sr19  1  0.322962  0.826345  0.432945  1
  Sr  Sr20  1  0.322962  0.326345  0.067055  1
  Sr  Sr21  1  0.322962  0.673655  0.932945  1
  Sr  Sr22  1  0.677038  0.826345  0.432945  1
  Sr  Sr23  1  0.677038  0.173655  0.567055  1
  Sr  Sr24  1  0.500000  0.123185  0.867827  1
  Sr  Sr25  1  0.500000  0.876815  0.132173  1
  Sr  Sr26  1  0.500000  0.623185  0.632173  1
  Sr  Sr27  1  0.500000  0.376815  0.367827  1
  Sr  Sr28  1  0.817742  0.000000  0.000000  1
  Sr  Sr29  1  0.182258  0.500000  0.500000  1
  Sr  Sr30  1  0.182258  0.000000  0.000000  1
  Sr  Sr31  1  0.817742  0.500000  0.500000  1
  As  As32  1  0.883382  0.500000  0.000000  1
  As  As33  1  0.116618  0.000000  0.500000  1
  As  As34  1  0.116618  0.500000  0.000000  1
  As  As35  1  0.883382  0.000000  0.500000  1
  As  As36  1  0.500000  0.864069  0.886355  1
  As  As37  1  0.500000  0.135931  0.113645  1
  As  As38  1  0.500000  0.364069  0.613645  1
  As  As39  1  0.500000  0.635931  0.386355  1
  As  As40  1  0.233815  0.837778  0.177102  1
  As  As41  1  0.233815  0.162222  0.822898  1
  As  As42  1  0.766185  0.337778  0.322898  1
  As  As43  1  0.766185  0.662222  0.677102  1
  As  As44  1  0.766185  0.162222  0.822898  1
  As  As45  1  0.766185  0.837778  0.177102  1
  As  As46  1  0.233815  0.662222  0.677102  1
  As  As47  1  0.233815  0.337778  0.322898  1
  As  As48  1  0.500000  0.462078  0.907869  1
  As  As49  1  0.500000  0.537922  0.092131  1
  As  As50  1  0.500000  0.962078  0.592131  1
  As  As51  1  0.500000  0.037922  0.407869  1
  As  As52  1  0.000000  0.860376  0.858047  1
  As  As53  1  0.000000  0.139624  0.141953  1
  As  As54  1  0.000000  0.360376  0.641953  1
  As  As55  1  0.000000  0.639624  0.358047  1
