# generated using pymatgen
data_PaCl4
_symmetry_space_group_name_H-M   'P 1'
_cell_length_a   7.11413579
_cell_length_b   7.11413579
_cell_length_c   7.11413579
_cell_angle_alpha   107.25207234
_cell_angle_beta   107.25207234
_cell_angle_gamma   114.00696959
_symmetry_Int_Tables_number   1
_chemical_formula_structural   PaCl4
_chemical_formula_sum   'Pa2 Cl8'
_cell_volume   275.85549828
_cell_formula_units_Z   2
loop_
 _symmetry_equiv_pos_site_id
 _symmetry_equiv_pos_as_xyz
  1  'x, y, z'
loop_
 _atom_site_type_symbol
 _atom_site_label
 _atom_site_symmetry_multiplicity
 _atom_site_fract_x
 _atom_site_fract_y
 _atom_site_fract_z
 _atom_site_occupancy
  Pa  Pa0  1  0.250000  0.750000  0.500000  1
  Pa  Pa1  1  0.000000  0.000000  0.000000  1
  Cl  Cl2  1  0.380298  0.068485  0.311813  1
  Cl  Cl3  1  0.318485  0.506672  0.188187  1
  Cl  Cl4  1  0.931515  0.243328  0.311813  1
  Cl  Cl5  1  0.869702  0.681515  0.188187  1
  Cl  Cl6  1  0.493328  0.681515  0.811813  1
  Cl  Cl7  1  0.931515  0.619702  0.688187  1
  Cl  Cl8  1  0.756672  0.068485  0.688187  1
  Cl  Cl9  1  0.318485  0.130298  0.811813  1
