# generated using pymatgen
data_Na2MoO4
_symmetry_space_group_name_H-M   'P 1'
_cell_length_a   8.35857218
_cell_length_b   7.21035980
_cell_length_c   6.24871875
_cell_angle_alpha   76.41233119
_cell_angle_beta   56.98068295
_cell_angle_gamma   46.60698586
_symmetry_Int_Tables_number   1
_chemical_formula_structural   Na2MoO4
_chemical_formula_sum   'Na4 Mo2 O8'
_cell_volume   223.37113397
_cell_formula_units_Z   2
loop_
 _symmetry_equiv_pos_site_id
 _symmetry_equiv_pos_as_xyz
  1  'x, y, z'
loop_
 _atom_site_type_symbol
 _atom_site_label
 _atom_site_symmetry_multiplicity
 _atom_site_fract_x
 _atom_site_fract_y
 _atom_site_fract_z
 _atom_site_occupancy
  Na  Na0  1  0.818855  0.181145  0.818855  1
  Na  Na1  1  0.181145  0.818855  0.181145  1
  Na  Na2  1  0.068855  0.431145  0.068855  1
  Na  Na3  1  0.431145  0.068855  0.431145  1
  Mo  Mo4  1  0.500000  0.500000  0.500000  1
  Mo  Mo5  1  0.750000  0.750000  0.750000  1
  O  O6  1  0.772170  0.883297  0.931870  1
  O  O7  1  0.412663  0.931870  0.883297  1
  O  O8  1  0.931870  0.412663  0.772170  1
  O  O9  1  0.883297  0.772170  0.412663  1
  O  O10  1  0.477830  0.366703  0.318130  1
  O  O11  1  0.837337  0.318130  0.366703  1
  O  O12  1  0.366703  0.477830  0.837337  1
  O  O13  1  0.318130  0.837337  0.477830  1
