# generated using pymatgen
data_Sn2(PO3)5
_symmetry_space_group_name_H-M   'P 1'
_cell_length_a   5.47936070
_cell_length_b   9.35063527
_cell_length_c   13.74869085
_cell_angle_alpha   90.00000000
_cell_angle_beta   113.01675266
_cell_angle_gamma   90.00000000
_symmetry_Int_Tables_number   1
_chemical_formula_structural   Sn2(PO3)5
_chemical_formula_sum   'Sn4 P10 O30'
_cell_volume   648.34253482
_cell_formula_units_Z   2
loop_
 _symmetry_equiv_pos_site_id
 _symmetry_equiv_pos_as_xyz
  1  'x, y, z'
loop_
 _atom_site_type_symbol
 _atom_site_label
 _atom_site_symmetry_multiplicity
 _atom_site_fract_x
 _atom_site_fract_y
 _atom_site_fract_z
 _atom_site_occupancy
  Sn  Sn0  1  0.059417  0.289392  0.927888  1
  Sn  Sn1  1  0.978942  0.287393  0.579426  1
  Sn  Sn2  1  0.059417  0.710608  0.427888  1
  Sn  Sn3  1  0.978942  0.712607  0.079426  1
  P  P4  1  0.323970  0.806454  0.922135  1
  P  P5  1  0.435525  0.520420  0.846983  1
  P  P6  1  0.017937  0.011584  0.751704  1
  P  P7  1  0.516940  0.532051  0.645930  1
  P  P8  1  0.704087  0.802777  0.586457  1
  P  P9  1  0.323970  0.193546  0.422135  1
  P  P10  1  0.435525  0.479580  0.346983  1
  P  P11  1  0.017937  0.988416  0.251704  1
  P  P12  1  0.516940  0.467949  0.145930  1
  P  P13  1  0.704087  0.197223  0.086457  1
  O  O14  1  0.613364  0.832723  0.985880  1
  O  O15  1  0.124866  0.831451  0.969870  1
  O  O16  1  0.717934  0.505848  0.925116  1
  O  O17  1  0.277128  0.645043  0.877150  1
  O  O18  1  0.928880  0.094565  0.826422  1
  O  O19  1  0.260025  0.388408  0.825272  1
  O  O20  1  0.245392  0.897968  0.814511  1
  O  O21  1  0.425552  0.587876  0.737348  1
  O  O22  1  0.765763  0.912712  0.682742  1
  O  O23  1  0.647202  0.389716  0.671780  1
  O  O24  1  0.116824  0.090298  0.679556  1
  O  O25  1  0.730141  0.652331  0.647119  1
  O  O26  1  0.274226  0.546121  0.543163  1
  O  O27  1  0.421836  0.828510  0.509884  1
  O  O28  1  0.920263  0.809255  0.544601  1
  O  O29  1  0.124866  0.168549  0.469870  1
  O  O30  1  0.613364  0.167277  0.485880  1
  O  O31  1  0.717934  0.494152  0.425116  1
  O  O32  1  0.277128  0.354957  0.377150  1
  O  O33  1  0.928880  0.905435  0.326422  1
  O  O34  1  0.260025  0.611592  0.325272  1
  O  O35  1  0.245392  0.102032  0.314511  1
  O  O36  1  0.425552  0.412124  0.237348  1
  O  O37  1  0.765763  0.087288  0.182742  1
  O  O38  1  0.647202  0.610284  0.171780  1
  O  O39  1  0.116824  0.909702  0.179556  1
  O  O40  1  0.730141  0.347669  0.147119  1
  O  O41  1  0.274226  0.453879  0.043163  1
  O  O42  1  0.920263  0.190745  0.044601  1
  O  O43  1  0.421836  0.171490  0.009884  1
