# generated using pymatgen
data_Ba2SmCu3O7
_symmetry_space_group_name_H-M   'P 1'
_cell_length_a   3.87767835
_cell_length_b   3.93909446
_cell_length_c   11.85357638
_cell_angle_alpha   90.00000000
_cell_angle_beta   90.00000000
_cell_angle_gamma   90.00000000
_symmetry_Int_Tables_number   1
_chemical_formula_structural   Ba2SmCu3O7
_chemical_formula_sum   'Ba2 Sm1 Cu3 O7'
_cell_volume   181.05794204
_cell_formula_units_Z   1
loop_
 _symmetry_equiv_pos_site_id
 _symmetry_equiv_pos_as_xyz
  1  'x, y, z'
loop_
 _atom_site_type_symbol
 _atom_site_label
 _atom_site_symmetry_multiplicity
 _atom_site_fract_x
 _atom_site_fract_y
 _atom_site_fract_z
 _atom_site_occupancy
  Ba  Ba0  1  0.500000  0.500000  0.820123  1
  Ba  Ba1  1  0.500000  0.500000  0.179877  1
  Sm  Sm2  1  0.500000  0.500000  0.500000  1
  Cu  Cu3  1  0.000000  0.000000  0.650600  1
  Cu  Cu4  1  0.000000  0.000000  0.349400  1
  Cu  Cu5  1  0.000000  0.000000  0.000000  1
  O  O6  1  0.000000  0.000000  0.841399  1
  O  O7  1  0.000000  0.000000  0.158601  1
  O  O8  1  0.000000  0.500000  0.625572  1
  O  O9  1  0.000000  0.500000  0.374428  1
  O  O10  1  0.500000  0.000000  0.625389  1
  O  O11  1  0.500000  0.000000  0.374611  1
  O  O12  1  0.000000  0.500000  0.000000  1
