# generated using pymatgen
data_Ta4FeTe4
_symmetry_space_group_name_H-M   'P 1'
_cell_length_a   4.86032252
_cell_length_b   10.94930776
_cell_length_c   19.26369710
_cell_angle_alpha   90.00000000
_cell_angle_beta   90.00000000
_cell_angle_gamma   90.00000000
_symmetry_Int_Tables_number   1
_chemical_formula_structural   Ta4FeTe4
_chemical_formula_sum   'Ta16 Fe4 Te16'
_cell_volume   1025.15938723
_cell_formula_units_Z   4
loop_
 _symmetry_equiv_pos_site_id
 _symmetry_equiv_pos_as_xyz
  1  'x, y, z'
loop_
 _atom_site_type_symbol
 _atom_site_label
 _atom_site_symmetry_multiplicity
 _atom_site_fract_x
 _atom_site_fract_y
 _atom_site_fract_z
 _atom_site_occupancy
  Ta  Ta0  1  0.500000  0.595835  0.605660  1
  Ta  Ta1  1  0.500000  0.404165  0.394340  1
  Ta  Ta2  1  0.500000  0.095835  0.894340  1
  Ta  Ta3  1  0.500000  0.904165  0.105660  1
  Ta  Ta4  1  0.000000  0.299924  0.463703  1
  Ta  Ta5  1  0.000000  0.700076  0.536297  1
  Ta  Ta6  1  0.000000  0.799924  0.036297  1
  Ta  Ta7  1  0.000000  0.200076  0.963703  1
  Ta  Ta8  1  0.500000  0.313140  0.554518  1
  Ta  Ta9  1  0.500000  0.686860  0.445482  1
  Ta  Ta10  1  0.500000  0.813140  0.945482  1
  Ta  Ta11  1  0.500000  0.186860  0.054518  1
  Ta  Ta12  1  0.000000  0.435804  0.613176  1
  Ta  Ta13  1  0.000000  0.564196  0.386824  1
  Ta  Ta14  1  0.000000  0.935804  0.886824  1
  Ta  Ta15  1  0.000000  0.064196  0.113176  1
  Fe  Fe16  1  0.249966  0.500000  0.500000  1
  Fe  Fe17  1  0.750034  0.000000  0.000000  1
  Fe  Fe18  1  0.750034  0.500000  0.500000  1
  Fe  Fe19  1  0.249966  0.000000  0.000000  1
  Te  Te20  1  0.000000  0.665729  0.683274  1
  Te  Te21  1  0.000000  0.334271  0.316726  1
  Te  Te22  1  0.000000  0.165729  0.816726  1
  Te  Te23  1  0.000000  0.834271  0.183274  1
  Te  Te24  1  0.500000  0.389218  0.696364  1
  Te  Te25  1  0.500000  0.610782  0.303636  1
  Te  Te26  1  0.500000  0.889218  0.803636  1
  Te  Te27  1  0.500000  0.110782  0.196364  1
  Te  Te28  1  0.500000  0.153792  0.436796  1
  Te  Te29  1  0.500000  0.846208  0.563204  1
  Te  Te30  1  0.500000  0.653792  0.063204  1
  Te  Te31  1  0.500000  0.346208  0.936796  1
  Te  Te32  1  0.000000  0.323593  0.094540  1
  Te  Te33  1  0.000000  0.676407  0.905460  1
  Te  Te34  1  0.000000  0.823593  0.405460  1
  Te  Te35  1  0.000000  0.176407  0.594540  1
