# generated using pymatgen
data_ZrSnIr
_symmetry_space_group_name_H-M   'P 1'
_cell_length_a   7.37591171
_cell_length_b   7.37591171
_cell_length_c   3.74988053
_cell_angle_alpha   90.00000000
_cell_angle_beta   90.00000000
_cell_angle_gamma   120.00000000
_symmetry_Int_Tables_number   1
_chemical_formula_structural   ZrSnIr
_chemical_formula_sum   'Zr3 Sn3 Ir3'
_cell_volume   176.67678288
_cell_formula_units_Z   3
loop_
 _symmetry_equiv_pos_site_id
 _symmetry_equiv_pos_as_xyz
  1  'x, y, z'
loop_
 _atom_site_type_symbol
 _atom_site_label
 _atom_site_symmetry_multiplicity
 _atom_site_fract_x
 _atom_site_fract_y
 _atom_site_fract_z
 _atom_site_occupancy
  Zr  Zr0  1  0.000000  0.604860  0.500000  1
  Zr  Zr1  1  0.395140  0.395140  0.500000  1
  Zr  Zr2  1  0.604860  0.000000  0.500000  1
  Sn  Sn3  1  0.266956  0.000000  0.000000  1
  Sn  Sn4  1  0.733044  0.733044  0.000000  1
  Sn  Sn5  1  0.000000  0.266956  0.000000  1
  Ir  Ir6  1  0.666667  0.333333  0.000000  1
  Ir  Ir7  1  0.333333  0.666667  0.000000  1
  Ir  Ir8  1  0.000000  0.000000  0.500000  1
