# generated using pymatgen
data_TbCoSi
_symmetry_space_group_name_H-M   'P 1'
_cell_length_a   4.21627573
_cell_length_b   6.82799850
_cell_length_c   6.97642261
_cell_angle_alpha   90.00000000
_cell_angle_beta   90.00000000
_cell_angle_gamma   90.00000000
_symmetry_Int_Tables_number   1
_chemical_formula_structural   TbCoSi
_chemical_formula_sum   'Tb4 Co4 Si4'
_cell_volume   200.84230754
_cell_formula_units_Z   4
loop_
 _symmetry_equiv_pos_site_id
 _symmetry_equiv_pos_as_xyz
  1  'x, y, z'
loop_
 _atom_site_type_symbol
 _atom_site_label
 _atom_site_symmetry_multiplicity
 _atom_site_fract_x
 _atom_site_fract_y
 _atom_site_fract_z
 _atom_site_occupancy
  Tb  Tb0  1  0.750000  0.684472  0.479228  1
  Tb  Tb1  1  0.250000  0.315528  0.520772  1
  Tb  Tb2  1  0.750000  0.815528  0.979228  1
  Tb  Tb3  1  0.250000  0.184472  0.020772  1
  Co  Co4  1  0.250000  0.567691  0.857136  1
  Co  Co5  1  0.750000  0.432309  0.142864  1
  Co  Co6  1  0.250000  0.932309  0.357136  1
  Co  Co7  1  0.750000  0.067691  0.642864  1
  Si  Si8  1  0.750000  0.392581  0.807654  1
  Si  Si9  1  0.250000  0.607419  0.192346  1
  Si  Si10  1  0.750000  0.107419  0.307654  1
  Si  Si11  1  0.250000  0.892581  0.692346  1
