# generated using pymatgen
data_LiSnP2O7
_symmetry_space_group_name_H-M   'P 1'
_cell_length_a   5.22393912
_cell_length_b   7.16281716
_cell_length_c   8.67333562
_cell_angle_alpha   67.52745500
_cell_angle_beta   87.99206392
_cell_angle_gamma   87.79654704
_symmetry_Int_Tables_number   1
_chemical_formula_structural   LiSnP2O7
_chemical_formula_sum   'Li2 Sn2 P4 O14'
_cell_volume   299.60080098
_cell_formula_units_Z   2
loop_
 _symmetry_equiv_pos_site_id
 _symmetry_equiv_pos_as_xyz
  1  'x, y, z'
loop_
 _atom_site_type_symbol
 _atom_site_label
 _atom_site_symmetry_multiplicity
 _atom_site_fract_x
 _atom_site_fract_y
 _atom_site_fract_z
 _atom_site_occupancy
  Li  Li0  1  0.288913  0.834817  0.000301  1
  Li  Li1  1  0.752926  0.164478  0.430701  1
  Sn  Sn2  1  0.751699  0.784512  0.273983  1
  Sn  Sn3  1  0.243794  0.244310  0.720112  1
  P  P4  1  0.782529  0.886518  0.820529  1
  P  P5  1  0.262943  0.441798  0.300804  1
  P  P6  1  0.226818  0.115064  0.179167  1
  P  P7  1  0.732385  0.556156  0.693799  1
  O  O8  1  0.547067  0.440742  0.338886  1
  O  O9  1  0.071230  0.931118  0.806242  1
  O  O10  1  0.953834  0.052914  0.252367  1
  O  O11  1  0.445036  0.524680  0.683997  1
  O  O12  1  0.148935  0.658417  0.214795  1
  O  O13  1  0.262135  0.112701  0.005103  1
  O  O14  1  0.851113  0.702196  0.528915  1
  O  O15  1  0.763868  0.657874  0.827608  1
  O  O16  1  0.437750  0.994675  0.299901  1
  O  O17  1  0.661424  0.863342  0.991112  1
  O  O18  1  0.881490  0.353926  0.768014  1
  O  O19  1  0.101465  0.309920  0.453531  1
  O  O20  1  0.240555  0.348491  0.158063  1
  O  O21  1  0.631576  0.033120  0.673232  1
