# generated using pymatgen
data_LiBiO3
_symmetry_space_group_name_H-M   'P 1'
_cell_length_a   5.03731817
_cell_length_b   9.02075977
_cell_length_c   10.94586084
_cell_angle_alpha   90.00000000
_cell_angle_beta   90.00000000
_cell_angle_gamma   90.00000000
_symmetry_Int_Tables_number   1
_chemical_formula_structural   LiBiO3
_chemical_formula_sum   'Li8 Bi8 O24'
_cell_volume   497.38470097
_cell_formula_units_Z   8
loop_
 _symmetry_equiv_pos_site_id
 _symmetry_equiv_pos_as_xyz
  1  'x, y, z'
loop_
 _atom_site_type_symbol
 _atom_site_label
 _atom_site_symmetry_multiplicity
 _atom_site_fract_x
 _atom_site_fract_y
 _atom_site_fract_z
 _atom_site_occupancy
  Li  Li0  1  0.500565  0.712418  0.403449  1
  Li  Li1  1  0.000565  0.287582  0.096551  1
  Li  Li2  1  0.499435  0.212418  0.096551  1
  Li  Li3  1  0.999435  0.787582  0.403449  1
  Li  Li4  1  0.499435  0.287582  0.596551  1
  Li  Li5  1  0.999435  0.712418  0.903449  1
  Li  Li6  1  0.500565  0.787582  0.903449  1
  Li  Li7  1  0.000565  0.212418  0.596551  1
  Bi  Bi8  1  0.496266  0.086148  0.363436  1
  Bi  Bi9  1  0.996266  0.913852  0.136564  1
  Bi  Bi10  1  0.503734  0.586148  0.136564  1
  Bi  Bi11  1  0.003734  0.413852  0.363436  1
  Bi  Bi12  1  0.503734  0.913852  0.636564  1
  Bi  Bi13  1  0.003734  0.086148  0.863436  1
  Bi  Bi14  1  0.496266  0.413852  0.863436  1
  Bi  Bi15  1  0.996266  0.586148  0.636564  1
  O  O16  1  0.750000  0.750000  0.722138  1
  O  O17  1  0.250000  0.250000  0.777862  1
  O  O18  1  0.250000  0.250000  0.277862  1
  O  O19  1  0.750000  0.750000  0.222138  1
  O  O20  1  0.250000  0.750000  0.050349  1
  O  O21  1  0.750000  0.250000  0.449651  1
  O  O22  1  0.750000  0.250000  0.949651  1
  O  O23  1  0.250000  0.750000  0.550349  1
  O  O24  1  0.689969  0.595376  0.957376  1
  O  O25  1  0.189969  0.404624  0.542624  1
  O  O26  1  0.310031  0.095376  0.542624  1
  O  O27  1  0.810031  0.904624  0.957376  1
  O  O28  1  0.310031  0.404624  0.042624  1
  O  O29  1  0.810031  0.595376  0.457376  1
  O  O30  1  0.689969  0.904624  0.457376  1
  O  O31  1  0.189969  0.095376  0.042624  1
  O  O32  1  0.224790  0.584535  0.799940  1
  O  O33  1  0.724790  0.415465  0.700060  1
  O  O34  1  0.775210  0.084535  0.700060  1
  O  O35  1  0.275210  0.915465  0.799940  1
  O  O36  1  0.775210  0.415465  0.200060  1
  O  O37  1  0.275210  0.584535  0.299940  1
  O  O38  1  0.224790  0.915465  0.299940  1
  O  O39  1  0.724790  0.084535  0.200060  1
