# generated using pymatgen
data_Li2CuPO4
_symmetry_space_group_name_H-M   'P 1'
_cell_length_a   5.05725355
_cell_length_b   5.41768079
_cell_length_c   7.98212748
_cell_angle_alpha   90.00000000
_cell_angle_beta   129.31436693
_cell_angle_gamma   90.00000000
_symmetry_Int_Tables_number   1
_chemical_formula_structural   Li2CuPO4
_chemical_formula_sum   'Li4 Cu2 P2 O8'
_cell_volume   169.20334215
_cell_formula_units_Z   2
loop_
 _symmetry_equiv_pos_site_id
 _symmetry_equiv_pos_as_xyz
  1  'x, y, z'
loop_
 _atom_site_type_symbol
 _atom_site_label
 _atom_site_symmetry_multiplicity
 _atom_site_fract_x
 _atom_site_fract_y
 _atom_site_fract_z
 _atom_site_occupancy
  Li  Li0  1  0.753216  0.671386  0.252983  1
  Li  Li1  1  0.501257  0.847969  0.500100  1
  Li  Li2  1  0.501257  0.152031  0.000100  1
  Li  Li3  1  0.753216  0.328614  0.752983  1
  Cu  Cu4  1  0.253713  0.343955  0.244822  1
  Cu  Cu5  1  0.253713  0.656045  0.744822  1
  P  P6  1  0.004726  0.829469  0.000079  1
  P  P7  1  0.004726  0.170531  0.500079  1
  O  O8  1  0.099512  0.703358  0.208618  1
  O  O9  1  0.099512  0.296642  0.708618  1
  O  O10  1  0.708194  0.314329  0.292479  1
  O  O11  1  0.708194  0.685671  0.792479  1
  O  O12  1  0.886281  0.098757  0.989874  1
  O  O13  1  0.321900  0.169939  0.509744  1
  O  O14  1  0.886281  0.901243  0.489874  1
  O  O15  1  0.321900  0.830061  0.009744  1
