# generated using pymatgen
data_Hg3(TeI)2
_symmetry_space_group_name_H-M   'P 1'
_cell_length_a   8.96898397
_cell_length_b   8.96898397
_cell_length_c   14.72484218
_cell_angle_alpha   82.80972635
_cell_angle_beta   97.19027365
_cell_angle_gamma   110.11959268
_symmetry_Int_Tables_number   1
_chemical_formula_structural   Hg3(TeI)2
_chemical_formula_sum   'Hg12 Te8 I8'
_cell_volume   1099.18201978
_cell_formula_units_Z   4
loop_
 _symmetry_equiv_pos_site_id
 _symmetry_equiv_pos_as_xyz
  1  'x, y, z'
loop_
 _atom_site_type_symbol
 _atom_site_label
 _atom_site_symmetry_multiplicity
 _atom_site_fract_x
 _atom_site_fract_y
 _atom_site_fract_z
 _atom_site_occupancy
  Hg  Hg0  1  0.123291  0.891017  0.171284  1
  Hg  Hg1  1  0.891017  0.123291  0.328716  1
  Hg  Hg2  1  0.876709  0.108983  0.828716  1
  Hg  Hg3  1  0.108983  0.876709  0.671284  1
  Hg  Hg4  1  0.303519  0.244814  0.478564  1
  Hg  Hg5  1  0.244814  0.303519  0.021436  1
  Hg  Hg6  1  0.696481  0.755186  0.521436  1
  Hg  Hg7  1  0.755186  0.696481  0.978564  1
  Hg  Hg8  1  0.000000  0.500000  0.500000  1
  Hg  Hg9  1  0.500000  0.000000  0.000000  1
  Hg  Hg10  1  0.670160  0.670160  0.250000  1
  Hg  Hg11  1  0.329840  0.329840  0.750000  1
  Te  Te12  1  0.880372  0.606355  0.149504  1
  Te  Te13  1  0.606355  0.880372  0.350496  1
  Te  Te14  1  0.119628  0.393645  0.850496  1
  Te  Te15  1  0.393645  0.119628  0.649504  1
  Te  Te16  1  0.408825  0.126428  0.133837  1
  Te  Te17  1  0.126428  0.408825  0.366163  1
  Te  Te18  1  0.591175  0.873572  0.866163  1
  Te  Te19  1  0.873572  0.591175  0.633837  1
  I  I20  1  0.609344  0.361112  0.382301  1
  I  I21  1  0.361112  0.609344  0.117699  1
  I  I22  1  0.390656  0.638888  0.617699  1
  I  I23  1  0.638888  0.390656  0.882301  1
  I  I24  1  0.085593  0.865488  0.881589  1
  I  I25  1  0.865488  0.085593  0.618411  1
  I  I26  1  0.914407  0.134512  0.118411  1
  I  I27  1  0.134512  0.914407  0.381589  1
