# generated using pymatgen
data_Ba2Si3Ni
_symmetry_space_group_name_H-M   'P 1'
_cell_length_a   11.46052416
_cell_length_b   11.46052416
_cell_length_c   3.92343467
_cell_angle_alpha   90.00000000
_cell_angle_beta   90.00000000
_cell_angle_gamma   120.00000000
_symmetry_Int_Tables_number   1
_chemical_formula_structural   Ba2Si3Ni
_chemical_formula_sum   'Ba6 Si9 Ni3'
_cell_volume   446.27855633
_cell_formula_units_Z   3
loop_
 _symmetry_equiv_pos_site_id
 _symmetry_equiv_pos_as_xyz
  1  'x, y, z'
loop_
 _atom_site_type_symbol
 _atom_site_label
 _atom_site_symmetry_multiplicity
 _atom_site_fract_x
 _atom_site_fract_y
 _atom_site_fract_z
 _atom_site_occupancy
  Ba  Ba0  1  0.618178  0.000000  0.000000  1
  Ba  Ba1  1  0.381822  0.381822  0.000000  1
  Ba  Ba2  1  0.000000  0.618178  0.000000  1
  Ba  Ba3  1  0.000000  0.287066  0.000000  1
  Ba  Ba4  1  0.712934  0.712934  0.000000  1
  Ba  Ba5  1  0.287066  0.000000  0.000000  1
  Si  Si6  1  0.876641  0.000000  0.500000  1
  Si  Si7  1  0.000000  0.876641  0.500000  1
  Si  Si8  1  0.123359  0.123359  0.500000  1
  Si  Si9  1  0.779699  0.316329  0.500000  1
  Si  Si10  1  0.683671  0.463370  0.500000  1
  Si  Si11  1  0.316329  0.779699  0.500000  1
  Si  Si12  1  0.220301  0.536630  0.500000  1
  Si  Si13  1  0.463370  0.683671  0.500000  1
  Si  Si14  1  0.536630  0.220301  0.500000  1
  Ni  Ni15  1  0.333333  0.666667  0.000000  1
  Ni  Ni16  1  0.666667  0.333333  0.000000  1
  Ni  Ni17  1  0.000000  0.000000  0.000000  1
