# generated using pymatgen
data_TaInS2
_symmetry_space_group_name_H-M   'P 1'
_cell_length_a   3.32490643
_cell_length_b   3.32490643
_cell_length_c   8.93644547
_cell_angle_alpha   90.00000000
_cell_angle_beta   90.00000000
_cell_angle_gamma   120.00000000
_symmetry_Int_Tables_number   1
_chemical_formula_structural   TaInS2
_chemical_formula_sum   'Ta1 In1 S2'
_cell_volume   85.55675369
_cell_formula_units_Z   1
loop_
 _symmetry_equiv_pos_site_id
 _symmetry_equiv_pos_as_xyz
  1  'x, y, z'
loop_
 _atom_site_type_symbol
 _atom_site_label
 _atom_site_symmetry_multiplicity
 _atom_site_fract_x
 _atom_site_fract_y
 _atom_site_fract_z
 _atom_site_occupancy
  Ta  Ta0  1  0.666667  0.333333  0.500000  1
  In  In1  1  0.000000  0.000000  0.000000  1
  S  S2  1  0.000000  0.000000  0.324421  1
  S  S3  1  0.000000  0.000000  0.675579  1
