# generated using pymatgen
data_Rb3TlCl6
_symmetry_space_group_name_H-M   'P 1'
_cell_length_a   12.92239257
_cell_length_b   8.07852998
_cell_length_c   13.50280899
_cell_angle_alpha   90.00000000
_cell_angle_beta   108.05608094
_cell_angle_gamma   90.00000000
_symmetry_Int_Tables_number   1
_chemical_formula_structural   Rb3TlCl6
_chemical_formula_sum   'Rb12 Tl4 Cl24'
_cell_volume   1340.19308329
_cell_formula_units_Z   4
loop_
 _symmetry_equiv_pos_site_id
 _symmetry_equiv_pos_as_xyz
  1  'x, y, z'
loop_
 _atom_site_type_symbol
 _atom_site_label
 _atom_site_symmetry_multiplicity
 _atom_site_fract_x
 _atom_site_fract_y
 _atom_site_fract_z
 _atom_site_occupancy
  Rb  Rb0  1  0.263020  0.564054  0.816337  1
  Rb  Rb1  1  0.236980  0.064054  0.183663  1
  Rb  Rb2  1  0.736980  0.435946  0.183663  1
  Rb  Rb3  1  0.763020  0.935946  0.816337  1
  Rb  Rb4  1  0.115074  0.065124  0.819676  1
  Rb  Rb5  1  0.384926  0.565123  0.180324  1
  Rb  Rb6  1  0.884926  0.934876  0.180324  1
  Rb  Rb7  1  0.615074  0.434876  0.819676  1
  Rb  Rb8  1  0.358819  0.040591  0.596006  1
  Rb  Rb9  1  0.141181  0.540591  0.403994  1
  Rb  Rb10  1  0.641181  0.959409  0.403994  1
  Rb  Rb11  1  0.858819  0.459409  0.596006  1
  Tl  Tl12  1  0.500000  0.500000  0.500000  1
  Tl  Tl13  1  0.000000  0.000000  0.500000  1
  Tl  Tl14  1  0.000000  0.500000  0.000000  1
  Tl  Tl15  1  0.500000  0.000000  0.000000  1
  Cl  Cl16  1  0.149463  0.813572  0.628581  1
  Cl  Cl17  1  0.350537  0.313572  0.371419  1
  Cl  Cl18  1  0.850537  0.186428  0.371419  1
  Cl  Cl19  1  0.649463  0.686428  0.628581  1
  Cl  Cl20  1  0.006611  0.698385  0.848839  1
  Cl  Cl21  1  0.493389  0.198385  0.151161  1
  Cl  Cl22  1  0.993389  0.301615  0.151161  1
  Cl  Cl23  1  0.506611  0.801615  0.848839  1
  Cl  Cl24  1  0.122278  0.001325  0.379979  1
  Cl  Cl25  1  0.377722  0.501325  0.620021  1
  Cl  Cl26  1  0.877722  0.998675  0.620021  1
  Cl  Cl27  1  0.622278  0.498675  0.379979  1
  Cl  Cl28  1  0.187617  0.360236  0.000682  1
  Cl  Cl29  1  0.312383  0.860236  0.999318  1
  Cl  Cl30  1  0.812383  0.639764  0.999318  1
  Cl  Cl31  1  0.687617  0.139764  0.000682  1
  Cl  Cl32  1  0.394877  0.208889  0.850483  1
  Cl  Cl33  1  0.105123  0.708889  0.149517  1
  Cl  Cl34  1  0.605123  0.791111  0.149517  1
  Cl  Cl35  1  0.894877  0.291111  0.850483  1
  Cl  Cl36  1  0.600879  0.226820  0.599544  1
  Cl  Cl37  1  0.899121  0.726820  0.400456  1
  Cl  Cl38  1  0.399121  0.773180  0.400456  1
  Cl  Cl39  1  0.100879  0.273180  0.599544  1
