# generated using pymatgen
data_Sr2DyCu3(PbO4)2
_symmetry_space_group_name_H-M   'P 1'
_cell_length_a   3.83396462
_cell_length_b   3.83396462
_cell_length_c   16.03081411
_cell_angle_alpha   90.00000000
_cell_angle_beta   90.00000000
_cell_angle_gamma   90.00000000
_symmetry_Int_Tables_number   1
_chemical_formula_structural   Sr2DyCu3(PbO4)2
_chemical_formula_sum   'Sr2 Dy1 Cu3 Pb2 O8'
_cell_volume   235.64150008
_cell_formula_units_Z   1
loop_
 _symmetry_equiv_pos_site_id
 _symmetry_equiv_pos_as_xyz
  1  'x, y, z'
loop_
 _atom_site_type_symbol
 _atom_site_label
 _atom_site_symmetry_multiplicity
 _atom_site_fract_x
 _atom_site_fract_y
 _atom_site_fract_z
 _atom_site_occupancy
  Sr  Sr0  1  0.000000  0.000000  0.779616  1
  Sr  Sr1  1  0.000000  0.000000  0.220384  1
  Dy  Dy2  1  0.000000  0.000000  0.000000  1
  Cu  Cu3  1  0.000000  0.000000  0.500000  1
  Cu  Cu4  1  0.500000  0.500000  0.896495  1
  Cu  Cu5  1  0.500000  0.500000  0.103505  1
  Pb  Pb6  1  0.500000  0.500000  0.386886  1
  Pb  Pb7  1  0.500000  0.500000  0.613114  1
  O  O8  1  0.000000  0.500000  0.909183  1
  O  O9  1  0.500000  0.000000  0.090817  1
  O  O10  1  0.000000  0.500000  0.090817  1
  O  O11  1  0.500000  0.000000  0.909183  1
  O  O12  1  0.000000  0.000000  0.383629  1
  O  O13  1  0.500000  0.500000  0.749660  1
  O  O14  1  0.500000  0.500000  0.250340  1
  O  O15  1  0.000000  0.000000  0.616371  1
