# generated using pymatgen
data_LiP(HO2)2
_symmetry_space_group_name_H-M   'P 1'
_cell_length_a   6.39377347
_cell_length_b   6.92610838
_cell_length_c   7.70195157
_cell_angle_alpha   90.00000000
_cell_angle_beta   90.00000000
_cell_angle_gamma   90.00000000
_symmetry_Int_Tables_number   1
_chemical_formula_structural   LiP(HO2)2
_chemical_formula_sum   'Li4 P4 H8 O16'
_cell_volume   341.07297694
_cell_formula_units_Z   4
loop_
 _symmetry_equiv_pos_site_id
 _symmetry_equiv_pos_as_xyz
  1  'x, y, z'
loop_
 _atom_site_type_symbol
 _atom_site_label
 _atom_site_symmetry_multiplicity
 _atom_site_fract_x
 _atom_site_fract_y
 _atom_site_fract_z
 _atom_site_occupancy
  Li  Li0  1  0.013081  0.504545  0.727195  1
  Li  Li1  1  0.513081  0.504545  0.772805  1
  Li  Li2  1  0.486919  0.004545  0.227195  1
  Li  Li3  1  0.986919  0.004545  0.272805  1
  P  P4  1  0.198670  0.678138  0.071065  1
  P  P5  1  0.801330  0.178138  0.928935  1
  P  P6  1  0.301330  0.178138  0.571065  1
  P  P7  1  0.698670  0.678138  0.428935  1
  H  H8  1  0.037671  0.391021  0.140025  1
  H  H9  1  0.962329  0.891021  0.859975  1
  H  H10  1  0.462329  0.891021  0.640025  1
  H  H11  1  0.537671  0.391021  0.359975  1
  H  H12  1  0.988416  0.064586  0.612327  1
  H  H13  1  0.011584  0.564586  0.387673  1
  H  H14  1  0.488416  0.064586  0.887673  1
  H  H15  1  0.511584  0.564586  0.112327  1
  O  O16  1  0.727272  0.854386  0.315615  1
  O  O17  1  0.076856  0.099059  0.508233  1
  O  O18  1  0.931267  0.200929  0.092597  1
  O  O19  1  0.068733  0.700929  0.907403  1
  O  O20  1  0.923144  0.599059  0.491767  1
  O  O21  1  0.568733  0.700929  0.592597  1
  O  O22  1  0.576856  0.099059  0.991767  1
  O  O23  1  0.423144  0.599059  0.008233  1
  O  O24  1  0.605886  0.512906  0.306193  1
  O  O25  1  0.394114  0.012906  0.693807  1
  O  O26  1  0.894114  0.012906  0.806193  1
  O  O27  1  0.105886  0.512906  0.193807  1
  O  O28  1  0.772728  0.354386  0.815615  1
  O  O29  1  0.272728  0.354386  0.684385  1
  O  O30  1  0.431267  0.200929  0.407403  1
  O  O31  1  0.227272  0.854386  0.184385  1
