# generated using pymatgen
data_Fe2(PO4)3
_symmetry_space_group_name_H-M   'P 1'
_cell_length_a   8.96561017
_cell_length_b   8.96561017
_cell_length_c   8.96561017
_cell_angle_alpha   56.52068513
_cell_angle_beta   56.52068513
_cell_angle_gamma   56.52068513
_symmetry_Int_Tables_number   1
_chemical_formula_structural   Fe2(PO4)3
_chemical_formula_sum   'Fe4 P6 O24'
_cell_volume   468.61705277
_cell_formula_units_Z   2
loop_
 _symmetry_equiv_pos_site_id
 _symmetry_equiv_pos_as_xyz
  1  'x, y, z'
loop_
 _atom_site_type_symbol
 _atom_site_label
 _atom_site_symmetry_multiplicity
 _atom_site_fract_x
 _atom_site_fract_y
 _atom_site_fract_z
 _atom_site_occupancy
  Fe  Fe0  1  0.354164  0.354164  0.354164  1
  Fe  Fe1  1  0.645836  0.645836  0.645836  1
  Fe  Fe2  1  0.140554  0.140554  0.140554  1
  Fe  Fe3  1  0.859446  0.859446  0.859446  1
  P  P4  1  0.037064  0.744994  0.467547  1
  P  P5  1  0.467547  0.037064  0.744994  1
  P  P6  1  0.532453  0.962936  0.255006  1
  P  P7  1  0.962936  0.255006  0.532453  1
  P  P8  1  0.255006  0.532453  0.962936  1
  P  P9  1  0.744994  0.467547  0.037064  1
  O  O10  1  0.230149  0.515851  0.156460  1
  O  O11  1  0.794252  0.623889  0.006622  1
  O  O12  1  0.887061  0.268356  0.110790  1
  O  O13  1  0.731644  0.889210  0.112939  1
  O  O14  1  0.205748  0.376111  0.993378  1
  O  O15  1  0.112939  0.731644  0.889210  1
  O  O16  1  0.268356  0.110790  0.887061  1
  O  O17  1  0.006622  0.794252  0.623889  1
  O  O18  1  0.156460  0.230149  0.515851  1
  O  O19  1  0.461452  0.510405  0.820394  1
  O  O20  1  0.484149  0.843540  0.769851  1
  O  O21  1  0.179606  0.538548  0.489595  1
  O  O22  1  0.623889  0.006622  0.794252  1
  O  O23  1  0.110790  0.887061  0.268356  1
  O  O24  1  0.843540  0.769851  0.484149  1
  O  O25  1  0.489595  0.179606  0.538548  1
  O  O26  1  0.510405  0.820394  0.461452  1
  O  O27  1  0.993378  0.205748  0.376111  1
  O  O28  1  0.889210  0.112939  0.731644  1
  O  O29  1  0.376111  0.993378  0.205748  1
  O  O30  1  0.820394  0.461452  0.510405  1
  O  O31  1  0.515851  0.156460  0.230149  1
  O  O32  1  0.538548  0.489595  0.179606  1
  O  O33  1  0.769851  0.484149  0.843540  1
