# generated using pymatgen
data_Fe2N
_symmetry_space_group_name_H-M   'P 1'
_cell_length_a   4.75226025
_cell_length_b   4.75226025
_cell_length_c   4.32056687
_cell_angle_alpha   90.00000000
_cell_angle_beta   90.00000000
_cell_angle_gamma   120.00000000
_symmetry_Int_Tables_number   1
_chemical_formula_structural   Fe2N
_chemical_formula_sum   'Fe6 N3'
_cell_volume   84.50293534
_cell_formula_units_Z   3
loop_
 _symmetry_equiv_pos_site_id
 _symmetry_equiv_pos_as_xyz
  1  'x, y, z'
loop_
 _atom_site_type_symbol
 _atom_site_label
 _atom_site_symmetry_multiplicity
 _atom_site_fract_x
 _atom_site_fract_y
 _atom_site_fract_z
 _atom_site_occupancy
  Fe  Fe0  1  0.000000  0.669744  0.747997  1
  Fe  Fe1  1  0.669744  0.000000  0.747997  1
  Fe  Fe2  1  0.330256  0.330256  0.747997  1
  Fe  Fe3  1  0.669744  0.669744  0.252003  1
  Fe  Fe4  1  0.000000  0.330256  0.252003  1
  Fe  Fe5  1  0.330256  0.000000  0.252003  1
  N  N6  1  0.666667  0.333333  0.500000  1
  N  N7  1  0.333333  0.666667  0.500000  1
  N  N8  1  0.000000  0.000000  0.000000  1
