# generated using pymatgen
data_TaNiGe
_symmetry_space_group_name_H-M   'P 1'
_cell_length_a   3.77406282
_cell_length_b   6.29770980
_cell_length_c   7.21972985
_cell_angle_alpha   90.00000000
_cell_angle_beta   90.00000000
_cell_angle_gamma   90.00000000
_symmetry_Int_Tables_number   1
_chemical_formula_structural   TaNiGe
_chemical_formula_sum   'Ta4 Ni4 Ge4'
_cell_volume   171.59819547
_cell_formula_units_Z   4
loop_
 _symmetry_equiv_pos_site_id
 _symmetry_equiv_pos_as_xyz
  1  'x, y, z'
loop_
 _atom_site_type_symbol
 _atom_site_label
 _atom_site_symmetry_multiplicity
 _atom_site_fract_x
 _atom_site_fract_y
 _atom_site_fract_z
 _atom_site_occupancy
  Ta  Ta0  1  0.250000  0.517019  0.324116  1
  Ta  Ta1  1  0.250000  0.017019  0.175884  1
  Ta  Ta2  1  0.750000  0.982981  0.824116  1
  Ta  Ta3  1  0.750000  0.482981  0.675884  1
  Ni  Ni4  1  0.750000  0.838726  0.428837  1
  Ni  Ni5  1  0.250000  0.161274  0.571163  1
  Ni  Ni6  1  0.750000  0.338726  0.071163  1
  Ni  Ni7  1  0.250000  0.661274  0.928837  1
  Ge  Ge8  1  0.750000  0.717395  0.115891  1
  Ge  Ge9  1  0.250000  0.782605  0.615891  1
  Ge  Ge10  1  0.250000  0.282605  0.884109  1
  Ge  Ge11  1  0.750000  0.217395  0.384109  1
