# generated using pymatgen
data_Bi2O3
_symmetry_space_group_name_H-M   'P 1'
_cell_length_a   8.07516447
_cell_length_b   8.07516447
_cell_length_c   5.72670429
_cell_angle_alpha   90.00000000
_cell_angle_beta   90.00000000
_cell_angle_gamma   90.00000000
_symmetry_Int_Tables_number   1
_chemical_formula_structural   Bi2O3
_chemical_formula_sum   'Bi8 O12'
_cell_volume   373.42854379
_cell_formula_units_Z   4
loop_
 _symmetry_equiv_pos_site_id
 _symmetry_equiv_pos_as_xyz
  1  'x, y, z'
loop_
 _atom_site_type_symbol
 _atom_site_label
 _atom_site_symmetry_multiplicity
 _atom_site_fract_x
 _atom_site_fract_y
 _atom_site_fract_z
 _atom_site_occupancy
  Bi  Bi0  1  0.764958  0.466953  0.744434  1
  Bi  Bi1  1  0.235042  0.533047  0.744434  1
  Bi  Bi2  1  0.466953  0.235042  0.255566  1
  Bi  Bi3  1  0.533047  0.764958  0.255566  1
  Bi  Bi4  1  0.966953  0.264958  0.244434  1
  Bi  Bi5  1  0.735042  0.966953  0.755566  1
  Bi  Bi6  1  0.264958  0.033047  0.755566  1
  Bi  Bi7  1  0.033047  0.735042  0.244434  1
  O  O8  1  0.000000  0.500000  0.569979  1
  O  O9  1  0.500000  0.000000  0.430021  1
  O  O10  1  0.500000  0.000000  0.930021  1
  O  O11  1  0.000000  0.500000  0.069979  1
  O  O12  1  0.712683  0.327436  0.430813  1
  O  O13  1  0.287317  0.672564  0.430813  1
  O  O14  1  0.327436  0.287317  0.569187  1
  O  O15  1  0.672564  0.712683  0.569187  1
  O  O16  1  0.172564  0.787317  0.930813  1
  O  O17  1  0.212683  0.172564  0.069187  1
  O  O18  1  0.787317  0.827436  0.069187  1
  O  O19  1  0.827436  0.212683  0.930813  1
