# generated using pymatgen
data_CsIO3
_symmetry_space_group_name_H-M   'P 1'
_cell_length_a   4.76897778
_cell_length_b   6.73925813
_cell_length_c   6.82515119
_cell_angle_alpha   90.00000000
_cell_angle_beta   90.00000000
_cell_angle_gamma   90.00000000
_symmetry_Int_Tables_number   1
_chemical_formula_structural   CsIO3
_chemical_formula_sum   'Cs2 I2 O6'
_cell_volume   219.35607484
_cell_formula_units_Z   2
loop_
 _symmetry_equiv_pos_site_id
 _symmetry_equiv_pos_as_xyz
  1  'x, y, z'
loop_
 _atom_site_type_symbol
 _atom_site_label
 _atom_site_symmetry_multiplicity
 _atom_site_fract_x
 _atom_site_fract_y
 _atom_site_fract_z
 _atom_site_occupancy
  Cs  Cs0  1  0.995345  0.000000  0.489398  1
  Cs  Cs1  1  0.004655  0.500000  0.989398  1
  I  I2  1  0.475852  0.000000  0.006396  1
  I  I3  1  0.524148  0.500000  0.506396  1
  O  O4  1  0.904518  0.500000  0.467215  1
  O  O5  1  0.487389  0.710122  0.675000  1
  O  O6  1  0.487389  0.289878  0.675000  1
  O  O7  1  0.512611  0.210122  0.175000  1
  O  O8  1  0.095482  0.000000  0.967215  1
  O  O9  1  0.512611  0.789878  0.175000  1
