# generated using pymatgen
data_Gd2CCl2
_symmetry_space_group_name_H-M   'P 1'
_cell_length_a   3.77575866
_cell_length_b   3.77575866
_cell_length_c   9.44803645
_cell_angle_alpha   90.00000000
_cell_angle_beta   90.00000000
_cell_angle_gamma   120.00000000
_symmetry_Int_Tables_number   1
_chemical_formula_structural   Gd2CCl2
_chemical_formula_sum   'Gd2 C1 Cl2'
_cell_volume   116.64889929
_cell_formula_units_Z   1
loop_
 _symmetry_equiv_pos_site_id
 _symmetry_equiv_pos_as_xyz
  1  'x, y, z'
loop_
 _atom_site_type_symbol
 _atom_site_label
 _atom_site_symmetry_multiplicity
 _atom_site_fract_x
 _atom_site_fract_y
 _atom_site_fract_z
 _atom_site_occupancy
  Gd  Gd0  1  0.333333  0.666667  0.354377  1
  Gd  Gd1  1  0.666667  0.333333  0.645623  1
  C  C2  1  0.000000  0.000000  0.500000  1
  Cl  Cl3  1  0.333333  0.666667  0.831234  1
  Cl  Cl4  1  0.666667  0.333333  0.168766  1
