# generated using pymatgen
data_Rb4Cu5Cl9
_symmetry_space_group_name_H-M   'P 1'
_cell_length_a   15.62266034
_cell_length_b   8.83686450
_cell_length_c   15.86844237
_cell_angle_alpha   90.00000000
_cell_angle_beta   107.93455725
_cell_angle_gamma   90.00000000
_symmetry_Int_Tables_number   1
_chemical_formula_structural   Rb4Cu5Cl9
_chemical_formula_sum   'Rb16 Cu20 Cl36'
_cell_volume   2084.27333976
_cell_formula_units_Z   4
loop_
 _symmetry_equiv_pos_site_id
 _symmetry_equiv_pos_as_xyz
  1  'x, y, z'
loop_
 _atom_site_type_symbol
 _atom_site_label
 _atom_site_symmetry_multiplicity
 _atom_site_fract_x
 _atom_site_fract_y
 _atom_site_fract_z
 _atom_site_occupancy
  Rb  Rb0  1  0.997900  0.309173  0.999529  1
  Rb  Rb1  1  0.997900  0.690827  0.499529  1
  Rb  Rb2  1  0.982029  0.164831  0.698662  1
  Rb  Rb3  1  0.982029  0.835169  0.198662  1
  Rb  Rb4  1  0.469744  0.473253  0.521641  1
  Rb  Rb5  1  0.469744  0.526747  0.021641  1
  Rb  Rb6  1  0.482580  0.045014  0.881795  1
  Rb  Rb7  1  0.482580  0.954986  0.381795  1
  Rb  Rb8  1  0.732359  0.184983  0.114898  1
  Rb  Rb9  1  0.732359  0.815017  0.614898  1
  Rb  Rb10  1  0.752131  0.344512  0.430786  1
  Rb  Rb11  1  0.752131  0.655488  0.930786  1
  Rb  Rb12  1  0.249529  0.462609  0.235390  1
  Rb  Rb13  1  0.249529  0.537391  0.735390  1
  Rb  Rb14  1  0.260690  0.027209  0.598665  1
  Rb  Rb15  1  0.260690  0.972791  0.098665  1
  Cu  Cu16  1  0.575256  0.628297  0.281710  1
  Cu  Cu17  1  0.575256  0.371703  0.781710  1
  Cu  Cu18  1  0.572791  0.881929  0.184518  1
  Cu  Cu19  1  0.572791  0.118071  0.684518  1
  Cu  Cu20  1  0.159445  0.390886  0.440052  1
  Cu  Cu21  1  0.159445  0.609114  0.940052  1
  Cu  Cu22  1  0.143474  0.150985  0.337154  1
  Cu  Cu23  1  0.143474  0.849015  0.837154  1
  Cu  Cu24  1  0.700300  0.678971  0.202791  1
  Cu  Cu25  1  0.700300  0.321029  0.702791  1
  Cu  Cu26  1  0.787501  0.084828  0.877954  1
  Cu  Cu27  1  0.787501  0.915172  0.377954  1
  Cu  Cu28  1  0.982214  0.356559  0.263677  1
  Cu  Cu29  1  0.982214  0.643441  0.763677  1
  Cu  Cu30  1  0.024595  0.205289  0.414518  1
  Cu  Cu31  1  0.024595  0.794711  0.914518  1
  Cu  Cu32  1  0.482519  0.226803  0.203505  1
  Cu  Cu33  1  0.482519  0.773197  0.703505  1
  Cu  Cu34  1  0.241858  0.743964  0.413366  1
  Cu  Cu35  1  0.241858  0.256036  0.913366  1
  Cl  Cl36  1  0.454081  0.311895  0.316912  1
  Cl  Cl37  1  0.454081  0.688105  0.816912  1
  Cl  Cl38  1  0.479276  0.121454  0.082159  1
  Cl  Cl39  1  0.479276  0.878546  0.582159  1
  Cl  Cl40  1  0.108468  0.164664  0.190834  1
  Cl  Cl41  1  0.108468  0.835336  0.690834  1
  Cl  Cl42  1  0.090381  0.316055  0.545787  1
  Cl  Cl43  1  0.090381  0.683945  0.045787  1
  Cl  Cl44  1  0.830994  0.721609  0.309713  1
  Cl  Cl45  1  0.830994  0.278391  0.809713  1
  Cl  Cl46  1  0.895011  0.186539  0.305644  1
  Cl  Cl47  1  0.895011  0.813461  0.805644  1
  Cl  Cl48  1  0.854966  0.003440  0.512559  1
  Cl  Cl49  1  0.854966  0.996560  0.012559  1
  Cl  Cl50  1  0.892444  0.460480  0.126051  1
  Cl  Cl51  1  0.892444  0.539520  0.626051  1
  Cl  Cl52  1  0.656044  0.032136  0.296544  1
  Cl  Cl53  1  0.656044  0.967864  0.796544  1
  Cl  Cl54  1  0.636415  0.446838  0.213203  1
  Cl  Cl55  1  0.636415  0.553162  0.713203  1
  Cl  Cl56  1  0.613339  0.646804  0.428813  1
  Cl  Cl57  1  0.613339  0.353196  0.928813  1
  Cl  Cl58  1  0.638822  0.808105  0.075178  1
  Cl  Cl59  1  0.638822  0.191895  0.575178  1
  Cl  Cl60  1  0.272200  0.821663  0.298630  1
  Cl  Cl61  1  0.272200  0.178337  0.798630  1
  Cl  Cl62  1  0.251741  0.631633  0.535705  1
  Cl  Cl63  1  0.251741  0.368367  0.035705  1
  Cl  Cl64  1  0.081495  0.542126  0.324263  1
  Cl  Cl65  1  0.081495  0.457874  0.824263  1
  Cl  Cl66  1  0.099414  0.956363  0.411348  1
  Cl  Cl67  1  0.099414  0.043637  0.911348  1
  Cl  Cl68  1  0.279319  0.252819  0.429562  1
  Cl  Cl69  1  0.279319  0.747181  0.929562  1
  Cl  Cl70  1  0.449673  0.745223  0.188983  1
  Cl  Cl71  1  0.449673  0.254777  0.688983  1
