# generated using pymatgen
data_Co2P3O10
_symmetry_space_group_name_H-M   'P 1'
_cell_length_a   4.69791308
_cell_length_b   8.48263313
_cell_length_c   8.94256573
_cell_angle_alpha   90.00000000
_cell_angle_beta   98.39445503
_cell_angle_gamma   90.00000000
_symmetry_Int_Tables_number   1
_chemical_formula_structural   Co2P3O10
_chemical_formula_sum   'Co4 P6 O20'
_cell_volume   352.54931145
_cell_formula_units_Z   2
loop_
 _symmetry_equiv_pos_site_id
 _symmetry_equiv_pos_as_xyz
  1  'x, y, z'
loop_
 _atom_site_type_symbol
 _atom_site_label
 _atom_site_symmetry_multiplicity
 _atom_site_fract_x
 _atom_site_fract_y
 _atom_site_fract_z
 _atom_site_occupancy
  Co  Co0  1  0.947920  0.931336  0.672046  1
  Co  Co1  1  0.052080  0.068664  0.327954  1
  Co  Co2  1  0.947920  0.568664  0.672046  1
  Co  Co3  1  0.052080  0.431336  0.327954  1
  P  P4  1  0.331411  0.250000  0.812748  1
  P  P5  1  0.524240  0.750000  0.852590  1
  P  P6  1  0.668589  0.750000  0.187252  1
  P  P7  1  0.388741  0.750000  0.462611  1
  P  P8  1  0.611259  0.250000  0.537389  1
  P  P9  1  0.475760  0.250000  0.147410  1
  O  O10  1  0.410370  0.750000  0.286202  1
  O  O11  1  0.223638  0.597752  0.488457  1
  O  O12  1  0.776362  0.402248  0.511543  1
  O  O13  1  0.310016  0.399234  0.176524  1
  O  O14  1  0.302203  0.250000  0.449503  1
  O  O15  1  0.470475  0.750000  0.025342  1
  O  O16  1  0.213732  0.750000  0.765529  1
  O  O17  1  0.689984  0.600766  0.823476  1
  O  O18  1  0.828630  0.902197  0.209418  1
  O  O19  1  0.697797  0.750000  0.550497  1
  O  O20  1  0.171370  0.402197  0.790582  1
  O  O21  1  0.529525  0.250000  0.974658  1
  O  O22  1  0.776362  0.097752  0.511543  1
  O  O23  1  0.589630  0.250000  0.713798  1
  O  O24  1  0.223638  0.902248  0.488457  1
  O  O25  1  0.828630  0.597803  0.209418  1
  O  O26  1  0.786268  0.250000  0.234471  1
  O  O27  1  0.310016  0.100766  0.176524  1
  O  O28  1  0.689984  0.899234  0.823476  1
  O  O29  1  0.171370  0.097803  0.790582  1
