# generated using pymatgen
data_U2Nb3Ge4
_symmetry_space_group_name_H-M   'P 1'
_cell_length_a   7.02101100
_cell_length_b   7.20714272
_cell_length_c   13.53500104
_cell_angle_alpha   90.00000000
_cell_angle_beta   90.00000000
_cell_angle_gamma   90.00000000
_symmetry_Int_Tables_number   1
_chemical_formula_structural   U2Nb3Ge4
_chemical_formula_sum   'U8 Nb12 Ge16'
_cell_volume   684.89038488
_cell_formula_units_Z   4
loop_
 _symmetry_equiv_pos_site_id
 _symmetry_equiv_pos_as_xyz
  1  'x, y, z'
loop_
 _atom_site_type_symbol
 _atom_site_label
 _atom_site_symmetry_multiplicity
 _atom_site_fract_x
 _atom_site_fract_y
 _atom_site_fract_z
 _atom_site_occupancy
  U  U0  1  0.493210  0.330250  0.409187  1
  U  U1  1  0.993210  0.169750  0.090813  1
  U  U2  1  0.006790  0.830250  0.590813  1
  U  U3  1  0.506790  0.669750  0.909187  1
  U  U4  1  0.506790  0.669750  0.590813  1
  U  U5  1  0.006790  0.830250  0.909187  1
  U  U6  1  0.993210  0.169750  0.409187  1
  U  U7  1  0.493210  0.330250  0.090813  1
  Nb  Nb8  1  0.831793  0.504474  0.250000  1
  Nb  Nb9  1  0.331793  0.995526  0.250000  1
  Nb  Nb10  1  0.668207  0.004474  0.750000  1
  Nb  Nb11  1  0.168207  0.495526  0.750000  1
  Nb  Nb12  1  0.160627  0.667198  0.125204  1
  Nb  Nb13  1  0.339373  0.167198  0.874796  1
  Nb  Nb14  1  0.339373  0.167198  0.625204  1
  Nb  Nb15  1  0.839373  0.332802  0.874796  1
  Nb  Nb16  1  0.160627  0.667198  0.374796  1
  Nb  Nb17  1  0.660627  0.832802  0.125204  1
  Nb  Nb18  1  0.839373  0.332802  0.625204  1
  Nb  Nb19  1  0.660627  0.832802  0.374796  1
  Ge  Ge20  1  0.808101  0.640291  0.750000  1
  Ge  Ge21  1  0.308101  0.859709  0.750000  1
  Ge  Ge22  1  0.691899  0.140291  0.250000  1
  Ge  Ge23  1  0.191899  0.359709  0.250000  1
  Ge  Ge24  1  0.039424  0.124498  0.750000  1
  Ge  Ge25  1  0.539424  0.375502  0.750000  1
  Ge  Ge26  1  0.460576  0.624498  0.250000  1
  Ge  Ge27  1  0.960576  0.875502  0.250000  1
  Ge  Ge28  1  0.173143  0.457167  0.543150  1
  Ge  Ge29  1  0.673143  0.042833  0.956850  1
  Ge  Ge30  1  0.673143  0.042833  0.543150  1
  Ge  Ge31  1  0.173143  0.457167  0.956850  1
  Ge  Ge32  1  0.826857  0.542833  0.456850  1
  Ge  Ge33  1  0.826857  0.542833  0.043150  1
  Ge  Ge34  1  0.326857  0.957167  0.043150  1
  Ge  Ge35  1  0.326857  0.957167  0.456850  1
