# generated using pymatgen
data_SbP2O7
_symmetry_space_group_name_H-M   'P 1'
_cell_length_a   5.05766473
_cell_length_b   8.51481412
_cell_length_c   7.21217368
_cell_angle_alpha   90.00000000
_cell_angle_beta   108.38385822
_cell_angle_gamma   90.00000000
_symmetry_Int_Tables_number   1
_chemical_formula_structural   SbP2O7
_chemical_formula_sum   'Sb2 P4 O14'
_cell_volume   294.74166629
_cell_formula_units_Z   2
loop_
 _symmetry_equiv_pos_site_id
 _symmetry_equiv_pos_as_xyz
  1  'x, y, z'
loop_
 _atom_site_type_symbol
 _atom_site_label
 _atom_site_symmetry_multiplicity
 _atom_site_fract_x
 _atom_site_fract_y
 _atom_site_fract_z
 _atom_site_occupancy
  Sb  Sb0  1  0.211419  0.549924  0.722396  1
  Sb  Sb1  1  0.788581  0.049924  0.277604  1
  P  P2  1  0.398374  0.869340  0.522827  1
  P  P3  1  0.219695  0.276292  0.092902  1
  P  P4  1  0.780305  0.776292  0.907098  1
  P  P5  1  0.601626  0.369340  0.477173  1
  O  O6  1  0.039727  0.735833  0.848543  1
  O  O7  1  0.127022  0.371371  0.903131  1
  O  O8  1  0.186721  0.003822  0.486153  1
  O  O9  1  0.269398  0.704161  0.507766  1
  O  O10  1  0.413732  0.373312  0.608246  1
  O  O11  1  0.605541  0.630682  0.917202  1
  O  O12  1  0.589404  0.896869  0.746271  1
  O  O13  1  0.410596  0.396869  0.253729  1
  O  O14  1  0.394459  0.130682  0.082798  1
  O  O15  1  0.586268  0.873312  0.391754  1
  O  O16  1  0.730602  0.204161  0.492234  1
  O  O17  1  0.813279  0.503822  0.513847  1
  O  O18  1  0.872978  0.871371  0.096869  1
  O  O19  1  0.960273  0.235833  0.151457  1
