# generated using pymatgen
data_MnO2
_symmetry_space_group_name_H-M   'P 1'
_cell_length_a   6.51595947
_cell_length_b   6.51595947
_cell_length_c   6.51595947
_cell_angle_alpha   25.98138864
_cell_angle_beta   25.98138864
_cell_angle_gamma   25.98138864
_symmetry_Int_Tables_number   1
_chemical_formula_structural   MnO2
_chemical_formula_sum   'Mn1 O2'
_cell_volume   46.76747172
_cell_formula_units_Z   1
loop_
 _symmetry_equiv_pos_site_id
 _symmetry_equiv_pos_as_xyz
  1  'x, y, z'
loop_
 _atom_site_type_symbol
 _atom_site_label
 _atom_site_symmetry_multiplicity
 _atom_site_fract_x
 _atom_site_fract_y
 _atom_site_fract_z
 _atom_site_occupancy
  Mn  Mn0  1  0.000000  0.000000  0.000000  1
  O  O1  1  0.717416  0.717416  0.717416  1
  O  O2  1  0.282584  0.282584  0.282584  1
