# generated using pymatgen
data_Sr4PdO6
_symmetry_space_group_name_H-M   'P 1'
_cell_length_a   6.95126619
_cell_length_b   6.95126619
_cell_length_c   6.95126619
_cell_angle_alpha   90.14209060
_cell_angle_beta   90.14209060
_cell_angle_gamma   90.14209060
_symmetry_Int_Tables_number   1
_chemical_formula_structural   Sr4PdO6
_chemical_formula_sum   'Sr8 Pd2 O12'
_cell_volume   335.88278475
_cell_formula_units_Z   2
loop_
 _symmetry_equiv_pos_site_id
 _symmetry_equiv_pos_as_xyz
  1  'x, y, z'
loop_
 _atom_site_type_symbol
 _atom_site_label
 _atom_site_symmetry_multiplicity
 _atom_site_fract_x
 _atom_site_fract_y
 _atom_site_fract_z
 _atom_site_occupancy
  Sr  Sr0  1  0.250000  0.250000  0.250000  1
  Sr  Sr1  1  0.750000  0.750000  0.750000  1
  Sr  Sr2  1  0.379941  0.750000  0.120059  1
  Sr  Sr3  1  0.120059  0.379941  0.750000  1
  Sr  Sr4  1  0.750000  0.120059  0.379941  1
  Sr  Sr5  1  0.620059  0.250000  0.879941  1
  Sr  Sr6  1  0.879941  0.620059  0.250000  1
  Sr  Sr7  1  0.250000  0.879941  0.620059  1
  Pd  Pd8  1  0.000000  0.000000  0.000000  1
  Pd  Pd9  1  0.500000  0.500000  0.500000  1
  O  O10  1  0.442685  0.571899  0.786144  1
  O  O11  1  0.786144  0.442685  0.571899  1
  O  O12  1  0.571899  0.786144  0.442685  1
  O  O13  1  0.713856  0.928101  0.057315  1
  O  O14  1  0.057315  0.713856  0.928101  1
  O  O15  1  0.928101  0.057315  0.713856  1
  O  O16  1  0.557315  0.428101  0.213856  1
  O  O17  1  0.213856  0.557315  0.428101  1
  O  O18  1  0.428101  0.213856  0.557315  1
  O  O19  1  0.286144  0.071899  0.942685  1
  O  O20  1  0.071899  0.942685  0.286144  1
  O  O21  1  0.942685  0.286144  0.071899  1
