# generated using pymatgen
data_ThZrF8
_symmetry_space_group_name_H-M   'P 1'
_cell_length_a   8.35488876
_cell_length_b   8.63297898
_cell_length_c   16.62988973
_cell_angle_alpha   90.00000000
_cell_angle_beta   101.05982870
_cell_angle_gamma   90.00000000
_symmetry_Int_Tables_number   1
_chemical_formula_structural   ThZrF8
_chemical_formula_sum   'Th8 Zr8 F64'
_cell_volume   1177.19634553
_cell_formula_units_Z   8
loop_
 _symmetry_equiv_pos_site_id
 _symmetry_equiv_pos_as_xyz
  1  'x, y, z'
loop_
 _atom_site_type_symbol
 _atom_site_label
 _atom_site_symmetry_multiplicity
 _atom_site_fract_x
 _atom_site_fract_y
 _atom_site_fract_z
 _atom_site_occupancy
  Th  Th0  1  0.222116  0.906759  0.177721  1
  Th  Th1  1  0.777884  0.406759  0.322279  1
  Th  Th2  1  0.777884  0.093241  0.822279  1
  Th  Th3  1  0.222116  0.593241  0.677721  1
  Th  Th4  1  0.334141  0.402964  0.111570  1
  Th  Th5  1  0.665859  0.902964  0.388430  1
  Th  Th6  1  0.665859  0.597036  0.888430  1
  Th  Th7  1  0.334141  0.097036  0.611570  1
  Zr  Zr8  1  0.705004  0.775930  0.136178  1
  Zr  Zr9  1  0.294996  0.275930  0.363822  1
  Zr  Zr10  1  0.294996  0.224070  0.863822  1
  Zr  Zr11  1  0.705004  0.724070  0.636178  1
  Zr  Zr12  1  0.174464  0.764709  0.921124  1
  Zr  Zr13  1  0.825536  0.264709  0.578876  1
  Zr  Zr14  1  0.825536  0.235291  0.078876  1
  Zr  Zr15  1  0.174464  0.735291  0.421124  1
  F  F16  1  0.419585  0.721018  0.925208  1
  F  F17  1  0.580415  0.221018  0.574792  1
  F  F18  1  0.580415  0.278982  0.074792  1
  F  F19  1  0.419585  0.778982  0.425208  1
  F  F20  1  0.958933  0.792890  0.147219  1
  F  F21  1  0.041067  0.292890  0.352781  1
  F  F22  1  0.041067  0.207110  0.852781  1
  F  F23  1  0.958933  0.707110  0.647219  1
  F  F24  1  0.543346  0.589653  0.096718  1
  F  F25  1  0.456654  0.089653  0.403282  1
  F  F26  1  0.456654  0.410347  0.903282  1
  F  F27  1  0.543346  0.910347  0.596718  1
  F  F28  1  0.953100  0.633326  0.909234  1
  F  F29  1  0.046900  0.133326  0.590766  1
  F  F30  1  0.046900  0.366674  0.090766  1
  F  F31  1  0.953100  0.866674  0.409234  1
  F  F32  1  0.743742  0.875626  0.251614  1
  F  F33  1  0.256258  0.375626  0.248386  1
  F  F34  1  0.256258  0.124374  0.748386  1
  F  F35  1  0.743742  0.624374  0.751614  1
  F  F36  1  0.154265  0.712748  0.799153  1
  F  F37  1  0.845735  0.212748  0.700847  1
  F  F38  1  0.845735  0.287252  0.200847  1
  F  F39  1  0.154265  0.787252  0.299153  1
  F  F40  1  0.163004  0.866893  0.032385  1
  F  F41  1  0.836996  0.366893  0.467615  1
  F  F42  1  0.836996  0.133107  0.967615  1
  F  F43  1  0.163004  0.633107  0.532385  1
  F  F44  1  0.471965  0.865849  0.125323  1
  F  F45  1  0.528035  0.365849  0.374677  1
  F  F46  1  0.528035  0.134151  0.874677  1
  F  F47  1  0.471965  0.634151  0.625323  1
  F  F48  1  0.206908  0.090029  0.287501  1
  F  F49  1  0.793092  0.590029  0.212499  1
  F  F50  1  0.793092  0.909971  0.712499  1
  F  F51  1  0.206908  0.409971  0.787501  1
  F  F52  1  0.731063  0.740524  0.014871  1
  F  F53  1  0.268937  0.240524  0.485129  1
  F  F54  1  0.268937  0.259476  0.985129  1
  F  F55  1  0.731063  0.759476  0.514871  1
  F  F56  1  0.021535  0.086228  0.124065  1
  F  F57  1  0.978465  0.586228  0.375935  1
  F  F58  1  0.978465  0.913772  0.875935  1
  F  F59  1  0.021535  0.413772  0.624065  1
  F  F60  1  0.725669  0.012807  0.098324  1
  F  F61  1  0.274331  0.512807  0.401676  1
  F  F62  1  0.274331  0.987193  0.901676  1
  F  F63  1  0.725669  0.487193  0.598324  1
  F  F64  1  0.548627  0.389727  0.221319  1
  F  F65  1  0.451373  0.889727  0.278681  1
  F  F66  1  0.451373  0.610273  0.778681  1
  F  F67  1  0.548627  0.110273  0.721319  1
  F  F68  1  0.336535  0.143766  0.147787  1
  F  F69  1  0.663465  0.643766  0.352213  1
  F  F70  1  0.663465  0.856234  0.852213  1
  F  F71  1  0.336535  0.356234  0.647787  1
  F  F72  1  0.227530  0.570676  0.998005  1
  F  F73  1  0.772470  0.070676  0.501995  1
  F  F74  1  0.772470  0.429324  0.001995  1
  F  F75  1  0.227530  0.929324  0.498005  1
  F  F76  1  0.267216  0.640827  0.163726  1
  F  F77  1  0.732784  0.140827  0.336274  1
  F  F78  1  0.732784  0.359173  0.836274  1
  F  F79  1  0.267216  0.859173  0.663726  1
