# generated using pymatgen
data_UTe3
_symmetry_space_group_name_H-M   'P 1'
_cell_length_a   12.69902583
_cell_length_b   12.69902583
_cell_length_c   4.44745826
_cell_angle_alpha   90.00000000
_cell_angle_beta   90.00000000
_cell_angle_gamma   160.20931591
_symmetry_Int_Tables_number   1
_chemical_formula_structural   UTe3
_chemical_formula_sum   'U2 Te6'
_cell_volume   242.84005612
_cell_formula_units_Z   2
loop_
 _symmetry_equiv_pos_site_id
 _symmetry_equiv_pos_as_xyz
  1  'x, y, z'
loop_
 _atom_site_type_symbol
 _atom_site_label
 _atom_site_symmetry_multiplicity
 _atom_site_fract_x
 _atom_site_fract_y
 _atom_site_fract_z
 _atom_site_occupancy
  U  U0  1  0.833938  0.166062  0.750000  1
  U  U1  1  0.166062  0.833938  0.250000  1
  Te  Te2  1  0.296043  0.703957  0.250000  1
  Te  Te3  1  0.926759  0.073241  0.250000  1
  Te  Te4  1  0.703957  0.296043  0.750000  1
  Te  Te5  1  0.073241  0.926759  0.750000  1
  Te  Te6  1  0.573235  0.426765  0.250000  1
  Te  Te7  1  0.426765  0.573235  0.750000  1
