# generated using pymatgen
data_UP2(PbO5)2
_symmetry_space_group_name_H-M   'P 1'
_cell_length_a   6.72315515
_cell_length_b   6.97257462
_cell_length_c   10.63266022
_cell_angle_alpha   86.21922569
_cell_angle_beta   78.12917976
_cell_angle_gamma   81.47758374
_symmetry_Int_Tables_number   1
_chemical_formula_structural   UP2(PbO5)2
_chemical_formula_sum   'U2 P4 Pb4 O20'
_cell_volume   482.06525193
_cell_formula_units_Z   2
loop_
 _symmetry_equiv_pos_site_id
 _symmetry_equiv_pos_as_xyz
  1  'x, y, z'
loop_
 _atom_site_type_symbol
 _atom_site_label
 _atom_site_symmetry_multiplicity
 _atom_site_fract_x
 _atom_site_fract_y
 _atom_site_fract_z
 _atom_site_occupancy
  U  U0  1  0.885455  0.616003  0.839822  1
  U  U1  1  0.114545  0.383997  0.160178  1
  P  P2  1  0.722999  0.816040  0.551611  1
  P  P3  1  0.277001  0.183960  0.448389  1
  P  P4  1  0.366783  0.531786  0.820517  1
  P  P5  1  0.633217  0.468214  0.179483  1
  Pb  Pb6  1  0.261963  0.051550  0.771201  1
  Pb  Pb7  1  0.738037  0.948450  0.228799  1
  Pb  Pb8  1  0.722805  0.297596  0.550735  1
  Pb  Pb9  1  0.277195  0.702404  0.449265  1
  O  O10  1  0.841672  0.909279  0.427103  1
  O  O11  1  0.158328  0.090721  0.572897  1
  O  O12  1  0.537219  0.636077  0.851461  1
  O  O13  1  0.462781  0.363923  0.148539  1
  O  O14  1  0.855772  0.862924  0.894334  1
  O  O15  1  0.144228  0.137076  0.105666  1
  O  O16  1  0.798509  0.504163  0.055789  1
  O  O17  1  0.201491  0.495837  0.944211  1
  O  O18  1  0.454633  0.338143  0.755486  1
  O  O19  1  0.545367  0.661857  0.244514  1
  O  O20  1  0.410872  0.016640  0.367185  1
  O  O21  1  0.589128  0.983360  0.632815  1
  O  O22  1  0.594455  0.663729  0.522323  1
  O  O23  1  0.405545  0.336271  0.477677  1
  O  O24  1  0.069772  0.635316  0.212170  1
  O  O25  1  0.930228  0.364684  0.787830  1
  O  O26  1  0.766596  0.329203  0.261709  1
  O  O27  1  0.233404  0.670797  0.738291  1
  O  O28  1  0.117572  0.294202  0.371624  1
  O  O29  1  0.882428  0.705798  0.628376  1
