# generated using pymatgen
data_Sb2IF15
_symmetry_space_group_name_H-M   'P 1'
_cell_length_a   8.67993234
_cell_length_b   15.19317162
_cell_length_c   10.14969479
_cell_angle_alpha   90.00000000
_cell_angle_beta   112.53104741
_cell_angle_gamma   90.00000000
_symmetry_Int_Tables_number   1
_chemical_formula_structural   Sb2IF15
_chemical_formula_sum   'Sb8 I4 F60'
_cell_volume   1236.33327643
_cell_formula_units_Z   4
loop_
 _symmetry_equiv_pos_site_id
 _symmetry_equiv_pos_as_xyz
  1  'x, y, z'
loop_
 _atom_site_type_symbol
 _atom_site_label
 _atom_site_symmetry_multiplicity
 _atom_site_fract_x
 _atom_site_fract_y
 _atom_site_fract_z
 _atom_site_occupancy
  Sb  Sb0  1  0.801315  0.548693  0.144331  1
  Sb  Sb1  1  0.198685  0.048693  0.355669  1
  Sb  Sb2  1  0.198685  0.451307  0.855669  1
  Sb  Sb3  1  0.801315  0.951307  0.644331  1
  Sb  Sb4  1  0.100286  0.745522  0.114042  1
  Sb  Sb5  1  0.899714  0.245522  0.385958  1
  Sb  Sb6  1  0.899714  0.254478  0.885958  1
  Sb  Sb7  1  0.100286  0.754478  0.614042  1
  I  I8  1  0.699002  0.889228  0.196648  1
  I  I9  1  0.300998  0.389228  0.303352  1
  I  I10  1  0.300998  0.110772  0.803352  1
  I  I11  1  0.699002  0.610772  0.696648  1
  F  F12  1  0.657705  0.646921  0.108462  1
  F  F13  1  0.342295  0.146921  0.391538  1
  F  F14  1  0.342295  0.353079  0.891538  1
  F  F15  1  0.657705  0.853079  0.608462  1
  F  F16  1  0.862080  0.556268  0.343426  1
  F  F17  1  0.137920  0.056268  0.156574  1
  F  F18  1  0.137920  0.443732  0.656574  1
  F  F19  1  0.862080  0.943732  0.843426  1
  F  F20  1  0.770877  0.552609  0.942448  1
  F  F21  1  0.229123  0.052609  0.557552  1
  F  F22  1  0.229123  0.447391  0.057552  1
  F  F23  1  0.770877  0.947391  0.442448  1
  F  F24  1  0.735895  0.514875  0.591430  1
  F  F25  1  0.264105  0.014875  0.908570  1
  F  F26  1  0.264105  0.485125  0.408570  1
  F  F27  1  0.735895  0.985125  0.091430  1
  F  F28  1  0.517857  0.543399  0.686698  1
  F  F29  1  0.482143  0.043399  0.813302  1
  F  F30  1  0.482143  0.456601  0.313302  1
  F  F31  1  0.517857  0.956601  0.186698  1
  F  F32  1  0.583007  0.658595  0.518572  1
  F  F33  1  0.416993  0.158595  0.981428  1
  F  F34  1  0.416993  0.341405  0.481428  1
  F  F35  1  0.583007  0.841405  0.018572  1
  F  F36  1  0.591047  0.700782  0.759486  1
  F  F37  1  0.408953  0.200782  0.740514  1
  F  F38  1  0.408953  0.299218  0.240514  1
  F  F39  1  0.591047  0.799218  0.259486  1
  F  F40  1  0.251686  0.839355  0.599329  1
  F  F41  1  0.748314  0.339355  0.900671  1
  F  F42  1  0.748314  0.160645  0.400671  1
  F  F43  1  0.251686  0.660645  0.099329  1
  F  F44  1  0.189578  0.654999  0.558330  1
  F  F45  1  0.810422  0.154999  0.941670  1
  F  F46  1  0.810422  0.345001  0.441670  1
  F  F47  1  0.189578  0.845001  0.058330  1
  F  F48  1  0.918796  0.686314  0.635124  1
  F  F49  1  0.081204  0.186314  0.864876  1
  F  F50  1  0.081204  0.313686  0.364876  1
  F  F51  1  0.918796  0.813686  0.135124  1
  F  F52  1  0.943934  0.780252  0.426166  1
  F  F53  1  0.056066  0.280252  0.073834  1
  F  F54  1  0.056066  0.219748  0.573834  1
  F  F55  1  0.943934  0.719748  0.926166  1
  F  F56  1  0.222898  0.739789  0.811257  1
  F  F57  1  0.777102  0.239789  0.688743  1
  F  F58  1  0.777102  0.260211  0.188743  1
  F  F59  1  0.222898  0.760211  0.311257  1
  F  F60  1  0.989123  0.859880  0.675001  1
  F  F61  1  0.010877  0.359880  0.824999  1
  F  F62  1  0.010877  0.140120  0.324999  1
  F  F63  1  0.989123  0.640120  0.175001  1
  F  F64  1  0.973743  0.034677  0.665166  1
  F  F65  1  0.026257  0.534677  0.834834  1
  F  F66  1  0.026257  0.965323  0.334834  1
  F  F67  1  0.973743  0.465323  0.165166  1
  F  F68  1  0.638754  0.039245  0.613335  1
  F  F69  1  0.361246  0.539245  0.886665  1
  F  F70  1  0.361246  0.960755  0.386665  1
  F  F71  1  0.638754  0.460755  0.113335  1
