# generated using pymatgen
data_Al2P2H9NO11
_symmetry_space_group_name_H-M   'P 1'
_cell_length_a   9.64770658
_cell_length_b   9.66420818
_cell_length_c   11.97162809
_cell_angle_alpha   90.00000000
_cell_angle_beta   127.79933587
_cell_angle_gamma   90.00000000
_symmetry_Int_Tables_number   1
_chemical_formula_structural   Al2P2H9NO11
_chemical_formula_sum   'Al8 P8 H36 N4 O44'
_cell_volume   881.98212631
_cell_formula_units_Z   4
loop_
 _symmetry_equiv_pos_site_id
 _symmetry_equiv_pos_as_xyz
  1  'x, y, z'
loop_
 _atom_site_type_symbol
 _atom_site_label
 _atom_site_symmetry_multiplicity
 _atom_site_fract_x
 _atom_site_fract_y
 _atom_site_fract_z
 _atom_site_occupancy
  Al  Al0  1  0.292998  0.769333  0.185180  1
  Al  Al1  1  0.707002  0.269333  0.314820  1
  Al  Al2  1  0.707002  0.230667  0.814820  1
  Al  Al3  1  0.292998  0.730667  0.685180  1
  Al  Al4  1  0.987244  0.535960  0.872241  1
  Al  Al5  1  0.012756  0.035960  0.627759  1
  Al  Al6  1  0.012756  0.464040  0.127759  1
  Al  Al7  1  0.987244  0.964040  0.372241  1
  P  P8  1  0.159447  0.691921  0.364557  1
  P  P9  1  0.840553  0.191921  0.135443  1
  P  P10  1  0.840553  0.308079  0.635443  1
  P  P11  1  0.159447  0.808079  0.864557  1
  P  P12  1  0.349166  0.464495  0.151107  1
  P  P13  1  0.650834  0.964495  0.348893  1
  P  P14  1  0.650834  0.535505  0.848893  1
  P  P15  1  0.349166  0.035505  0.651107  1
  H  H16  1  0.560820  0.638917  0.142345  1
  H  H17  1  0.439180  0.138917  0.357655  1
  H  H18  1  0.439180  0.361083  0.857655  1
  H  H19  1  0.560820  0.861083  0.642345  1
  H  H20  1  0.678372  0.777927  0.168295  1
  H  H21  1  0.321628  0.277927  0.331705  1
  H  H22  1  0.321628  0.222073  0.831705  1
  H  H23  1  0.678372  0.722073  0.668295  1
  H  H24  1  0.501862  0.729647  0.001211  1
  H  H25  1  0.498138  0.229647  0.498789  1
  H  H26  1  0.498138  0.270353  0.998789  1
  H  H27  1  0.501862  0.770353  0.501211  1
  H  H28  1  0.688547  0.634799  0.086798  1
  H  H29  1  0.311453  0.134799  0.413202  1
  H  H30  1  0.311453  0.365201  0.913202  1
  H  H31  1  0.688547  0.865201  0.586798  1
  H  H32  1  0.092387  0.959837  0.189111  1
  H  H33  1  0.907613  0.459837  0.310889  1
  H  H34  1  0.907613  0.040163  0.810889  1
  H  H35  1  0.092387  0.540163  0.689111  1
  H  H36  1  0.650661  0.865894  0.886099  1
  H  H37  1  0.349339  0.365894  0.613901  1
  H  H38  1  0.349339  0.134106  0.113901  1
  H  H39  1  0.650661  0.634106  0.386099  1
  H  H40  1  0.807544  0.914395  0.041340  1
  H  H41  1  0.960849  0.799822  0.519796  1
  H  H42  1  0.192456  0.085605  0.958660  1
  H  H43  1  0.807544  0.585605  0.541340  1
  H  H44  1  0.165186  0.012800  0.103356  1
  H  H45  1  0.834814  0.512800  0.396644  1
  H  H46  1  0.834814  0.987200  0.896644  1
  H  H47  1  0.165186  0.487200  0.603356  1
  H  H48  1  0.960849  0.700178  0.019796  1
  H  H49  1  0.039151  0.200178  0.480204  1
  H  H50  1  0.039151  0.299822  0.980204  1
  H  H51  1  0.192456  0.414395  0.458660  1
  N  N52  1  0.389890  0.194759  0.399979  1
  N  N53  1  0.389890  0.305241  0.899979  1
  N  N54  1  0.610110  0.805241  0.600021  1
  N  N55  1  0.610110  0.694759  0.100021  1
  O  O56  1  0.069841  0.550621  0.292322  1
  O  O57  1  0.755326  0.586664  0.796797  1
  O  O58  1  0.755326  0.913336  0.296797  1
  O  O59  1  0.244674  0.413336  0.203203  1
  O  O60  1  0.290873  0.772017  0.835329  1
  O  O61  1  0.709127  0.272017  0.664671  1
  O  O62  1  0.709127  0.227983  0.164671  1
  O  O63  1  0.290873  0.727983  0.335329  1
  O  O64  1  0.265299  0.823015  0.024791  1
  O  O65  1  0.734701  0.323015  0.475209  1
  O  O66  1  0.734701  0.176985  0.975209  1
  O  O67  1  0.265299  0.676985  0.524791  1
  O  O68  1  0.223700  0.475585  0.986213  1
  O  O69  1  0.984473  0.197182  0.695400  1
  O  O70  1  0.984473  0.302818  0.195400  1
  O  O71  1  0.015527  0.802818  0.304600  1
  O  O72  1  0.069841  0.949379  0.792322  1
  O  O73  1  0.930159  0.449379  0.707678  1
  O  O74  1  0.930159  0.050621  0.207678  1
  O  O75  1  0.244674  0.086664  0.703203  1
  O  O76  1  0.057931  0.865172  0.554363  1
  O  O77  1  0.942069  0.365172  0.945637  1
  O  O78  1  0.942069  0.134828  0.445637  1
  O  O79  1  0.057931  0.634828  0.054363  1
  O  O80  1  0.498351  0.367327  0.194451  1
  O  O81  1  0.501649  0.867327  0.305549  1
  O  O82  1  0.501649  0.632673  0.805549  1
  O  O83  1  0.498351  0.132673  0.694451  1
  O  O84  1  0.150035  0.569156  0.647756  1
  O  O85  1  0.849965  0.069156  0.852244  1
  O  O86  1  0.849965  0.430844  0.352244  1
  O  O87  1  0.150035  0.930844  0.147756  1
  O  O88  1  0.426380  0.610931  0.214159  1
  O  O89  1  0.573620  0.110931  0.285841  1
  O  O90  1  0.573620  0.389069  0.785841  1
  O  O91  1  0.426380  0.889069  0.714159  1
  O  O92  1  0.780037  0.634359  0.457790  1
  O  O93  1  0.219963  0.134359  0.042210  1
  O  O94  1  0.219963  0.365641  0.542210  1
  O  O95  1  0.780037  0.865641  0.957790  1
  O  O96  1  0.776300  0.975585  0.513787  1
  O  O97  1  0.776300  0.524415  0.013787  1
  O  O98  1  0.223700  0.024415  0.486213  1
  O  O99  1  0.015527  0.697182  0.804600  1
