# generated using pymatgen
data_Li3TiF6
_symmetry_space_group_name_H-M   'P 1'
_cell_length_a   8.57734161
_cell_length_b   8.57734161
_cell_length_c   10.28997117
_cell_angle_alpha   84.46300362
_cell_angle_beta   95.53699638
_cell_angle_gamma   117.49120728
_symmetry_Int_Tables_number   1
_chemical_formula_structural   Li3TiF6
_chemical_formula_sum   'Li18 Ti6 F36'
_cell_volume   667.26614243
_cell_formula_units_Z   6
loop_
 _symmetry_equiv_pos_site_id
 _symmetry_equiv_pos_as_xyz
  1  'x, y, z'
loop_
 _atom_site_type_symbol
 _atom_site_label
 _atom_site_symmetry_multiplicity
 _atom_site_fract_x
 _atom_site_fract_y
 _atom_site_fract_z
 _atom_site_occupancy
  Li  Li0  1  0.705872  0.986532  0.219563  1
  Li  Li1  1  0.986532  0.705872  0.280437  1
  Li  Li2  1  0.294128  0.013468  0.780437  1
  Li  Li3  1  0.013468  0.294128  0.719563  1
  Li  Li4  1  0.058446  0.654957  0.928684  1
  Li  Li5  1  0.654957  0.058446  0.571316  1
  Li  Li6  1  0.328928  0.366774  0.973612  1
  Li  Li7  1  0.366774  0.328928  0.526388  1
  Li  Li8  1  0.671072  0.633226  0.026388  1
  Li  Li9  1  0.633226  0.671072  0.473612  1
  Li  Li10  1  0.869403  0.530199  0.548140  1
  Li  Li11  1  0.530199  0.869403  0.951860  1
  Li  Li12  1  0.130597  0.469801  0.451860  1
  Li  Li13  1  0.469801  0.130597  0.048140  1
  Li  Li14  1  0.197354  0.197354  0.250000  1
  Li  Li15  1  0.802646  0.802646  0.750000  1
  Li  Li16  1  0.941554  0.345043  0.071316  1
  Li  Li17  1  0.345043  0.941554  0.428684  1
  Ti  Ti18  1  0.664423  0.341312  0.792138  1
  Ti  Ti19  1  0.341312  0.664423  0.707862  1
  Ti  Ti20  1  0.335577  0.658688  0.207862  1
  Ti  Ti21  1  0.658688  0.335577  0.292138  1
  Ti  Ti22  1  0.000000  1.000000  0.500000  1
  Ti  Ti23  1  0.000000  0.000000  0.000000  1
  F  F24  1  0.242505  0.441996  0.810780  1
  F  F25  1  0.904275  0.752446  0.439170  1
  F  F26  1  0.247554  0.095725  0.939170  1
  F  F27  1  0.095725  0.247554  0.560830  1
  F  F28  1  0.588513  0.430606  0.435121  1
  F  F29  1  0.430606  0.588513  0.064879  1
  F  F30  1  0.411487  0.569394  0.564879  1
  F  F31  1  0.569394  0.411487  0.935121  1
  F  F32  1  0.752446  0.904275  0.060830  1
  F  F33  1  0.073817  0.929222  0.667360  1
  F  F34  1  0.070778  0.926183  0.167360  1
  F  F35  1  0.926183  0.070778  0.332640  1
  F  F36  1  0.441996  0.242505  0.689220  1
  F  F37  1  0.222904  0.729215  0.343826  1
  F  F38  1  0.270785  0.777096  0.843826  1
  F  F39  1  0.777096  0.270785  0.656174  1
  F  F40  1  0.903409  0.757034  0.929223  1
  F  F41  1  0.757034  0.903409  0.570777  1
  F  F42  1  0.096591  0.242966  0.070777  1
  F  F43  1  0.242966  0.096591  0.429223  1
  F  F44  1  0.585627  0.107458  0.393051  1
  F  F45  1  0.107458  0.585627  0.106949  1
  F  F46  1  0.414373  0.892541  0.606949  1
  F  F47  1  0.892541  0.414373  0.893051  1
  F  F48  1  0.757495  0.558004  0.189220  1
  F  F49  1  0.558004  0.757495  0.310780  1
  F  F50  1  0.102233  0.564252  0.613013  1
  F  F51  1  0.729215  0.222904  0.156174  1
  F  F52  1  0.897767  0.435748  0.386987  1
  F  F53  1  0.435748  0.897767  0.113013  1
  F  F54  1  0.245415  0.426962  0.311964  1
  F  F55  1  0.426962  0.245415  0.188036  1
  F  F56  1  0.754585  0.573038  0.688036  1
  F  F57  1  0.573038  0.754585  0.811964  1
  F  F58  1  0.929222  0.073817  0.832640  1
  F  F59  1  0.564252  0.102233  0.886987  1
