# generated using pymatgen
data_Th2S3
_symmetry_space_group_name_H-M   'P 1'
_cell_length_a   3.93877800
_cell_length_b   10.87890590
_cell_length_c   10.89326091
_cell_angle_alpha   90.00000000
_cell_angle_beta   90.00000000
_cell_angle_gamma   90.00000000
_symmetry_Int_Tables_number   1
_chemical_formula_structural   Th2S3
_chemical_formula_sum   'Th8 S12'
_cell_volume   466.77182065
_cell_formula_units_Z   4
loop_
 _symmetry_equiv_pos_site_id
 _symmetry_equiv_pos_as_xyz
  1  'x, y, z'
loop_
 _atom_site_type_symbol
 _atom_site_label
 _atom_site_symmetry_multiplicity
 _atom_site_fract_x
 _atom_site_fract_y
 _atom_site_fract_z
 _atom_site_occupancy
  Th  Th0  1  0.250000  0.012262  0.304290  1
  Th  Th1  1  0.750000  0.987738  0.695710  1
  Th  Th2  1  0.750000  0.512262  0.195710  1
  Th  Th3  1  0.250000  0.487737  0.804290  1
  Th  Th4  1  0.250000  0.683768  0.484661  1
  Th  Th5  1  0.750000  0.316232  0.515339  1
  Th  Th6  1  0.750000  0.183768  0.015339  1
  Th  Th7  1  0.250000  0.816232  0.984661  1
  S  S8  1  0.250000  0.056250  0.875009  1
  S  S9  1  0.750000  0.943750  0.124991  1
  S  S10  1  0.750000  0.556250  0.624991  1
  S  S11  1  0.250000  0.443750  0.375009  1
  S  S12  1  0.250000  0.123997  0.552219  1
  S  S13  1  0.750000  0.876003  0.447781  1
  S  S14  1  0.750000  0.623997  0.947781  1
  S  S15  1  0.250000  0.376003  0.052219  1
  S  S16  1  0.250000  0.703179  0.222210  1
  S  S17  1  0.750000  0.296821  0.777790  1
  S  S18  1  0.750000  0.203179  0.277790  1
  S  S19  1  0.250000  0.796821  0.722210  1
