# generated using pymatgen
data_LiNb2(PO4)3
_symmetry_space_group_name_H-M   'P 1'
_cell_length_a   8.86614297
_cell_length_b   8.97965686
_cell_length_c   15.12686253
_cell_angle_alpha   90.00000000
_cell_angle_beta   125.00422403
_cell_angle_gamma   90.00000000
_symmetry_Int_Tables_number   1
_chemical_formula_structural   LiNb2(PO4)3
_chemical_formula_sum   'Li4 Nb8 P12 O48'
_cell_volume   986.47351583
_cell_formula_units_Z   4
loop_
 _symmetry_equiv_pos_site_id
 _symmetry_equiv_pos_as_xyz
  1  'x, y, z'
loop_
 _atom_site_type_symbol
 _atom_site_label
 _atom_site_symmetry_multiplicity
 _atom_site_fract_x
 _atom_site_fract_y
 _atom_site_fract_z
 _atom_site_occupancy
  Li  Li0  1  0.969229  0.775182  0.676584  1
  Li  Li1  1  0.030771  0.224818  0.323416  1
  Li  Li2  1  0.030771  0.275182  0.823416  1
  Li  Li3  1  0.969229  0.724818  0.176584  1
  Nb  Nb4  1  0.370091  0.970579  0.619726  1
  Nb  Nb5  1  0.857438  0.456911  0.612611  1
  Nb  Nb6  1  0.142562  0.956911  0.887389  1
  Nb  Nb7  1  0.629909  0.029421  0.380274  1
  Nb  Nb8  1  0.370091  0.529421  0.119726  1
  Nb  Nb9  1  0.142562  0.543089  0.387389  1
  Nb  Nb10  1  0.857438  0.043089  0.112611  1
  Nb  Nb11  1  0.629909  0.470579  0.880274  1
  P  P12  1  0.032235  0.398871  0.144575  1
  P  P13  1  0.245989  0.880605  0.146429  1
  P  P14  1  0.543693  0.749606  0.508741  1
  P  P15  1  0.456307  0.249606  0.991259  1
  P  P16  1  0.967765  0.898871  0.355425  1
  P  P17  1  0.967765  0.601129  0.855425  1
  P  P18  1  0.245989  0.619395  0.646429  1
  P  P19  1  0.456307  0.250394  0.491259  1
  P  P20  1  0.032235  0.101129  0.644575  1
  P  P21  1  0.543693  0.750394  0.008741  1
  P  P22  1  0.754011  0.380605  0.353571  1
  P  P23  1  0.754011  0.119395  0.853571  1
  O  O24  1  0.940926  0.480019  0.773166  1
  O  O25  1  0.485148  0.331440  0.912401  1
  O  O26  1  0.411619  0.977942  0.229360  1
  O  O27  1  0.445202  0.142359  0.565955  1
  O  O28  1  0.202262  0.104286  0.641787  1
  O  O29  1  0.514852  0.831440  0.587599  1
  O  O30  1  0.730958  0.832408  0.077797  1
  O  O31  1  0.996458  0.745307  0.319753  1
  O  O32  1  0.797738  0.895714  0.358213  1
  O  O33  1  0.386037  0.861572  0.938438  1
  O  O34  1  0.142527  0.557231  0.965560  1
  O  O35  1  0.059074  0.980019  0.726834  1
  O  O36  1  0.411619  0.522058  0.729360  1
  O  O37  1  0.003542  0.254693  0.680247  1
  O  O38  1  0.185027  0.926144  0.032441  1
  O  O39  1  0.554798  0.642359  0.934045  1
  O  O40  1  0.386037  0.638428  0.438438  1
  O  O41  1  0.293706  0.787289  0.666612  1
  O  O42  1  0.485148  0.168560  0.412401  1
  O  O43  1  0.940926  0.019981  0.273166  1
  O  O44  1  0.857473  0.442769  0.034440  1
  O  O45  1  0.588381  0.477942  0.270640  1
  O  O46  1  0.142527  0.942769  0.465560  1
  O  O47  1  0.084494  0.904902  0.157643  1
  O  O48  1  0.814973  0.073856  0.967559  1
  O  O49  1  0.445202  0.357641  0.065955  1
  O  O50  1  0.613963  0.138428  0.061562  1
  O  O51  1  0.706294  0.287289  0.833388  1
  O  O52  1  0.269042  0.167592  0.922203  1
  O  O53  1  0.059074  0.519981  0.226834  1
  O  O54  1  0.730958  0.667592  0.577797  1
  O  O55  1  0.003542  0.245307  0.180247  1
  O  O56  1  0.293706  0.712711  0.166612  1
  O  O57  1  0.797738  0.604286  0.858213  1
  O  O58  1  0.202262  0.395714  0.141787  1
  O  O59  1  0.915506  0.095098  0.842357  1
  O  O60  1  0.857473  0.057231  0.534440  1
  O  O61  1  0.269042  0.332408  0.422203  1
  O  O62  1  0.185027  0.573856  0.532441  1
  O  O63  1  0.084494  0.595098  0.657643  1
  O  O64  1  0.613963  0.361572  0.561562  1
  O  O65  1  0.915506  0.404902  0.342357  1
  O  O66  1  0.588381  0.022058  0.770640  1
  O  O67  1  0.706294  0.212711  0.333388  1
  O  O68  1  0.996458  0.754693  0.819753  1
  O  O69  1  0.814973  0.426144  0.467559  1
  O  O70  1  0.514852  0.668560  0.087599  1
  O  O71  1  0.554798  0.857641  0.434045  1
