# generated using pymatgen
data_Li3PWCO7
_symmetry_space_group_name_H-M   'P 1'
_cell_length_a   5.11244260
_cell_length_b   6.67115855
_cell_length_c   9.27897249
_cell_angle_alpha   90.00000000
_cell_angle_beta   95.95472743
_cell_angle_gamma   90.00000000
_symmetry_Int_Tables_number   1
_chemical_formula_structural   Li3PWCO7
_chemical_formula_sum   'Li6 P2 W2 C2 O14'
_cell_volume   314.76024469
_cell_formula_units_Z   2
loop_
 _symmetry_equiv_pos_site_id
 _symmetry_equiv_pos_as_xyz
  1  'x, y, z'
loop_
 _atom_site_type_symbol
 _atom_site_label
 _atom_site_symmetry_multiplicity
 _atom_site_fract_x
 _atom_site_fract_y
 _atom_site_fract_z
 _atom_site_occupancy
  Li  Li0  1  0.181758  0.962727  0.256770  1
  Li  Li1  1  0.818242  0.037273  0.743230  1
  Li  Li2  1  0.324799  0.250000  0.886165  1
  Li  Li3  1  0.675201  0.750000  0.113835  1
  Li  Li4  1  0.181758  0.537273  0.256770  1
  Li  Li5  1  0.818242  0.462727  0.743230  1
  P  P6  1  0.269508  0.250000  0.609396  1
  P  P7  1  0.730492  0.750000  0.390604  1
  W  W8  1  0.346060  0.750000  0.675604  1
  W  W9  1  0.653940  0.250000  0.324396  1
  C  C10  1  0.159338  0.750000  0.959744  1
  C  C11  1  0.840662  0.250000  0.040256  1
  O  O12  1  0.683775  0.750000  0.551621  1
  O  O13  1  0.409568  0.750000  0.965847  1
  O  O14  1  0.974550  0.250000  0.172029  1
  O  O15  1  0.025450  0.750000  0.827971  1
  O  O16  1  0.593581  0.570062  0.302333  1
  O  O17  1  0.590432  0.250000  0.034153  1
  O  O18  1  0.593581  0.929938  0.302333  1
  O  O19  1  0.406419  0.429938  0.697667  1
  O  O20  1  0.406419  0.070062  0.697667  1
  O  O21  1  0.974289  0.250000  0.626886  1
  O  O22  1  0.038220  0.750000  0.075426  1
  O  O23  1  0.961780  0.250000  0.924574  1
  O  O24  1  0.025711  0.750000  0.373114  1
  O  O25  1  0.316225  0.250000  0.448379  1
