# generated using pymatgen
data_CoMoP
_symmetry_space_group_name_H-M   'P 1'
_cell_length_a   3.74476754
_cell_length_b   5.80852231
_cell_length_c   6.73931380
_cell_angle_alpha   90.00000000
_cell_angle_beta   90.00000000
_cell_angle_gamma   90.00000000
_symmetry_Int_Tables_number   1
_chemical_formula_structural   CoMoP
_chemical_formula_sum   'Co4 Mo4 P4'
_cell_volume   146.59062758
_cell_formula_units_Z   4
loop_
 _symmetry_equiv_pos_site_id
 _symmetry_equiv_pos_as_xyz
  1  'x, y, z'
loop_
 _atom_site_type_symbol
 _atom_site_label
 _atom_site_symmetry_multiplicity
 _atom_site_fract_x
 _atom_site_fract_y
 _atom_site_fract_z
 _atom_site_occupancy
  Co  Co0  1  0.750000  0.640297  0.432814  1
  Co  Co1  1  0.250000  0.859703  0.932814  1
  Co  Co2  1  0.750000  0.140297  0.067186  1
  Co  Co3  1  0.250000  0.359703  0.567186  1
  Mo  Mo4  1  0.250000  0.467875  0.170107  1
  Mo  Mo5  1  0.250000  0.967875  0.329893  1
  Mo  Mo6  1  0.750000  0.032125  0.670107  1
  Mo  Mo7  1  0.750000  0.532125  0.829893  1
  P  P8  1  0.250000  0.733829  0.619387  1
  P  P9  1  0.250000  0.233829  0.880613  1
  P  P10  1  0.750000  0.266171  0.380613  1
  P  P11  1  0.750000  0.766171  0.119387  1
