# generated using pymatgen
data_PdPbO2
_symmetry_space_group_name_H-M   'P 1'
_cell_length_a   6.03048243
_cell_length_b   6.03048243
_cell_length_c   6.03048243
_cell_angle_alpha   133.28962144
_cell_angle_beta   125.43210668
_cell_angle_gamma   74.60782983
_symmetry_Int_Tables_number   1
_chemical_formula_structural   PdPbO2
_chemical_formula_sum   'Pd2 Pb2 O4'
_cell_volume   126.80340300
_cell_formula_units_Z   2
loop_
 _symmetry_equiv_pos_site_id
 _symmetry_equiv_pos_as_xyz
  1  'x, y, z'
loop_
 _atom_site_type_symbol
 _atom_site_label
 _atom_site_symmetry_multiplicity
 _atom_site_fract_x
 _atom_site_fract_y
 _atom_site_fract_z
 _atom_site_occupancy
  Pd  Pd0  1  0.000000  0.500000  0.500000  1
  Pd  Pd1  1  0.500000  0.000000  0.500000  1
  Pb  Pb2  1  0.750000  0.771836  0.021836  1
  Pb  Pb3  1  0.250000  0.228164  0.978164  1
  O  O4  1  0.650209  0.650209  0.500000  1
  O  O5  1  0.849791  0.349791  0.000000  1
  O  O6  1  0.150209  0.650209  0.000000  1
  O  O7  1  0.349791  0.349791  0.500000  1
