# generated using pymatgen
data_Hf5FeTe3
_symmetry_space_group_name_H-M   'P 1'
_cell_length_a   3.67073882
_cell_length_b   13.37794766
_cell_length_c   18.07708301
_cell_angle_alpha   90.00000000
_cell_angle_beta   90.00000000
_cell_angle_gamma   90.00000000
_symmetry_Int_Tables_number   1
_chemical_formula_structural   Hf5FeTe3
_chemical_formula_sum   'Hf20 Fe4 Te12'
_cell_volume   887.71044419
_cell_formula_units_Z   4
loop_
 _symmetry_equiv_pos_site_id
 _symmetry_equiv_pos_as_xyz
  1  'x, y, z'
loop_
 _atom_site_type_symbol
 _atom_site_label
 _atom_site_symmetry_multiplicity
 _atom_site_fract_x
 _atom_site_fract_y
 _atom_site_fract_z
 _atom_site_occupancy
  Hf  Hf0  1  0.250000  0.640490  0.243212  1
  Hf  Hf1  1  0.750000  0.359510  0.756788  1
  Hf  Hf2  1  0.750000  0.140490  0.256788  1
  Hf  Hf3  1  0.250000  0.859510  0.743212  1
  Hf  Hf4  1  0.250000  0.570132  0.957216  1
  Hf  Hf5  1  0.750000  0.429868  0.042784  1
  Hf  Hf6  1  0.750000  0.070132  0.542784  1
  Hf  Hf7  1  0.250000  0.929868  0.457216  1
  Hf  Hf8  1  0.750000  0.849926  0.589110  1
  Hf  Hf9  1  0.250000  0.150074  0.410890  1
  Hf  Hf10  1  0.250000  0.349926  0.910890  1
  Hf  Hf11  1  0.750000  0.650074  0.089110  1
  Hf  Hf12  1  0.250000  0.225483  0.622671  1
  Hf  Hf13  1  0.750000  0.774517  0.377329  1
  Hf  Hf14  1  0.750000  0.725483  0.877329  1
  Hf  Hf15  1  0.250000  0.274517  0.122671  1
  Hf  Hf16  1  0.250000  0.559731  0.789730  1
  Hf  Hf17  1  0.750000  0.440269  0.210270  1
  Hf  Hf18  1  0.750000  0.059731  0.710270  1
  Hf  Hf19  1  0.250000  0.940269  0.289730  1
  Fe  Fe20  1  0.250000  0.522437  0.129889  1
  Fe  Fe21  1  0.750000  0.477563  0.870111  1
  Fe  Fe22  1  0.750000  0.022437  0.370111  1
  Fe  Fe23  1  0.250000  0.977563  0.629889  1
  Te  Te24  1  0.250000  0.443253  0.648240  1
  Te  Te25  1  0.750000  0.556747  0.351760  1
  Te  Te26  1  0.750000  0.943253  0.851760  1
  Te  Te27  1  0.250000  0.056747  0.148240  1
  Te  Te28  1  0.750000  0.693767  0.706379  1
  Te  Te29  1  0.250000  0.306233  0.293621  1
  Te  Te30  1  0.250000  0.193767  0.793621  1
  Te  Te31  1  0.750000  0.806233  0.206379  1
  Te  Te32  1  0.250000  0.786200  0.000624  1
  Te  Te33  1  0.750000  0.213800  0.999376  1
  Te  Te34  1  0.750000  0.286200  0.499376  1
  Te  Te35  1  0.250000  0.713800  0.500624  1
