# generated using pymatgen
data_Cu4(PO4)3
_symmetry_space_group_name_H-M   'P 1'
_cell_length_a   8.56436355
_cell_length_b   8.56436355
_cell_length_c   7.33125378
_cell_angle_alpha   68.52950873
_cell_angle_beta   111.47049127
_cell_angle_gamma   90.82390985
_symmetry_Int_Tables_number   1
_chemical_formula_structural   Cu4(PO4)3
_chemical_formula_sum   'Cu8 P6 O24'
_cell_volume   461.23195592
_cell_formula_units_Z   2
loop_
 _symmetry_equiv_pos_site_id
 _symmetry_equiv_pos_as_xyz
  1  'x, y, z'
loop_
 _atom_site_type_symbol
 _atom_site_label
 _atom_site_symmetry_multiplicity
 _atom_site_fract_x
 _atom_site_fract_y
 _atom_site_fract_z
 _atom_site_occupancy
  Cu  Cu0  1  0.256365  0.256365  0.750000  1
  Cu  Cu1  1  0.617053  0.066118  0.341931  1
  Cu  Cu2  1  0.494247  0.494247  0.250000  1
  Cu  Cu3  1  0.933882  0.382947  0.841931  1
  Cu  Cu4  1  0.066118  0.617053  0.158069  1
  Cu  Cu5  1  0.505753  0.505753  0.750000  1
  Cu  Cu6  1  0.743635  0.743635  0.250000  1
  Cu  Cu7  1  0.382947  0.933882  0.658069  1
  P  P8  1  0.725659  0.725659  0.750000  1
  P  P9  1  0.345813  0.880480  0.115185  1
  P  P10  1  0.119520  0.654187  0.615185  1
  P  P11  1  0.880480  0.345813  0.384815  1
  P  P12  1  0.654187  0.119520  0.884815  1
  P  P13  1  0.274341  0.274341  0.250000  1
  O  O14  1  0.265735  0.509951  0.667733  1
  O  O15  1  0.806546  0.187138  0.369150  1
  O  O16  1  0.255567  0.161765  0.453804  1
  O  O17  1  0.466538  0.270406  0.261584  1
  O  O18  1  0.812862  0.193454  0.869150  1
  O  O19  1  0.960163  0.414589  0.216702  1
  O  O20  1  0.585411  0.039837  0.716702  1
  O  O21  1  0.161765  0.255567  0.046196  1
  O  O22  1  0.414589  0.960163  0.283298  1
  O  O23  1  0.838235  0.744433  0.953804  1
  O  O24  1  0.686768  0.990622  0.113115  1
  O  O25  1  0.193454  0.812862  0.630850  1
  O  O26  1  0.744433  0.838235  0.546196  1
  O  O27  1  0.533462  0.729594  0.738416  1
  O  O28  1  0.009378  0.313232  0.613115  1
  O  O29  1  0.039837  0.585411  0.783298  1
  O  O30  1  0.990622  0.686768  0.386885  1
  O  O31  1  0.490049  0.734265  0.167733  1
  O  O32  1  0.729594  0.533462  0.761584  1
  O  O33  1  0.187138  0.806546  0.130850  1
  O  O34  1  0.734265  0.490049  0.332267  1
  O  O35  1  0.270406  0.466538  0.238416  1
  O  O36  1  0.509951  0.265735  0.832267  1
  O  O37  1  0.313232  0.009378  0.886885  1
