# generated using pymatgen
data_Sb2I2F11
_symmetry_space_group_name_H-M   'P 1'
_cell_length_a   8.00978421
_cell_length_b   8.00978421
_cell_length_c   5.58344035
_cell_angle_alpha   79.39793195
_cell_angle_beta   100.60206805
_cell_angle_gamma   115.18293238
_symmetry_Int_Tables_number   1
_chemical_formula_structural   Sb2I2F11
_chemical_formula_sum   'Sb2 I2 F11'
_cell_volume   316.37629772
_cell_formula_units_Z   1
loop_
 _symmetry_equiv_pos_site_id
 _symmetry_equiv_pos_as_xyz
  1  'x, y, z'
loop_
 _atom_site_type_symbol
 _atom_site_label
 _atom_site_symmetry_multiplicity
 _atom_site_fract_x
 _atom_site_fract_y
 _atom_site_fract_z
 _atom_site_occupancy
  Sb  Sb0  1  0.348161  0.642695  0.546598  1
  Sb  Sb1  1  0.642695  0.348161  0.453402  1
  I  I2  1  0.064313  0.925739  0.868610  1
  I  I3  1  0.925739  0.064313  0.131390  1
  F  F4  1  0.201535  0.428101  0.744150  1
  F  F5  1  0.428101  0.201535  0.255850  1
  F  F6  1  0.529121  0.721564  0.820168  1
  F  F7  1  0.721564  0.529121  0.179832  1
  F  F8  1  0.481029  0.481029  0.500000  1
  F  F9  1  0.791037  0.222623  0.411155  1
  F  F10  1  0.222623  0.791037  0.588845  1
  F  F11  1  0.550245  0.183113  0.736002  1
  F  F12  1  0.183113  0.550245  0.263998  1
  F  F13  1  0.834000  0.512724  0.660691  1
  F  F14  1  0.512724  0.834000  0.339309  1
