# generated using pymatgen
data_LiLa2HO3
_symmetry_space_group_name_H-M   'P 1'
_cell_length_a   6.97237619
_cell_length_b   6.97237619
_cell_length_c   6.97237619
_cell_angle_alpha   150.23365123
_cell_angle_beta   148.38706929
_cell_angle_gamma   43.97310103
_symmetry_Int_Tables_number   1
_chemical_formula_structural   LiLa2HO3
_chemical_formula_sum   'Li1 La2 H1 O3'
_cell_volume   87.95825676
_cell_formula_units_Z   1
loop_
 _symmetry_equiv_pos_site_id
 _symmetry_equiv_pos_as_xyz
  1  'x, y, z'
loop_
 _atom_site_type_symbol
 _atom_site_label
 _atom_site_symmetry_multiplicity
 _atom_site_fract_x
 _atom_site_fract_y
 _atom_site_fract_z
 _atom_site_occupancy
  Li  Li0  1  0.000000  0.000000  0.000000  1
  La  La1  1  0.363446  0.363446  0.000000  1
  La  La2  1  0.636554  0.636554  0.000000  1
  H  H3  1  0.000000  0.500000  0.500000  1
  O  O4  1  0.500000  0.000000  0.500000  1
  O  O5  1  0.822774  0.822774  0.000000  1
  O  O6  1  0.177226  0.177226  0.000000  1
