# generated using pymatgen
data_InSbS3
_symmetry_space_group_name_H-M   'P 1'
_cell_length_a   3.89272731
_cell_length_b   9.54115737
_cell_length_c   13.50801330
_cell_angle_alpha   90.00000000
_cell_angle_beta   90.00000000
_cell_angle_gamma   90.00000000
_symmetry_Int_Tables_number   1
_chemical_formula_structural   InSbS3
_chemical_formula_sum   'In4 Sb4 S12'
_cell_volume   501.70279512
_cell_formula_units_Z   4
loop_
 _symmetry_equiv_pos_site_id
 _symmetry_equiv_pos_as_xyz
  1  'x, y, z'
loop_
 _atom_site_type_symbol
 _atom_site_label
 _atom_site_symmetry_multiplicity
 _atom_site_fract_x
 _atom_site_fract_y
 _atom_site_fract_z
 _atom_site_occupancy
  In  In0  1  0.750000  0.351603  0.455756  1
  In  In1  1  0.250000  0.648397  0.544244  1
  In  In2  1  0.750000  0.851603  0.044244  1
  In  In3  1  0.250000  0.148397  0.955756  1
  Sb  Sb4  1  0.750000  0.972666  0.641734  1
  Sb  Sb5  1  0.250000  0.027334  0.358266  1
  Sb  Sb6  1  0.750000  0.472666  0.858266  1
  Sb  Sb7  1  0.250000  0.527334  0.141734  1
  S  S8  1  0.250000  0.312974  0.799187  1
  S  S9  1  0.750000  0.687026  0.200813  1
  S  S10  1  0.250000  0.812974  0.700813  1
  S  S11  1  0.750000  0.187026  0.299187  1
  S  S12  1  0.250000  0.659249  0.979797  1
  S  S13  1  0.750000  0.340751  0.020203  1
  S  S14  1  0.250000  0.159249  0.520203  1
  S  S15  1  0.750000  0.840751  0.479797  1
  S  S16  1  0.750000  0.499632  0.616086  1
  S  S17  1  0.250000  0.500368  0.383914  1
  S  S18  1  0.750000  0.999632  0.883914  1
  S  S19  1  0.250000  0.000368  0.116086  1
