# generated using pymatgen
data_MoPCl9
_symmetry_space_group_name_H-M   'P 1'
_cell_length_a   7.23355992
_cell_length_b   9.29794600
_cell_length_c   9.83693659
_cell_angle_alpha   100.96297134
_cell_angle_beta   96.36451460
_cell_angle_gamma   95.69650097
_symmetry_Int_Tables_number   1
_chemical_formula_structural   MoPCl9
_chemical_formula_sum   'Mo2 P2 Cl18'
_cell_volume   640.59922443
_cell_formula_units_Z   2
loop_
 _symmetry_equiv_pos_site_id
 _symmetry_equiv_pos_as_xyz
  1  'x, y, z'
loop_
 _atom_site_type_symbol
 _atom_site_label
 _atom_site_symmetry_multiplicity
 _atom_site_fract_x
 _atom_site_fract_y
 _atom_site_fract_z
 _atom_site_occupancy
  Mo  Mo0  1  0.888834  0.369509  0.329741  1
  Mo  Mo1  1  0.111166  0.630491  0.670260  1
  P  P2  1  0.546804  0.189071  0.778991  1
  P  P3  1  0.453196  0.810929  0.221009  1
  Cl  Cl4  1  0.653261  0.893403  0.128767  1
  Cl  Cl5  1  0.346739  0.106597  0.871233  1
  Cl  Cl6  1  0.205456  0.484223  0.452064  1
  Cl  Cl7  1  0.794544  0.515777  0.547936  1
  Cl  Cl8  1  0.081438  0.830795  0.557631  1
  Cl  Cl9  1  0.918562  0.169205  0.442369  1
  Cl  Cl10  1  0.992450  0.763335  0.865181  1
  Cl  Cl11  1  0.007550  0.236665  0.134819  1
  Cl  Cl12  1  0.122813  0.424444  0.778898  1
  Cl  Cl13  1  0.877187  0.575556  0.221102  1
  Cl  Cl14  1  0.426008  0.714426  0.756825  1
  Cl  Cl15  1  0.573992  0.285574  0.243175  1
  Cl  Cl16  1  0.444448  0.199828  0.589008  1
  Cl  Cl17  1  0.555552  0.800172  0.410992  1
  Cl  Cl18  1  0.745509  0.059371  0.771261  1
  Cl  Cl19  1  0.254491  0.940629  0.228739  1
  Cl  Cl20  1  0.651378  0.385529  0.883554  1
  Cl  Cl21  1  0.348622  0.614471  0.116446  1
