# generated using pymatgen
data_NaCeP2O7
_symmetry_space_group_name_H-M   'P 1'
_cell_length_a   5.33270606
_cell_length_b   8.71844615
_cell_length_c   12.76231154
_cell_angle_alpha   90.00000000
_cell_angle_beta   90.00000000
_cell_angle_gamma   90.00000000
_symmetry_Int_Tables_number   1
_chemical_formula_structural   NaCeP2O7
_chemical_formula_sum   'Na4 Ce4 P8 O28'
_cell_volume   593.35700971
_cell_formula_units_Z   4
loop_
 _symmetry_equiv_pos_site_id
 _symmetry_equiv_pos_as_xyz
  1  'x, y, z'
loop_
 _atom_site_type_symbol
 _atom_site_label
 _atom_site_symmetry_multiplicity
 _atom_site_fract_x
 _atom_site_fract_y
 _atom_site_fract_z
 _atom_site_occupancy
  Na  Na0  1  0.750000  0.118762  0.578656  1
  Na  Na1  1  0.250000  0.881238  0.421344  1
  Na  Na2  1  0.750000  0.618762  0.921344  1
  Na  Na3  1  0.250000  0.381238  0.078656  1
  Ce  Ce4  1  0.250000  0.313000  0.763784  1
  Ce  Ce5  1  0.750000  0.687000  0.236216  1
  Ce  Ce6  1  0.250000  0.813000  0.736216  1
  Ce  Ce7  1  0.750000  0.187000  0.263784  1
  P  P8  1  0.750000  0.513224  0.682107  1
  P  P9  1  0.250000  0.486776  0.317893  1
  P  P10  1  0.750000  0.013224  0.817893  1
  P  P11  1  0.250000  0.986776  0.182107  1
  P  P12  1  0.250000  0.237003  0.466431  1
  P  P13  1  0.750000  0.762997  0.533569  1
  P  P14  1  0.250000  0.737003  0.033569  1
  P  P15  1  0.750000  0.262997  0.966431  1
  O  O16  1  0.250000  0.235527  0.585613  1
  O  O17  1  0.750000  0.764473  0.414387  1
  O  O18  1  0.250000  0.735527  0.914387  1
  O  O19  1  0.750000  0.264473  0.085613  1
  O  O20  1  0.013138  0.663102  0.079428  1
  O  O21  1  0.513138  0.336898  0.920572  1
  O  O22  1  0.486862  0.163102  0.420572  1
  O  O23  1  0.986862  0.836898  0.579428  1
  O  O24  1  0.986862  0.336898  0.920572  1
  O  O25  1  0.486862  0.663102  0.079428  1
  O  O26  1  0.513138  0.836898  0.579428  1
  O  O27  1  0.013138  0.163102  0.420572  1
  O  O28  1  0.750000  0.339472  0.676424  1
  O  O29  1  0.250000  0.660528  0.323576  1
  O  O30  1  0.750000  0.839472  0.823576  1
  O  O31  1  0.250000  0.160528  0.176424  1
  O  O32  1  0.750000  0.081387  0.935754  1
  O  O33  1  0.250000  0.918613  0.064246  1
  O  O34  1  0.750000  0.581387  0.564246  1
  O  O35  1  0.250000  0.418613  0.435754  1
  O  O36  1  0.006952  0.431089  0.264426  1
  O  O37  1  0.506952  0.568911  0.735574  1
  O  O38  1  0.493048  0.931089  0.235574  1
  O  O39  1  0.993048  0.068911  0.764426  1
  O  O40  1  0.993048  0.568911  0.735574  1
  O  O41  1  0.493048  0.431089  0.264426  1
  O  O42  1  0.506952  0.068911  0.764426  1
  O  O43  1  0.006952  0.931089  0.235574  1
