# generated using pymatgen
data_MnTlI3
_symmetry_space_group_name_H-M   'P 1'
_cell_length_a   4.32292845
_cell_length_b   10.24003557
_cell_length_c   16.43102092
_cell_angle_alpha   90.00000000
_cell_angle_beta   90.00000000
_cell_angle_gamma   90.00000000
_symmetry_Int_Tables_number   1
_chemical_formula_structural   MnTlI3
_chemical_formula_sum   'Mn4 Tl4 I12'
_cell_volume   727.35103519
_cell_formula_units_Z   4
loop_
 _symmetry_equiv_pos_site_id
 _symmetry_equiv_pos_as_xyz
  1  'x, y, z'
loop_
 _atom_site_type_symbol
 _atom_site_label
 _atom_site_symmetry_multiplicity
 _atom_site_fract_x
 _atom_site_fract_y
 _atom_site_fract_z
 _atom_site_occupancy
  Mn  Mn0  1  0.250000  0.662085  0.444206  1
  Mn  Mn1  1  0.750000  0.337915  0.555794  1
  Mn  Mn2  1  0.250000  0.162085  0.055794  1
  Mn  Mn3  1  0.750000  0.837915  0.944206  1
  Tl  Tl4  1  0.250000  0.943669  0.675268  1
  Tl  Tl5  1  0.750000  0.056331  0.324732  1
  Tl  Tl6  1  0.250000  0.443669  0.824732  1
  Tl  Tl7  1  0.750000  0.556331  0.175268  1
  I  I8  1  0.750000  0.979974  0.102179  1
  I  I9  1  0.250000  0.020026  0.897821  1
  I  I10  1  0.750000  0.479974  0.397821  1
  I  I11  1  0.250000  0.520026  0.602179  1
  I  I12  1  0.750000  0.719583  0.790018  1
  I  I13  1  0.250000  0.280417  0.209982  1
  I  I14  1  0.750000  0.219583  0.709982  1
  I  I15  1  0.250000  0.780417  0.290018  1
  I  I16  1  0.750000  0.826992  0.505607  1
  I  I17  1  0.250000  0.173008  0.494393  1
  I  I18  1  0.750000  0.326992  0.994393  1
  I  I19  1  0.250000  0.673008  0.005607  1
