# generated using pymatgen
data_TmMnGe
_symmetry_space_group_name_H-M   'P 1'
_cell_length_a   4.05096199
_cell_length_b   6.95890221
_cell_length_c   7.88104515
_cell_angle_alpha   90.00000000
_cell_angle_beta   90.00000000
_cell_angle_gamma   90.00000000
_symmetry_Int_Tables_number   1
_chemical_formula_structural   TmMnGe
_chemical_formula_sum   'Tm4 Mn4 Ge4'
_cell_volume   222.16862000
_cell_formula_units_Z   4
loop_
 _symmetry_equiv_pos_site_id
 _symmetry_equiv_pos_as_xyz
  1  'x, y, z'
loop_
 _atom_site_type_symbol
 _atom_site_label
 _atom_site_symmetry_multiplicity
 _atom_site_fract_x
 _atom_site_fract_y
 _atom_site_fract_z
 _atom_site_occupancy
  Tm  Tm0  1  0.250000  0.526084  0.180846  1
  Tm  Tm1  1  0.750000  0.473916  0.819154  1
  Tm  Tm2  1  0.250000  0.026084  0.319154  1
  Tm  Tm3  1  0.750000  0.973916  0.680846  1
  Mn  Mn4  1  0.750000  0.367422  0.445658  1
  Mn  Mn5  1  0.250000  0.132578  0.945658  1
  Mn  Mn6  1  0.750000  0.867422  0.054342  1
  Mn  Mn7  1  0.250000  0.632578  0.554342  1
  Ge  Ge8  1  0.250000  0.273004  0.621270  1
  Ge  Ge9  1  0.750000  0.226996  0.121270  1
  Ge  Ge10  1  0.250000  0.773004  0.878730  1
  Ge  Ge11  1  0.750000  0.726996  0.378730  1
