# generated using pymatgen
data_Na4SnTe4
_symmetry_space_group_name_H-M   'P 1'
_cell_length_a   8.74652826
_cell_length_b   8.89146479
_cell_length_c   15.41019726
_cell_angle_alpha   90.00000000
_cell_angle_beta   90.00000000
_cell_angle_gamma   90.00000000
_symmetry_Int_Tables_number   1
_chemical_formula_structural   Na4SnTe4
_chemical_formula_sum   'Na16 Sn4 Te16'
_cell_volume   1198.44253538
_cell_formula_units_Z   4
loop_
 _symmetry_equiv_pos_site_id
 _symmetry_equiv_pos_as_xyz
  1  'x, y, z'
loop_
 _atom_site_type_symbol
 _atom_site_label
 _atom_site_symmetry_multiplicity
 _atom_site_fract_x
 _atom_site_fract_y
 _atom_site_fract_z
 _atom_site_occupancy
  Na  Na0  1  0.985590  0.960121  0.583871  1
  Na  Na1  1  0.485590  0.539879  0.416129  1
  Na  Na2  1  0.014410  0.460121  0.916129  1
  Na  Na3  1  0.514410  0.039879  0.083871  1
  Na  Na4  1  0.624729  0.768606  0.633457  1
  Na  Na5  1  0.124729  0.731394  0.366543  1
  Na  Na6  1  0.375271  0.268606  0.866543  1
  Na  Na7  1  0.875271  0.231394  0.133457  1
  Na  Na8  1  0.667242  0.630747  0.133575  1
  Na  Na9  1  0.167242  0.869253  0.866425  1
  Na  Na10  1  0.332758  0.130747  0.366425  1
  Na  Na11  1  0.832758  0.369253  0.633575  1
  Na  Na12  1  0.880757  0.356886  0.371440  1
  Na  Na13  1  0.380757  0.143114  0.628560  1
  Na  Na14  1  0.119243  0.856886  0.128560  1
  Na  Na15  1  0.619243  0.643114  0.871440  1
  Sn  Sn16  1  0.778964  0.069207  0.873372  1
  Sn  Sn17  1  0.278964  0.430793  0.126628  1
  Sn  Sn18  1  0.221036  0.569207  0.626628  1
  Sn  Sn19  1  0.721036  0.930793  0.373372  1
  Te  Te20  1  0.812945  0.680226  0.469226  1
  Te  Te21  1  0.312945  0.819774  0.530774  1
  Te  Te22  1  0.187055  0.180226  0.030774  1
  Te  Te23  1  0.687055  0.319774  0.969226  1
  Te  Te24  1  0.484913  0.848080  0.261652  1
  Te  Te25  1  0.984913  0.651920  0.738348  1
  Te  Te26  1  0.515087  0.348080  0.238348  1
  Te  Te27  1  0.015087  0.151920  0.761652  1
  Te  Te28  1  0.645141  0.162425  0.488468  1
  Te  Te29  1  0.145141  0.337575  0.511532  1
  Te  Te30  1  0.354859  0.662425  0.011532  1
  Te  Te31  1  0.854859  0.837575  0.988468  1
  Te  Te32  1  0.984647  0.039107  0.291064  1
  Te  Te33  1  0.484647  0.460893  0.708936  1
  Te  Te34  1  0.015353  0.539107  0.208936  1
  Te  Te35  1  0.515353  0.960893  0.791064  1
