# generated using pymatgen
data_PrZnSn
_symmetry_space_group_name_H-M   'P 1'
_cell_length_a   4.60135337
_cell_length_b   4.60135337
_cell_length_c   16.63145458
_cell_angle_alpha   90.00000000
_cell_angle_beta   90.00000000
_cell_angle_gamma   120.00000000
_symmetry_Int_Tables_number   1
_chemical_formula_structural   PrZnSn
_chemical_formula_sum   'Pr4 Zn4 Sn4'
_cell_volume   304.95238842
_cell_formula_units_Z   4
loop_
 _symmetry_equiv_pos_site_id
 _symmetry_equiv_pos_as_xyz
  1  'x, y, z'
loop_
 _atom_site_type_symbol
 _atom_site_label
 _atom_site_symmetry_multiplicity
 _atom_site_fract_x
 _atom_site_fract_y
 _atom_site_fract_z
 _atom_site_occupancy
  Pr  Pr0  1  0.000000  0.000000  0.500000  1
  Pr  Pr1  1  0.000000  0.000000  0.000000  1
  Pr  Pr2  1  0.000000  0.000000  0.750000  1
  Pr  Pr3  1  0.000000  0.000000  0.250000  1
  Zn  Zn4  1  0.666667  0.333333  0.655117  1
  Zn  Zn5  1  0.333333  0.666667  0.344883  1
  Zn  Zn6  1  0.333333  0.666667  0.155117  1
  Zn  Zn7  1  0.666667  0.333333  0.844883  1
  Sn  Sn8  1  0.666667  0.333333  0.115747  1
  Sn  Sn9  1  0.333333  0.666667  0.884253  1
  Sn  Sn10  1  0.333333  0.666667  0.615747  1
  Sn  Sn11  1  0.666667  0.333333  0.384253  1
