# generated using pymatgen
data_U3MnSb5
_symmetry_space_group_name_H-M   'P 1'
_cell_length_a   8.97245636
_cell_length_b   8.97245636
_cell_length_c   6.10408208
_cell_angle_alpha   90.00000000
_cell_angle_beta   90.00000000
_cell_angle_gamma   120.00000000
_symmetry_Int_Tables_number   1
_chemical_formula_structural   U3MnSb5
_chemical_formula_sum   'U6 Mn2 Sb10'
_cell_volume   425.57264625
_cell_formula_units_Z   2
loop_
 _symmetry_equiv_pos_site_id
 _symmetry_equiv_pos_as_xyz
  1  'x, y, z'
loop_
 _atom_site_type_symbol
 _atom_site_label
 _atom_site_symmetry_multiplicity
 _atom_site_fract_x
 _atom_site_fract_y
 _atom_site_fract_z
 _atom_site_occupancy
  U  U0  1  0.391482  0.000000  0.750000  1
  U  U1  1  0.391482  0.391482  0.250000  1
  U  U2  1  0.000000  0.608518  0.250000  1
  U  U3  1  0.000000  0.391482  0.750000  1
  U  U4  1  0.608518  0.608518  0.750000  1
  U  U5  1  0.608518  0.000000  0.250000  1
  Mn  Mn6  1  0.000000  0.000000  0.000000  1
  Mn  Mn7  1  0.000000  0.000000  0.500000  1
  Sb  Sb8  1  0.666667  0.333333  0.500000  1
  Sb  Sb9  1  0.333333  0.666667  0.000000  1
  Sb  Sb10  1  0.752884  0.000000  0.750000  1
  Sb  Sb11  1  0.752884  0.752884  0.250000  1
  Sb  Sb12  1  0.333333  0.666667  0.500000  1
  Sb  Sb13  1  0.666667  0.333333  0.000000  1
  Sb  Sb14  1  0.247116  0.000000  0.250000  1
  Sb  Sb15  1  0.247116  0.247116  0.750000  1
  Sb  Sb16  1  0.000000  0.752884  0.750000  1
  Sb  Sb17  1  0.000000  0.247116  0.250000  1
