# generated using pymatgen
data_NiP
_symmetry_space_group_name_H-M   'P 1'
_cell_length_a   4.87648390
_cell_length_b   6.02612186
_cell_length_c   6.91629896
_cell_angle_alpha   90.00000000
_cell_angle_beta   90.00000000
_cell_angle_gamma   90.00000000
_symmetry_Int_Tables_number   1
_chemical_formula_structural   NiP
_chemical_formula_sum   'Ni8 P8'
_cell_volume   203.24434089
_cell_formula_units_Z   8
loop_
 _symmetry_equiv_pos_site_id
 _symmetry_equiv_pos_as_xyz
  1  'x, y, z'
loop_
 _atom_site_type_symbol
 _atom_site_label
 _atom_site_symmetry_multiplicity
 _atom_site_fract_x
 _atom_site_fract_y
 _atom_site_fract_z
 _atom_site_occupancy
  Ni  Ni0  1  0.984855  0.807367  0.399789  1
  Ni  Ni1  1  0.484855  0.192633  0.100211  1
  Ni  Ni2  1  0.515145  0.307367  0.600211  1
  Ni  Ni3  1  0.015145  0.692633  0.899789  1
  Ni  Ni4  1  0.015145  0.192633  0.600211  1
  Ni  Ni5  1  0.515145  0.807367  0.899789  1
  Ni  Ni6  1  0.484855  0.692633  0.399789  1
  Ni  Ni7  1  0.984855  0.307367  0.100211  1
  P  P8  1  0.826560  0.943317  0.114572  1
  P  P9  1  0.326560  0.056683  0.385428  1
  P  P10  1  0.673440  0.443317  0.885428  1
  P  P11  1  0.173440  0.556683  0.614572  1
  P  P12  1  0.173440  0.056683  0.885428  1
  P  P13  1  0.673440  0.943317  0.614572  1
  P  P14  1  0.326560  0.556683  0.114572  1
  P  P15  1  0.826560  0.443317  0.385428  1
