# generated using pymatgen
data_TlFeI3
_symmetry_space_group_name_H-M   'P 1'
_cell_length_a   4.00976078
_cell_length_b   9.82446926
_cell_length_c   16.12710400
_cell_angle_alpha   90.00000000
_cell_angle_beta   90.00000000
_cell_angle_gamma   90.00000000
_symmetry_Int_Tables_number   1
_chemical_formula_structural   TlFeI3
_chemical_formula_sum   'Tl4 Fe4 I12'
_cell_volume   635.30745030
_cell_formula_units_Z   4
loop_
 _symmetry_equiv_pos_site_id
 _symmetry_equiv_pos_as_xyz
  1  'x, y, z'
loop_
 _atom_site_type_symbol
 _atom_site_label
 _atom_site_symmetry_multiplicity
 _atom_site_fract_x
 _atom_site_fract_y
 _atom_site_fract_z
 _atom_site_occupancy
  Tl  Tl0  1  0.750000  0.056920  0.327262  1
  Tl  Tl1  1  0.750000  0.556920  0.172738  1
  Tl  Tl2  1  0.250000  0.943080  0.672738  1
  Tl  Tl3  1  0.250000  0.443080  0.827262  1
  Fe  Fe4  1  0.250000  0.149175  0.048982  1
  Fe  Fe5  1  0.750000  0.850825  0.951018  1
  Fe  Fe6  1  0.750000  0.350825  0.548982  1
  Fe  Fe7  1  0.250000  0.649175  0.451018  1
  I  I8  1  0.250000  0.188958  0.500239  1
  I  I9  1  0.750000  0.233118  0.699307  1
  I  I10  1  0.750000  0.987092  0.089829  1
  I  I11  1  0.750000  0.733118  0.800693  1
  I  I12  1  0.250000  0.512908  0.589829  1
  I  I13  1  0.250000  0.688958  0.999761  1
  I  I14  1  0.250000  0.012908  0.910171  1
  I  I15  1  0.750000  0.811042  0.499761  1
  I  I16  1  0.750000  0.311042  0.000239  1
  I  I17  1  0.750000  0.487092  0.410171  1
  I  I18  1  0.250000  0.766882  0.300693  1
  I  I19  1  0.250000  0.266882  0.199307  1
