# generated using pymatgen
data_Pt3I8
_symmetry_space_group_name_H-M   'P 1'
_cell_length_a   12.00844380
_cell_length_b   12.00844380
_cell_length_c   11.09447105
_cell_angle_alpha   90.00000000
_cell_angle_beta   90.00000000
_cell_angle_gamma   90.00000000
_symmetry_Int_Tables_number   1
_chemical_formula_structural   Pt3I8
_chemical_formula_sum   'Pt12 I32'
_cell_volume   1599.85293008
_cell_formula_units_Z   4
loop_
 _symmetry_equiv_pos_site_id
 _symmetry_equiv_pos_as_xyz
  1  'x, y, z'
loop_
 _atom_site_type_symbol
 _atom_site_label
 _atom_site_symmetry_multiplicity
 _atom_site_fract_x
 _atom_site_fract_y
 _atom_site_fract_z
 _atom_site_occupancy
  Pt  Pt0  1  0.621026  0.129795  0.512072  1
  Pt  Pt1  1  0.378974  0.870205  0.012072  1
  Pt  Pt2  1  0.370205  0.121026  0.262072  1
  Pt  Pt3  1  0.629795  0.878974  0.762072  1
  Pt  Pt4  1  0.129795  0.621026  0.487928  1
  Pt  Pt5  1  0.121026  0.370205  0.737928  1
  Pt  Pt6  1  0.878974  0.629795  0.237928  1
  Pt  Pt7  1  0.870205  0.378974  0.987928  1
  Pt  Pt8  1  0.125544  0.125544  0.500000  1
  Pt  Pt9  1  0.625544  0.374456  0.750000  1
  Pt  Pt10  1  0.374456  0.625544  0.250000  1
  Pt  Pt11  1  0.874456  0.874456  0.000000  1
  I  I12  1  0.354616  0.129900  0.497823  1
  I  I13  1  0.645384  0.870100  0.997823  1
  I  I14  1  0.370100  0.854616  0.247823  1
  I  I15  1  0.629900  0.145384  0.747823  1
  I  I16  1  0.129900  0.354616  0.502177  1
  I  I17  1  0.854616  0.370100  0.752177  1
  I  I18  1  0.145384  0.629900  0.252177  1
  I  I19  1  0.870100  0.645384  0.002177  1
  I  I20  1  0.898201  0.125811  0.476536  1
  I  I21  1  0.101799  0.874189  0.976536  1
  I  I22  1  0.374189  0.398201  0.226536  1
  I  I23  1  0.625811  0.601799  0.726536  1
  I  I24  1  0.091610  0.376675  0.975106  1
  I  I25  1  0.876675  0.408390  0.225106  1
  I  I26  1  0.123325  0.591610  0.725106  1
  I  I27  1  0.908390  0.623325  0.475106  1
  I  I28  1  0.408390  0.876675  0.774894  1
  I  I29  1  0.591610  0.123325  0.274894  1
  I  I30  1  0.376675  0.091610  0.024894  1
  I  I31  1  0.623325  0.908390  0.524894  1
  I  I32  1  0.649768  0.382849  0.989689  1
  I  I33  1  0.882849  0.850232  0.239689  1
  I  I34  1  0.117151  0.149768  0.739689  1
  I  I35  1  0.350232  0.617151  0.489689  1
  I  I36  1  0.850232  0.882849  0.760311  1
  I  I37  1  0.149768  0.117151  0.260311  1
  I  I38  1  0.382849  0.649768  0.010311  1
  I  I39  1  0.617151  0.350232  0.510311  1
  I  I40  1  0.874189  0.101799  0.023464  1
  I  I41  1  0.601799  0.625811  0.273464  1
  I  I42  1  0.398201  0.374189  0.773464  1
  I  I43  1  0.125811  0.898201  0.523464  1
