# generated using pymatgen
data_Mo8P5
_symmetry_space_group_name_H-M   'P 1'
_cell_length_a   6.58427610
_cell_length_b   3.20590795
_cell_length_c   9.47263701
_cell_angle_alpha   90.00000000
_cell_angle_beta   109.37495726
_cell_angle_gamma   90.00000000
_symmetry_Int_Tables_number   1
_chemical_formula_structural   Mo8P5
_chemical_formula_sum   'Mo8 P5'
_cell_volume   188.63010311
_cell_formula_units_Z   1
loop_
 _symmetry_equiv_pos_site_id
 _symmetry_equiv_pos_as_xyz
  1  'x, y, z'
loop_
 _atom_site_type_symbol
 _atom_site_label
 _atom_site_symmetry_multiplicity
 _atom_site_fract_x
 _atom_site_fract_y
 _atom_site_fract_z
 _atom_site_occupancy
  Mo  Mo0  1  0.995719  0.000000  0.997581  1
  Mo  Mo1  1  0.763526  0.000000  0.219913  1
  Mo  Mo2  1  0.209188  0.000000  0.750708  1
  Mo  Mo3  1  0.641998  0.000000  0.692562  1
  Mo  Mo4  1  0.201342  0.000000  0.428992  1
  Mo  Mo5  1  0.602186  0.500000  0.948036  1
  Mo  Mo6  1  0.389872  0.500000  0.218474  1
  Mo  Mo7  1  0.871013  0.500000  0.502623  1
  P  P8  1  0.575767  0.000000  0.425113  1
  P  P9  1  0.375136  0.000000  0.017432  1
  P  P10  1  0.937561  0.500000  0.792451  1
  P  P11  1  0.347599  0.500000  0.623686  1
  P  P12  1  0.021793  0.500000  0.212129  1
