# generated using pymatgen
data_La8Nb7S22
_symmetry_space_group_name_H-M   'P 1'
_cell_length_a   16.38708187
_cell_length_b   16.38708187
_cell_length_c   5.83937710
_cell_angle_alpha   90.00000000
_cell_angle_beta   90.00000000
_cell_angle_gamma   90.74233800
_symmetry_Int_Tables_number   1
_chemical_formula_structural   La8Nb7S22
_chemical_formula_sum   'La16 Nb14 S44'
_cell_volume   1567.95399940
_cell_formula_units_Z   2
loop_
 _symmetry_equiv_pos_site_id
 _symmetry_equiv_pos_as_xyz
  1  'x, y, z'
loop_
 _atom_site_type_symbol
 _atom_site_label
 _atom_site_symmetry_multiplicity
 _atom_site_fract_x
 _atom_site_fract_y
 _atom_site_fract_z
 _atom_site_occupancy
  La  La0  1  0.860198  0.986816  0.920476  1
  La  La1  1  0.139802  0.013184  0.920476  1
  La  La2  1  0.013184  0.139802  0.420476  1
  La  La3  1  0.986816  0.860198  0.420476  1
  La  La4  1  0.734432  0.109869  0.439382  1
  La  La5  1  0.265568  0.890131  0.439382  1
  La  La6  1  0.890131  0.265568  0.939382  1
  La  La7  1  0.109869  0.734432  0.939382  1
  La  La8  1  0.609530  0.236183  0.910790  1
  La  La9  1  0.390470  0.763817  0.910790  1
  La  La10  1  0.763817  0.390470  0.410790  1
  La  La11  1  0.236183  0.609530  0.410790  1
  La  La12  1  0.483868  0.361412  0.431500  1
  La  La13  1  0.516132  0.638588  0.431500  1
  La  La14  1  0.638588  0.516132  0.931500  1
  La  La15  1  0.361412  0.483868  0.931500  1
  Nb  Nb16  1  0.500000  0.000000  0.999094  1
  Nb  Nb17  1  0.000000  0.500000  0.499094  1
  Nb  Nb18  1  0.428340  0.070101  0.502148  1
  Nb  Nb19  1  0.571660  0.929899  0.502148  1
  Nb  Nb20  1  0.929899  0.571660  0.002148  1
  Nb  Nb21  1  0.070101  0.428340  0.002148  1
  Nb  Nb22  1  0.355519  0.143020  0.999539  1
  Nb  Nb23  1  0.644481  0.856980  0.999539  1
  Nb  Nb24  1  0.856980  0.644481  0.499539  1
  Nb  Nb25  1  0.143020  0.355519  0.499539  1
  Nb  Nb26  1  0.287182  0.213375  0.500772  1
  Nb  Nb27  1  0.712818  0.786625  0.500772  1
  Nb  Nb28  1  0.786625  0.712818  0.000772  1
  Nb  Nb29  1  0.213375  0.287182  0.000772  1
  S  S30  1  0.569022  0.071319  0.668034  1
  S  S31  1  0.430978  0.928681  0.668034  1
  S  S32  1  0.928681  0.430978  0.168034  1
  S  S33  1  0.071319  0.569022  0.168034  1
  S  S34  1  0.360210  0.003632  0.168109  1
  S  S35  1  0.639790  0.996368  0.168109  1
  S  S36  1  0.996368  0.639790  0.668109  1
  S  S37  1  0.003632  0.360210  0.668109  1
  S  S38  1  0.494320  0.139316  0.171477  1
  S  S39  1  0.505680  0.860684  0.171477  1
  S  S40  1  0.860684  0.505680  0.671477  1
  S  S41  1  0.139316  0.494320  0.671477  1
  S  S42  1  0.287626  0.072136  0.666714  1
  S  S43  1  0.712374  0.927864  0.666714  1
  S  S44  1  0.927864  0.712374  0.166714  1
  S  S45  1  0.072136  0.287626  0.166714  1
  S  S46  1  0.428612  0.209749  0.669714  1
  S  S47  1  0.571388  0.790251  0.669714  1
  S  S48  1  0.790251  0.571388  0.169714  1
  S  S49  1  0.209749  0.428612  0.169714  1
  S  S50  1  0.214986  0.148309  0.170716  1
  S  S51  1  0.785014  0.851691  0.170716  1
  S  S52  1  0.851691  0.785014  0.670716  1
  S  S53  1  0.148309  0.214986  0.670716  1
  S  S54  1  0.353230  0.283681  0.167058  1
  S  S55  1  0.646770  0.716319  0.167058  1
  S  S56  1  0.716319  0.646770  0.667058  1
  S  S57  1  0.283681  0.353230  0.667058  1
  S  S58  1  0.887765  0.012921  0.421776  1
  S  S59  1  0.112235  0.987079  0.421776  1
  S  S60  1  0.388073  0.513038  0.426082  1
  S  S61  1  0.611927  0.486962  0.426082  1
  S  S62  1  0.486962  0.611927  0.926082  1
  S  S63  1  0.513038  0.388073  0.926082  1
  S  S64  1  0.263504  0.637272  0.917000  1
  S  S65  1  0.736496  0.362728  0.917000  1
  S  S66  1  0.362728  0.736496  0.417000  1
  S  S67  1  0.637272  0.263504  0.417000  1
  S  S68  1  0.138865  0.762500  0.429768  1
  S  S69  1  0.861135  0.237500  0.429768  1
  S  S70  1  0.237500  0.861135  0.929768  1
  S  S71  1  0.762500  0.138865  0.929768  1
  S  S72  1  0.012921  0.887765  0.921776  1
  S  S73  1  0.987079  0.112235  0.921776  1
