# generated using pymatgen
data_BiPbClO2
_symmetry_space_group_name_H-M   'P 1'
_cell_length_a   6.95597346
_cell_length_b   6.95597346
_cell_length_c   5.65433072
_cell_angle_alpha   90.00000000
_cell_angle_beta   90.00000000
_cell_angle_gamma   131.48421003
_symmetry_Int_Tables_number   1
_chemical_formula_structural   BiPbClO2
_chemical_formula_sum   'Bi2 Pb2 Cl2 O4'
_cell_volume   204.95524700
_cell_formula_units_Z   2
loop_
 _symmetry_equiv_pos_site_id
 _symmetry_equiv_pos_as_xyz
  1  'x, y, z'
loop_
 _atom_site_type_symbol
 _atom_site_label
 _atom_site_symmetry_multiplicity
 _atom_site_fract_x
 _atom_site_fract_y
 _atom_site_fract_z
 _atom_site_occupancy
  Bi  Bi0  1  0.912429  0.087571  0.750000  1
  Bi  Bi1  1  0.087571  0.912429  0.250000  1
  Pb  Pb2  1  0.606771  0.393229  0.750000  1
  Pb  Pb3  1  0.393229  0.606771  0.250000  1
  Cl  Cl4  1  0.253934  0.746066  0.750000  1
  Cl  Cl5  1  0.746066  0.253934  0.250000  1
  O  O6  1  0.237727  0.237727  0.500000  1
  O  O7  1  0.762273  0.762273  0.000000  1
  O  O8  1  0.762273  0.762273  0.500000  1
  O  O9  1  0.237727  0.237727  0.000000  1
