# generated using pymatgen
data_Hg3PO4
_symmetry_space_group_name_H-M   'P 1'
_cell_length_a   9.00708801
_cell_length_b   5.14574926
_cell_length_c   14.53643147
_cell_angle_alpha   90.00000000
_cell_angle_beta   122.66874694
_cell_angle_gamma   90.00000000
_symmetry_Int_Tables_number   1
_chemical_formula_structural   Hg3PO4
_chemical_formula_sum   'Hg12 P4 O16'
_cell_volume   567.15597138
_cell_formula_units_Z   4
loop_
 _symmetry_equiv_pos_site_id
 _symmetry_equiv_pos_as_xyz
  1  'x, y, z'
loop_
 _atom_site_type_symbol
 _atom_site_label
 _atom_site_symmetry_multiplicity
 _atom_site_fract_x
 _atom_site_fract_y
 _atom_site_fract_z
 _atom_site_occupancy
  Hg  Hg0  1  0.443679  0.152255  0.624365  1
  Hg  Hg1  1  0.735478  0.361031  0.049155  1
  Hg  Hg2  1  0.735478  0.138969  0.549155  1
  Hg  Hg3  1  0.264522  0.638969  0.950845  1
  Hg  Hg4  1  0.264522  0.861031  0.450845  1
  Hg  Hg5  1  0.556321  0.652255  0.875635  1
  Hg  Hg6  1  0.556321  0.847745  0.375635  1
  Hg  Hg7  1  0.443679  0.347745  0.124365  1
  Hg  Hg8  1  0.952729  0.369866  0.411172  1
  Hg  Hg9  1  0.047271  0.869866  0.088828  1
  Hg  Hg10  1  0.047271  0.630134  0.588828  1
  Hg  Hg11  1  0.952729  0.130134  0.911172  1
  P  P12  1  0.235807  0.113172  0.773306  1
  P  P13  1  0.764193  0.886828  0.226694  1
  P  P14  1  0.764193  0.613172  0.726694  1
  P  P15  1  0.235807  0.386828  0.273306  1
  O  O16  1  0.405716  0.495436  0.280745  1
  O  O17  1  0.594284  0.995436  0.219255  1
  O  O18  1  0.594284  0.504564  0.719255  1
  O  O19  1  0.405716  0.004564  0.780745  1
  O  O20  1  0.239432  0.084609  0.270569  1
  O  O21  1  0.760568  0.584609  0.229431  1
  O  O22  1  0.760568  0.915391  0.729431  1
  O  O23  1  0.239432  0.415391  0.770569  1
  O  O24  1  0.069196  0.484146  0.164234  1
  O  O25  1  0.229556  0.026698  0.873783  1
  O  O26  1  0.930804  0.515854  0.835766  1
  O  O27  1  0.069196  0.015854  0.664234  1
  O  O28  1  0.229556  0.473302  0.373783  1
  O  O29  1  0.770444  0.973302  0.126217  1
  O  O30  1  0.770444  0.526698  0.626217  1
  O  O31  1  0.930804  0.984146  0.335766  1
