# generated using pymatgen
data_SbP2O7
_symmetry_space_group_name_H-M   'P 1'
_cell_length_a   7.39947695
_cell_length_b   8.48753463
_cell_length_c   9.91031780
_cell_angle_alpha   90.00000000
_cell_angle_beta   110.37178169
_cell_angle_gamma   90.00000000
_symmetry_Int_Tables_number   1
_chemical_formula_structural   SbP2O7
_chemical_formula_sum   'Sb4 P8 O28'
_cell_volume   583.47186598
_cell_formula_units_Z   4
loop_
 _symmetry_equiv_pos_site_id
 _symmetry_equiv_pos_as_xyz
  1  'x, y, z'
loop_
 _atom_site_type_symbol
 _atom_site_label
 _atom_site_symmetry_multiplicity
 _atom_site_fract_x
 _atom_site_fract_y
 _atom_site_fract_z
 _atom_site_occupancy
  Sb  Sb0  1  0.264106  0.494668  0.754153  1
  Sb  Sb1  1  0.264106  0.005332  0.254153  1
  Sb  Sb2  1  0.735894  0.994668  0.745847  1
  Sb  Sb3  1  0.735894  0.505332  0.245847  1
  P  P4  1  0.326704  0.713582  0.052535  1
  P  P5  1  0.673296  0.286418  0.947465  1
  P  P6  1  0.078247  0.240817  0.958145  1
  P  P7  1  0.921753  0.740817  0.541855  1
  P  P8  1  0.921753  0.759183  0.041855  1
  P  P9  1  0.078247  0.259183  0.458145  1
  P  P10  1  0.673296  0.213582  0.447465  1
  P  P11  1  0.326704  0.786418  0.552535  1
  O  O12  1  0.328703  0.699783  0.898263  1
  O  O13  1  0.200941  0.362279  0.914887  1
  O  O14  1  0.455933  0.906727  0.657635  1
  O  O15  1  0.799059  0.637721  0.085113  1
  O  O16  1  0.328703  0.800217  0.398263  1
  O  O17  1  0.544067  0.406727  0.842365  1
  O  O18  1  0.115105  0.665800  0.050932  1
  O  O19  1  0.184719  0.200736  0.118279  1
  O  O20  1  0.364684  0.613661  0.603288  1
  O  O21  1  0.977062  0.595512  0.640067  1
  O  O22  1  0.671297  0.199783  0.601737  1
  O  O23  1  0.635316  0.113661  0.896712  1
  O  O24  1  0.022938  0.095512  0.859933  1
  O  O25  1  0.884895  0.334200  0.949068  1
  O  O26  1  0.799059  0.862279  0.585113  1
  O  O27  1  0.364684  0.886339  0.103288  1
  O  O28  1  0.115105  0.834200  0.550932  1
  O  O29  1  0.671297  0.300217  0.101737  1
  O  O30  1  0.815281  0.799264  0.881721  1
  O  O31  1  0.022938  0.404488  0.359933  1
  O  O32  1  0.815281  0.700736  0.381721  1
  O  O33  1  0.884895  0.165800  0.449068  1
  O  O34  1  0.977062  0.904488  0.140067  1
  O  O35  1  0.200941  0.137721  0.414887  1
  O  O36  1  0.635316  0.386339  0.396712  1
  O  O37  1  0.184719  0.299264  0.618279  1
  O  O38  1  0.544067  0.093273  0.342365  1
  O  O39  1  0.455933  0.593273  0.157635  1
