# generated using pymatgen
data_TiH12(NF2)4
_symmetry_space_group_name_H-M   'P 1'
_cell_length_a   5.51983718
_cell_length_b   11.04133926
_cell_length_c   13.81351195
_cell_angle_alpha   90.00000000
_cell_angle_beta   90.00000000
_cell_angle_gamma   90.00000000
_symmetry_Int_Tables_number   1
_chemical_formula_structural   TiH12(NF2)4
_chemical_formula_sum   'Ti4 H48 N16 F32'
_cell_volume   841.88375515
_cell_formula_units_Z   4
loop_
 _symmetry_equiv_pos_site_id
 _symmetry_equiv_pos_as_xyz
  1  'x, y, z'
loop_
 _atom_site_type_symbol
 _atom_site_label
 _atom_site_symmetry_multiplicity
 _atom_site_fract_x
 _atom_site_fract_y
 _atom_site_fract_z
 _atom_site_occupancy
  Ti  Ti0  1  0.750000  0.624746  0.750000  1
  Ti  Ti1  1  0.250000  0.875254  0.250000  1
  Ti  Ti2  1  0.250000  0.375254  0.250000  1
  Ti  Ti3  1  0.750000  0.124746  0.750000  1
  H  H4  1  0.506936  0.892185  0.559176  1
  H  H5  1  0.006936  0.607815  0.440824  1
  H  H6  1  0.993064  0.892185  0.940824  1
  H  H7  1  0.493064  0.607815  0.059176  1
  H  H8  1  0.493064  0.107815  0.440824  1
  H  H9  1  0.993064  0.392185  0.559176  1
  H  H10  1  0.006936  0.107815  0.059176  1
  H  H11  1  0.506936  0.392185  0.940824  1
  H  H12  1  0.281454  0.999153  0.560095  1
  H  H13  1  0.781454  0.500847  0.439905  1
  H  H14  1  0.218546  0.999153  0.939905  1
  H  H15  1  0.718546  0.500847  0.060095  1
  H  H16  1  0.718546  0.000847  0.439905  1
  H  H17  1  0.218546  0.499153  0.560095  1
  H  H18  1  0.781454  0.000847  0.060095  1
  H  H19  1  0.281454  0.499153  0.939905  1
  H  H20  1  0.395424  0.943446  0.666621  1
  H  H21  1  0.895424  0.556554  0.333379  1
  H  H22  1  0.104576  0.943446  0.833379  1
  H  H23  1  0.604576  0.556554  0.166621  1
  H  H24  1  0.604576  0.056554  0.333379  1
  H  H25  1  0.104576  0.443446  0.666621  1
  H  H26  1  0.895424  0.056554  0.166621  1
  H  H27  1  0.395424  0.443446  0.833379  1
  H  H28  1  0.228980  0.746547  0.559161  1
  H  H29  1  0.728980  0.753453  0.440839  1
  H  H30  1  0.271020  0.746547  0.940839  1
  H  H31  1  0.771020  0.753453  0.059161  1
  H  H32  1  0.771020  0.253453  0.440839  1
  H  H33  1  0.271020  0.246547  0.559161  1
  H  H34  1  0.728980  0.253453  0.059161  1
  H  H35  1  0.228980  0.246547  0.940839  1
  H  H36  1  0.006440  0.855569  0.557489  1
  H  H37  1  0.506440  0.644431  0.442511  1
  H  H38  1  0.493560  0.855569  0.942511  1
  H  H39  1  0.993560  0.644431  0.057489  1
  H  H40  1  0.993560  0.144431  0.442511  1
  H  H41  1  0.493560  0.355569  0.557489  1
  H  H42  1  0.506440  0.144431  0.057489  1
  H  H43  1  0.006440  0.355569  0.942511  1
  H  H44  1  0.116585  0.802116  0.665519  1
  H  H45  1  0.616585  0.697884  0.334481  1
  H  H46  1  0.383415  0.802116  0.834481  1
  H  H47  1  0.883415  0.697884  0.165519  1
  H  H48  1  0.883415  0.197884  0.334481  1
  H  H49  1  0.383415  0.302116  0.665519  1
  H  H50  1  0.616585  0.197884  0.165519  1
  H  H51  1  0.116585  0.302116  0.834481  1
  N  N52  1  0.347552  0.920224  0.595391  1
  N  N53  1  0.847552  0.579776  0.404609  1
  N  N54  1  0.152448  0.920224  0.904609  1
  N  N55  1  0.652448  0.579776  0.095391  1
  N  N56  1  0.652448  0.079776  0.404609  1
  N  N57  1  0.152448  0.420224  0.595391  1
  N  N58  1  0.847552  0.079776  0.095391  1
  N  N59  1  0.347552  0.420224  0.904609  1
  N  N60  1  0.165663  0.825778  0.594687  1
  N  N61  1  0.665663  0.674222  0.405313  1
  N  N62  1  0.334337  0.825778  0.905313  1
  N  N63  1  0.834337  0.674222  0.094687  1
  N  N64  1  0.834337  0.174222  0.405313  1
  N  N65  1  0.334337  0.325778  0.594687  1
  N  N66  1  0.665663  0.174222  0.094687  1
  N  N67  1  0.165663  0.325778  0.905313  1
  F  F68  1  0.768336  0.877946  0.500215  1
  F  F69  1  0.268336  0.622054  0.499785  1
  F  F70  1  0.731664  0.877946  0.999785  1
  F  F71  1  0.231664  0.622054  0.000215  1
  F  F72  1  0.231664  0.122054  0.499785  1
  F  F73  1  0.731664  0.377946  0.500215  1
  F  F74  1  0.268336  0.122054  0.000215  1
  F  F75  1  0.768336  0.377946  0.999785  1
  F  F76  1  0.510401  0.746308  0.730886  1
  F  F77  1  0.010401  0.753692  0.269114  1
  F  F78  1  0.989599  0.746308  0.769114  1
  F  F79  1  0.489599  0.753692  0.230886  1
  F  F80  1  0.489599  0.253692  0.269114  1
  F  F81  1  0.989599  0.246308  0.730886  1
  F  F82  1  0.010401  0.253692  0.230886  1
  F  F83  1  0.510401  0.246308  0.769114  1
  F  F84  1  0.511415  0.502559  0.730614  1
  F  F85  1  0.011415  0.997441  0.269386  1
  F  F86  1  0.988585  0.502559  0.769386  1
  F  F87  1  0.488585  0.997441  0.230614  1
  F  F88  1  0.488585  0.497441  0.269386  1
  F  F89  1  0.988585  0.002559  0.730614  1
  F  F90  1  0.011415  0.497441  0.230614  1
  F  F91  1  0.511415  0.002559  0.769386  1
  F  F92  1  0.822657  0.625606  0.616986  1
  F  F93  1  0.322657  0.874394  0.383014  1
  F  F94  1  0.677343  0.625606  0.883014  1
  F  F95  1  0.177343  0.874394  0.116986  1
  F  F96  1  0.177343  0.374394  0.383014  1
  F  F97  1  0.677343  0.125606  0.616986  1
  F  F98  1  0.322657  0.374394  0.116986  1
  F  F99  1  0.822657  0.125606  0.883014  1
