# generated using pymatgen
data_HgBr
_symmetry_space_group_name_H-M   'P 1'
_cell_length_a   6.66579426
_cell_length_b   6.66579426
_cell_length_c   6.66579426
_cell_angle_alpha   136.31053119
_cell_angle_beta   136.31053119
_cell_angle_gamma   63.50061281
_symmetry_Int_Tables_number   1
_chemical_formula_structural   HgBr
_chemical_formula_sum   'Hg2 Br2'
_cell_volume   139.48108038
_cell_formula_units_Z   2
loop_
 _symmetry_equiv_pos_site_id
 _symmetry_equiv_pos_as_xyz
  1  'x, y, z'
loop_
 _atom_site_type_symbol
 _atom_site_label
 _atom_site_symmetry_multiplicity
 _atom_site_fract_x
 _atom_site_fract_y
 _atom_site_fract_z
 _atom_site_occupancy
  Hg  Hg0  1  0.884055  0.884055  0.000000  1
  Hg  Hg1  1  0.115945  0.115945  0.000000  1
  Br  Br2  1  0.656804  0.656804  0.000000  1
  Br  Br3  1  0.343196  0.343196  0.000000  1
