# generated using pymatgen
data_Sm2InPd2
_symmetry_space_group_name_H-M   'P 1'
_cell_length_a   7.81784677
_cell_length_b   7.81784677
_cell_length_c   3.83598879
_cell_angle_alpha   90.00000000
_cell_angle_beta   90.00000000
_cell_angle_gamma   90.00000000
_symmetry_Int_Tables_number   1
_chemical_formula_structural   Sm2InPd2
_chemical_formula_sum   'Sm4 In2 Pd4'
_cell_volume   234.45075592
_cell_formula_units_Z   2
loop_
 _symmetry_equiv_pos_site_id
 _symmetry_equiv_pos_as_xyz
  1  'x, y, z'
loop_
 _atom_site_type_symbol
 _atom_site_label
 _atom_site_symmetry_multiplicity
 _atom_site_fract_x
 _atom_site_fract_y
 _atom_site_fract_z
 _atom_site_occupancy
  Sm  Sm0  1  0.324911  0.824911  0.500000  1
  Sm  Sm1  1  0.824911  0.675089  0.500000  1
  Sm  Sm2  1  0.175089  0.324911  0.500000  1
  Sm  Sm3  1  0.675089  0.175089  0.500000  1
  In  In4  1  0.000000  0.000000  0.000000  1
  In  In5  1  0.500000  0.500000  0.000000  1
  Pd  Pd6  1  0.373009  0.126991  0.000000  1
  Pd  Pd7  1  0.873009  0.373009  0.000000  1
  Pd  Pd8  1  0.126991  0.626991  0.000000  1
  Pd  Pd9  1  0.626991  0.873009  0.000000  1
