# generated using pymatgen
data_Ti3Sn
_symmetry_space_group_name_H-M   'P 1'
_cell_length_a   5.91085701
_cell_length_b   5.91085701
_cell_length_c   4.75622219
_cell_angle_alpha   90.00000000
_cell_angle_beta   90.00000000
_cell_angle_gamma   120.00000000
_symmetry_Int_Tables_number   1
_chemical_formula_structural   Ti3Sn
_chemical_formula_sum   'Ti6 Sn2'
_cell_volume   143.91089459
_cell_formula_units_Z   2
loop_
 _symmetry_equiv_pos_site_id
 _symmetry_equiv_pos_as_xyz
  1  'x, y, z'
loop_
 _atom_site_type_symbol
 _atom_site_label
 _atom_site_symmetry_multiplicity
 _atom_site_fract_x
 _atom_site_fract_y
 _atom_site_fract_z
 _atom_site_occupancy
  Ti  Ti0  1  0.164251  0.328503  0.750000  1
  Ti  Ti1  1  0.164251  0.835749  0.750000  1
  Ti  Ti2  1  0.671497  0.835749  0.750000  1
  Ti  Ti3  1  0.835749  0.671497  0.250000  1
  Ti  Ti4  1  0.835749  0.164251  0.250000  1
  Ti  Ti5  1  0.328503  0.164251  0.250000  1
  Sn  Sn6  1  0.666667  0.333333  0.750000  1
  Sn  Sn7  1  0.333333  0.666667  0.250000  1
