# generated using pymatgen
data_PrNi5
_symmetry_space_group_name_H-M   'P 1'
_cell_length_a   4.97072166
_cell_length_b   4.97072166
_cell_length_c   3.96111027
_cell_angle_alpha   90.00000000
_cell_angle_beta   90.00000000
_cell_angle_gamma   120.00000000
_symmetry_Int_Tables_number   1
_chemical_formula_structural   PrNi5
_chemical_formula_sum   'Pr1 Ni5'
_cell_volume   84.75912296
_cell_formula_units_Z   1
loop_
 _symmetry_equiv_pos_site_id
 _symmetry_equiv_pos_as_xyz
  1  'x, y, z'
loop_
 _atom_site_type_symbol
 _atom_site_label
 _atom_site_symmetry_multiplicity
 _atom_site_fract_x
 _atom_site_fract_y
 _atom_site_fract_z
 _atom_site_occupancy
  Pr  Pr0  1  0.000000  0.000000  0.000000  1
  Ni  Ni1  1  0.333333  0.666667  0.000000  1
  Ni  Ni2  1  0.666667  0.333333  0.000000  1
  Ni  Ni3  1  0.500000  0.000000  0.500000  1
  Ni  Ni4  1  0.500000  0.500000  0.500000  1
  Ni  Ni5  1  0.000000  0.500000  0.500000  1
