# generated using pymatgen
data_Sr(InTe2)2
_symmetry_space_group_name_H-M   'P 1'
_cell_length_a   6.98096396
_cell_length_b   6.98096396
_cell_length_c   12.04430583
_cell_angle_alpha   90.00000000
_cell_angle_beta   90.00000000
_cell_angle_gamma   117.44009772
_symmetry_Int_Tables_number   1
_chemical_formula_structural   Sr(InTe2)2
_chemical_formula_sum   'Sr2 In4 Te8'
_cell_volume   520.92782253
_cell_formula_units_Z   2
loop_
 _symmetry_equiv_pos_site_id
 _symmetry_equiv_pos_as_xyz
  1  'x, y, z'
loop_
 _atom_site_type_symbol
 _atom_site_label
 _atom_site_symmetry_multiplicity
 _atom_site_fract_x
 _atom_site_fract_y
 _atom_site_fract_z
 _atom_site_occupancy
  Sr  Sr0  1  0.500000  0.500000  0.750000  1
  Sr  Sr1  1  0.500000  0.500000  0.250000  1
  In  In2  1  0.763539  0.231327  0.500000  1
  In  In3  1  0.236461  0.768673  0.500000  1
  In  In4  1  0.231327  0.763539  0.000000  1
  In  In5  1  0.768673  0.236461  0.000000  1
  Te  Te6  1  0.791518  0.656285  0.500000  1
  Te  Te7  1  0.208482  0.343715  0.500000  1
  Te  Te8  1  0.656285  0.791518  1.000000  1
  Te  Te9  1  0.343715  0.208482  0.000000  1
  Te  Te10  1  0.000000  0.500000  0.816587  1
  Te  Te11  1  0.500000  0.000000  0.683413  1
  Te  Te12  1  0.000000  0.500000  0.183413  1
  Te  Te13  1  0.500000  0.000000  0.316587  1
