# generated using pymatgen
data_K2Li3FeO4
_symmetry_space_group_name_H-M   'P 1'
_cell_length_a   5.64118582
_cell_length_b   8.89607697
_cell_length_c   11.15351201
_cell_angle_alpha   90.00000000
_cell_angle_beta   111.02934433
_cell_angle_gamma   90.00000000
_symmetry_Int_Tables_number   1
_chemical_formula_structural   K2Li3FeO4
_chemical_formula_sum   'K8 Li12 Fe4 O16'
_cell_volume   522.45256764
_cell_formula_units_Z   4
loop_
 _symmetry_equiv_pos_site_id
 _symmetry_equiv_pos_as_xyz
  1  'x, y, z'
loop_
 _atom_site_type_symbol
 _atom_site_label
 _atom_site_symmetry_multiplicity
 _atom_site_fract_x
 _atom_site_fract_y
 _atom_site_fract_z
 _atom_site_occupancy
  K  K0  1  0.293548  0.993119  0.138437  1
  K  K1  1  0.706452  0.493119  0.361563  1
  K  K2  1  0.706452  0.006881  0.861563  1
  K  K3  1  0.293548  0.506881  0.638437  1
  K  K4  1  0.279631  0.771957  0.889944  1
  K  K5  1  0.720369  0.271957  0.610056  1
  K  K6  1  0.720369  0.228043  0.110056  1
  K  K7  1  0.279631  0.728043  0.389944  1
  Li  Li8  1  0.626700  0.008182  0.429012  1
  Li  Li9  1  0.373300  0.508182  0.070988  1
  Li  Li10  1  0.373300  0.991818  0.570988  1
  Li  Li11  1  0.626700  0.491818  0.929012  1
  Li  Li12  1  0.096394  0.465931  0.202938  1
  Li  Li13  1  0.903606  0.965931  0.297062  1
  Li  Li14  1  0.903606  0.534069  0.797062  1
  Li  Li15  1  0.096394  0.034069  0.702938  1
  Li  Li16  1  0.382172  0.238963  0.299357  1
  Li  Li17  1  0.617828  0.738963  0.200643  1
  Li  Li18  1  0.617828  0.761037  0.700643  1
  Li  Li19  1  0.382172  0.261037  0.799357  1
  Fe  Fe20  1  0.101685  0.288151  0.936852  1
  Fe  Fe21  1  0.898315  0.788151  0.563148  1
  Fe  Fe22  1  0.898315  0.711849  0.063148  1
  Fe  Fe23  1  0.101685  0.211849  0.436852  1
  O  O24  1  0.745393  0.322785  0.856224  1
  O  O25  1  0.254607  0.822785  0.643776  1
  O  O26  1  0.254607  0.677215  0.143776  1
  O  O27  1  0.745393  0.177215  0.356224  1
  O  O28  1  0.234823  0.190165  0.619806  1
  O  O29  1  0.765177  0.690165  0.880194  1
  O  O30  1  0.765177  0.809835  0.380194  1
  O  O31  1  0.234823  0.309835  0.119806  1
  O  O32  1  0.218002  0.106871  0.883913  1
  O  O33  1  0.781998  0.606871  0.616087  1
  O  O34  1  0.781998  0.893129  0.116087  1
  O  O35  1  0.218002  0.393129  0.383913  1
  O  O36  1  0.258144  0.049615  0.377306  1
  O  O37  1  0.741856  0.549615  0.122694  1
  O  O38  1  0.741856  0.950385  0.622694  1
  O  O39  1  0.258144  0.450385  0.877306  1
