# generated using pymatgen
data_TiO2
_symmetry_space_group_name_H-M   'P 1'
_cell_length_a   5.16855533
_cell_length_b   5.16855533
_cell_length_c   5.16855533
_cell_angle_alpha   33.70824563
_cell_angle_beta   33.70824563
_cell_angle_gamma   33.70824563
_symmetry_Int_Tables_number   1
_chemical_formula_structural   TiO2
_chemical_formula_sum   'Ti1 O2'
_cell_volume   37.88683441
_cell_formula_units_Z   1
loop_
 _symmetry_equiv_pos_site_id
 _symmetry_equiv_pos_as_xyz
  1  'x, y, z'
loop_
 _atom_site_type_symbol
 _atom_site_label
 _atom_site_symmetry_multiplicity
 _atom_site_fract_x
 _atom_site_fract_y
 _atom_site_fract_z
 _atom_site_occupancy
  Ti  Ti0  1  0.000000  0.000000  0.000000  1
  O  O1  1  0.732854  0.732854  0.732854  1
  O  O2  1  0.267146  0.267146  0.267146  1
