# generated using pymatgen
data_Fe2W
_symmetry_space_group_name_H-M   'P 1'
_cell_length_a   4.67955212
_cell_length_b   4.67955212
_cell_length_c   7.79476658
_cell_angle_alpha   90.00000000
_cell_angle_beta   90.00000000
_cell_angle_gamma   120.00000000
_symmetry_Int_Tables_number   1
_chemical_formula_structural   Fe2W
_chemical_formula_sum   'Fe8 W4'
_cell_volume   147.82310600
_cell_formula_units_Z   4
loop_
 _symmetry_equiv_pos_site_id
 _symmetry_equiv_pos_as_xyz
  1  'x, y, z'
loop_
 _atom_site_type_symbol
 _atom_site_label
 _atom_site_symmetry_multiplicity
 _atom_site_fract_x
 _atom_site_fract_y
 _atom_site_fract_z
 _atom_site_occupancy
  Fe  Fe0  1  0.000000  0.000000  0.000000  1
  Fe  Fe1  1  0.000000  0.000000  0.500000  1
  Fe  Fe2  1  0.170466  0.829534  0.250000  1
  Fe  Fe3  1  0.340931  0.170466  0.750000  1
  Fe  Fe4  1  0.829534  0.659069  0.750000  1
  Fe  Fe5  1  0.170466  0.340931  0.250000  1
  Fe  Fe6  1  0.659069  0.829534  0.250000  1
  Fe  Fe7  1  0.829534  0.170466  0.750000  1
  W  W8  1  0.333333  0.666667  0.931253  1
  W  W9  1  0.666667  0.333333  0.431253  1
  W  W10  1  0.666667  0.333333  0.068747  1
  W  W11  1  0.333333  0.666667  0.568747  1
