# generated using pymatgen
data_B7H10
_symmetry_space_group_name_H-M   'P 1'
_cell_length_a   9.17887537
_cell_length_b   10.27809497
_cell_length_c   13.54942297
_cell_angle_alpha   90.00000000
_cell_angle_beta   90.00000000
_cell_angle_gamma   90.00000000
_symmetry_Int_Tables_number   1
_chemical_formula_structural   B7H10
_chemical_formula_sum   'B56 H80'
_cell_volume   1278.27089225
_cell_formula_units_Z   8
loop_
 _symmetry_equiv_pos_site_id
 _symmetry_equiv_pos_as_xyz
  1  'x, y, z'
loop_
 _atom_site_type_symbol
 _atom_site_label
 _atom_site_symmetry_multiplicity
 _atom_site_fract_x
 _atom_site_fract_y
 _atom_site_fract_z
 _atom_site_occupancy
  B  B0  1  0.961242  0.579667  0.982778  1
  B  B1  1  0.461242  0.920333  0.017222  1
  B  B2  1  0.038758  0.079667  0.517222  1
  B  B3  1  0.538758  0.420333  0.482778  1
  B  B4  1  0.804095  0.665150  0.936761  1
  B  B5  1  0.304095  0.834850  0.063239  1
  B  B6  1  0.195905  0.165150  0.563239  1
  B  B7  1  0.695905  0.334850  0.436761  1
  B  B8  1  0.641116  0.607999  0.860428  1
  B  B9  1  0.141116  0.892001  0.139572  1
  B  B10  1  0.358884  0.107999  0.639572  1
  B  B11  1  0.858884  0.392001  0.360428  1
  B  B12  1  0.549444  0.477731  0.939779  1
  B  B13  1  0.049444  0.022269  0.060221  1
  B  B14  1  0.450556  0.977731  0.560221  1
  B  B15  1  0.950556  0.522269  0.439779  1
  B  B16  1  0.626029  0.335063  0.995167  1
  B  B17  1  0.126029  0.164937  0.004833  1
  B  B18  1  0.373971  0.835063  0.504833  1
  B  B19  1  0.873971  0.664937  0.495167  1
  B  B20  1  0.716373  0.248596  0.902017  1
  B  B21  1  0.216373  0.251404  0.097983  1
  B  B22  1  0.283627  0.748596  0.597983  1
  B  B23  1  0.783627  0.751404  0.402017  1
  B  B24  1  0.691796  0.336143  0.788219  1
  B  B25  1  0.191796  0.163857  0.211781  1
  B  B26  1  0.308204  0.836143  0.711781  1
  B  B27  1  0.808204  0.663857  0.288219  1
  B  B28  1  0.732225  0.512875  0.754932  1
  B  B29  1  0.232225  0.987125  0.245068  1
  B  B30  1  0.267775  0.012875  0.745068  1
  B  B31  1  0.767775  0.487125  0.254932  1
  B  B32  1  0.937105  0.536015  0.775466  1
  B  B33  1  0.437105  0.963985  0.224534  1
  B  B34  1  0.062895  0.036015  0.724534  1
  B  B35  1  0.562895  0.463985  0.275466  1
  B  B36  1  0.045885  0.502749  0.882580  1
  B  B37  1  0.545885  0.997251  0.117420  1
  B  B38  1  0.954115  0.002749  0.617420  1
  B  B39  1  0.454115  0.497251  0.382580  1
  B  B40  1  0.547879  0.319222  0.879790  1
  B  B41  1  0.047879  0.180778  0.120210  1
  B  B42  1  0.452121  0.819222  0.620210  1
  B  B43  1  0.952121  0.680778  0.379790  1
  B  B44  1  0.568889  0.463879  0.811152  1
  B  B45  1  0.068889  0.036121  0.188848  1
  B  B46  1  0.431111  0.963879  0.688848  1
  B  B47  1  0.931111  0.536121  0.311152  1
  B  B48  1  0.807182  0.654292  0.807370  1
  B  B49  1  0.307182  0.845708  0.192630  1
  B  B50  1  0.192818  0.154292  0.692630  1
  B  B51  1  0.692818  0.345708  0.307370  1
  B  B52  1  0.975425  0.657810  0.869639  1
  B  B53  1  0.475425  0.842190  0.130361  1
  B  B54  1  0.024575  0.157810  0.630361  1
  B  B55  1  0.524575  0.342190  0.369639  1
  H  H56  1  0.818900  0.563971  0.996692  1
  H  H57  1  0.318900  0.936029  0.003308  1
  H  H58  1  0.181100  0.063971  0.503308  1
  H  H59  1  0.681100  0.436029  0.496692  1
  H  H60  1  0.984040  0.452422  0.964133  1
  H  H61  1  0.484040  0.047578  0.035867  1
  H  H62  1  0.015960  0.952422  0.535867  1
  H  H63  1  0.515960  0.547578  0.464133  1
  H  H64  1  0.967977  0.426850  0.822382  1
  H  H65  1  0.467977  0.073150  0.177618  1
  H  H66  1  0.032023  0.926850  0.677618  1
  H  H67  1  0.532023  0.573150  0.322382  1
  H  H68  1  0.808358  0.311644  0.843246  1
  H  H69  1  0.308358  0.188356  0.156754  1
  H  H70  1  0.191642  0.811644  0.656754  1
  H  H71  1  0.691642  0.688356  0.343246  1
  H  H72  1  0.768174  0.305953  0.984455  1
  H  H73  1  0.268174  0.194047  0.015545  1
  H  H74  1  0.231826  0.805953  0.515545  1
  H  H75  1  0.731826  0.694047  0.484455  1
  H  H76  1  0.651116  0.461496  0.008005  1
  H  H77  1  0.151116  0.038504  0.991995  1
  H  H78  1  0.348884  0.961496  0.491995  1
  H  H79  1  0.848884  0.538504  0.508005  1
  H  H80  1  0.019629  0.601797  0.059206  1
  H  H81  1  0.519629  0.898203  0.940794  1
  H  H82  1  0.980371  0.101797  0.440794  1
  H  H83  1  0.480371  0.398203  0.559206  1
  H  H84  1  0.773527  0.756249  0.987144  1
  H  H85  1  0.273527  0.743751  0.012856  1
  H  H86  1  0.226473  0.256249  0.512856  1
  H  H87  1  0.726473  0.243751  0.487144  1
  H  H88  1  0.556962  0.694825  0.846425  1
  H  H89  1  0.004046  0.531519  0.700044  1
  H  H90  1  0.056962  0.805175  0.153575  1
  H  H91  1  0.943038  0.305175  0.346425  1
  H  H92  1  0.445698  0.519569  0.982269  1
  H  H93  1  0.945698  0.980431  0.017731  1
  H  H94  1  0.554302  0.019569  0.517731  1
  H  H95  1  0.054302  0.480431  0.482269  1
  H  H96  1  0.589634  0.289046  0.071852  1
  H  H97  1  0.089634  0.210954  0.928148  1
  H  H98  1  0.410366  0.789046  0.428148  1
  H  H99  1  0.910366  0.710954  0.571852  1
  H  H100  1  0.749285  0.136876  0.907588  1
  H  H101  1  0.249285  0.363124  0.092412  1
  H  H102  1  0.250715  0.636876  0.592412  1
  H  H103  1  0.750715  0.863124  0.407588  1
  H  H104  1  0.697953  0.266137  0.718264  1
  H  H105  1  0.197953  0.233863  0.281736  1
  H  H106  1  0.302047  0.766137  0.781736  1
  H  H107  1  0.802047  0.733863  0.218264  1
  H  H108  1  0.705267  0.533318  0.669590  1
  H  H109  1  0.205267  0.966682  0.330410  1
  H  H110  1  0.294733  0.033318  0.830410  1
  H  H111  1  0.794733  0.466682  0.169590  1
  H  H112  1  0.446511  0.250915  0.358197  1
  H  H113  1  0.946511  0.249085  0.641803  1
  H  H114  1  0.553489  0.750915  0.141803  1
  H  H115  1  0.053489  0.749085  0.858197  1
  H  H116  1  0.707225  0.251746  0.256010  1
  H  H117  1  0.207225  0.248254  0.743990  1
  H  H118  1  0.292775  0.751746  0.243990  1
  H  H119  1  0.792775  0.748254  0.756010  1
  H  H120  1  0.034190  0.517817  0.258857  1
  H  H121  1  0.534190  0.982183  0.741143  1
  H  H122  1  0.965810  0.017817  0.241143  1
  H  H123  1  0.465810  0.482183  0.758857  1
  H  H124  1  0.058607  0.745158  0.367307  1
  H  H125  1  0.558607  0.754842  0.632693  1
  H  H126  1  0.941393  0.245158  0.132693  1
  H  H127  1  0.441393  0.254842  0.867307  1
  H  H128  1  0.330525  0.532127  0.381986  1
  H  H129  1  0.830525  0.967873  0.618014  1
  H  H130  1  0.669475  0.032127  0.118014  1
  H  H131  1  0.169475  0.467873  0.881986  1
  H  H132  1  0.495954  0.468481  0.200044  1
  H  H133  1  0.995954  0.031519  0.799956  1
  H  H134  1  0.504046  0.968481  0.299956  1
  H  H135  1  0.443038  0.194825  0.653575  1
