# generated using pymatgen
data_Tl2WCl6
_symmetry_space_group_name_H-M   'P 1'
_cell_length_a   7.12152841
_cell_length_b   7.12152841
_cell_length_c   7.12152841
_cell_angle_alpha   60.00000000
_cell_angle_beta   60.00000000
_cell_angle_gamma   60.00000000
_symmetry_Int_Tables_number   1
_chemical_formula_structural   Tl2WCl6
_chemical_formula_sum   'Tl2 W1 Cl6'
_cell_volume   255.39043917
_cell_formula_units_Z   1
loop_
 _symmetry_equiv_pos_site_id
 _symmetry_equiv_pos_as_xyz
  1  'x, y, z'
loop_
 _atom_site_type_symbol
 _atom_site_label
 _atom_site_symmetry_multiplicity
 _atom_site_fract_x
 _atom_site_fract_y
 _atom_site_fract_z
 _atom_site_occupancy
  Tl  Tl0  1  0.750000  0.750000  0.750000  1
  Tl  Tl1  1  0.250000  0.250000  0.250000  1
  W  W2  1  0.000000  0.000000  0.000000  1
  Cl  Cl3  1  0.762441  0.237559  0.237559  1
  Cl  Cl4  1  0.237559  0.762441  0.237559  1
  Cl  Cl5  1  0.762441  0.237559  0.762441  1
  Cl  Cl6  1  0.762441  0.762441  0.237559  1
  Cl  Cl7  1  0.237559  0.237559  0.762441  1
  Cl  Cl8  1  0.237559  0.762441  0.762441  1
