# generated using pymatgen
data_Li3Cu(PO4)2
_symmetry_space_group_name_H-M   'P 1'
_cell_length_a   6.67661732
_cell_length_b   5.01231910
_cell_length_c   10.18209075
_cell_angle_alpha   90.00000000
_cell_angle_beta   90.24399730
_cell_angle_gamma   90.00000000
_symmetry_Int_Tables_number   1
_chemical_formula_structural   Li3Cu(PO4)2
_chemical_formula_sum   'Li6 Cu2 P4 O16'
_cell_volume   340.74400372
_cell_formula_units_Z   2
loop_
 _symmetry_equiv_pos_site_id
 _symmetry_equiv_pos_as_xyz
  1  'x, y, z'
loop_
 _atom_site_type_symbol
 _atom_site_label
 _atom_site_symmetry_multiplicity
 _atom_site_fract_x
 _atom_site_fract_y
 _atom_site_fract_z
 _atom_site_occupancy
  Li  Li0  1  0.501016  0.570187  0.845221  1
  Li  Li1  1  0.998490  0.433080  0.346950  1
  Li  Li2  1  0.998490  0.566920  0.846950  1
  Li  Li3  1  0.501016  0.429813  0.345221  1
  Li  Li4  1  0.498483  0.073280  0.659780  1
  Li  Li5  1  0.498483  0.926720  0.159780  1
  Cu  Cu6  1  0.997490  0.069011  0.652813  1
  Cu  Cu7  1  0.997490  0.930989  0.152813  1
  P  P8  1  0.747631  0.077321  0.904631  1
  P  P9  1  0.254467  0.559635  0.589883  1
  P  P10  1  0.254467  0.440365  0.089883  1
  P  P11  1  0.747631  0.922679  0.404631  1
  O  O12  1  0.240399  0.127785  0.107065  1
  O  O13  1  0.753590  0.618907  0.397028  1
  O  O14  1  0.558240  0.041567  0.342978  1
  O  O15  1  0.441836  0.459292  0.661074  1
  O  O16  1  0.937771  0.041841  0.334014  1
  O  O17  1  0.240399  0.872215  0.607065  1
  O  O18  1  0.248140  0.484282  0.444826  1
  O  O19  1  0.441836  0.540708  0.161074  1
  O  O20  1  0.758551  0.020915  0.552385  1
  O  O21  1  0.753590  0.381093  0.897028  1
  O  O22  1  0.062258  0.552765  0.161825  1
  O  O23  1  0.558240  0.958433  0.842978  1
  O  O24  1  0.937771  0.958159  0.834014  1
  O  O25  1  0.248140  0.515718  0.944826  1
  O  O26  1  0.758551  0.979085  0.052385  1
  O  O27  1  0.062258  0.447235  0.661825  1
