# generated using pymatgen
data_Ce5Ge2Ru
_symmetry_space_group_name_H-M   'P 1'
_cell_length_a   7.82736299
_cell_length_b   8.79183313
_cell_length_c   11.75955560
_cell_angle_alpha   90.00000000
_cell_angle_beta   90.00000000
_cell_angle_gamma   90.00000000
_symmetry_Int_Tables_number   1
_chemical_formula_structural   Ce5Ge2Ru
_chemical_formula_sum   'Ce20 Ge8 Ru4'
_cell_volume   809.25580023
_cell_formula_units_Z   4
loop_
 _symmetry_equiv_pos_site_id
 _symmetry_equiv_pos_as_xyz
  1  'x, y, z'
loop_
 _atom_site_type_symbol
 _atom_site_label
 _atom_site_symmetry_multiplicity
 _atom_site_fract_x
 _atom_site_fract_y
 _atom_site_fract_z
 _atom_site_occupancy
  Ce  Ce0  1  0.700419  0.464440  0.067479  1
  Ce  Ce1  1  0.200419  0.964440  0.432521  1
  Ce  Ce2  1  0.700419  0.035560  0.067479  1
  Ce  Ce3  1  0.799581  0.464440  0.567479  1
  Ce  Ce4  1  0.974581  0.750000  0.002356  1
  Ce  Ce5  1  0.474581  0.250000  0.497644  1
  Ce  Ce6  1  0.025419  0.250000  0.997644  1
  Ce  Ce7  1  0.525419  0.750000  0.502356  1
  Ce  Ce8  1  0.299581  0.535560  0.932521  1
  Ce  Ce9  1  0.799581  0.035560  0.567479  1
  Ce  Ce10  1  0.299581  0.964440  0.932521  1
  Ce  Ce11  1  0.200419  0.535560  0.432521  1
  Ce  Ce12  1  0.369375  0.750000  0.205134  1
  Ce  Ce13  1  0.869375  0.250000  0.294866  1
  Ce  Ce14  1  0.630625  0.250000  0.794866  1
  Ce  Ce15  1  0.130625  0.750000  0.705134  1
  Ce  Ce16  1  0.846642  0.750000  0.288657  1
  Ce  Ce17  1  0.346642  0.250000  0.211343  1
  Ce  Ce18  1  0.153358  0.250000  0.711343  1
  Ce  Ce19  1  0.653358  0.750000  0.788657  1
  Ge  Ge20  1  0.578128  0.495215  0.327007  1
  Ge  Ge21  1  0.921872  0.004785  0.827007  1
  Ge  Ge22  1  0.421872  0.995215  0.672993  1
  Ge  Ge23  1  0.078128  0.504785  0.172993  1
  Ge  Ge24  1  0.421872  0.504785  0.672993  1
  Ge  Ge25  1  0.078128  0.995215  0.172993  1
  Ge  Ge26  1  0.578128  0.004785  0.327007  1
  Ge  Ge27  1  0.921872  0.495215  0.827007  1
  Ru  Ru28  1  0.578604  0.750000  0.022874  1
  Ru  Ru29  1  0.078604  0.250000  0.477126  1
  Ru  Ru30  1  0.421396  0.250000  0.977126  1
  Ru  Ru31  1  0.921396  0.750000  0.522874  1
