# generated using pymatgen
data_CrHO2
_symmetry_space_group_name_H-M   'P 1'
_cell_length_a   4.82760941
_cell_length_b   4.82760941
_cell_length_c   4.82760941
_cell_angle_alpha   36.93338141
_cell_angle_beta   36.93338141
_cell_angle_gamma   36.93338141
_symmetry_Int_Tables_number   1
_chemical_formula_structural   CrHO2
_chemical_formula_sum   'Cr1 H1 O2'
_cell_volume   36.39520369
_cell_formula_units_Z   1
loop_
 _symmetry_equiv_pos_site_id
 _symmetry_equiv_pos_as_xyz
  1  'x, y, z'
loop_
 _atom_site_type_symbol
 _atom_site_label
 _atom_site_symmetry_multiplicity
 _atom_site_fract_x
 _atom_site_fract_y
 _atom_site_fract_z
 _atom_site_occupancy
  Cr  Cr0  1  0.997799  0.997799  0.997799  1
  H  H1  1  0.487887  0.487887  0.487887  1
  O  O2  1  0.592696  0.592696  0.592696  1
  O  O3  1  0.408218  0.408218  0.408218  1
