# generated using pymatgen
data_K3GeH3S3O2
_symmetry_space_group_name_H-M   'P 1'
_cell_length_a   6.80299076
_cell_length_b   7.54871748
_cell_length_c   10.15410501
_cell_angle_alpha   87.93253961
_cell_angle_beta   98.18622085
_cell_angle_gamma   110.37901327
_symmetry_Int_Tables_number   1
_chemical_formula_structural   K3GeH3S3O2
_chemical_formula_sum   'K6 Ge2 H6 S6 O4'
_cell_volume   483.78247182
_cell_formula_units_Z   2
loop_
 _symmetry_equiv_pos_site_id
 _symmetry_equiv_pos_as_xyz
  1  'x, y, z'
loop_
 _atom_site_type_symbol
 _atom_site_label
 _atom_site_symmetry_multiplicity
 _atom_site_fract_x
 _atom_site_fract_y
 _atom_site_fract_z
 _atom_site_occupancy
  K  K0  1  0.235648  0.360015  0.052499  1
  K  K1  1  0.764352  0.639985  0.947501  1
  K  K2  1  0.748965  0.761720  0.557673  1
  K  K3  1  0.251035  0.238280  0.442327  1
  K  K4  1  0.605597  0.122428  0.773941  1
  K  K5  1  0.394403  0.877572  0.226059  1
  Ge  Ge6  1  0.805307  0.384613  0.276129  1
  Ge  Ge7  1  0.194693  0.615387  0.723871  1
  H  H8  1  0.064467  0.940481  0.827884  1
  H  H9  1  0.935533  0.059519  0.172116  1
  H  H10  1  0.059596  0.129056  0.763714  1
  H  H11  1  0.940404  0.870944  0.236286  1
  H  H12  1  0.859959  0.416258  0.623255  1
  H  H13  1  0.140041  0.583742  0.376745  1
  S  S14  1  0.735401  0.222260  0.088087  1
  S  S15  1  0.264599  0.777740  0.911913  1
  S  S16  1  0.270285  0.798098  0.550104  1
  S  S17  1  0.660219  0.606177  0.256282  1
  S  S18  1  0.339781  0.393823  0.743718  1
  S  S19  1  0.729715  0.201902  0.449896  1
  O  O20  1  0.037956  0.996225  0.210384  1
  O  O21  1  0.098224  0.504122  0.294075  1
  O  O22  1  0.901776  0.495878  0.705925  1
  O  O23  1  0.962044  0.003775  0.789616  1
