# generated using pymatgen
data_LiPWO4F
_symmetry_space_group_name_H-M   'P 1'
_cell_length_a   5.28562152
_cell_length_b   5.63568415
_cell_length_c   7.67367700
_cell_angle_alpha   106.77923190
_cell_angle_beta   108.12026617
_cell_angle_gamma   97.31728358
_symmetry_Int_Tables_number   1
_chemical_formula_structural   LiPWO4F
_chemical_formula_sum   'Li2 P2 W2 O8 F2'
_cell_volume   201.98879257
_cell_formula_units_Z   2
loop_
 _symmetry_equiv_pos_site_id
 _symmetry_equiv_pos_as_xyz
  1  'x, y, z'
loop_
 _atom_site_type_symbol
 _atom_site_label
 _atom_site_symmetry_multiplicity
 _atom_site_fract_x
 _atom_site_fract_y
 _atom_site_fract_z
 _atom_site_occupancy
  Li  Li0  1  0.271676  0.600292  0.171040  1
  Li  Li1  1  0.728324  0.399708  0.828960  1
  P  P2  1  0.317725  0.632147  0.767705  1
  P  P3  1  0.682275  0.367853  0.232295  1
  W  W4  1  0.000000  0.000000  0.000000  1
  W  W5  1  0.000000  0.000000  0.500000  1
  O  O6  1  0.383864  0.255734  0.082593  1
  O  O7  1  0.685406  0.651325  0.330012  1
  O  O8  1  0.314594  0.348675  0.669988  1
  O  O9  1  0.755251  0.227935  0.377460  1
  O  O10  1  0.616136  0.744266  0.917407  1
  O  O11  1  0.244749  0.772065  0.622540  1
  O  O12  1  0.880960  0.351570  0.114244  1
  O  O13  1  0.119040  0.648430  0.885756  1
  F  F14  1  0.152161  0.916157  0.264455  1
  F  F15  1  0.847839  0.083843  0.735545  1
