# generated using pymatgen
data_NaSb5O8
_symmetry_space_group_name_H-M   'P 1'
_cell_length_a   7.37573667
_cell_length_b   7.53648684
_cell_length_c   9.83893841
_cell_angle_alpha   105.35616417
_cell_angle_beta   106.06806110
_cell_angle_gamma   86.36077497
_symmetry_Int_Tables_number   1
_chemical_formula_structural   NaSb5O8
_chemical_formula_sum   'Na2 Sb10 O16'
_cell_volume   506.76074104
_cell_formula_units_Z   2
loop_
 _symmetry_equiv_pos_site_id
 _symmetry_equiv_pos_as_xyz
  1  'x, y, z'
loop_
 _atom_site_type_symbol
 _atom_site_label
 _atom_site_symmetry_multiplicity
 _atom_site_fract_x
 _atom_site_fract_y
 _atom_site_fract_z
 _atom_site_occupancy
  Na  Na0  1  0.255863  0.560957  0.967256  1
  Na  Na1  1  0.744137  0.439043  0.032744  1
  Sb  Sb2  1  0.536568  0.821077  0.277474  1
  Sb  Sb3  1  0.463432  0.178923  0.722526  1
  Sb  Sb4  1  0.743042  0.945148  0.030242  1
  Sb  Sb5  1  0.256958  0.054852  0.969758  1
  Sb  Sb6  1  0.537446  0.401152  0.334350  1
  Sb  Sb7  1  0.462554  0.598848  0.665650  1
  Sb  Sb8  1  0.102032  0.761928  0.329046  1
  Sb  Sb9  1  0.897968  0.238072  0.670954  1
  Sb  Sb10  1  0.978228  0.688735  0.661341  1
  Sb  Sb11  1  0.021772  0.311265  0.338659  1
  O  O12  1  0.060907  0.490126  0.230490  1
  O  O13  1  0.939093  0.509874  0.769510  1
  O  O14  1  0.822326  0.457464  0.426047  1
  O  O15  1  0.177674  0.542536  0.573953  1
  O  O16  1  0.809220  0.196893  0.161145  1
  O  O17  1  0.190780  0.803107  0.838855  1
  O  O18  1  0.854135  0.810868  0.195747  1
  O  O19  1  0.145865  0.189132  0.804253  1
  O  O20  1  0.539982  0.554465  0.182110  1
  O  O21  1  0.460018  0.445535  0.817890  1
  O  O22  1  0.451439  0.641965  0.441757  1
  O  O23  1  0.548561  0.358035  0.558243  1
  O  O24  1  0.752849  0.184189  0.798055  1
  O  O25  1  0.247151  0.815811  0.201945  1
  O  O26  1  0.493881  0.102264  0.916123  1
  O  O27  1  0.506119  0.897736  0.083877  1
