# generated using pymatgen
data_SrH2N2O5
_symmetry_space_group_name_H-M   'P 1'
_cell_length_a   4.54314399
_cell_length_b   9.07200363
_cell_length_c   12.75231253
_cell_angle_alpha   90.00000000
_cell_angle_beta   99.38938933
_cell_angle_gamma   90.00000000
_symmetry_Int_Tables_number   1
_chemical_formula_structural   SrH2N2O5
_chemical_formula_sum   'Sr4 H8 N8 O20'
_cell_volume   518.55022691
_cell_formula_units_Z   4
loop_
 _symmetry_equiv_pos_site_id
 _symmetry_equiv_pos_as_xyz
  1  'x, y, z'
loop_
 _atom_site_type_symbol
 _atom_site_label
 _atom_site_symmetry_multiplicity
 _atom_site_fract_x
 _atom_site_fract_y
 _atom_site_fract_z
 _atom_site_occupancy
  Sr  Sr0  1  0.120664  0.775808  0.576345  1
  Sr  Sr1  1  0.879336  0.275808  0.423655  1
  Sr  Sr2  1  0.933582  0.500342  0.072119  1
  Sr  Sr3  1  0.066418  0.000342  0.927881  1
  H  H4  1  0.095238  0.572169  0.783051  1
  H  H5  1  0.904762  0.072169  0.216949  1
  H  H6  1  0.157631  0.472166  0.692362  1
  H  H7  1  0.842369  0.972166  0.307638  1
  H  H8  1  0.141756  0.887647  0.169138  1
  H  H9  1  0.858244  0.387647  0.830862  1
  H  H10  1  0.610660  0.512659  0.818688  1
  H  H11  1  0.389340  0.012659  0.181312  1
  N  N12  1  0.472763  0.761532  0.984635  1
  N  N13  1  0.527237  0.261532  0.015365  1
  N  N14  1  0.471191  0.013896  0.502799  1
  N  N15  1  0.528809  0.513896  0.497201  1
  N  N16  1  0.007746  0.688985  0.308764  1
  N  N17  1  0.992254  0.188985  0.691236  1
  N  N18  1  0.426224  0.377727  0.268537  1
  N  N19  1  0.573776  0.877727  0.731463  1
  O  O20  1  0.380104  0.139470  0.465783  1
  O  O21  1  0.619896  0.639470  0.534217  1
  O  O22  1  0.490834  0.456365  0.193947  1
  O  O23  1  0.509166  0.956365  0.806053  1
  O  O24  1  0.149113  0.348217  0.261593  1
  O  O25  1  0.850887  0.848217  0.738407  1
  O  O26  1  0.253315  0.492733  0.495771  1
  O  O27  1  0.746685  0.992733  0.504229  1
  O  O28  1  0.988720  0.216315  0.788962  1
  O  O29  1  0.011280  0.716315  0.211038  1
  O  O30  1  0.974594  0.302692  0.632004  1
  O  O31  1  0.025406  0.802692  0.367996  1
  O  O32  1  0.193163  0.984983  0.140363  1
  O  O33  1  0.806837  0.484983  0.859637  1
  O  O34  1  0.395644  0.633813  0.010745  1
  O  O35  1  0.604356  0.133813  0.989255  1
  O  O36  1  0.752419  0.777333  0.990068  1
  O  O37  1  0.247581  0.277333  0.009932  1
  O  O38  1  0.769412  0.064668  0.270291  1
  O  O39  1  0.230588  0.564668  0.729709  1
