# generated using pymatgen
data_RbHCO2
_symmetry_space_group_name_H-M   'P 1'
_cell_length_a   4.72613830
_cell_length_b   7.50851169
_cell_length_c   9.38712047
_cell_angle_alpha   90.00000000
_cell_angle_beta   90.00000000
_cell_angle_gamma   90.00000000
_symmetry_Int_Tables_number   1
_chemical_formula_structural   RbHCO2
_chemical_formula_sum   'Rb4 H4 C4 O8'
_cell_volume   333.11384153
_cell_formula_units_Z   4
loop_
 _symmetry_equiv_pos_site_id
 _symmetry_equiv_pos_as_xyz
  1  'x, y, z'
loop_
 _atom_site_type_symbol
 _atom_site_label
 _atom_site_symmetry_multiplicity
 _atom_site_fract_x
 _atom_site_fract_y
 _atom_site_fract_z
 _atom_site_occupancy
  Rb  Rb0  1  0.938680  0.500000  0.250000  1
  Rb  Rb1  1  0.061320  0.000000  0.750000  1
  Rb  Rb2  1  0.061320  0.500000  0.750000  1
  Rb  Rb3  1  0.938680  0.000000  0.250000  1
  H  H4  1  0.437984  0.750000  0.027967  1
  H  H5  1  0.437984  0.250000  0.472033  1
  H  H6  1  0.562016  0.750000  0.527967  1
  H  H7  1  0.562016  0.250000  0.972033  1
  C  C8  1  0.383337  0.250000  0.050105  1
  C  C9  1  0.383337  0.750000  0.449895  1
  C  C10  1  0.616663  0.750000  0.949895  1
  C  C11  1  0.616663  0.250000  0.550105  1
  O  O12  1  0.133808  0.250000  0.999401  1
  O  O13  1  0.133808  0.750000  0.500599  1
  O  O14  1  0.866192  0.250000  0.499401  1
  O  O15  1  0.866192  0.750000  0.000599  1
  O  O16  1  0.448547  0.250000  0.181554  1
  O  O17  1  0.448547  0.750000  0.318446  1
  O  O18  1  0.551453  0.750000  0.818446  1
  O  O19  1  0.551453  0.250000  0.681554  1
