# generated using pymatgen
data_RbP(HO)2
_symmetry_space_group_name_H-M   'P 1'
_cell_length_a   6.45224792
_cell_length_b   7.72029028
_cell_length_c   8.27422336
_cell_angle_alpha   90.00000000
_cell_angle_beta   90.00000000
_cell_angle_gamma   90.00000000
_symmetry_Int_Tables_number   1
_chemical_formula_structural   RbP(HO)2
_chemical_formula_sum   'Rb4 P4 H8 O8'
_cell_volume   412.16576566
_cell_formula_units_Z   4
loop_
 _symmetry_equiv_pos_site_id
 _symmetry_equiv_pos_as_xyz
  1  'x, y, z'
loop_
 _atom_site_type_symbol
 _atom_site_label
 _atom_site_symmetry_multiplicity
 _atom_site_fract_x
 _atom_site_fract_y
 _atom_site_fract_z
 _atom_site_occupancy
  Rb  Rb0  1  0.250000  0.861131  0.131484  1
  Rb  Rb1  1  0.750000  0.138869  0.868516  1
  Rb  Rb2  1  0.750000  0.361131  0.368516  1
  Rb  Rb3  1  0.250000  0.638869  0.631484  1
  P  P4  1  0.750000  0.674493  0.878547  1
  P  P5  1  0.250000  0.325507  0.121453  1
  P  P6  1  0.250000  0.174493  0.621453  1
  P  P7  1  0.750000  0.825507  0.378547  1
  H  H8  1  0.750000  0.559088  0.743043  1
  H  H9  1  0.250000  0.440912  0.256957  1
  H  H10  1  0.250000  0.059088  0.756957  1
  H  H11  1  0.750000  0.940912  0.243043  1
  H  H12  1  0.750000  0.554412  0.010295  1
  H  H13  1  0.250000  0.445588  0.989705  1
  H  H14  1  0.250000  0.054412  0.489705  1
  H  H15  1  0.750000  0.945588  0.510295  1
  O  O16  1  0.547011  0.725763  0.379229  1
  O  O17  1  0.047011  0.274237  0.620771  1
  O  O18  1  0.452989  0.225763  0.120771  1
  O  O19  1  0.952989  0.774237  0.879229  1
  O  O20  1  0.452989  0.274237  0.620771  1
  O  O21  1  0.952989  0.725763  0.379229  1
  O  O22  1  0.547011  0.774237  0.879229  1
  O  O23  1  0.047011  0.225763  0.120771  1
