# generated using pymatgen
data_Sc7CI12
_symmetry_space_group_name_H-M   'P 1'
_cell_length_a   9.39290620
_cell_length_b   9.39290620
_cell_length_c   9.39290620
_cell_angle_alpha   108.16148469
_cell_angle_beta   108.16148469
_cell_angle_gamma   108.16148469
_symmetry_Int_Tables_number   1
_chemical_formula_structural   Sc7CI12
_chemical_formula_sum   'Sc7 C1 I12'
_cell_volume   667.07967367
_cell_formula_units_Z   1
loop_
 _symmetry_equiv_pos_site_id
 _symmetry_equiv_pos_as_xyz
  1  'x, y, z'
loop_
 _atom_site_type_symbol
 _atom_site_label
 _atom_site_symmetry_multiplicity
 _atom_site_fract_x
 _atom_site_fract_y
 _atom_site_fract_z
 _atom_site_occupancy
  Sc  Sc0  1  0.272666  0.096406  0.038142  1
  Sc  Sc1  1  0.038142  0.272666  0.096406  1
  Sc  Sc2  1  0.096406  0.038142  0.272666  1
  Sc  Sc3  1  0.974571  0.732894  0.914656  1
  Sc  Sc4  1  0.914656  0.974571  0.732894  1
  Sc  Sc5  1  0.732894  0.914656  0.974571  1
  Sc  Sc6  1  0.474930  0.474930  0.474930  1
  C  C7  1  0.999838  0.999838  0.999838  1
  I  I8  1  0.298512  0.781213  0.924626  1
  I  I9  1  0.147821  0.383614  0.460234  1
  I  I10  1  0.383614  0.460234  0.147821  1
  I  I11  1  0.460234  0.147821  0.383614  1
  I  I12  1  0.924626  0.298512  0.781213  1
  I  I13  1  0.781213  0.924626  0.298512  1
  I  I14  1  0.838531  0.617801  0.546419  1
  I  I15  1  0.546419  0.838531  0.617801  1
  I  I16  1  0.617801  0.546419  0.838531  1
  I  I17  1  0.074629  0.704439  0.223607  1
  I  I18  1  0.223607  0.074629  0.704439  1
  I  I19  1  0.704439  0.223607  0.074629  1
