# generated using pymatgen
data_Ce3(GeRh)2
_symmetry_space_group_name_H-M   'P 1'
_cell_length_a   5.60852851
_cell_length_b   8.08132447
_cell_length_c   13.30913072
_cell_angle_alpha   90.00000000
_cell_angle_beta   90.00000000
_cell_angle_gamma   90.00000000
_symmetry_Int_Tables_number   1
_chemical_formula_structural   Ce3(GeRh)2
_chemical_formula_sum   'Ce12 Ge8 Rh8'
_cell_volume   603.22754840
_cell_formula_units_Z   4
loop_
 _symmetry_equiv_pos_site_id
 _symmetry_equiv_pos_as_xyz
  1  'x, y, z'
loop_
 _atom_site_type_symbol
 _atom_site_label
 _atom_site_symmetry_multiplicity
 _atom_site_fract_x
 _atom_site_fract_y
 _atom_site_fract_z
 _atom_site_occupancy
  Ce  Ce0  1  0.363710  0.741938  0.750000  1
  Ce  Ce1  1  0.363710  0.758062  0.250000  1
  Ce  Ce2  1  0.636290  0.241938  0.750000  1
  Ce  Ce3  1  0.636290  0.258062  0.250000  1
  Ce  Ce4  1  0.155922  0.396721  0.402298  1
  Ce  Ce5  1  0.155922  0.103279  0.597702  1
  Ce  Ce6  1  0.844078  0.896721  0.097702  1
  Ce  Ce7  1  0.844078  0.603279  0.902298  1
  Ce  Ce8  1  0.844078  0.603279  0.597702  1
  Ce  Ce9  1  0.844078  0.896721  0.402298  1
  Ce  Ce10  1  0.155922  0.103279  0.902298  1
  Ce  Ce11  1  0.155922  0.396721  0.097702  1
  Ge  Ge12  1  0.675362  0.250000  0.500000  1
  Ge  Ge13  1  0.324638  0.750000  0.000000  1
  Ge  Ge14  1  0.324638  0.750000  0.500000  1
  Ge  Ge15  1  0.675362  0.250000  0.000000  1
  Ge  Ge16  1  0.869195  0.892387  0.750000  1
  Ge  Ge17  1  0.869195  0.607613  0.250000  1
  Ge  Ge18  1  0.130805  0.392387  0.750000  1
  Ge  Ge19  1  0.130805  0.107613  0.250000  1
  Rh  Rh20  1  0.378738  0.042062  0.406923  1
  Rh  Rh21  1  0.378738  0.457938  0.593077  1
  Rh  Rh22  1  0.621262  0.542062  0.093077  1
  Rh  Rh23  1  0.621262  0.957938  0.906923  1
  Rh  Rh24  1  0.378738  0.042062  0.093077  1
  Rh  Rh25  1  0.378738  0.457938  0.906923  1
  Rh  Rh26  1  0.621262  0.542062  0.406923  1
  Rh  Rh27  1  0.621262  0.957938  0.593077  1
