# generated using pymatgen
data_Ge3Ru2
_symmetry_space_group_name_H-M   'P 1'
_cell_length_a   5.78381537
_cell_length_b   9.33825708
_cell_length_c   11.57692739
_cell_angle_alpha   90.00000000
_cell_angle_beta   90.00000000
_cell_angle_gamma   90.00000000
_symmetry_Int_Tables_number   1
_chemical_formula_structural   Ge3Ru2
_chemical_formula_sum   'Ge24 Ru16'
_cell_volume   625.27858693
_cell_formula_units_Z   8
loop_
 _symmetry_equiv_pos_site_id
 _symmetry_equiv_pos_as_xyz
  1  'x, y, z'
loop_
 _atom_site_type_symbol
 _atom_site_label
 _atom_site_symmetry_multiplicity
 _atom_site_fract_x
 _atom_site_fract_y
 _atom_site_fract_z
 _atom_site_occupancy
  Ge  Ge0  1  0.598015  0.100104  0.364246  1
  Ge  Ge1  1  0.098015  0.399896  0.135754  1
  Ge  Ge2  1  0.901985  0.100104  0.635754  1
  Ge  Ge3  1  0.401985  0.399896  0.864246  1
  Ge  Ge4  1  0.401985  0.899896  0.635754  1
  Ge  Ge5  1  0.901985  0.600104  0.864246  1
  Ge  Ge6  1  0.098015  0.899896  0.364246  1
  Ge  Ge7  1  0.598015  0.600104  0.135754  1
  Ge  Ge8  1  0.912931  0.067893  0.172874  1
  Ge  Ge9  1  0.412931  0.432107  0.327126  1
  Ge  Ge10  1  0.587069  0.067893  0.827126  1
  Ge  Ge11  1  0.087069  0.432107  0.672874  1
  Ge  Ge12  1  0.087069  0.932107  0.827126  1
  Ge  Ge13  1  0.587069  0.567893  0.672874  1
  Ge  Ge14  1  0.412931  0.932107  0.172874  1
  Ge  Ge15  1  0.912931  0.567893  0.327126  1
  Ge  Ge16  1  0.536470  0.719442  0.426313  1
  Ge  Ge17  1  0.036470  0.780558  0.073687  1
  Ge  Ge18  1  0.963530  0.719442  0.573687  1
  Ge  Ge19  1  0.463530  0.780558  0.926313  1
  Ge  Ge20  1  0.463530  0.280558  0.573687  1
  Ge  Ge21  1  0.963530  0.219442  0.926313  1
  Ge  Ge22  1  0.036470  0.280558  0.426313  1
  Ge  Ge23  1  0.536470  0.219442  0.073687  1
  Ru  Ru24  1  0.750000  0.927205  0.500000  1
  Ru  Ru25  1  0.250000  0.572795  0.000000  1
  Ru  Ru26  1  0.250000  0.072795  0.500000  1
  Ru  Ru27  1  0.750000  0.427205  0.000000  1
  Ru  Ru28  1  0.750000  0.454143  0.500000  1
  Ru  Ru29  1  0.250000  0.045857  0.000000  1
  Ru  Ru30  1  0.250000  0.545857  0.500000  1
  Ru  Ru31  1  0.750000  0.954143  0.000000  1
  Ru  Ru32  1  0.758823  0.312583  0.253183  1
  Ru  Ru33  1  0.258823  0.187417  0.246817  1
  Ru  Ru34  1  0.741177  0.312583  0.746817  1
  Ru  Ru35  1  0.241177  0.187417  0.753183  1
  Ru  Ru36  1  0.241177  0.687417  0.746817  1
  Ru  Ru37  1  0.741177  0.812583  0.753183  1
  Ru  Ru38  1  0.258823  0.687417  0.253183  1
  Ru  Ru39  1  0.758823  0.812583  0.246817  1
