# generated using pymatgen
data_BH4N
_symmetry_space_group_name_H-M   'P 1'
_cell_length_a   4.48553359
_cell_length_b   11.32438129
_cell_length_c   12.40461597
_cell_angle_alpha   90.00000000
_cell_angle_beta   90.00000000
_cell_angle_gamma   90.00000000
_symmetry_Int_Tables_number   1
_chemical_formula_structural   BH4N
_chemical_formula_sum   'B12 H48 N12'
_cell_volume   630.10354133
_cell_formula_units_Z   12
loop_
 _symmetry_equiv_pos_site_id
 _symmetry_equiv_pos_as_xyz
  1  'x, y, z'
loop_
 _atom_site_type_symbol
 _atom_site_label
 _atom_site_symmetry_multiplicity
 _atom_site_fract_x
 _atom_site_fract_y
 _atom_site_fract_z
 _atom_site_occupancy
  B  B0  1  0.854532  0.750000  0.114996  1
  B  B1  1  0.854532  0.250000  0.385004  1
  B  B2  1  0.145468  0.250000  0.885004  1
  B  B3  1  0.145468  0.750000  0.614996  1
  B  B4  1  0.850957  0.131913  0.572331  1
  B  B5  1  0.850957  0.868087  0.927669  1
  B  B6  1  0.149043  0.631913  0.427669  1
  B  B7  1  0.149043  0.368087  0.072331  1
  B  B8  1  0.149043  0.868087  0.427669  1
  B  B9  1  0.149043  0.131913  0.072331  1
  B  B10  1  0.850957  0.368087  0.572331  1
  B  B11  1  0.850957  0.631913  0.927669  1
  H  H12  1  0.166763  0.750000  0.293924  1
  H  H13  1  0.166763  0.250000  0.206076  1
  H  H14  1  0.833237  0.250000  0.706076  1
  H  H15  1  0.833237  0.750000  0.793924  1
  H  H16  1  0.479273  0.750000  0.360123  1
  H  H17  1  0.479273  0.250000  0.139877  1
  H  H18  1  0.520727  0.250000  0.639877  1
  H  H19  1  0.520727  0.750000  0.860123  1
  H  H20  1  0.737572  0.046665  0.616857  1
  H  H21  1  0.737572  0.953335  0.883143  1
  H  H22  1  0.262428  0.546665  0.383143  1
  H  H23  1  0.262428  0.453335  0.116857  1
  H  H24  1  0.262428  0.953335  0.383143  1
  H  H25  1  0.262428  0.046665  0.116857  1
  H  H26  1  0.737572  0.453335  0.616857  1
  H  H27  1  0.737572  0.546665  0.883143  1
  H  H28  1  0.123178  0.127389  0.574904  1
  H  H29  1  0.830734  0.063330  0.412731  1
  H  H30  1  0.123178  0.872611  0.925096  1
  H  H31  1  0.876822  0.372611  0.074904  1
  H  H32  1  0.876822  0.872611  0.425096  1
  H  H33  1  0.876822  0.127389  0.074904  1
  H  H34  1  0.123178  0.372611  0.574904  1
  H  H35  1  0.123178  0.627389  0.925096  1
  H  H36  1  0.127024  0.750000  0.119164  1
  H  H37  1  0.127024  0.250000  0.380836  1
  H  H38  1  0.872976  0.250000  0.880836  1
  H  H39  1  0.872976  0.750000  0.619164  1
  H  H40  1  0.742983  0.750000  0.204884  1
  H  H41  1  0.742983  0.250000  0.295116  1
  H  H42  1  0.257017  0.250000  0.795116  1
  H  H43  1  0.257017  0.750000  0.704884  1
  H  H44  1  0.521352  0.628855  0.055140  1
  H  H45  1  0.521352  0.371145  0.444860  1
  H  H46  1  0.478648  0.128855  0.944860  1
  H  H47  1  0.478648  0.871145  0.555140  1
  H  H48  1  0.478648  0.371145  0.944860  1
  H  H49  1  0.478648  0.628855  0.555140  1
  H  H50  1  0.521352  0.871145  0.055140  1
  H  H51  1  0.521352  0.128855  0.444860  1
  H  H52  1  0.830734  0.563330  0.087269  1
  H  H53  1  0.830734  0.436670  0.412731  1
  H  H54  1  0.169266  0.063330  0.912731  1
  H  H55  1  0.169266  0.936670  0.587269  1
  H  H56  1  0.169266  0.436670  0.912731  1
  H  H57  1  0.169266  0.563330  0.587269  1
  H  H58  1  0.830734  0.936670  0.087269  1
  H  H59  1  0.876822  0.627389  0.425096  1
  N  N60  1  0.749079  0.137531  0.450097  1
  N  N61  1  0.749079  0.862469  0.049903  1
  N  N62  1  0.250921  0.637531  0.549903  1
  N  N63  1  0.250921  0.362469  0.950097  1
  N  N64  1  0.250921  0.862469  0.549903  1
  N  N65  1  0.250921  0.137531  0.950097  1
  N  N66  1  0.749079  0.362469  0.450097  1
  N  N67  1  0.749079  0.637531  0.049903  1
  N  N68  1  0.748057  0.750000  0.870867  1
  N  N69  1  0.748057  0.250000  0.629133  1
  N  N70  1  0.251943  0.250000  0.129133  1
  N  N71  1  0.251943  0.750000  0.370867  1
