# generated using pymatgen
data_CeMnGe
_symmetry_space_group_name_H-M   'P 1'
_cell_length_a   4.05800015
_cell_length_b   4.05800015
_cell_length_c   7.22686444
_cell_angle_alpha   90.00000000
_cell_angle_beta   90.00000000
_cell_angle_gamma   90.00000000
_symmetry_Int_Tables_number   1
_chemical_formula_structural   CeMnGe
_chemical_formula_sum   'Ce2 Mn2 Ge2'
_cell_volume   119.00741611
_cell_formula_units_Z   2
loop_
 _symmetry_equiv_pos_site_id
 _symmetry_equiv_pos_as_xyz
  1  'x, y, z'
loop_
 _atom_site_type_symbol
 _atom_site_label
 _atom_site_symmetry_multiplicity
 _atom_site_fract_x
 _atom_site_fract_y
 _atom_site_fract_z
 _atom_site_occupancy
  Ce  Ce0  1  0.000000  0.500000  0.329397  1
  Ce  Ce1  1  0.500000  0.000000  0.670603  1
  Mn  Mn2  1  0.000000  0.000000  0.000000  1
  Mn  Mn3  1  0.500000  0.500000  0.000000  1
  Ge  Ge4  1  0.000000  0.500000  0.797055  1
  Ge  Ge5  1  0.500000  0.000000  0.202945  1
