# generated using pymatgen
data_SiNi2As
_symmetry_space_group_name_H-M   'P 1'
_cell_length_a   5.13620144
_cell_length_b   6.00889631
_cell_length_c   13.88847737
_cell_angle_alpha   90.00000000
_cell_angle_beta   90.00000000
_cell_angle_gamma   90.00000000
_symmetry_Int_Tables_number   1
_chemical_formula_structural   SiNi2As
_chemical_formula_sum   'Si8 Ni16 As8'
_cell_volume   428.63871434
_cell_formula_units_Z   8
loop_
 _symmetry_equiv_pos_site_id
 _symmetry_equiv_pos_as_xyz
  1  'x, y, z'
loop_
 _atom_site_type_symbol
 _atom_site_label
 _atom_site_symmetry_multiplicity
 _atom_site_fract_x
 _atom_site_fract_y
 _atom_site_fract_z
 _atom_site_occupancy
  Si  Si0  1  0.819950  0.932524  0.057193  1
  Si  Si1  1  0.819950  0.432524  0.442807  1
  Si  Si2  1  0.319950  0.567476  0.057193  1
  Si  Si3  1  0.680050  0.932524  0.557193  1
  Si  Si4  1  0.180050  0.067476  0.942807  1
  Si  Si5  1  0.180050  0.567476  0.557193  1
  Si  Si6  1  0.680050  0.432524  0.942807  1
  Si  Si7  1  0.319950  0.067476  0.442807  1
  Ni  Ni8  1  0.015955  0.695326  0.165827  1
  Ni  Ni9  1  0.484045  0.195326  0.834173  1
  Ni  Ni10  1  0.515955  0.304674  0.334173  1
  Ni  Ni11  1  0.990250  0.806822  0.443750  1
  Ni  Ni12  1  0.015955  0.195326  0.334173  1
  Ni  Ni13  1  0.515955  0.804674  0.165827  1
  Ni  Ni14  1  0.484045  0.695326  0.665827  1
  Ni  Ni15  1  0.984045  0.304674  0.834173  1
  Ni  Ni16  1  0.009750  0.193178  0.556250  1
  Ni  Ni17  1  0.990250  0.306822  0.056250  1
  Ni  Ni18  1  0.490250  0.693178  0.443750  1
  Ni  Ni19  1  0.509750  0.806822  0.943750  1
  Ni  Ni20  1  0.490250  0.193178  0.056250  1
  Ni  Ni21  1  0.009750  0.693178  0.943750  1
  Ni  Ni22  1  0.509750  0.306822  0.556250  1
  Ni  Ni23  1  0.984045  0.804674  0.665827  1
  As  As24  1  0.683808  0.930095  0.316808  1
  As  As25  1  0.183808  0.069905  0.183192  1
  As  As26  1  0.816192  0.430095  0.683192  1
  As  As27  1  0.316192  0.569905  0.816808  1
  As  As28  1  0.316192  0.069905  0.683192  1
  As  As29  1  0.816192  0.930095  0.816808  1
  As  As30  1  0.183808  0.569905  0.316808  1
  As  As31  1  0.683808  0.430095  0.183192  1
