# generated using pymatgen
data_K2SbCl5
_symmetry_space_group_name_H-M   'P 1'
_cell_length_a   9.07470589
_cell_length_b   12.76840606
_cell_length_c   9.09560979
_cell_angle_alpha   90.00000000
_cell_angle_beta   109.13952894
_cell_angle_gamma   90.00000000
_symmetry_Int_Tables_number   1
_chemical_formula_structural   K2SbCl5
_chemical_formula_sum   'K8 Sb4 Cl20'
_cell_volume   995.64730883
_cell_formula_units_Z   4
loop_
 _symmetry_equiv_pos_site_id
 _symmetry_equiv_pos_as_xyz
  1  'x, y, z'
loop_
 _atom_site_type_symbol
 _atom_site_label
 _atom_site_symmetry_multiplicity
 _atom_site_fract_x
 _atom_site_fract_y
 _atom_site_fract_z
 _atom_site_occupancy
  K  K0  1  0.905362  0.671928  0.821342  1
  K  K1  1  0.155981  0.131357  0.631415  1
  K  K2  1  0.344019  0.631357  0.368585  1
  K  K3  1  0.844019  0.868643  0.368585  1
  K  K4  1  0.405362  0.828072  0.821342  1
  K  K5  1  0.094638  0.328072  0.178658  1
  K  K6  1  0.655981  0.368643  0.631415  1
  K  K7  1  0.594638  0.171928  0.178658  1
  Sb  Sb8  1  0.293240  0.496462  0.808352  1
  Sb  Sb9  1  0.206760  0.996462  0.191648  1
  Sb  Sb10  1  0.706760  0.503538  0.191648  1
  Sb  Sb11  1  0.793240  0.003538  0.808352  1
  Cl  Cl12  1  0.639117  0.885523  0.607539  1
  Cl  Cl13  1  0.035426  0.424575  0.828665  1
  Cl  Cl14  1  0.464574  0.924575  0.171335  1
  Cl  Cl15  1  0.964574  0.575425  0.171335  1
  Cl  Cl16  1  0.041118  0.906398  0.753255  1
  Cl  Cl17  1  0.458882  0.406398  0.246745  1
  Cl  Cl18  1  0.958882  0.093602  0.246745  1
  Cl  Cl19  1  0.541118  0.593602  0.753255  1
  Cl  Cl20  1  0.786880  0.848873  0.002601  1
  Cl  Cl21  1  0.713120  0.348873  0.997399  1
  Cl  Cl22  1  0.213120  0.151127  0.997399  1
  Cl  Cl23  1  0.286880  0.651127  0.002601  1
  Cl  Cl24  1  0.790865  0.139058  0.587002  1
  Cl  Cl25  1  0.139117  0.614477  0.607539  1
  Cl  Cl26  1  0.209135  0.860942  0.412998  1
  Cl  Cl27  1  0.290865  0.360942  0.587002  1
  Cl  Cl28  1  0.709135  0.639058  0.412998  1
  Cl  Cl29  1  0.860883  0.385523  0.392461  1
  Cl  Cl30  1  0.360883  0.114477  0.392461  1
  Cl  Cl31  1  0.535426  0.075425  0.828665  1
