# generated using pymatgen
data_B10H13
_symmetry_space_group_name_H-M   'P 1'
_cell_length_a   14.65835571
_cell_length_b   14.65835571
_cell_length_c   14.65835571
_cell_angle_alpha   131.11797105
_cell_angle_beta   131.11797105
_cell_angle_gamma   71.62571473
_symmetry_Int_Tables_number   1
_chemical_formula_structural   B10H13
_chemical_formula_sum   'B80 H104'
_cell_volume   1748.99902374
_cell_formula_units_Z   8
loop_
 _symmetry_equiv_pos_site_id
 _symmetry_equiv_pos_as_xyz
  1  'x, y, z'
loop_
 _atom_site_type_symbol
 _atom_site_label
 _atom_site_symmetry_multiplicity
 _atom_site_fract_x
 _atom_site_fract_y
 _atom_site_fract_z
 _atom_site_occupancy
  B  B0  1  0.576163  0.935240  0.867953  1
  B  B1  1  0.067287  0.708209  0.132047  1
  B  B2  1  0.458209  0.826163  0.140922  1
  B  B3  1  0.685240  0.317287  0.859078  1
  B  B4  1  0.958209  0.817287  0.632047  1
  B  B5  1  0.567287  0.435240  0.359078  1
  B  B6  1  0.076163  0.208209  0.640922  1
  B  B7  1  0.185240  0.326163  0.367953  1
  B  B8  1  0.632876  0.869056  0.959559  1
  B  B9  1  0.909497  0.673317  0.040441  1
  B  B10  1  0.423317  0.882876  0.263820  1
  B  B11  1  0.619056  0.159497  0.736180  1
  B  B12  1  0.923317  0.659497  0.540441  1
  B  B13  1  0.409497  0.369056  0.236180  1
  B  B14  1  0.132877  0.173317  0.763820  1
  B  B15  1  0.119056  0.382876  0.459559  1
  B  B16  1  0.528632  0.724735  0.812837  1
  B  B17  1  0.911899  0.715795  0.187163  1
  B  B18  1  0.465795  0.778632  0.303896  1
  B  B19  1  0.474735  0.161899  0.696104  1
  B  B20  1  0.965795  0.661899  0.687163  1
  B  B21  1  0.411899  0.224735  0.196104  1
  B  B22  1  0.028632  0.215795  0.803896  1
  B  B23  1  0.974735  0.278632  0.312837  1
  B  B24  1  0.350068  0.726051  0.693798  1
  B  B25  1  0.032253  0.656270  0.306202  1
  B  B26  1  0.406270  0.600068  0.124017  1
  B  B27  1  0.476051  0.282253  0.875983  1
  B  B28  1  0.906270  0.782253  0.806202  1
  B  B29  1  0.532253  0.226051  0.375983  1
  B  B30  1  0.850068  0.156270  0.624017  1
  B  B31  1  0.976051  0.100068  0.193798  1
  B  B32  1  0.310686  0.872198  0.746032  1
  B  B33  1  0.126166  0.564654  0.253968  1
  B  B34  1  0.314654  0.560686  0.938488  1
  B  B35  1  0.622198  0.376166  0.061512  1
  B  B36  1  0.814654  0.876166  0.753968  1
  B  B37  1  0.626166  0.372198  0.561512  1
  B  B38  1  0.810686  0.064654  0.438488  1
  B  B39  1  0.122198  0.060686  0.246032  1
  B  B40  1  0.398861  0.936600  0.750302  1
  B  B41  1  0.186297  0.648559  0.249698  1
  B  B42  1  0.398559  0.648861  0.962262  1
  B  B43  1  0.686600  0.436297  0.037738  1
  B  B44  1  0.898559  0.936297  0.749698  1
  B  B45  1  0.686297  0.436600  0.537738  1
  B  B46  1  0.898861  0.148559  0.462262  1
  B  B47  1  0.186600  0.148861  0.250302  1
  B  B48  1  0.587546  0.776146  0.775239  1
  B  B49  1  0.000907  0.812306  0.224761  1
  B  B50  1  0.562306  0.837546  0.311399  1
  B  B51  1  0.526146  0.250907  0.688601  1
  B  B52  1  0.062306  0.750907  0.724761  1
  B  B53  1  0.500907  0.276146  0.188601  1
  B  B54  1  0.087546  0.312306  0.811399  1
  B  B55  1  0.026146  0.337546  0.275239  1
  B  B56  1  0.433556  0.690971  0.631875  1
  B  B57  1  0.059096  0.801681  0.368125  1
  B  B58  1  0.551681  0.683556  0.242584  1
  B  B59  1  0.440971  0.309096  0.757416  1
  B  B60  1  0.051681  0.809096  0.868125  1
  B  B61  1  0.559096  0.190971  0.257416  1
  B  B62  1  0.933556  0.301681  0.742584  1
  B  B63  1  0.940971  0.183556  0.131875  1
  B  B64  1  0.315052  0.777929  0.592806  1
  B  B65  1  0.185124  0.722246  0.407194  1
  B  B66  1  0.472246  0.565052  0.037122  1
  B  B67  1  0.527929  0.435124  0.962878  1
  B  B68  1  0.972246  0.935124  0.907194  1
  B  B69  1  0.685124  0.277929  0.462878  1
  B  B70  1  0.815052  0.222246  0.537122  1
  B  B71  1  0.027929  0.065052  0.092806  1
  B  B72  1  0.463559  0.822690  0.666044  1
  B  B73  1  0.156645  0.797514  0.333956  1
  B  B74  1  0.547514  0.713559  0.140869  1
  B  B75  1  0.572690  0.406645  0.859131  1
  B  B76  1  0.047514  0.906645  0.833956  1
  B  B77  1  0.656645  0.322690  0.359131  1
  B  B78  1  0.963559  0.297514  0.640869  1
  B  B79  1  0.072690  0.213559  0.166044  1
  H  H80  1  0.586861  0.971522  0.985291  1
  H  H81  1  0.986231  0.601570  0.014709  1
  H  H82  1  0.351570  0.836861  0.115339  1
  H  H83  1  0.721522  0.236231  0.884661  1
  H  H84  1  0.851570  0.736231  0.514709  1
  H  H85  1  0.486231  0.471522  0.384661  1
  H  H86  1  0.086861  0.101570  0.615339  1
  H  H87  1  0.221522  0.336861  0.485291  1
  H  H88  1  0.552969  0.826115  0.946315  1
  H  H89  1  0.879800  0.606654  0.053685  1
  H  H90  1  0.356654  0.802969  0.226854  1
  H  H91  1  0.576115  0.129800  0.773146  1
  H  H92  1  0.856654  0.629800  0.553685  1
  H  H93  1  0.379800  0.326115  0.273146  1
  H  H94  1  0.052969  0.106654  0.726854  1
  H  H95  1  0.076115  0.302969  0.446315  1
  H  H96  1  0.368338  0.827071  0.823275  1
  H  H97  1  0.003795  0.545063  0.176725  1
  H  H98  1  0.295063  0.618338  0.041267  1
  H  H99  1  0.577071  0.253795  0.958733  1
  H  H100  1  0.795063  0.753795  0.676725  1
  H  H101  1  0.503795  0.327071  0.458733  1
  H  H102  1  0.868338  0.045063  0.541267  1
  H  H103  1  0.077071  0.118338  0.323275  1
  H  H104  1  0.403056  0.972137  0.862772  1
  H  H105  1  0.109364  0.540284  0.137228  1
  H  H106  1  0.290284  0.653056  0.930920  1
  H  H107  1  0.722137  0.359364  0.069080  1
  H  H108  1  0.790284  0.859364  0.637228  1
  H  H109  1  0.609364  0.472137  0.569080  1
  H  H110  1  0.903056  0.040284  0.430920  1
  H  H111  1  0.222137  0.153056  0.362772  1
  H  H112  1  0.643207  0.016506  0.925391  1
  H  H113  1  0.091116  0.717816  0.074609  1
  H  H114  1  0.467816  0.893207  0.126701  1
  H  H115  1  0.766506  0.341116  0.873299  1
  H  H116  1  0.967816  0.841116  0.574609  1
  H  H117  1  0.591116  0.516506  0.373299  1
  H  H118  1  0.143207  0.217816  0.626701  1
  H  H119  1  0.266506  0.393207  0.425391  1
  H  H120  1  0.731778  0.901243  0.080255  1
  H  H121  1  0.820987  0.651522  0.919745  1
  H  H122  1  0.401522  0.981778  0.330535  1
  H  H123  1  0.651243  0.070987  0.669465  1
  H  H124  1  0.901522  0.570987  0.419745  1
  H  H125  1  0.661941  0.733275  0.754903  1
  H  H126  1  0.320987  0.401243  0.169465  1
  H  H127  1  0.151243  0.481778  0.580255  1
  H  H128  1  0.559526  0.647482  0.828515  1
  H  H129  1  0.818967  0.731011  0.171485  1
  H  H130  1  0.481011  0.809526  0.412044  1
  H  H131  1  0.397482  0.068967  0.587956  1
  H  H132  1  0.981011  0.568967  0.671485  1
  H  H133  1  0.318967  0.147482  0.087956  1
  H  H134  1  0.059526  0.231011  0.912044  1
  H  H135  1  0.897482  0.309526  0.328515  1
  H  H136  1  0.285198  0.649703  0.646425  1
  H  H137  1  0.003278  0.638773  0.353575  1
  H  H138  1  0.388773  0.535198  0.135495  1
  H  H139  1  0.399703  0.253278  0.864505  1
  H  H140  1  0.888773  0.753278  0.853575  1
  H  H141  1  0.503278  0.149703  0.364505  1
  H  H142  1  0.785198  0.138773  0.635495  1
  H  H143  1  0.899703  0.035198  0.146425  1
  H  H144  1  0.226747  0.908251  0.748490  1
  H  H145  1  0.159761  0.478257  0.251510  1
  H  H146  1  0.228257  0.476747  0.818495  1
  H  H147  1  0.658251  0.409761  0.181505  1
  H  H148  1  0.728257  0.909761  0.751510  1
  H  H149  1  0.659761  0.408251  0.681505  1
  H  H150  1  0.726747  0.978257  0.318495  1
  H  H151  1  0.158251  0.976747  0.248490  1
  H  H152  1  0.369370  0.019114  0.744136  1
  H  H153  1  0.274978  0.625233  0.255864  1
  H  H154  1  0.375233  0.619370  0.850256  1
  H  H155  1  0.769114  0.524978  0.149744  1
  H  H156  1  0.875233  0.024978  0.755864  1
  H  H157  1  0.774978  0.519114  0.649744  1
  H  H158  1  0.869370  0.125233  0.350256  1
  H  H159  1  0.269114  0.119370  0.244136  1
  H  H160  1  0.076855  0.217373  0.089814  1
  H  H161  1  0.967373  0.377558  0.640517  1
  H  H162  1  0.737041  0.326855  0.359483  1
  H  H163  1  0.127558  0.987041  0.910186  1
  H  H164  1  0.576855  0.487041  0.859483  1
  H  H165  1  0.627558  0.717373  0.140517  1
  H  H166  1  0.237041  0.877558  0.410186  1
  H  H167  1  0.467373  0.826855  0.589814  1
  H  H168  1  0.833605  0.161612  0.026141  1
  H  H169  1  0.911612  0.385471  0.828007  1
  H  H170  1  0.557464  0.083605  0.171993  1
  H  H171  1  0.135471  0.807464  0.973859  1
  H  H172  1  0.333605  0.307464  0.671993  1
  H  H173  1  0.635471  0.661612  0.328007  1
  H  H174  1  0.057464  0.885471  0.473859  1
  H  H175  1  0.411612  0.583605  0.526141  1
  H  H176  1  0.983275  0.411941  0.254903  1
  H  H177  1  0.161941  0.407038  0.928666  1
  H  H178  1  0.478372  0.233275  0.071334  1
  H  H179  1  0.157038  0.728372  0.745097  1
  H  H180  1  0.483275  0.228372  0.571334  1
  H  H181  1  0.657038  0.911941  0.428666  1
  H  H182  1  0.978372  0.907038  0.245097  1
  H  H183  1  0.231778  0.151522  0.830535  1
