# generated using pymatgen
data_Na5VO5
_symmetry_space_group_name_H-M   'P 1'
_cell_length_a   5.85936517
_cell_length_b   6.67406596
_cell_length_c   16.29542889
_cell_angle_alpha   90.00000000
_cell_angle_beta   90.00000000
_cell_angle_gamma   90.00000000
_symmetry_Int_Tables_number   1
_chemical_formula_structural   Na5VO5
_chemical_formula_sum   'Na20 V4 O20'
_cell_volume   637.24561408
_cell_formula_units_Z   4
loop_
 _symmetry_equiv_pos_site_id
 _symmetry_equiv_pos_as_xyz
  1  'x, y, z'
loop_
 _atom_site_type_symbol
 _atom_site_label
 _atom_site_symmetry_multiplicity
 _atom_site_fract_x
 _atom_site_fract_y
 _atom_site_fract_z
 _atom_site_occupancy
  Na  Na0  1  0.511260  0.000000  0.250000  1
  Na  Na1  1  0.488740  0.500000  0.750000  1
  Na  Na2  1  0.511260  0.500000  0.250000  1
  Na  Na3  1  0.488740  0.000000  0.750000  1
  Na  Na4  1  0.210012  0.986060  0.082767  1
  Na  Na5  1  0.210012  0.013940  0.417233  1
  Na  Na6  1  0.789988  0.486060  0.917233  1
  Na  Na7  1  0.789988  0.513940  0.582767  1
  Na  Na8  1  0.789988  0.013940  0.917233  1
  Na  Na9  1  0.789988  0.986060  0.582767  1
  Na  Na10  1  0.210012  0.513940  0.082767  1
  Na  Na11  1  0.210012  0.486060  0.417233  1
  Na  Na12  1  0.999990  0.750000  0.231018  1
  Na  Na13  1  0.999990  0.250000  0.268982  1
  Na  Na14  1  0.000010  0.250000  0.768982  1
  Na  Na15  1  0.000010  0.750000  0.731018  1
  Na  Na16  1  0.665109  0.750000  0.084562  1
  Na  Na17  1  0.665109  0.250000  0.415438  1
  Na  Na18  1  0.334891  0.250000  0.915438  1
  Na  Na19  1  0.334891  0.750000  0.584562  1
  V  V20  1  0.222713  0.250000  0.593417  1
  V  V21  1  0.222713  0.750000  0.906583  1
  V  V22  1  0.777287  0.750000  0.406583  1
  V  V23  1  0.777287  0.250000  0.093417  1
  O  O24  1  0.649619  0.250000  0.827052  1
  O  O25  1  0.649619  0.750000  0.672948  1
  O  O26  1  0.350381  0.250000  0.327052  1
  O  O27  1  0.350381  0.750000  0.172948  1
  O  O28  1  0.835817  0.461729  0.153545  1
  O  O29  1  0.835817  0.538271  0.346455  1
  O  O30  1  0.164183  0.961729  0.846455  1
  O  O31  1  0.164183  0.038271  0.653545  1
  O  O32  1  0.164183  0.538271  0.846455  1
  O  O33  1  0.164183  0.461729  0.653545  1
  O  O34  1  0.835817  0.038271  0.153545  1
  O  O35  1  0.835817  0.961729  0.346455  1
  O  O36  1  0.970204  0.250000  0.011857  1
  O  O37  1  0.970204  0.750000  0.488143  1
  O  O38  1  0.029796  0.750000  0.988143  1
  O  O39  1  0.029796  0.250000  0.511857  1
  O  O40  1  0.497679  0.250000  0.055755  1
  O  O41  1  0.497679  0.750000  0.444245  1
  O  O42  1  0.502321  0.750000  0.944245  1
  O  O43  1  0.502321  0.250000  0.555755  1
