# generated using pymatgen
data_TlCu7S4
_symmetry_space_group_name_H-M   'P 1'
_cell_length_a   10.21747340
_cell_length_b   10.21747340
_cell_length_c   7.57818010
_cell_angle_alpha   90.00000000
_cell_angle_beta   90.00000000
_cell_angle_gamma   90.00000000
_symmetry_Int_Tables_number   1
_chemical_formula_structural   TlCu7S4
_chemical_formula_sum   'Tl4 Cu28 S16'
_cell_volume   791.13746944
_cell_formula_units_Z   4
loop_
 _symmetry_equiv_pos_site_id
 _symmetry_equiv_pos_as_xyz
  1  'x, y, z'
loop_
 _atom_site_type_symbol
 _atom_site_label
 _atom_site_symmetry_multiplicity
 _atom_site_fract_x
 _atom_site_fract_y
 _atom_site_fract_z
 _atom_site_occupancy
  Tl  Tl0  1  0.000000  0.500000  0.378198  1
  Tl  Tl1  1  0.500000  0.000000  0.621802  1
  Tl  Tl2  1  0.000000  0.500000  0.883341  1
  Tl  Tl3  1  0.500000  0.000000  0.116659  1
  Cu  Cu4  1  0.750000  0.250000  0.000000  1
  Cu  Cu5  1  0.750000  0.750000  0.000000  1
  Cu  Cu6  1  0.250000  0.250000  0.000000  1
  Cu  Cu7  1  0.250000  0.750000  0.000000  1
  Cu  Cu8  1  0.697369  0.726475  0.344743  1
  Cu  Cu9  1  0.226475  0.802631  0.344743  1
  Cu  Cu10  1  0.773525  0.197369  0.344743  1
  Cu  Cu11  1  0.302631  0.273525  0.344743  1
  Cu  Cu12  1  0.802631  0.773525  0.655257  1
  Cu  Cu13  1  0.273525  0.697369  0.655257  1
  Cu  Cu14  1  0.726475  0.302631  0.655257  1
  Cu  Cu15  1  0.197369  0.226475  0.655257  1
  Cu  Cu16  1  0.132462  0.978674  0.119416  1
  Cu  Cu17  1  0.478674  0.367538  0.119416  1
  Cu  Cu18  1  0.521326  0.632462  0.119416  1
  Cu  Cu19  1  0.867538  0.021326  0.119416  1
  Cu  Cu20  1  0.367538  0.521326  0.880584  1
  Cu  Cu21  1  0.021326  0.132462  0.880584  1
  Cu  Cu22  1  0.978674  0.867538  0.880584  1
  Cu  Cu23  1  0.632462  0.478674  0.880584  1
  Cu  Cu24  1  0.359936  0.532463  0.387065  1
  Cu  Cu25  1  0.032463  0.140064  0.387065  1
  Cu  Cu26  1  0.967537  0.859936  0.387065  1
  Cu  Cu27  1  0.640064  0.467537  0.387065  1
  Cu  Cu28  1  0.140064  0.967537  0.612935  1
  Cu  Cu29  1  0.467537  0.359936  0.612935  1
  Cu  Cu30  1  0.532463  0.640064  0.612935  1
  Cu  Cu31  1  0.859936  0.032463  0.612935  1
  S  S32  1  0.939898  0.239280  0.133231  1
  S  S33  1  0.739280  0.560102  0.133231  1
  S  S34  1  0.260720  0.439898  0.133231  1
  S  S35  1  0.060102  0.760720  0.133231  1
  S  S36  1  0.560102  0.260720  0.866769  1
  S  S37  1  0.760720  0.939898  0.866769  1
  S  S38  1  0.239280  0.060102  0.866769  1
  S  S39  1  0.439898  0.739280  0.866769  1
  S  S40  1  0.561861  0.259698  0.368894  1
  S  S41  1  0.759698  0.938139  0.368894  1
  S  S42  1  0.240302  0.061861  0.368894  1
  S  S43  1  0.438139  0.740302  0.368894  1
  S  S44  1  0.938139  0.240302  0.631106  1
  S  S45  1  0.740302  0.561861  0.631106  1
  S  S46  1  0.259698  0.438139  0.631106  1
  S  S47  1  0.061861  0.759698  0.631106  1
