# generated using pymatgen
data_LaNiGe2
_symmetry_space_group_name_H-M   'P 1'
_cell_length_a   8.75669934
_cell_length_b   8.75669934
_cell_length_c   4.27044578
_cell_angle_alpha   90.00000000
_cell_angle_beta   90.00000000
_cell_angle_gamma   151.42258553
_symmetry_Int_Tables_number   1
_chemical_formula_structural   LaNiGe2
_chemical_formula_sum   'La2 Ni2 Ge4'
_cell_volume   156.63758853
_cell_formula_units_Z   2
loop_
 _symmetry_equiv_pos_site_id
 _symmetry_equiv_pos_as_xyz
  1  'x, y, z'
loop_
 _atom_site_type_symbol
 _atom_site_label
 _atom_site_symmetry_multiplicity
 _atom_site_fract_x
 _atom_site_fract_y
 _atom_site_fract_z
 _atom_site_occupancy
  La  La0  1  0.390948  0.609052  0.250000  1
  La  La1  1  0.609052  0.390948  0.750000  1
  Ni  Ni2  1  0.817962  0.182038  0.750000  1
  Ni  Ni3  1  0.182038  0.817962  0.250000  1
  Ge  Ge4  1  0.750218  0.249782  0.250000  1
  Ge  Ge5  1  0.249782  0.750218  0.750000  1
  Ge  Ge6  1  0.957024  0.042976  0.750000  1
  Ge  Ge7  1  0.042976  0.957024  0.250000  1
