# generated using pymatgen
data_Cr(SiO3)2
_symmetry_space_group_name_H-M   'P 1'
_cell_length_a   6.50918532
_cell_length_b   6.50918532
_cell_length_c   5.33865642
_cell_angle_alpha   74.80622685
_cell_angle_beta   105.19377315
_cell_angle_gamma   95.53808917
_symmetry_Int_Tables_number   1
_chemical_formula_structural   Cr(SiO3)2
_chemical_formula_sum   'Cr2 Si4 O12'
_cell_volume   210.56516095
_cell_formula_units_Z   2
loop_
 _symmetry_equiv_pos_site_id
 _symmetry_equiv_pos_as_xyz
  1  'x, y, z'
loop_
 _atom_site_type_symbol
 _atom_site_label
 _atom_site_symmetry_multiplicity
 _atom_site_fract_x
 _atom_site_fract_y
 _atom_site_fract_z
 _atom_site_occupancy
  Cr  Cr0  1  0.899393  0.899393  0.250000  1
  Cr  Cr1  1  0.100607  0.100607  0.750000  1
  Si  Si2  1  0.785392  0.387119  0.255144  1
  Si  Si3  1  0.214608  0.612881  0.744856  1
  Si  Si4  1  0.387119  0.785392  0.244856  1
  Si  Si5  1  0.612881  0.214608  0.755144  1
  O  O6  1  0.364838  0.647168  0.536493  1
  O  O7  1  0.902202  0.620859  0.221147  1
  O  O8  1  0.184977  0.955593  0.127436  1
  O  O9  1  0.635162  0.352832  0.463507  1
  O  O10  1  0.097798  0.379141  0.778853  1
  O  O11  1  0.815023  0.044407  0.872564  1
  O  O12  1  0.620859  0.902202  0.278853  1
  O  O13  1  0.955593  0.184977  0.372564  1
  O  O14  1  0.352832  0.635162  0.036493  1
  O  O15  1  0.647168  0.364838  0.963507  1
  O  O16  1  0.044407  0.815023  0.627436  1
  O  O17  1  0.379141  0.097798  0.721147  1
