# generated using pymatgen
data_LiN3
_symmetry_space_group_name_H-M   'P 1'
_cell_length_a   3.30036540
_cell_length_b   3.30036540
_cell_length_c   4.98858303
_cell_angle_alpha   75.18678033
_cell_angle_beta   104.81321967
_cell_angle_gamma   118.92089369
_symmetry_Int_Tables_number   1
_chemical_formula_structural   LiN3
_chemical_formula_sum   'Li1 N3'
_cell_volume   45.41731900
_cell_formula_units_Z   1
loop_
 _symmetry_equiv_pos_site_id
 _symmetry_equiv_pos_as_xyz
  1  'x, y, z'
loop_
 _atom_site_type_symbol
 _atom_site_label
 _atom_site_symmetry_multiplicity
 _atom_site_fract_x
 _atom_site_fract_y
 _atom_site_fract_z
 _atom_site_occupancy
  Li  Li0  1  0.000000  0.000000  0.000000  1
  N  N1  1  0.394189  0.605811  0.256707  1
  N  N2  1  0.605811  0.394189  0.743293  1
  N  N3  1  0.500000  0.500000  0.500000  1
