# generated using pymatgen
data_Cu2P7
_symmetry_space_group_name_H-M   'P 1'
_cell_length_a   7.32894142
_cell_length_b   7.32894142
_cell_length_c   14.68773976
_cell_angle_alpha   74.78956563
_cell_angle_beta   105.21043437
_cell_angle_gamma   120.35371199
_symmetry_Int_Tables_number   1
_chemical_formula_structural   Cu2P7
_chemical_formula_sum   'Cu8 P28'
_cell_volume   648.90678403
_cell_formula_units_Z   4
loop_
 _symmetry_equiv_pos_site_id
 _symmetry_equiv_pos_as_xyz
  1  'x, y, z'
loop_
 _atom_site_type_symbol
 _atom_site_label
 _atom_site_symmetry_multiplicity
 _atom_site_fract_x
 _atom_site_fract_y
 _atom_site_fract_z
 _atom_site_occupancy
  Cu  Cu0  1  0.281300  0.718700  0.572818  1
  Cu  Cu1  1  0.718700  0.281300  0.427182  1
  Cu  Cu2  1  0.383330  0.616670  0.206018  1
  Cu  Cu3  1  0.616670  0.383330  0.793982  1
  Cu  Cu4  1  0.156514  0.843486  0.967267  1
  Cu  Cu5  1  0.843486  0.156514  0.032733  1
  Cu  Cu6  1  0.034124  0.965876  0.353740  1
  Cu  Cu7  1  0.965876  0.034124  0.646260  1
  P  P8  1  0.958805  0.556664  0.622777  1
  P  P9  1  0.556664  0.958805  0.377223  1
  P  P10  1  0.041195  0.443336  0.377223  1
  P  P11  1  0.443336  0.041195  0.622777  1
  P  P12  1  0.970944  0.559790  0.776455  1
  P  P13  1  0.559790  0.970944  0.223545  1
  P  P14  1  0.029056  0.440210  0.223545  1
  P  P15  1  0.440210  0.029056  0.776455  1
  P  P16  1  0.775995  0.224005  0.593275  1
  P  P17  1  0.224005  0.775995  0.406725  1
  P  P18  1  0.894688  0.105312  0.203472  1
  P  P19  1  0.105312  0.894688  0.796528  1
  P  P20  1  0.653338  0.346662  0.956613  1
  P  P21  1  0.346662  0.653338  0.043387  1
  P  P22  1  0.528090  0.471910  0.355049  1
  P  P23  1  0.471910  0.528090  0.644951  1
  P  P24  1  0.642605  0.827286  0.981132  1
  P  P25  1  0.827286  0.642605  0.018868  1
  P  P26  1  0.357395  0.172714  0.018868  1
  P  P27  1  0.172714  0.357395  0.981132  1
  P  P28  1  0.272327  0.235185  0.578425  1
  P  P29  1  0.235185  0.272327  0.421575  1
  P  P30  1  0.727673  0.764815  0.421575  1
  P  P31  1  0.764815  0.727673  0.578425  1
  P  P32  1  0.538059  0.775136  0.829546  1
  P  P33  1  0.775136  0.538059  0.170454  1
  P  P34  1  0.461941  0.224864  0.170454  1
  P  P35  1  0.224864  0.461941  0.829546  1
