# generated using pymatgen
data_Na8Si7O18
_symmetry_space_group_name_H-M   'P 1'
_cell_length_a   7.25900772
_cell_length_b   7.25900772
_cell_length_c   7.25900772
_cell_angle_alpha   87.18636619
_cell_angle_beta   87.18636619
_cell_angle_gamma   87.18636619
_symmetry_Int_Tables_number   1
_chemical_formula_structural   Na8Si7O18
_chemical_formula_sum   'Na8 Si7 O18'
_cell_volume   381.16069521
_cell_formula_units_Z   1
loop_
 _symmetry_equiv_pos_site_id
 _symmetry_equiv_pos_as_xyz
  1  'x, y, z'
loop_
 _atom_site_type_symbol
 _atom_site_label
 _atom_site_symmetry_multiplicity
 _atom_site_fract_x
 _atom_site_fract_y
 _atom_site_fract_z
 _atom_site_occupancy
  Na  Na0  1  0.763805  0.763805  0.763805  1
  Na  Na1  1  0.236195  0.236195  0.236195  1
  Na  Na2  1  0.000000  0.500000  0.500000  1
  Na  Na3  1  0.500000  0.000000  0.500000  1
  Na  Na4  1  0.500000  0.500000  0.000000  1
  Na  Na5  1  0.500000  0.000000  0.000000  1
  Na  Na6  1  0.000000  0.500000  0.000000  1
  Na  Na7  1  0.000000  0.000000  0.500000  1
  Si  Si8  1  0.000000  0.000000  0.000000  1
  Si  Si9  1  0.727926  0.260890  0.727926  1
  Si  Si10  1  0.727926  0.727926  0.260890  1
  Si  Si11  1  0.260890  0.727926  0.727926  1
  Si  Si12  1  0.272074  0.739110  0.272074  1
  Si  Si13  1  0.272074  0.272074  0.739110  1
  Si  Si14  1  0.739110  0.272074  0.272074  1
  O  O15  1  0.765582  0.500000  0.234418  1
  O  O16  1  0.500000  0.234418  0.765582  1
  O  O17  1  0.234418  0.765582  0.500000  1
  O  O18  1  0.234418  0.500000  0.765582  1
  O  O19  1  0.500000  0.765582  0.234418  1
  O  O20  1  0.765582  0.234418  0.500000  1
  O  O21  1  0.918735  0.169075  0.169075  1
  O  O22  1  0.169075  0.169075  0.918735  1
  O  O23  1  0.169075  0.918735  0.169075  1
  O  O24  1  0.081265  0.830925  0.830925  1
  O  O25  1  0.830925  0.830925  0.081265  1
  O  O26  1  0.830925  0.081265  0.830925  1
  O  O27  1  0.544193  0.212589  0.212588  1
  O  O28  1  0.212589  0.212589  0.544193  1
  O  O29  1  0.212589  0.544193  0.212588  1
  O  O30  1  0.787412  0.455807  0.787411  1
  O  O31  1  0.787412  0.787412  0.455807  1
  O  O32  1  0.455807  0.787412  0.787411  1
