# generated using pymatgen
data_Y6RuI10
_symmetry_space_group_name_H-M   'P 1'
_cell_length_a   7.76045851
_cell_length_b   9.73435652
_cell_length_c   9.76451833
_cell_angle_alpha   107.02499758
_cell_angle_beta   96.84976011
_cell_angle_gamma   104.60744624
_symmetry_Int_Tables_number   1
_chemical_formula_structural   Y6RuI10
_chemical_formula_sum   'Y6 Ru1 I10'
_cell_volume   667.48813119
_cell_formula_units_Z   1
loop_
 _symmetry_equiv_pos_site_id
 _symmetry_equiv_pos_as_xyz
  1  'x, y, z'
loop_
 _atom_site_type_symbol
 _atom_site_label
 _atom_site_symmetry_multiplicity
 _atom_site_fract_x
 _atom_site_fract_y
 _atom_site_fract_z
 _atom_site_occupancy
  Y  Y0  1  0.113468  0.041882  0.762159  1
  Y  Y1  1  0.886532  0.958118  0.237841  1
  Y  Y2  1  0.969590  0.279539  0.082077  1
  Y  Y3  1  0.647914  0.873979  0.831662  1
  Y  Y4  1  0.352086  0.126021  0.168338  1
  Y  Y5  1  0.030410  0.720461  0.917923  1
  Ru  Ru6  1  0.000000  0.000000  0.000000  1
  I  I7  1  0.350414  0.450456  0.272156  1
  I  I8  1  0.649586  0.549544  0.727844  1
  I  I9  1  0.742902  0.912644  0.538575  1
  I  I10  1  0.086314  0.370866  0.820167  1
  I  I11  1  0.913686  0.629134  0.179833  1
  I  I12  1  0.454880  0.816701  0.092371  1
  I  I13  1  0.545120  0.183299  0.907629  1
  I  I14  1  0.783141  0.257803  0.345629  1
  I  I15  1  0.216859  0.742197  0.654371  1
  I  I16  1  0.257098  0.087356  0.461425  1
