# generated using pymatgen
data_LiCuPO4
_symmetry_space_group_name_H-M   'P 1'
_cell_length_a   7.31753549
_cell_length_b   6.13408751
_cell_length_c   5.60369656
_cell_angle_alpha   76.98513378
_cell_angle_beta   54.75962615
_cell_angle_gamma   48.25524006
_symmetry_Int_Tables_number   1
_chemical_formula_structural   LiCuPO4
_chemical_formula_sum   'Li2 Cu2 P2 O8'
_cell_volume   147.97028568
_cell_formula_units_Z   2
loop_
 _symmetry_equiv_pos_site_id
 _symmetry_equiv_pos_as_xyz
  1  'x, y, z'
loop_
 _atom_site_type_symbol
 _atom_site_label
 _atom_site_symmetry_multiplicity
 _atom_site_fract_x
 _atom_site_fract_y
 _atom_site_fract_z
 _atom_site_occupancy
  Li  Li0  1  0.433247  0.566753  0.433247  1
  Li  Li1  1  0.683247  0.816753  0.683247  1
  Cu  Cu2  1  0.031004  0.468996  0.031004  1
  Cu  Cu3  1  0.781004  0.218996  0.781004  1
  P  P4  1  0.132946  0.867054  0.132946  1
  P  P5  1  0.382946  0.117054  0.382946  1
  O  O6  1  0.514196  0.151351  0.054512  1
  O  O7  1  0.054512  0.279941  0.514196  1
  O  O8  1  0.970059  0.195488  0.098649  1
  O  O9  1  0.098649  0.735804  0.970059  1
  O  O10  1  0.381728  0.265373  0.577260  1
  O  O11  1  0.474361  0.672740  0.984627  1
  O  O12  1  0.984627  0.868272  0.474361  1
  O  O13  1  0.577260  0.775639  0.381728  1
