# generated using pymatgen
data_Pr(WO4)2
_symmetry_space_group_name_H-M   'P 1'
_cell_length_a   7.42951191
_cell_length_b   7.49806413
_cell_length_c   7.60349168
_cell_angle_alpha   113.43312703
_cell_angle_beta   116.10330096
_cell_angle_gamma   91.50359236
_symmetry_Int_Tables_number   1
_chemical_formula_structural   Pr(WO4)2
_chemical_formula_sum   'Pr2 W4 O16'
_cell_volume   338.42710069
_cell_formula_units_Z   2
loop_
 _symmetry_equiv_pos_site_id
 _symmetry_equiv_pos_as_xyz
  1  'x, y, z'
loop_
 _atom_site_type_symbol
 _atom_site_label
 _atom_site_symmetry_multiplicity
 _atom_site_fract_x
 _atom_site_fract_y
 _atom_site_fract_z
 _atom_site_occupancy
  Pr  Pr0  1  0.827364  0.712595  0.548919  1
  Pr  Pr1  1  0.172636  0.287405  0.451081  1
  W  W2  1  0.351394  0.895040  0.708986  1
  W  W3  1  0.273122  0.293590  0.031477  1
  W  W4  1  0.726878  0.706410  0.968523  1
  W  W5  1  0.648606  0.104960  0.291014  1
  O  O6  1  0.145364  0.996056  0.807929  1
  O  O7  1  0.168642  0.647180  0.550318  1
  O  O8  1  0.600463  0.820927  0.726196  1
  O  O9  1  0.289757  0.002530  0.523557  1
  O  O10  1  0.075905  0.324044  0.112027  1
  O  O11  1  0.479778  0.525022  0.252603  1
  O  O12  1  0.516133  0.161718  0.998327  1
  O  O13  1  0.802771  0.641501  0.194858  1
  O  O14  1  0.197229  0.358499  0.805142  1
  O  O15  1  0.483867  0.838282  0.001673  1
  O  O16  1  0.520222  0.474978  0.747397  1
  O  O17  1  0.924095  0.675956  0.887973  1
  O  O18  1  0.710243  0.997470  0.476443  1
  O  O19  1  0.399537  0.179073  0.273804  1
  O  O20  1  0.831358  0.352820  0.449682  1
  O  O21  1  0.854636  0.003944  0.192071  1
