# generated using pymatgen
data_LuGeRu
_symmetry_space_group_name_H-M   'P 1'
_cell_length_a   4.29969112
_cell_length_b   6.90726001
_cell_length_c   7.33111539
_cell_angle_alpha   90.00000000
_cell_angle_beta   90.00000000
_cell_angle_gamma   90.00000000
_symmetry_Int_Tables_number   1
_chemical_formula_structural   LuGeRu
_chemical_formula_sum   'Lu4 Ge4 Ru4'
_cell_volume   217.72741566
_cell_formula_units_Z   4
loop_
 _symmetry_equiv_pos_site_id
 _symmetry_equiv_pos_as_xyz
  1  'x, y, z'
loop_
 _atom_site_type_symbol
 _atom_site_label
 _atom_site_symmetry_multiplicity
 _atom_site_fract_x
 _atom_site_fract_y
 _atom_site_fract_z
 _atom_site_occupancy
  Lu  Lu0  1  0.250000  0.494653  0.691037  1
  Lu  Lu1  1  0.750000  0.005347  0.191037  1
  Lu  Lu2  1  0.750000  0.505347  0.308963  1
  Lu  Lu3  1  0.250000  0.994653  0.808963  1
  Ge  Ge4  1  0.750000  0.706531  0.888587  1
  Ge  Ge5  1  0.250000  0.793469  0.388587  1
  Ge  Ge6  1  0.250000  0.293469  0.111413  1
  Ge  Ge7  1  0.750000  0.206531  0.611413  1
  Ru  Ru8  1  0.750000  0.842225  0.561515  1
  Ru  Ru9  1  0.750000  0.342225  0.938485  1
  Ru  Ru10  1  0.250000  0.657775  0.061515  1
  Ru  Ru11  1  0.250000  0.157775  0.438485  1
