# generated using pymatgen
data_YSiRh2
_symmetry_space_group_name_H-M   'P 1'
_cell_length_a   5.56161714
_cell_length_b   5.56161714
_cell_length_c   15.16086848
_cell_angle_alpha   90.00000000
_cell_angle_beta   90.00000000
_cell_angle_gamma   120.00000000
_symmetry_Int_Tables_number   1
_chemical_formula_structural   YSiRh2
_chemical_formula_sum   'Y6 Si6 Rh12'
_cell_volume   406.12234925
_cell_formula_units_Z   6
loop_
 _symmetry_equiv_pos_site_id
 _symmetry_equiv_pos_as_xyz
  1  'x, y, z'
loop_
 _atom_site_type_symbol
 _atom_site_label
 _atom_site_symmetry_multiplicity
 _atom_site_fract_x
 _atom_site_fract_y
 _atom_site_fract_z
 _atom_site_occupancy
  Y  Y0  1  0.666667  0.333333  0.963056  1
  Y  Y1  1  0.666667  0.333333  0.536944  1
  Y  Y2  1  0.333333  0.666667  0.036944  1
  Y  Y3  1  0.666667  0.333333  0.750000  1
  Y  Y4  1  0.333333  0.666667  0.463056  1
  Y  Y5  1  0.333333  0.666667  0.250000  1
  Si  Si6  1  0.666667  0.333333  0.250000  1
  Si  Si7  1  0.000000  0.000000  0.500000  1
  Si  Si8  1  0.000000  0.000000  0.250000  1
  Si  Si9  1  0.000000  0.000000  0.750000  1
  Si  Si10  1  0.333333  0.666667  0.750000  1
  Si  Si11  1  0.000000  0.000000  0.000000  1
  Rh  Rh12  1  0.166512  0.333024  0.869116  1
  Rh  Rh13  1  0.166512  0.333024  0.630884  1
  Rh  Rh14  1  0.666976  0.833488  0.869116  1
  Rh  Rh15  1  0.333024  0.166512  0.369116  1
  Rh  Rh16  1  0.833488  0.666976  0.369116  1
  Rh  Rh17  1  0.833488  0.166512  0.369116  1
  Rh  Rh18  1  0.833488  0.166512  0.130884  1
  Rh  Rh19  1  0.333024  0.166512  0.130884  1
  Rh  Rh20  1  0.666976  0.833488  0.630884  1
  Rh  Rh21  1  0.166512  0.833488  0.630884  1
  Rh  Rh22  1  0.833488  0.666976  0.130884  1
  Rh  Rh23  1  0.166512  0.833488  0.869116  1
