# generated using pymatgen
data_NaSbCl6
_symmetry_space_group_name_H-M   'P 1'
_cell_length_a   6.61256105
_cell_length_b   6.61256105
_cell_length_c   10.94956754
_cell_angle_alpha   90.00000000
_cell_angle_beta   90.00000000
_cell_angle_gamma   90.00000000
_symmetry_Int_Tables_number   1
_chemical_formula_structural   NaSbCl6
_chemical_formula_sum   'Na2 Sb2 Cl12'
_cell_volume   478.78039213
_cell_formula_units_Z   2
loop_
 _symmetry_equiv_pos_site_id
 _symmetry_equiv_pos_as_xyz
  1  'x, y, z'
loop_
 _atom_site_type_symbol
 _atom_site_label
 _atom_site_symmetry_multiplicity
 _atom_site_fract_x
 _atom_site_fract_y
 _atom_site_fract_z
 _atom_site_occupancy
  Na  Na0  1  0.000000  0.000000  0.750000  1
  Na  Na1  1  0.000000  0.000000  0.250000  1
  Sb  Sb2  1  0.500000  0.000000  0.500000  1
  Sb  Sb3  1  0.000000  0.500000  0.000000  1
  Cl  Cl4  1  0.790386  0.200936  0.000000  1
  Cl  Cl5  1  0.799064  0.790386  0.500000  1
  Cl  Cl6  1  0.200936  0.209614  0.500000  1
  Cl  Cl7  1  0.209614  0.799064  0.000000  1
  Cl  Cl8  1  0.211540  0.350892  0.155849  1
  Cl  Cl9  1  0.649108  0.211540  0.655849  1
  Cl  Cl10  1  0.350892  0.788460  0.655849  1
  Cl  Cl11  1  0.788460  0.649108  0.155849  1
  Cl  Cl12  1  0.788460  0.649108  0.844151  1
  Cl  Cl13  1  0.350892  0.788460  0.344151  1
  Cl  Cl14  1  0.649108  0.211540  0.344151  1
  Cl  Cl15  1  0.211540  0.350892  0.844151  1
