# generated using pymatgen
data_Hg3AsClO4
_symmetry_space_group_name_H-M   'P 1'
_cell_length_a   8.64546900
_cell_length_b   8.64546900
_cell_length_c   8.64546900
_cell_angle_alpha   90.00000000
_cell_angle_beta   90.00000000
_cell_angle_gamma   90.00000000
_symmetry_Int_Tables_number   1
_chemical_formula_structural   Hg3AsClO4
_chemical_formula_sum   'Hg12 As4 Cl4 O16'
_cell_volume   646.19809542
_cell_formula_units_Z   4
loop_
 _symmetry_equiv_pos_site_id
 _symmetry_equiv_pos_as_xyz
  1  'x, y, z'
loop_
 _atom_site_type_symbol
 _atom_site_label
 _atom_site_symmetry_multiplicity
 _atom_site_fract_x
 _atom_site_fract_y
 _atom_site_fract_z
 _atom_site_occupancy
  Hg  Hg0  1  0.551052  0.897530  0.853512  1
  Hg  Hg1  1  0.602470  0.146488  0.051052  1
  Hg  Hg2  1  0.897530  0.853512  0.551052  1
  Hg  Hg3  1  0.146488  0.051052  0.602470  1
  Hg  Hg4  1  0.102470  0.353512  0.948948  1
  Hg  Hg5  1  0.051052  0.602470  0.146488  1
  Hg  Hg6  1  0.353512  0.948948  0.102470  1
  Hg  Hg7  1  0.948948  0.102470  0.353512  1
  Hg  Hg8  1  0.853512  0.551052  0.897530  1
  Hg  Hg9  1  0.646488  0.448948  0.397530  1
  Hg  Hg10  1  0.448948  0.397530  0.646488  1
  Hg  Hg11  1  0.397530  0.646488  0.448948  1
  As  As12  1  0.020279  0.479721  0.520279  1
  As  As13  1  0.520279  0.020279  0.479721  1
  As  As14  1  0.979721  0.979721  0.979721  1
  As  As15  1  0.479721  0.520279  0.020279  1
  Cl  Cl16  1  0.226644  0.226644  0.226644  1
  Cl  Cl17  1  0.273356  0.773356  0.726644  1
  Cl  Cl18  1  0.726644  0.273356  0.773356  1
  Cl  Cl19  1  0.773356  0.726644  0.273356  1
  O  O20  1  0.399506  0.898998  0.372196  1
  O  O21  1  0.899506  0.601002  0.627804  1
  O  O22  1  0.600494  0.398998  0.127804  1
  O  O23  1  0.601002  0.627804  0.899506  1
  O  O24  1  0.127804  0.600494  0.398998  1
  O  O25  1  0.627804  0.899506  0.601002  1
  O  O26  1  0.898998  0.372196  0.399506  1
  O  O27  1  0.372196  0.399506  0.898998  1
  O  O28  1  0.398998  0.127804  0.600494  1
  O  O29  1  0.100494  0.101002  0.872196  1
  O  O30  1  0.872196  0.100494  0.101002  1
  O  O31  1  0.134296  0.365704  0.634296  1
  O  O32  1  0.365704  0.634296  0.134296  1
  O  O33  1  0.634296  0.134296  0.365704  1
  O  O34  1  0.865704  0.865704  0.865704  1
  O  O35  1  0.101002  0.872196  0.100494  1
