# generated using pymatgen
data_Y4RuI5
_symmetry_space_group_name_H-M   'P 1'
_cell_length_a   12.43559644
_cell_length_b   12.43559644
_cell_length_c   18.35521984
_cell_angle_alpha   90.00000000
_cell_angle_beta   90.00000000
_cell_angle_gamma   90.00000000
_symmetry_Int_Tables_number   1
_chemical_formula_structural   Y4RuI5
_chemical_formula_sum   'Y32 Ru8 I40'
_cell_volume   2838.52569656
_cell_formula_units_Z   8
loop_
 _symmetry_equiv_pos_site_id
 _symmetry_equiv_pos_as_xyz
  1  'x, y, z'
loop_
 _atom_site_type_symbol
 _atom_site_label
 _atom_site_symmetry_multiplicity
 _atom_site_fract_x
 _atom_site_fract_y
 _atom_site_fract_z
 _atom_site_occupancy
  Y  Y0  1  0.887372  0.112628  0.217955  1
  Y  Y1  1  0.387372  0.387372  0.717955  1
  Y  Y2  1  0.612628  0.612628  0.717955  1
  Y  Y3  1  0.887372  0.887372  0.782045  1
  Y  Y4  1  0.112628  0.112628  0.782045  1
  Y  Y5  1  0.112628  0.887372  0.217955  1
  Y  Y6  1  0.612628  0.387372  0.282045  1
  Y  Y7  1  0.387372  0.612628  0.282045  1
  Y  Y8  1  0.377604  0.622396  0.584488  1
  Y  Y9  1  0.877604  0.877604  0.084488  1
  Y  Y10  1  0.122396  0.122396  0.084488  1
  Y  Y11  1  0.377604  0.377604  0.415512  1
  Y  Y12  1  0.622396  0.622396  0.415512  1
  Y  Y13  1  0.622396  0.377604  0.584488  1
  Y  Y14  1  0.122396  0.877604  0.915512  1
  Y  Y15  1  0.877604  0.122396  0.915512  1
  Y  Y16  1  0.680025  0.114847  0.075260  1
  Y  Y17  1  0.385153  0.180025  0.575260  1
  Y  Y18  1  0.614847  0.819975  0.575260  1
  Y  Y19  1  0.680025  0.885153  0.924740  1
  Y  Y20  1  0.319975  0.114847  0.924740  1
  Y  Y21  1  0.319975  0.885153  0.075260  1
  Y  Y22  1  0.614847  0.180025  0.424740  1
  Y  Y23  1  0.385153  0.819975  0.424740  1
  Y  Y24  1  0.819975  0.385153  0.424740  1
  Y  Y25  1  0.114847  0.319975  0.924740  1
  Y  Y26  1  0.885153  0.680025  0.924740  1
  Y  Y27  1  0.819975  0.614847  0.575260  1
  Y  Y28  1  0.180025  0.385153  0.575260  1
  Y  Y29  1  0.180025  0.614847  0.424740  1
  Y  Y30  1  0.885153  0.319975  0.075260  1
  Y  Y31  1  0.114847  0.680025  0.075260  1
  Ru  Ru32  1  0.895831  0.104169  0.070364  1
  Ru  Ru33  1  0.395831  0.395831  0.570364  1
  Ru  Ru34  1  0.604169  0.604169  0.570364  1
  Ru  Ru35  1  0.895831  0.895831  0.929636  1
  Ru  Ru36  1  0.104169  0.104169  0.929636  1
  Ru  Ru37  1  0.104169  0.895831  0.070364  1
  Ru  Ru38  1  0.604169  0.395831  0.429636  1
  Ru  Ru39  1  0.395831  0.604169  0.429636  1
  I  I40  1  0.605587  0.872509  0.088641  1
  I  I41  1  0.627491  0.105587  0.588641  1
  I  I42  1  0.372509  0.894413  0.588641  1
  I  I43  1  0.605587  0.127491  0.911359  1
  I  I44  1  0.394413  0.872509  0.911359  1
  I  I45  1  0.394413  0.127491  0.088641  1
  I  I46  1  0.372509  0.105587  0.411359  1
  I  I47  1  0.627491  0.894413  0.411359  1
  I  I48  1  0.894413  0.627491  0.411359  1
  I  I49  1  0.872509  0.394413  0.911359  1
  I  I50  1  0.127491  0.605587  0.911359  1
  I  I51  1  0.894413  0.372509  0.588641  1
  I  I52  1  0.105587  0.627491  0.588641  1
  I  I53  1  0.105587  0.372509  0.411359  1
  I  I54  1  0.127491  0.394413  0.088641  1
  I  I55  1  0.872509  0.605587  0.088641  1
  I  I56  1  0.638005  0.361995  0.090481  1
  I  I57  1  0.138005  0.138005  0.590481  1
  I  I58  1  0.861995  0.861995  0.590481  1
  I  I59  1  0.638005  0.638005  0.909519  1
  I  I60  1  0.361995  0.361995  0.909519  1
  I  I61  1  0.361995  0.638005  0.090481  1
  I  I62  1  0.861995  0.138005  0.409519  1
  I  I63  1  0.138005  0.861995  0.409519  1
  I  I64  1  0.369717  0.630283  0.760949  1
  I  I65  1  0.869717  0.869717  0.260949  1
  I  I66  1  0.130283  0.130283  0.260949  1
  I  I67  1  0.369717  0.369717  0.239051  1
  I  I68  1  0.630283  0.630283  0.239051  1
  I  I69  1  0.630283  0.369717  0.760949  1
  I  I70  1  0.130283  0.869717  0.739051  1
  I  I71  1  0.869717  0.130283  0.739051  1
  I  I72  1  0.629888  0.129888  0.250000  1
  I  I73  1  0.370112  0.129888  0.750000  1
  I  I74  1  0.629888  0.870112  0.750000  1
  I  I75  1  0.370112  0.870112  0.250000  1
  I  I76  1  0.870112  0.370112  0.250000  1
  I  I77  1  0.129888  0.370112  0.750000  1
  I  I78  1  0.870112  0.629888  0.750000  1
  I  I79  1  0.129888  0.629888  0.250000  1
