# generated using pymatgen
data_CaIn4Pd
_symmetry_space_group_name_H-M   'P 1'
_cell_length_a   8.75471056
_cell_length_b   8.75471056
_cell_length_c   7.64444681
_cell_angle_alpha   90.00000000
_cell_angle_beta   90.00000000
_cell_angle_gamma   150.08098117
_symmetry_Int_Tables_number   1
_chemical_formula_structural   CaIn4Pd
_chemical_formula_sum   'Ca2 In8 Pd2'
_cell_volume   292.23668699
_cell_formula_units_Z   2
loop_
 _symmetry_equiv_pos_site_id
 _symmetry_equiv_pos_as_xyz
  1  'x, y, z'
loop_
 _atom_site_type_symbol
 _atom_site_label
 _atom_site_symmetry_multiplicity
 _atom_site_fract_x
 _atom_site_fract_y
 _atom_site_fract_z
 _atom_site_occupancy
  Ca  Ca0  1  0.127542  0.872458  0.750000  1
  Ca  Ca1  1  0.872458  0.127542  0.250000  1
  In  In2  1  0.317285  0.682715  0.950302  1
  In  In3  1  0.682715  0.317285  0.049698  1
  In  In4  1  0.682715  0.317285  0.450302  1
  In  In5  1  0.317285  0.682715  0.549698  1
  In  In6  1  0.934244  0.065756  0.750000  1
  In  In7  1  0.065756  0.934244  0.250000  1
  In  In8  1  0.500000  0.500000  0.000000  1
  In  In9  1  0.500000  0.500000  0.500000  1
  Pd  Pd10  1  0.772538  0.227462  0.750000  1
  Pd  Pd11  1  0.227462  0.772538  0.250000  1
