# generated using pymatgen
data_Ag2BiO3
_symmetry_space_group_name_H-M   'P 1'
_cell_length_a   6.16039952
_cell_length_b   6.34977235
_cell_length_c   9.76762013
_cell_angle_alpha   90.00000000
_cell_angle_beta   90.00000000
_cell_angle_gamma   90.00000000
_symmetry_Int_Tables_number   1
_chemical_formula_structural   Ag2BiO3
_chemical_formula_sum   'Ag8 Bi4 O12'
_cell_volume   382.08131073
_cell_formula_units_Z   4
loop_
 _symmetry_equiv_pos_site_id
 _symmetry_equiv_pos_as_xyz
  1  'x, y, z'
loop_
 _atom_site_type_symbol
 _atom_site_label
 _atom_site_symmetry_multiplicity
 _atom_site_fract_x
 _atom_site_fract_y
 _atom_site_fract_z
 _atom_site_occupancy
  Ag  Ag0  1  0.970546  0.751547  0.251954  1
  Ag  Ag1  1  0.746591  0.000382  0.496422  1
  Ag  Ag2  1  0.246591  0.499618  0.996422  1
  Ag  Ag3  1  0.753409  0.500382  0.996422  1
  Ag  Ag4  1  0.529454  0.251547  0.751954  1
  Ag  Ag5  1  0.470546  0.748453  0.751954  1
  Ag  Ag6  1  0.029454  0.248453  0.251954  1
  Ag  Ag7  1  0.253409  0.999618  0.496422  1
  Bi  Bi8  1  0.000000  0.000000  0.896741  1
  Bi  Bi9  1  0.500000  0.500000  0.396741  1
  Bi  Bi10  1  0.000000  0.500000  0.604156  1
  Bi  Bi11  1  0.500000  0.000000  0.104156  1
  O  O12  1  0.891076  0.223088  0.744859  1
  O  O13  1  0.108924  0.776912  0.744859  1
  O  O14  1  0.608924  0.723088  0.244859  1
  O  O15  1  0.391076  0.276912  0.244859  1
  O  O16  1  0.694740  0.819387  0.932871  1
  O  O17  1  0.305260  0.180613  0.932871  1
  O  O18  1  0.805260  0.319387  0.432871  1
  O  O19  1  0.194740  0.680613  0.432871  1
  O  O20  1  0.323321  0.316247  0.558375  1
  O  O21  1  0.823321  0.183753  0.058375  1
  O  O22  1  0.176679  0.816247  0.058375  1
  O  O23  1  0.676679  0.683753  0.558375  1
