# generated using pymatgen
data_Ga(Ag3Se2)3
_symmetry_space_group_name_H-M   'P 1'
_cell_length_a   11.32240034
_cell_length_b   11.32240034
_cell_length_c   11.32240034
_cell_angle_alpha   90.00000000
_cell_angle_beta   90.00000000
_cell_angle_gamma   90.00000000
_symmetry_Int_Tables_number   1
_chemical_formula_structural   Ga(Ag3Se2)3
_chemical_formula_sum   'Ga4 Ag36 Se24'
_cell_volume   1451.49491966
_cell_formula_units_Z   4
loop_
 _symmetry_equiv_pos_site_id
 _symmetry_equiv_pos_as_xyz
  1  'x, y, z'
loop_
 _atom_site_type_symbol
 _atom_site_label
 _atom_site_symmetry_multiplicity
 _atom_site_fract_x
 _atom_site_fract_y
 _atom_site_fract_z
 _atom_site_occupancy
  Ga  Ga0  1  0.508435  0.508435  0.508435  1
  Ga  Ga1  1  0.991565  0.491565  0.008435  1
  Ga  Ga2  1  0.008435  0.991565  0.491565  1
  Ga  Ga3  1  0.491565  0.008435  0.991565  1
  Ag  Ag4  1  0.824636  0.070036  0.134494  1
  Ag  Ag5  1  0.134494  0.824636  0.070036  1
  Ag  Ag6  1  0.070036  0.134494  0.824636  1
  Ag  Ag7  1  0.429964  0.865506  0.324636  1
  Ag  Ag8  1  0.634494  0.675364  0.929964  1
  Ag  Ag9  1  0.929964  0.634494  0.675364  1
  Ag  Ag10  1  0.365506  0.175364  0.570036  1
  Ag  Ag11  1  0.865506  0.324636  0.429964  1
  Ag  Ag12  1  0.570036  0.365506  0.175364  1
  Ag  Ag13  1  0.324636  0.429964  0.865506  1
  Ag  Ag14  1  0.175364  0.570036  0.365506  1
  Ag  Ag15  1  0.675364  0.929964  0.634494  1
  Ag  Ag16  1  0.226958  0.232349  0.030316  1
  Ag  Ag17  1  0.030316  0.226958  0.232349  1
  Ag  Ag18  1  0.232349  0.030316  0.226958  1
  Ag  Ag19  1  0.267651  0.969684  0.726958  1
  Ag  Ag20  1  0.530316  0.273042  0.767651  1
  Ag  Ag21  1  0.767651  0.530316  0.273042  1
  Ag  Ag22  1  0.469684  0.773042  0.732349  1
  Ag  Ag23  1  0.969684  0.726958  0.267651  1
  Ag  Ag24  1  0.732349  0.469684  0.773042  1
  Ag  Ag25  1  0.726958  0.267651  0.969684  1
  Ag  Ag26  1  0.773042  0.732349  0.469684  1
  Ag  Ag27  1  0.273042  0.767651  0.530316  1
  Ag  Ag28  1  0.829771  0.037710  0.862811  1
  Ag  Ag29  1  0.862811  0.829771  0.037710  1
  Ag  Ag30  1  0.037710  0.862811  0.829771  1
  Ag  Ag31  1  0.462290  0.137189  0.329771  1
  Ag  Ag32  1  0.362811  0.670229  0.962290  1
  Ag  Ag33  1  0.962290  0.362811  0.670229  1
  Ag  Ag34  1  0.637189  0.170229  0.537710  1
  Ag  Ag35  1  0.137189  0.329771  0.462290  1
  Ag  Ag36  1  0.537710  0.637189  0.170229  1
  Ag  Ag37  1  0.329771  0.462290  0.137189  1
  Ag  Ag38  1  0.170229  0.537710  0.637189  1
  Ag  Ag39  1  0.670229  0.962290  0.362811  1
  Se  Se40  1  0.021543  0.021543  0.021543  1
  Se  Se41  1  0.478457  0.978457  0.521543  1
  Se  Se42  1  0.521543  0.478457  0.978457  1
  Se  Se43  1  0.978457  0.521543  0.478457  1
  Se  Se44  1  0.631011  0.631011  0.631011  1
  Se  Se45  1  0.868989  0.368989  0.131011  1
  Se  Se46  1  0.131011  0.868989  0.368989  1
  Se  Se47  1  0.368989  0.131011  0.868989  1
  Se  Se48  1  0.262177  0.262177  0.262177  1
  Se  Se49  1  0.237823  0.737823  0.762177  1
  Se  Se50  1  0.762177  0.237823  0.737823  1
  Se  Se51  1  0.737823  0.762177  0.237823  1
  Se  Se52  1  0.398920  0.626940  0.366305  1
  Se  Se53  1  0.366305  0.398920  0.626940  1
  Se  Se54  1  0.626940  0.366305  0.398920  1
  Se  Se55  1  0.873060  0.633695  0.898920  1
  Se  Se56  1  0.866305  0.101080  0.373060  1
  Se  Se57  1  0.373060  0.866305  0.101080  1
  Se  Se58  1  0.133695  0.601080  0.126940  1
  Se  Se59  1  0.633695  0.898920  0.873060  1
  Se  Se60  1  0.126940  0.133695  0.601080  1
  Se  Se61  1  0.898920  0.873060  0.633695  1
  Se  Se62  1  0.601080  0.126940  0.133695  1
  Se  Se63  1  0.101080  0.373060  0.866305  1
