# generated using pymatgen
data_Ce2Pd2Pb
_symmetry_space_group_name_H-M   'P 1'
_cell_length_a   7.95074965
_cell_length_b   7.95074965
_cell_length_c   3.77888761
_cell_angle_alpha   90.00000000
_cell_angle_beta   90.00000000
_cell_angle_gamma   90.00000000
_symmetry_Int_Tables_number   1
_chemical_formula_structural   Ce2Pd2Pb
_chemical_formula_sum   'Ce4 Pd4 Pb2'
_cell_volume   238.88018850
_cell_formula_units_Z   2
loop_
 _symmetry_equiv_pos_site_id
 _symmetry_equiv_pos_as_xyz
  1  'x, y, z'
loop_
 _atom_site_type_symbol
 _atom_site_label
 _atom_site_symmetry_multiplicity
 _atom_site_fract_x
 _atom_site_fract_y
 _atom_site_fract_z
 _atom_site_occupancy
  Ce  Ce0  1  0.675629  0.175629  0.500000  1
  Ce  Ce1  1  0.175629  0.324371  0.500000  1
  Ce  Ce2  1  0.824371  0.675629  0.500000  1
  Ce  Ce3  1  0.324371  0.824371  0.500000  1
  Pd  Pd4  1  0.374236  0.125764  0.000000  1
  Pd  Pd5  1  0.125764  0.625764  0.000000  1
  Pd  Pd6  1  0.625764  0.874236  0.000000  1
  Pd  Pd7  1  0.874236  0.374236  0.000000  1
  Pb  Pb8  1  0.000000  0.000000  0.000000  1
  Pb  Pb9  1  0.500000  0.500000  0.000000  1
