# generated using pymatgen
data_Sb11F43
_symmetry_space_group_name_H-M   'P 1'
_cell_length_a   11.77274427
_cell_length_b   9.28907341
_cell_length_c   16.95782799
_cell_angle_alpha   90.00000000
_cell_angle_beta   106.46190682
_cell_angle_gamma   90.00000000
_symmetry_Int_Tables_number   1
_chemical_formula_structural   Sb11F43
_chemical_formula_sum   'Sb22 F86'
_cell_volume   1778.45434173
_cell_formula_units_Z   2
loop_
 _symmetry_equiv_pos_site_id
 _symmetry_equiv_pos_as_xyz
  1  'x, y, z'
loop_
 _atom_site_type_symbol
 _atom_site_label
 _atom_site_symmetry_multiplicity
 _atom_site_fract_x
 _atom_site_fract_y
 _atom_site_fract_z
 _atom_site_occupancy
  Sb  Sb0  1  0.070385  0.328296  0.267123  1
  Sb  Sb1  1  0.929615  0.828296  0.232877  1
  Sb  Sb2  1  0.929615  0.671704  0.732877  1
  Sb  Sb3  1  0.070385  0.171704  0.767123  1
  Sb  Sb4  1  0.339446  0.234023  0.152382  1
  Sb  Sb5  1  0.660554  0.734023  0.347618  1
  Sb  Sb6  1  0.660554  0.765977  0.847618  1
  Sb  Sb7  1  0.339446  0.265977  0.652382  1
  Sb  Sb8  1  0.843487  0.485405  0.039036  1
  Sb  Sb9  1  0.156513  0.985405  0.460964  1
  Sb  Sb10  1  0.156513  0.514595  0.960964  1
  Sb  Sb11  1  0.843487  0.014595  0.539036  1
  Sb  Sb12  1  0.000000  0.000000  0.000000  1
  Sb  Sb13  1  0.000000  0.500000  0.500000  1
  Sb  Sb14  1  0.725170  0.248378  0.248378  1
  Sb  Sb15  1  0.274830  0.748378  0.251622  1
  Sb  Sb16  1  0.274830  0.751622  0.751622  1
  Sb  Sb17  1  0.725170  0.251622  0.748378  1
  Sb  Sb18  1  0.562549  0.738757  0.076638  1
  Sb  Sb19  1  0.437451  0.238757  0.423362  1
  Sb  Sb20  1  0.437451  0.261243  0.923362  1
  Sb  Sb21  1  0.562549  0.761243  0.576638  1
  F  F22  1  0.028478  0.132300  0.231157  1
  F  F23  1  0.971522  0.632300  0.268843  1
  F  F24  1  0.971522  0.867700  0.768843  1
  F  F25  1  0.028478  0.367700  0.731157  1
  F  F26  1  0.975247  0.390846  0.150350  1
  F  F27  1  0.024753  0.890846  0.349650  1
  F  F28  1  0.024753  0.609154  0.849650  1
  F  F29  1  0.975247  0.109154  0.650350  1
  F  F30  1  0.208424  0.281979  0.207232  1
  F  F31  1  0.791576  0.781979  0.292768  1
  F  F32  1  0.791576  0.718021  0.792768  1
  F  F33  1  0.208424  0.218021  0.707232  1
  F  F34  1  0.409635  0.417140  0.185550  1
  F  F35  1  0.590365  0.917140  0.314450  1
  F  F36  1  0.590365  0.582860  0.814450  1
  F  F37  1  0.409635  0.082860  0.685550  1
  F  F38  1  0.776469  0.641994  0.943904  1
  F  F39  1  0.223531  0.141994  0.556096  1
  F  F40  1  0.223531  0.358006  0.056096  1
  F  F41  1  0.776469  0.858006  0.443904  1
  F  F42  1  0.097356  0.157066  0.398084  1
  F  F43  1  0.902644  0.657066  0.101916  1
  F  F44  1  0.902644  0.842934  0.601916  1
  F  F45  1  0.097356  0.342934  0.898084  1
  F  F46  1  0.000000  0.500000  0.000000  1
  F  F47  1  0.000000  0.000000  0.500000  1
  F  F48  1  0.928520  0.959208  0.086043  1
  F  F49  1  0.071480  0.459208  0.413957  1
  F  F50  1  0.071480  0.040792  0.913957  1
  F  F51  1  0.928520  0.540792  0.586043  1
  F  F52  1  0.057000  0.805786  0.003144  1
  F  F53  1  0.943000  0.305786  0.496856  1
  F  F54  1  0.943000  0.194214  0.996856  1
  F  F55  1  0.057000  0.694214  0.503144  1
  F  F56  1  0.146259  0.056598  0.079118  1
  F  F57  1  0.853741  0.556598  0.420882  1
  F  F58  1  0.853741  0.943402  0.920882  1
  F  F59  1  0.146259  0.443402  0.579118  1
  F  F60  1  0.889551  0.324726  0.289375  1
  F  F61  1  0.110449  0.824726  0.210625  1
  F  F62  1  0.110449  0.675274  0.710625  1
  F  F63  1  0.889551  0.175274  0.789375  1
  F  F64  1  0.568070  0.174207  0.201820  1
  F  F65  1  0.431930  0.674207  0.298180  1
  F  F66  1  0.431930  0.825793  0.798180  1
  F  F67  1  0.568070  0.325793  0.701820  1
  F  F68  1  0.736353  0.294405  0.140560  1
  F  F69  1  0.263647  0.794405  0.359440  1
  F  F70  1  0.263647  0.705595  0.859440  1
  F  F71  1  0.736353  0.205595  0.640560  1
  F  F72  1  0.671298  0.437635  0.261178  1
  F  F73  1  0.328702  0.937635  0.238822  1
  F  F74  1  0.328702  0.562365  0.738822  1
  F  F75  1  0.671298  0.062365  0.761178  1
  F  F76  1  0.730111  0.202673  0.358547  1
  F  F77  1  0.269889  0.702673  0.141453  1
  F  F78  1  0.269889  0.797327  0.641453  1
  F  F79  1  0.730111  0.297327  0.858547  1
  F  F80  1  0.206455  0.563783  0.259603  1
  F  F81  1  0.793545  0.063783  0.240397  1
  F  F82  1  0.793545  0.436217  0.740397  1
  F  F83  1  0.206455  0.936217  0.759603  1
  F  F84  1  0.434840  0.237674  0.036964  1
  F  F85  1  0.565160  0.737674  0.463036  1
  F  F86  1  0.565160  0.762326  0.963036  1
  F  F87  1  0.434840  0.262326  0.536964  1
  F  F88  1  0.434899  0.607145  0.042706  1
  F  F89  1  0.565101  0.107145  0.457294  1
  F  F90  1  0.565101  0.392855  0.957294  1
  F  F91  1  0.434899  0.892855  0.542706  1
  F  F92  1  0.675023  0.578951  0.083560  1
  F  F93  1  0.324977  0.078951  0.416440  1
  F  F94  1  0.324977  0.421049  0.916440  1
  F  F95  1  0.675023  0.921049  0.583560  1
  F  F96  1  0.428251  0.204003  0.309132  1
  F  F97  1  0.571749  0.704003  0.190868  1
  F  F98  1  0.571749  0.795997  0.690868  1
  F  F99  1  0.428251  0.295997  0.809132  1
  F  F100  1  0.699466  0.859213  0.111132  1
  F  F101  1  0.300534  0.359213  0.388868  1
  F  F102  1  0.300534  0.140787  0.888868  1
  F  F103  1  0.699466  0.640787  0.611132  1
  F  F104  1  0.459256  0.897523  0.069154  1
  F  F105  1  0.540744  0.397523  0.430846  1
  F  F106  1  0.540744  0.102477  0.930846  1
  F  F107  1  0.459256  0.602477  0.569154  1
