# generated using pymatgen
data_Sb(PO3)4
_symmetry_space_group_name_H-M   'P 1'
_cell_length_a   7.21408752
_cell_length_b   13.00646106
_cell_length_c   11.64837285
_cell_angle_alpha   90.00000000
_cell_angle_beta   126.28438577
_cell_angle_gamma   90.00000000
_symmetry_Int_Tables_number   1
_chemical_formula_structural   Sb(PO3)4
_chemical_formula_sum   'Sb4 P16 O48'
_cell_volume   881.02681506
_cell_formula_units_Z   4
loop_
 _symmetry_equiv_pos_site_id
 _symmetry_equiv_pos_as_xyz
  1  'x, y, z'
loop_
 _atom_site_type_symbol
 _atom_site_label
 _atom_site_symmetry_multiplicity
 _atom_site_fract_x
 _atom_site_fract_y
 _atom_site_fract_z
 _atom_site_occupancy
  Sb  Sb0  1  0.976843  0.224252  0.982595  1
  Sb  Sb1  1  0.976843  0.275748  0.482595  1
  Sb  Sb2  1  0.023157  0.775748  0.017405  1
  Sb  Sb3  1  0.023157  0.724252  0.517405  1
  P  P4  1  0.831016  0.869900  0.697243  1
  P  P5  1  0.059752  0.592616  0.786054  1
  P  P6  1  0.498027  0.613118  0.259471  1
  P  P7  1  0.831016  0.630100  0.197243  1
  P  P8  1  0.392742  0.110175  0.775626  1
  P  P9  1  0.392742  0.389825  0.275626  1
  P  P10  1  0.940248  0.092616  0.713946  1
  P  P11  1  0.501973  0.386882  0.740529  1
  P  P12  1  0.607258  0.889825  0.224374  1
  P  P13  1  0.168984  0.130100  0.302757  1
  P  P14  1  0.168984  0.369900  0.802757  1
  P  P15  1  0.059752  0.907384  0.286054  1
  P  P16  1  0.501973  0.113118  0.240529  1
  P  P17  1  0.607258  0.610175  0.724374  1
  P  P18  1  0.498027  0.886882  0.759471  1
  P  P19  1  0.940248  0.407384  0.213946  1
  O  O20  1  0.161118  0.287366  0.889141  1
  O  O21  1  0.839271  0.519179  0.140162  1
  O  O22  1  0.838882  0.712634  0.110859  1
  O  O23  1  0.160729  0.480821  0.859838  1
  O  O24  1  0.161118  0.212634  0.389141  1
  O  O25  1  0.573633  0.504885  0.781576  1
  O  O26  1  0.213720  0.425320  0.308173  1
  O  O27  1  0.421914  0.364943  0.841082  1
  O  O28  1  0.121418  0.608673  0.682820  1
  O  O29  1  0.994909  0.371320  0.642174  1
  O  O30  1  0.145691  0.833906  0.406129  1
  O  O31  1  0.878582  0.391327  0.317180  1
  O  O32  1  0.005091  0.871320  0.857826  1
  O  O33  1  0.723324  0.682643  0.850384  1
  O  O34  1  0.280070  0.825905  0.701326  1
  O  O35  1  0.786280  0.574680  0.691827  1
  O  O36  1  0.391290  0.852454  0.090693  1
  O  O37  1  0.160729  0.019179  0.359838  1
  O  O38  1  0.854309  0.333906  0.093871  1
  O  O39  1  0.421914  0.135057  0.341082  1
  O  O40  1  0.426367  0.004885  0.718424  1
  O  O41  1  0.608710  0.147546  0.909307  1
  O  O42  1  0.878582  0.108673  0.817180  1
  O  O43  1  0.145691  0.666094  0.906129  1
  O  O44  1  0.838882  0.787366  0.610859  1
  O  O45  1  0.693618  0.623555  0.415482  1
  O  O46  1  0.573633  0.995115  0.281576  1
  O  O47  1  0.005091  0.628680  0.357826  1
  O  O48  1  0.276676  0.317357  0.149616  1
  O  O49  1  0.578086  0.864943  0.658918  1
  O  O50  1  0.854309  0.166094  0.593871  1
  O  O51  1  0.426367  0.495115  0.218424  1
  O  O52  1  0.693618  0.876445  0.915482  1
  O  O53  1  0.391290  0.647546  0.590693  1
  O  O54  1  0.786280  0.925320  0.191827  1
  O  O55  1  0.276676  0.182643  0.649616  1
  O  O56  1  0.719930  0.174095  0.298674  1
  O  O57  1  0.213720  0.074680  0.808173  1
  O  O58  1  0.839271  0.980821  0.640162  1
  O  O59  1  0.306382  0.376445  0.584518  1
  O  O60  1  0.280070  0.674095  0.201326  1
  O  O61  1  0.121418  0.891327  0.182820  1
  O  O62  1  0.719930  0.325905  0.798674  1
  O  O63  1  0.994909  0.128680  0.142174  1
  O  O64  1  0.306382  0.123555  0.084518  1
  O  O65  1  0.723324  0.817357  0.350384  1
  O  O66  1  0.578086  0.635057  0.158918  1
  O  O67  1  0.608710  0.352454  0.409307  1
