# generated using pymatgen
data_Al2S3
_symmetry_space_group_name_H-M   'P 1'
_cell_length_a   6.61014639
_cell_length_b   6.61014639
_cell_length_c   17.28142839
_cell_angle_alpha   90.00000000
_cell_angle_beta   90.00000000
_cell_angle_gamma   120.00000000
_symmetry_Int_Tables_number   1
_chemical_formula_structural   Al2S3
_chemical_formula_sum   'Al12 S18'
_cell_volume   653.93174789
_cell_formula_units_Z   6
loop_
 _symmetry_equiv_pos_site_id
 _symmetry_equiv_pos_as_xyz
  1  'x, y, z'
loop_
 _atom_site_type_symbol
 _atom_site_label
 _atom_site_symmetry_multiplicity
 _atom_site_fract_x
 _atom_site_fract_y
 _atom_site_fract_z
 _atom_site_occupancy
  Al  Al0  1  0.658099  0.009349  0.549478  1
  Al  Al1  1  0.699344  0.005785  0.183853  1
  Al  Al2  1  0.005785  0.306441  0.017186  1
  Al  Al3  1  0.990651  0.648750  0.882811  1
  Al  Al4  1  0.009349  0.351250  0.382811  1
  Al  Al5  1  0.994215  0.693559  0.517186  1
  Al  Al6  1  0.648750  0.658099  0.716145  1
  Al  Al7  1  0.693559  0.699344  0.350520  1
  Al  Al8  1  0.306441  0.300656  0.850520  1
  Al  Al9  1  0.300656  0.994215  0.683853  1
  Al  Al10  1  0.351250  0.341901  0.216145  1
  Al  Al11  1  0.341901  0.990651  0.049478  1
  S  S12  1  0.339628  0.342898  0.348290  1
  S  S13  1  0.665547  0.959101  0.040876  1
  S  S14  1  0.040899  0.706446  0.374209  1
  S  S15  1  0.653577  0.698991  0.494855  1
  S  S16  1  0.334453  0.040899  0.540876  1
  S  S17  1  0.660372  0.657102  0.848290  1
  S  S18  1  0.657102  0.996730  0.681624  1
  S  S19  1  0.301009  0.954586  0.828188  1
  S  S20  1  0.045414  0.346423  0.161521  1
  S  S21  1  0.954586  0.653577  0.661521  1
  S  S22  1  0.342898  0.003270  0.181624  1
  S  S23  1  0.698991  0.045414  0.328188  1
  S  S24  1  0.706446  0.665547  0.207543  1
  S  S25  1  0.003270  0.660372  0.014957  1
  S  S26  1  0.346423  0.301009  0.994855  1
  S  S27  1  0.959101  0.293554  0.874209  1
  S  S28  1  0.293554  0.334453  0.707543  1
  S  S29  1  0.996730  0.339628  0.514957  1
