# generated using pymatgen
data_Cu5Se2(ClO4)2
_symmetry_space_group_name_H-M   'P 1'
_cell_length_a   5.68093300
_cell_length_b   13.91040175
_cell_length_c   6.16116732
_cell_angle_alpha   90.00000000
_cell_angle_beta   95.10878879
_cell_angle_gamma   90.00000000
_symmetry_Int_Tables_number   1
_chemical_formula_structural   Cu5Se2(ClO4)2
_chemical_formula_sum   'Cu10 Se4 Cl4 O16'
_cell_volume   484.94628579
_cell_formula_units_Z   2
loop_
 _symmetry_equiv_pos_site_id
 _symmetry_equiv_pos_as_xyz
  1  'x, y, z'
loop_
 _atom_site_type_symbol
 _atom_site_label
 _atom_site_symmetry_multiplicity
 _atom_site_fract_x
 _atom_site_fract_y
 _atom_site_fract_z
 _atom_site_occupancy
  Cu  Cu0  1  0.446910  0.811952  0.566379  1
  Cu  Cu1  1  0.053090  0.311952  0.433621  1
  Cu  Cu2  1  0.553090  0.188048  0.433621  1
  Cu  Cu3  1  0.946910  0.688048  0.566379  1
  Cu  Cu4  1  0.009338  0.496548  0.741468  1
  Cu  Cu5  1  0.490662  0.996548  0.258532  1
  Cu  Cu6  1  0.990662  0.503452  0.258532  1
  Cu  Cu7  1  0.509338  0.003452  0.741468  1
  Cu  Cu8  1  0.500000  0.500000  0.500000  1
  Cu  Cu9  1  0.000000  0.000000  0.500000  1
  Se  Se10  1  0.099668  0.865489  0.933440  1
  Se  Se11  1  0.400332  0.365489  0.066560  1
  Se  Se12  1  0.900332  0.134511  0.066560  1
  Se  Se13  1  0.599668  0.634511  0.933440  1
  Cl  Cl14  1  0.728426  0.823958  0.329766  1
  Cl  Cl15  1  0.228426  0.676042  0.329766  1
  Cl  Cl16  1  0.271574  0.176042  0.670234  1
  Cl  Cl17  1  0.771574  0.323958  0.670234  1
  O  O18  1  0.686739  0.722103  0.750575  1
  O  O19  1  0.926838  0.943511  0.769320  1
  O  O20  1  0.573162  0.443511  0.230680  1
  O  O21  1  0.813261  0.222103  0.249425  1
  O  O22  1  0.818198  0.558771  0.495059  1
  O  O23  1  0.681802  0.058771  0.504941  1
  O  O24  1  0.181802  0.441229  0.504941  1
  O  O25  1  0.318198  0.941229  0.495059  1
  O  O26  1  0.868315  0.572804  0.974419  1
  O  O27  1  0.631685  0.072804  0.025581  1
  O  O28  1  0.131685  0.427196  0.025581  1
  O  O29  1  0.368315  0.927196  0.974419  1
  O  O30  1  0.426838  0.556489  0.769320  1
  O  O31  1  0.073162  0.056489  0.230680  1
  O  O32  1  0.186739  0.777897  0.750575  1
  O  O33  1  0.313261  0.277897  0.249425  1
