# generated using pymatgen
data_Mn3GeC
_symmetry_space_group_name_H-M   'P 1'
_cell_length_a   5.49506955
_cell_length_b   5.49506955
_cell_length_c   5.49506955
_cell_angle_alpha   122.57540342
_cell_angle_beta   122.57540342
_cell_angle_gamma   85.59430360
_symmetry_Int_Tables_number   1
_chemical_formula_structural   Mn3GeC
_chemical_formula_sum   'Mn6 Ge2 C2'
_cell_volume   112.39914912
_cell_formula_units_Z   2
loop_
 _symmetry_equiv_pos_site_id
 _symmetry_equiv_pos_as_xyz
  1  'x, y, z'
loop_
 _atom_site_type_symbol
 _atom_site_label
 _atom_site_symmetry_multiplicity
 _atom_site_fract_x
 _atom_site_fract_y
 _atom_site_fract_z
 _atom_site_occupancy
  Mn  Mn0  1  0.812857  0.687143  0.500000  1
  Mn  Mn1  1  0.687143  0.187143  0.874286  1
  Mn  Mn2  1  0.187143  0.312857  0.500000  1
  Mn  Mn3  1  0.250000  0.250000  0.000000  1
  Mn  Mn4  1  0.312857  0.812857  0.125714  1
  Mn  Mn5  1  0.750000  0.750000  0.000000  1
  Ge  Ge6  1  0.250000  0.750000  0.500000  1
  Ge  Ge7  1  0.750000  0.250000  0.500000  1
  C  C8  1  0.000000  0.000000  0.000000  1
  C  C9  1  0.500000  0.500000  0.000000  1
