# generated using pymatgen
data_P2SO3
_symmetry_space_group_name_H-M   'P 1'
_cell_length_a   11.72622318
_cell_length_b   6.75977313
_cell_length_c   12.15412732
_cell_angle_alpha   90.00000000
_cell_angle_beta   90.31834766
_cell_angle_gamma   90.00000000
_symmetry_Int_Tables_number   1
_chemical_formula_structural   P2SO3
_chemical_formula_sum   'P16 S8 O24'
_cell_volume   963.40157870
_cell_formula_units_Z   8
loop_
 _symmetry_equiv_pos_site_id
 _symmetry_equiv_pos_as_xyz
  1  'x, y, z'
loop_
 _atom_site_type_symbol
 _atom_site_label
 _atom_site_symmetry_multiplicity
 _atom_site_fract_x
 _atom_site_fract_y
 _atom_site_fract_z
 _atom_site_occupancy
  P  P0  1  0.821812  0.014274  0.903953  1
  P  P1  1  0.848846  0.859601  0.522699  1
  P  P2  1  0.151154  0.359601  0.977301  1
  P  P3  1  0.288181  0.468873  0.381474  1
  P  P4  1  0.151154  0.140399  0.477301  1
  P  P5  1  0.711819  0.531127  0.618526  1
  P  P6  1  0.288181  0.031127  0.881474  1
  P  P7  1  0.370804  0.247398  0.074759  1
  P  P8  1  0.848846  0.640399  0.022699  1
  P  P9  1  0.370804  0.252602  0.574759  1
  P  P10  1  0.821812  0.485726  0.403953  1
  P  P11  1  0.178188  0.514274  0.596047  1
  P  P12  1  0.629196  0.752602  0.925241  1
  P  P13  1  0.711819  0.968873  0.118526  1
  P  P14  1  0.629196  0.747398  0.425241  1
  P  P15  1  0.178188  0.985726  0.096047  1
  S  S16  1  0.895164  0.306464  0.307947  1
  S  S17  1  0.499568  0.657532  0.849382  1
  S  S18  1  0.104836  0.806464  0.192053  1
  S  S19  1  0.499568  0.842468  0.349382  1
  S  S20  1  0.500432  0.342468  0.150618  1
  S  S21  1  0.895164  0.193536  0.807947  1
  S  S22  1  0.104836  0.693536  0.692053  1
  S  S23  1  0.500432  0.157532  0.650618  1
  O  O24  1  0.895797  0.677922  0.438795  1
  O  O25  1  0.779977  0.398163  0.520688  1
  O  O26  1  0.704717  0.585380  0.355727  1
  O  O27  1  0.200284  0.223565  0.874773  1
  O  O28  1  0.704717  0.914620  0.855727  1
  O  O29  1  0.275220  0.410002  0.042333  1
  O  O30  1  0.608280  0.868325  0.039643  1
  O  O31  1  0.391720  0.131675  0.960357  1
  O  O32  1  0.220023  0.898163  0.979312  1
  O  O33  1  0.391720  0.368325  0.460357  1
  O  O34  1  0.220023  0.601837  0.479312  1
  O  O35  1  0.200284  0.276435  0.374773  1
  O  O36  1  0.724780  0.589998  0.957667  1
  O  O37  1  0.104203  0.322078  0.561205  1
  O  O38  1  0.724780  0.910002  0.457667  1
  O  O39  1  0.799716  0.723565  0.625227  1
  O  O40  1  0.295283  0.414620  0.644273  1
  O  O41  1  0.275220  0.089998  0.542333  1
  O  O42  1  0.895797  0.822078  0.938795  1
  O  O43  1  0.799716  0.776435  0.125227  1
  O  O44  1  0.104203  0.177922  0.061205  1
  O  O45  1  0.295283  0.085380  0.144273  1
  O  O46  1  0.608280  0.631675  0.539643  1
  O  O47  1  0.779977  0.101837  0.020688  1
