# generated using pymatgen
data_Bi2(PO4)3
_symmetry_space_group_name_H-M   'P 1'
_cell_length_a   9.14101799
_cell_length_b   9.12076589
_cell_length_c   15.47386373
_cell_angle_alpha   90.00000000
_cell_angle_beta   125.51126087
_cell_angle_gamma   90.00000000
_symmetry_Int_Tables_number   1
_chemical_formula_structural   Bi2(PO4)3
_chemical_formula_sum   'Bi8 P12 O48'
_cell_volume   1050.14622774
_cell_formula_units_Z   4
loop_
 _symmetry_equiv_pos_site_id
 _symmetry_equiv_pos_as_xyz
  1  'x, y, z'
loop_
 _atom_site_type_symbol
 _atom_site_label
 _atom_site_symmetry_multiplicity
 _atom_site_fract_x
 _atom_site_fract_y
 _atom_site_fract_z
 _atom_site_occupancy
  Bi  Bi0  1  0.131438  0.462194  0.881297  1
  Bi  Bi1  1  0.868562  0.962194  0.618703  1
  Bi  Bi2  1  0.629226  0.957932  0.878449  1
  Bi  Bi3  1  0.131438  0.037806  0.381297  1
  Bi  Bi4  1  0.868562  0.537806  0.118703  1
  Bi  Bi5  1  0.629226  0.542068  0.378449  1
  Bi  Bi6  1  0.370774  0.042068  0.121551  1
  Bi  Bi7  1  0.370774  0.457932  0.621551  1
  P  P8  1  0.049219  0.893406  0.148246  1
  P  P9  1  0.540577  0.252414  0.001535  1
  P  P10  1  0.250687  0.111708  0.652858  1
  P  P11  1  0.250687  0.388292  0.152858  1
  P  P12  1  0.459423  0.747586  0.998465  1
  P  P13  1  0.540577  0.247586  0.501535  1
  P  P14  1  0.049219  0.606594  0.648246  1
  P  P15  1  0.950781  0.393406  0.351754  1
  P  P16  1  0.950781  0.106594  0.851754  1
  P  P17  1  0.749313  0.888292  0.347142  1
  P  P18  1  0.749313  0.611708  0.847142  1
  P  P19  1  0.459423  0.752414  0.498465  1
  O  O20  1  0.231190  0.615073  0.659341  1
  O  O21  1  0.768810  0.115073  0.840659  1
  O  O22  1  0.054728  0.481324  0.717846  1
  O  O23  1  0.480327  0.632786  0.576210  1
  O  O24  1  0.892531  0.928316  0.033613  1
  O  O25  1  0.269665  0.679756  0.937107  1
  O  O26  1  0.169277  0.090991  0.534988  1
  O  O27  1  0.892531  0.571684  0.533613  1
  O  O28  1  0.730335  0.320244  0.062893  1
  O  O29  1  0.667108  0.767265  0.805798  1
  O  O30  1  0.945272  0.518676  0.282154  1
  O  O31  1  0.768810  0.384927  0.340659  1
  O  O32  1  0.606568  0.866087  0.571187  1
  O  O33  1  0.393432  0.133913  0.428813  1
  O  O34  1  0.519673  0.132786  0.923790  1
  O  O35  1  0.945272  0.981324  0.782154  1
  O  O36  1  0.476667  0.808107  0.910739  1
  O  O37  1  0.107469  0.428316  0.466387  1
  O  O38  1  0.605380  0.489146  0.785287  1
  O  O39  1  0.523333  0.308107  0.589261  1
  O  O40  1  0.476667  0.691893  0.410739  1
  O  O41  1  0.523333  0.191893  0.089261  1
  O  O42  1  0.963992  0.242098  0.311723  1
  O  O43  1  0.480327  0.867214  0.076210  1
  O  O44  1  0.332892  0.267265  0.694202  1
  O  O45  1  0.036008  0.742098  0.188277  1
  O  O46  1  0.830723  0.909009  0.465012  1
  O  O47  1  0.606568  0.633913  0.071187  1
  O  O48  1  0.054728  0.018676  0.217846  1
  O  O49  1  0.830723  0.590991  0.965012  1
  O  O50  1  0.605380  0.010854  0.285287  1
  O  O51  1  0.519673  0.367214  0.423790  1
  O  O52  1  0.103750  0.103530  0.673499  1
  O  O53  1  0.269665  0.820244  0.437107  1
  O  O54  1  0.896250  0.603530  0.826501  1
  O  O55  1  0.107469  0.071684  0.966387  1
  O  O56  1  0.332892  0.232735  0.194202  1
  O  O57  1  0.036008  0.757902  0.688277  1
  O  O58  1  0.730335  0.179756  0.562893  1
  O  O59  1  0.169277  0.409009  0.034988  1
  O  O60  1  0.963992  0.257902  0.811723  1
  O  O61  1  0.231190  0.884927  0.159341  1
  O  O62  1  0.103750  0.396470  0.173499  1
  O  O63  1  0.394620  0.510854  0.214713  1
  O  O64  1  0.394620  0.989146  0.714713  1
  O  O65  1  0.393432  0.366087  0.928813  1
  O  O66  1  0.896250  0.896470  0.326501  1
  O  O67  1  0.667108  0.732735  0.305798  1
