# generated using pymatgen
data_Rb3Mo15Se17
_symmetry_space_group_name_H-M   'P 1'
_cell_length_a   9.71462022
_cell_length_b   9.71462022
_cell_length_c   21.19214925
_cell_angle_alpha   90.00000000
_cell_angle_beta   90.00000000
_cell_angle_gamma   120.00000000
_symmetry_Int_Tables_number   1
_chemical_formula_structural   Rb3Mo15Se17
_chemical_formula_sum   'Rb6 Mo30 Se34'
_cell_volume   1732.03749519
_cell_formula_units_Z   2
loop_
 _symmetry_equiv_pos_site_id
 _symmetry_equiv_pos_as_xyz
  1  'x, y, z'
loop_
 _atom_site_type_symbol
 _atom_site_label
 _atom_site_symmetry_multiplicity
 _atom_site_fract_x
 _atom_site_fract_y
 _atom_site_fract_z
 _atom_site_occupancy
  Rb  Rb0  1  0.000000  0.000000  0.362076  1
  Rb  Rb1  1  0.000000  0.000000  0.862076  1
  Rb  Rb2  1  0.000000  0.000000  0.637924  1
  Rb  Rb3  1  0.000000  0.000000  0.137924  1
  Rb  Rb4  1  0.333333  0.666667  0.750000  1
  Rb  Rb5  1  0.666667  0.333333  0.250000  1
  Mo  Mo6  1  0.481669  0.833781  0.250000  1
  Mo  Mo7  1  0.647888  0.481669  0.750000  1
  Mo  Mo8  1  0.833781  0.352112  0.750000  1
  Mo  Mo9  1  0.166219  0.647888  0.250000  1
  Mo  Mo10  1  0.352112  0.518331  0.250000  1
  Mo  Mo11  1  0.518331  0.166219  0.750000  1
  Mo  Mo12  1  0.683820  0.183064  0.856778  1
  Mo  Mo13  1  0.500756  0.683820  0.356778  1
  Mo  Mo14  1  0.183064  0.499244  0.356778  1
  Mo  Mo15  1  0.816936  0.500756  0.856778  1
  Mo  Mo16  1  0.499244  0.316180  0.856778  1
  Mo  Mo17  1  0.316180  0.816936  0.356778  1
  Mo  Mo18  1  0.316180  0.816936  0.143222  1
  Mo  Mo19  1  0.499244  0.316180  0.643222  1
  Mo  Mo20  1  0.816936  0.500756  0.643222  1
  Mo  Mo21  1  0.183064  0.499244  0.143222  1
  Mo  Mo22  1  0.500756  0.683820  0.143222  1
  Mo  Mo23  1  0.683820  0.183064  0.643222  1
  Mo  Mo24  1  0.520219  0.164775  0.965103  1
  Mo  Mo25  1  0.355444  0.520219  0.465103  1
  Mo  Mo26  1  0.164775  0.644556  0.465103  1
  Mo  Mo27  1  0.835225  0.355444  0.965103  1
  Mo  Mo28  1  0.644556  0.479781  0.965103  1
  Mo  Mo29  1  0.479781  0.835225  0.465103  1
  Mo  Mo30  1  0.479781  0.835225  0.034897  1
  Mo  Mo31  1  0.644556  0.479781  0.534897  1
  Mo  Mo32  1  0.835225  0.355444  0.534897  1
  Mo  Mo33  1  0.164775  0.644556  0.034897  1
  Mo  Mo34  1  0.355444  0.520219  0.034897  1
  Mo  Mo35  1  0.520219  0.164775  0.534897  1
  Se  Se36  1  0.631200  0.624645  0.857721  1
  Se  Se37  1  0.706449  0.043763  0.542926  1
  Se  Se38  1  0.956237  0.662686  0.542926  1
  Se  Se39  1  0.662686  0.706449  0.042926  1
  Se  Se40  1  0.662686  0.706449  0.457074  1
  Se  Se41  1  0.956237  0.662686  0.957074  1
  Se  Se42  1  0.333333  0.666667  0.939296  1
  Se  Se43  1  0.666667  0.333333  0.439296  1
  Se  Se44  1  0.666667  0.333333  0.060704  1
  Se  Se45  1  0.333333  0.666667  0.560704  1
  Se  Se46  1  0.294791  0.959723  0.250000  1
  Se  Se47  1  0.335068  0.294791  0.750000  1
  Se  Se48  1  0.959723  0.664932  0.750000  1
  Se  Se49  1  0.040277  0.335068  0.250000  1
  Se  Se50  1  0.664932  0.705209  0.250000  1
  Se  Se51  1  0.705209  0.040277  0.750000  1
  Se  Se52  1  0.624645  0.993445  0.357721  1
  Se  Se53  1  0.293551  0.956237  0.042926  1
  Se  Se54  1  0.993445  0.368800  0.857721  1
  Se  Se55  1  0.706449  0.043763  0.957074  1
  Se  Se56  1  0.368800  0.375355  0.357721  1
  Se  Se57  1  0.375355  0.006555  0.857721  1
  Se  Se58  1  0.375355  0.006555  0.642279  1
  Se  Se59  1  0.368800  0.375355  0.142279  1
  Se  Se60  1  0.006555  0.631200  0.142279  1
  Se  Se61  1  0.993445  0.368800  0.642279  1
  Se  Se62  1  0.631200  0.624645  0.642279  1
  Se  Se63  1  0.624645  0.993445  0.142279  1
  Se  Se64  1  0.337314  0.293551  0.542926  1
  Se  Se65  1  0.043763  0.337314  0.042926  1
  Se  Se66  1  0.337314  0.293551  0.957074  1
  Se  Se67  1  0.043763  0.337314  0.457074  1
  Se  Se68  1  0.293551  0.956237  0.457074  1
  Se  Se69  1  0.006555  0.631200  0.357721  1
