# generated using pymatgen
data_LiNiPCO7
_symmetry_space_group_name_H-M   'P 1'
_cell_length_a   5.08903696
_cell_length_b   6.35298482
_cell_length_c   8.63416858
_cell_angle_alpha   90.00000000
_cell_angle_beta   93.97462260
_cell_angle_gamma   90.00000000
_symmetry_Int_Tables_number   1
_chemical_formula_structural   LiNiPCO7
_chemical_formula_sum   'Li2 Ni2 P2 C2 O14'
_cell_volume   278.47623905
_cell_formula_units_Z   2
loop_
 _symmetry_equiv_pos_site_id
 _symmetry_equiv_pos_as_xyz
  1  'x, y, z'
loop_
 _atom_site_type_symbol
 _atom_site_label
 _atom_site_symmetry_multiplicity
 _atom_site_fract_x
 _atom_site_fract_y
 _atom_site_fract_z
 _atom_site_occupancy
  Li  Li0  1  0.222339  0.993724  0.768528  1
  Li  Li1  1  0.777661  0.493724  0.231472  1
  Ni  Ni2  1  0.791277  0.750276  0.660345  1
  Ni  Ni3  1  0.208723  0.250276  0.339655  1
  P  P4  1  0.720276  0.251816  0.571051  1
  P  P5  1  0.279724  0.751816  0.428949  1
  C  C6  1  0.722437  0.750469  0.937286  1
  C  C7  1  0.277563  0.250469  0.062714  1
  O  O8  1  0.782862  0.441265  0.679819  1
  O  O9  1  0.953487  0.757903  0.881818  1
  O  O10  1  0.470335  0.271039  0.169376  1
  O  O11  1  0.529665  0.771039  0.830624  1
  O  O12  1  0.167860  0.566288  0.328720  1
  O  O13  1  0.150634  0.771348  0.584131  1
  O  O14  1  0.217138  0.941265  0.320181  1
  O  O15  1  0.046513  0.257903  0.118182  1
  O  O16  1  0.832140  0.066288  0.671280  1
  O  O17  1  0.417573  0.228927  0.538841  1
  O  O18  1  0.688287  0.720148  0.077571  1
  O  O19  1  0.311713  0.220148  0.922429  1
  O  O20  1  0.582427  0.728927  0.461159  1
  O  O21  1  0.849366  0.271348  0.415869  1
