# generated using pymatgen
data_UIr
_symmetry_space_group_name_H-M   'P 1'
_cell_length_a   5.59436607
_cell_length_b   10.56015388
_cell_length_c   5.64073478
_cell_angle_alpha   90.00000000
_cell_angle_beta   99.38057298
_cell_angle_gamma   90.00000000
_symmetry_Int_Tables_number   1
_chemical_formula_structural   UIr
_chemical_formula_sum   'U8 Ir8'
_cell_volume   328.78350183
_cell_formula_units_Z   8
loop_
 _symmetry_equiv_pos_site_id
 _symmetry_equiv_pos_as_xyz
  1  'x, y, z'
loop_
 _atom_site_type_symbol
 _atom_site_label
 _atom_site_symmetry_multiplicity
 _atom_site_fract_x
 _atom_site_fract_y
 _atom_site_fract_z
 _atom_site_occupancy
  U  U0  1  0.348249  0.861249  0.137374  1
  U  U1  1  0.151751  0.361249  0.862626  1
  U  U2  1  0.912470  0.866998  0.605789  1
  U  U3  1  0.587530  0.366998  0.394211  1
  U  U4  1  0.651751  0.138751  0.862626  1
  U  U5  1  0.848249  0.638751  0.137374  1
  U  U6  1  0.087530  0.133002  0.394211  1
  U  U7  1  0.412470  0.633002  0.605789  1
  Ir  Ir8  1  0.338776  0.600182  0.091142  1
  Ir  Ir9  1  0.161224  0.100182  0.908858  1
  Ir  Ir10  1  0.912142  0.603639  0.643249  1
  Ir  Ir11  1  0.587858  0.103639  0.356751  1
  Ir  Ir12  1  0.661224  0.399818  0.908858  1
  Ir  Ir13  1  0.838776  0.899818  0.091142  1
  Ir  Ir14  1  0.087858  0.396361  0.356751  1
  Ir  Ir15  1  0.412142  0.896361  0.643249  1
