# generated using pymatgen
data_BaLa2CoS5
_symmetry_space_group_name_H-M   'P 1'
_cell_length_a   8.80880911
_cell_length_b   8.80880911
_cell_length_c   8.80880911
_cell_angle_alpha   126.06871687
_cell_angle_beta   126.06871687
_cell_angle_gamma   79.77522912
_symmetry_Int_Tables_number   1
_chemical_formula_structural   BaLa2CoS5
_chemical_formula_sum   'Ba2 La4 Co2 S10'
_cell_volume   431.36951442
_cell_formula_units_Z   2
loop_
 _symmetry_equiv_pos_site_id
 _symmetry_equiv_pos_as_xyz
  1  'x, y, z'
loop_
 _atom_site_type_symbol
 _atom_site_label
 _atom_site_symmetry_multiplicity
 _atom_site_fract_x
 _atom_site_fract_y
 _atom_site_fract_z
 _atom_site_occupancy
  Ba  Ba0  1  0.750000  0.750000  0.000000  1
  Ba  Ba1  1  0.250000  0.250000  0.000000  1
  La  La2  1  0.835726  0.664274  0.500000  1
  La  La3  1  0.664274  0.164274  0.828549  1
  La  La4  1  0.335726  0.835726  0.171451  1
  La  La5  1  0.164274  0.335726  0.500000  1
  Co  Co6  1  0.250000  0.750000  0.500000  1
  Co  Co7  1  0.750000  0.250000  0.500000  1
  S  S8  1  0.991592  0.491592  0.207974  1
  S  S9  1  0.716382  0.216382  0.207974  1
  S  S10  1  0.008408  0.508408  0.792026  1
  S  S11  1  0.508408  0.716382  0.500000  1
  S  S12  1  0.216382  0.008408  0.500000  1
  S  S13  1  0.491592  0.283618  0.500000  1
  S  S14  1  0.783618  0.991592  0.500000  1
  S  S15  1  0.283618  0.783618  0.792026  1
  S  S16  1  0.000000  0.000000  0.000000  1
  S  S17  1  0.500000  0.500000  0.000000  1
