# generated using pymatgen
data_LiH6ClO7
_symmetry_space_group_name_H-M   'P 1'
_cell_length_a   7.72899442
_cell_length_b   7.72899442
_cell_length_c   5.60790817
_cell_angle_alpha   90.00000000
_cell_angle_beta   90.00000000
_cell_angle_gamma   120.00000000
_symmetry_Int_Tables_number   1
_chemical_formula_structural   LiH6ClO7
_chemical_formula_sum   'Li2 H12 Cl2 O14'
_cell_volume   290.11989588
_cell_formula_units_Z   2
loop_
 _symmetry_equiv_pos_site_id
 _symmetry_equiv_pos_as_xyz
  1  'x, y, z'
loop_
 _atom_site_type_symbol
 _atom_site_label
 _atom_site_symmetry_multiplicity
 _atom_site_fract_x
 _atom_site_fract_y
 _atom_site_fract_z
 _atom_site_occupancy
  Li  Li0  1  0.000000  0.000000  0.778051  1
  Li  Li1  1  0.000000  0.000000  0.278051  1
  H  H2  1  0.064425  0.331112  0.035088  1
  H  H3  1  0.935575  0.266687  0.535088  1
  H  H4  1  0.668888  0.733313  0.035088  1
  H  H5  1  0.266687  0.935575  0.035088  1
  H  H6  1  0.733313  0.064425  0.535088  1
  H  H7  1  0.935575  0.668888  0.535088  1
  H  H8  1  0.331112  0.266687  0.535088  1
  H  H9  1  0.064425  0.733313  0.035088  1
  H  H10  1  0.331112  0.064425  0.535088  1
  H  H11  1  0.733313  0.668888  0.535088  1
  H  H12  1  0.266687  0.331112  0.035088  1
  H  H13  1  0.668888  0.935575  0.035088  1
  Cl  Cl14  1  0.666667  0.333333  0.997023  1
  Cl  Cl15  1  0.333333  0.666667  0.497023  1
  O  O16  1  0.121547  0.243094  0.028146  1
  O  O17  1  0.436341  0.872683  0.586887  1
  O  O18  1  0.243094  0.121547  0.528146  1
  O  O19  1  0.121547  0.878453  0.028146  1
  O  O20  1  0.878453  0.121547  0.528146  1
  O  O21  1  0.436341  0.563659  0.586887  1
  O  O22  1  0.872683  0.436341  0.086887  1
  O  O23  1  0.563659  0.127317  0.086887  1
  O  O24  1  0.878453  0.756906  0.528146  1
  O  O25  1  0.127317  0.563659  0.586887  1
  O  O26  1  0.563659  0.436341  0.086887  1
  O  O27  1  0.333333  0.666667  0.237701  1
  O  O28  1  0.666667  0.333333  0.737701  1
  O  O29  1  0.756906  0.878453  0.028146  1
