# generated using pymatgen
data_PbICl
_symmetry_space_group_name_H-M   'P 1'
_cell_length_a   4.63237772
_cell_length_b   8.33019338
_cell_length_c   9.87218440
_cell_angle_alpha   90.00000000
_cell_angle_beta   90.00000000
_cell_angle_gamma   90.00000000
_symmetry_Int_Tables_number   1
_chemical_formula_structural   PbICl
_chemical_formula_sum   'Pb4 I4 Cl4'
_cell_volume   380.95379682
_cell_formula_units_Z   4
loop_
 _symmetry_equiv_pos_site_id
 _symmetry_equiv_pos_as_xyz
  1  'x, y, z'
loop_
 _atom_site_type_symbol
 _atom_site_label
 _atom_site_symmetry_multiplicity
 _atom_site_fract_x
 _atom_site_fract_y
 _atom_site_fract_z
 _atom_site_occupancy
  Pb  Pb0  1  0.250000  0.703641  0.622609  1
  Pb  Pb1  1  0.750000  0.296359  0.377391  1
  Pb  Pb2  1  0.250000  0.203641  0.877391  1
  Pb  Pb3  1  0.750000  0.796359  0.122609  1
  I  I4  1  0.250000  0.467914  0.169699  1
  I  I5  1  0.750000  0.032086  0.669699  1
  I  I6  1  0.250000  0.967914  0.330301  1
  I  I7  1  0.750000  0.532086  0.830301  1
  Cl  Cl8  1  0.750000  0.639632  0.441824  1
  Cl  Cl9  1  0.250000  0.860368  0.941824  1
  Cl  Cl10  1  0.750000  0.139632  0.058176  1
  Cl  Cl11  1  0.250000  0.360368  0.558176  1
