# generated using pymatgen
data_Eu4As3
_symmetry_space_group_name_H-M   'P 1'
_cell_length_a   7.95563328
_cell_length_b   7.95563328
_cell_length_c   7.95563328
_cell_angle_alpha   109.47122063
_cell_angle_beta   109.47122063
_cell_angle_gamma   109.47122063
_symmetry_Int_Tables_number   1
_chemical_formula_structural   Eu4As3
_chemical_formula_sum   'Eu8 As6'
_cell_volume   387.61660796
_cell_formula_units_Z   2
loop_
 _symmetry_equiv_pos_site_id
 _symmetry_equiv_pos_as_xyz
  1  'x, y, z'
loop_
 _atom_site_type_symbol
 _atom_site_label
 _atom_site_symmetry_multiplicity
 _atom_site_fract_x
 _atom_site_fract_y
 _atom_site_fract_z
 _atom_site_occupancy
  Eu  Eu0  1  0.364299  0.500000  0.000000  1
  Eu  Eu1  1  0.635701  0.635701  0.635701  1
  Eu  Eu2  1  0.500000  1.000000  0.364299  1
  Eu  Eu3  1  1.000000  0.364299  0.500000  1
  Eu  Eu4  1  0.500000  1.000000  0.864299  1
  Eu  Eu5  1  1.000000  0.864299  0.500000  1
  Eu  Eu6  1  0.864299  0.500000  0.000000  1
  Eu  Eu7  1  0.135701  0.135701  0.135701  1
  As  As8  1  0.750000  0.875000  0.125000  1
  As  As9  1  0.625000  0.375000  0.250000  1
  As  As10  1  0.875000  0.125000  0.750000  1
  As  As11  1  0.125000  0.750000  0.875000  1
  As  As12  1  0.375000  0.250000  0.625000  1
  As  As13  1  0.250000  0.625000  0.375000  1
