# generated using pymatgen
data_Tl8Ge5O14
_symmetry_space_group_name_H-M   'P 1'
_cell_length_a   14.88213854
_cell_length_b   14.88213854
_cell_length_c   14.88213854
_cell_angle_alpha   38.32899449
_cell_angle_beta   38.32899449
_cell_angle_gamma   38.32899449
_symmetry_Int_Tables_number   1
_chemical_formula_structural   Tl8Ge5O14
_chemical_formula_sum   'Tl16 Ge10 O28'
_cell_volume   1138.66072428
_cell_formula_units_Z   2
loop_
 _symmetry_equiv_pos_site_id
 _symmetry_equiv_pos_as_xyz
  1  'x, y, z'
loop_
 _atom_site_type_symbol
 _atom_site_label
 _atom_site_symmetry_multiplicity
 _atom_site_fract_x
 _atom_site_fract_y
 _atom_site_fract_z
 _atom_site_occupancy
  Tl  Tl0  1  0.676860  0.840390  0.379220  1
  Tl  Tl1  1  0.659610  0.823140  0.120780  1
  Tl  Tl2  1  0.323140  0.159610  0.620780  1
  Tl  Tl3  1  0.340390  0.176860  0.879220  1
  Tl  Tl4  1  0.120780  0.659610  0.823140  1
  Tl  Tl5  1  0.840390  0.379220  0.676860  1
  Tl  Tl6  1  0.879220  0.340390  0.176860  1
  Tl  Tl7  1  0.159610  0.620780  0.323140  1
  Tl  Tl8  1  0.945648  0.945648  0.945648  1
  Tl  Tl9  1  0.554352  0.554352  0.554352  1
  Tl  Tl10  1  0.054352  0.054352  0.054352  1
  Tl  Tl11  1  0.445648  0.445648  0.445648  1
  Tl  Tl12  1  0.823140  0.120780  0.659610  1
  Tl  Tl13  1  0.379220  0.676860  0.840390  1
  Tl  Tl14  1  0.176860  0.879220  0.340390  1
  Tl  Tl15  1  0.620780  0.323140  0.159610  1
  Ge  Ge16  1  0.980182  0.519818  0.250000  1
  Ge  Ge17  1  0.019818  0.480182  0.750000  1
  Ge  Ge18  1  0.203306  0.203306  0.203306  1
  Ge  Ge19  1  0.296694  0.296694  0.296694  1
  Ge  Ge20  1  0.796694  0.796694  0.796694  1
  Ge  Ge21  1  0.703306  0.703306  0.703306  1
  Ge  Ge22  1  0.250000  0.980182  0.519818  1
  Ge  Ge23  1  0.519818  0.250000  0.980182  1
  Ge  Ge24  1  0.750000  0.019818  0.480182  1
  Ge  Ge25  1  0.480182  0.750000  0.019818  1
  O  O26  1  0.286599  0.020621  0.344734  1
  O  O27  1  0.479379  0.213401  0.155266  1
  O  O28  1  0.713401  0.979379  0.655266  1
  O  O29  1  0.520621  0.786599  0.844734  1
  O  O30  1  0.947593  0.687941  0.076229  1
  O  O31  1  0.812059  0.552407  0.423771  1
  O  O32  1  0.052407  0.312059  0.923771  1
  O  O33  1  0.187941  0.447593  0.576229  1
  O  O34  1  0.076229  0.947593  0.687941  1
  O  O35  1  0.552407  0.423771  0.812059  1
  O  O36  1  0.923771  0.052407  0.312059  1
  O  O37  1  0.447593  0.576229  0.187941  1
  O  O38  1  0.687941  0.076229  0.947593  1
  O  O39  1  0.423771  0.812059  0.552407  1
  O  O40  1  0.312059  0.923771  0.052407  1
  O  O41  1  0.576229  0.187941  0.447593  1
  O  O42  1  0.020621  0.344734  0.286599  1
  O  O43  1  0.155266  0.479379  0.213401  1
  O  O44  1  0.979379  0.655266  0.713401  1
  O  O45  1  0.844734  0.520621  0.786599  1
  O  O46  1  0.838893  0.838893  0.838893  1
  O  O47  1  0.661107  0.661107  0.661107  1
  O  O48  1  0.161107  0.161107  0.161107  1
  O  O49  1  0.338893  0.338893  0.338893  1
  O  O50  1  0.213401  0.155266  0.479379  1
  O  O51  1  0.344734  0.286599  0.020621  1
  O  O52  1  0.655266  0.713401  0.979379  1
  O  O53  1  0.786599  0.844734  0.520621  1
