# generated using pymatgen
data_IF3
_symmetry_space_group_name_H-M   'P 1'
_cell_length_a   4.72860456
_cell_length_b   6.75507177
_cell_length_c   9.12442525
_cell_angle_alpha   90.00000000
_cell_angle_beta   90.00000000
_cell_angle_gamma   90.00000000
_symmetry_Int_Tables_number   1
_chemical_formula_structural   IF3
_chemical_formula_sum   'I4 F12'
_cell_volume   291.45296777
_cell_formula_units_Z   4
loop_
 _symmetry_equiv_pos_site_id
 _symmetry_equiv_pos_as_xyz
  1  'x, y, z'
loop_
 _atom_site_type_symbol
 _atom_site_label
 _atom_site_symmetry_multiplicity
 _atom_site_fract_x
 _atom_site_fract_y
 _atom_site_fract_z
 _atom_site_occupancy
  I  I0  1  0.523229  0.750000  0.812414  1
  I  I1  1  0.023229  0.250000  0.687586  1
  I  I2  1  0.476771  0.250000  0.187586  1
  I  I3  1  0.976771  0.750000  0.312414  1
  F  F4  1  0.851536  0.750000  0.934178  1
  F  F5  1  0.351536  0.250000  0.565822  1
  F  F6  1  0.148464  0.250000  0.065822  1
  F  F7  1  0.648464  0.750000  0.434178  1
  F  F8  1  0.913994  0.456028  0.331243  1
  F  F9  1  0.413994  0.543972  0.168757  1
  F  F10  1  0.086006  0.956028  0.668757  1
  F  F11  1  0.586006  0.043972  0.831243  1
  F  F12  1  0.086006  0.543972  0.668757  1
  F  F13  1  0.586006  0.456028  0.831243  1
  F  F14  1  0.913994  0.043972  0.331243  1
  F  F15  1  0.413994  0.956028  0.168757  1
