# generated using pymatgen
data_Sc5(Re2Si3)4
_symmetry_space_group_name_H-M   'P 1'
_cell_length_a   10.23479178
_cell_length_b   10.23479178
_cell_length_c   14.50626284
_cell_angle_alpha   90.00000000
_cell_angle_beta   90.00000000
_cell_angle_gamma   150.17311356
_symmetry_Int_Tables_number   1
_chemical_formula_structural   Sc5(Re2Si3)4
_chemical_formula_sum   'Sc10 Re16 Si24'
_cell_volume   755.79298014
_cell_formula_units_Z   2
loop_
 _symmetry_equiv_pos_site_id
 _symmetry_equiv_pos_as_xyz
  1  'x, y, z'
loop_
 _atom_site_type_symbol
 _atom_site_label
 _atom_site_symmetry_multiplicity
 _atom_site_fract_x
 _atom_site_fract_y
 _atom_site_fract_z
 _atom_site_occupancy
  Sc  Sc0  1  0.588178  0.859369  0.326781  1
  Sc  Sc1  1  0.960691  0.960691  0.000000  1
  Sc  Sc2  1  0.588178  0.859369  0.673219  1
  Sc  Sc3  1  0.361146  0.092996  0.175272  1
  Sc  Sc4  1  0.092996  0.361146  0.824728  1
  Sc  Sc5  1  0.361146  0.092996  0.824728  1
  Sc  Sc6  1  0.092996  0.361146  0.175272  1
  Sc  Sc7  1  0.436398  0.436398  0.500000  1
  Sc  Sc8  1  0.859369  0.588178  0.326781  1
  Sc  Sc9  1  0.859369  0.588178  0.673219  1
  Re  Re10  1  0.871111  0.072403  0.500000  1
  Re  Re11  1  0.072403  0.871111  0.500000  1
  Re  Re12  1  0.438220  0.026565  0.375908  1
  Re  Re13  1  0.026565  0.438220  0.624092  1
  Re  Re14  1  0.388914  0.556361  1.000000  1
  Re  Re15  1  0.556361  0.388914  0.000000  1
  Re  Re16  1  0.026565  0.438220  0.375908  1
  Re  Re17  1  0.527779  0.929964  0.107547  1
  Re  Re18  1  0.999023  0.999023  0.230863  1
  Re  Re19  1  0.999023  0.999023  0.769137  1
  Re  Re20  1  0.506829  0.506829  0.279399  1
  Re  Re21  1  0.506829  0.506829  0.720601  1
  Re  Re22  1  0.929964  0.527779  0.892453  1
  Re  Re23  1  0.527779  0.929964  0.892453  1
  Re  Re24  1  0.929964  0.527779  0.107547  1
  Re  Re25  1  0.438220  0.026565  0.624092  1
  Si  Si26  1  0.801246  0.644856  0.148642  1
  Si  Si27  1  0.644856  0.801246  0.851358  1
  Si  Si28  1  0.801246  0.644856  0.851358  1
  Si  Si29  1  0.644856  0.801246  0.148642  1
  Si  Si30  1  0.673736  0.112633  0.500000  1
  Si  Si31  1  0.861964  0.861964  0.603331  1
  Si  Si32  1  0.861964  0.861964  0.396669  1
  Si  Si33  1  0.348739  0.348739  0.878690  1
  Si  Si34  1  0.112633  0.673736  0.500000  1
  Si  Si35  1  0.118921  0.856897  0.000000  1
  Si  Si36  1  0.856897  0.118921  0.000000  1
  Si  Si37  1  0.156593  0.572237  1.000000  1
  Si  Si38  1  0.228273  0.728008  0.242181  1
  Si  Si39  1  0.728008  0.228273  0.757819  1
  Si  Si40  1  0.228273  0.728008  0.757819  1
  Si  Si41  1  0.728008  0.228273  0.242181  1
  Si  Si42  1  0.329139  0.609046  0.500000  1
  Si  Si43  1  0.572237  0.156593  0.000000  1
  Si  Si44  1  0.609046  0.329139  0.500000  1
  Si  Si45  1  0.348739  0.348739  0.121310  1
  Si  Si46  1  0.136038  0.297955  0.353264  1
  Si  Si47  1  0.297955  0.136038  0.646736  1
  Si  Si48  1  0.136038  0.297955  0.646736  1
  Si  Si49  1  0.297955  0.136038  0.353264  1
