# generated using pymatgen
data_Ca3Al2(HO)12
_symmetry_space_group_name_H-M   'P 1'
_cell_length_a   11.01068990
_cell_length_b   11.01068990
_cell_length_c   11.01068990
_cell_angle_alpha   109.47122063
_cell_angle_beta   109.47122063
_cell_angle_gamma   109.47122063
_symmetry_Int_Tables_number   1
_chemical_formula_structural   Ca3Al2(HO)12
_chemical_formula_sum   'Ca12 Al8 H48 O48'
_cell_volume   1027.59434202
_cell_formula_units_Z   4
loop_
 _symmetry_equiv_pos_site_id
 _symmetry_equiv_pos_as_xyz
  1  'x, y, z'
loop_
 _atom_site_type_symbol
 _atom_site_label
 _atom_site_symmetry_multiplicity
 _atom_site_fract_x
 _atom_site_fract_y
 _atom_site_fract_z
 _atom_site_occupancy
  Ca  Ca0  1  0.375000  0.750000  0.125000  1
  Ca  Ca1  1  0.125000  0.250000  0.375000  1
  Ca  Ca2  1  0.375000  0.125000  0.250000  1
  Ca  Ca3  1  0.250000  0.375000  0.125000  1
  Ca  Ca4  1  0.125000  0.375000  0.750000  1
  Ca  Ca5  1  0.750000  0.125000  0.375000  1
  Ca  Ca6  1  0.750000  0.625000  0.875000  1
  Ca  Ca7  1  0.625000  0.250000  0.875000  1
  Ca  Ca8  1  0.875000  0.750000  0.625000  1
  Ca  Ca9  1  0.625000  0.875000  0.750000  1
  Ca  Ca10  1  0.875000  0.625000  0.250000  1
  Ca  Ca11  1  0.250000  0.875000  0.625000  1
  Al  Al12  1  0.000000  0.000000  0.000000  1
  Al  Al13  1  0.000000  0.500000  0.000000  1
  Al  Al14  1  1.000000  1.000000  0.500000  1
  Al  Al15  1  0.500000  1.000000  1.000000  1
  Al  Al16  1  1.000000  0.500000  0.500000  1
  Al  Al17  1  0.500000  1.000000  0.500000  1
  Al  Al18  1  0.500000  0.500000  0.000000  1
  Al  Al19  1  0.500000  0.500000  0.500000  1
  H  H20  1  0.110364  0.560078  0.349663  1
  H  H21  1  0.939922  0.050287  0.789585  1
  H  H22  1  0.150337  0.710415  0.760701  1
  H  H23  1  0.389636  0.739299  0.449713  1
  H  H24  1  0.389636  0.150337  0.939922  1
  H  H25  1  0.739299  0.449713  0.389636  1
  H  H26  1  0.710415  0.449713  0.560078  1
  H  H27  1  0.449713  0.389636  0.739299  1
  H  H28  1  0.789585  0.349663  0.739299  1
  H  H29  1  0.050287  0.760701  0.110364  1
  H  H30  1  0.760701  0.110364  0.050287  1
  H  H31  1  0.939922  0.389636  0.150337  1
  H  H32  1  0.449713  0.560078  0.710415  1
  H  H33  1  0.739299  0.789585  0.349663  1
  H  H34  1  0.150337  0.939922  0.389636  1
  H  H35  1  0.560078  0.710415  0.449713  1
  H  H36  1  0.349663  0.739299  0.789585  1
  H  H37  1  0.789585  0.939922  0.050287  1
  H  H38  1  0.710415  0.760701  0.150337  1
  H  H39  1  0.760701  0.150337  0.710415  1
  H  H40  1  0.050287  0.789585  0.939922  1
  H  H41  1  0.110364  0.050287  0.760701  1
  H  H42  1  0.889636  0.439922  0.650337  1
  H  H43  1  0.060078  0.949713  0.210415  1
  H  H44  1  0.849663  0.289585  0.239299  1
  H  H45  1  0.610364  0.260701  0.550287  1
  H  H46  1  0.610364  0.849663  0.060078  1
  H  H47  1  0.260701  0.550287  0.610364  1
  H  H48  1  0.289585  0.550287  0.439922  1
  H  H49  1  0.550287  0.610364  0.260701  1
  H  H50  1  0.210415  0.650337  0.260701  1
  H  H51  1  0.949713  0.239299  0.889636  1
  H  H52  1  0.239299  0.889636  0.949713  1
  H  H53  1  0.060078  0.610364  0.849663  1
  H  H54  1  0.550287  0.439922  0.289585  1
  H  H55  1  0.260701  0.210415  0.650337  1
  H  H56  1  0.849663  0.060078  0.610364  1
  H  H57  1  0.439922  0.289585  0.550287  1
  H  H58  1  0.650337  0.260701  0.210415  1
  H  H59  1  0.210415  0.060078  0.949713  1
  H  H60  1  0.289585  0.239299  0.849663  1
  H  H61  1  0.239299  0.849663  0.289585  1
  H  H62  1  0.439922  0.650337  0.889636  1
  H  H63  1  0.650337  0.889636  0.439922  1
  H  H64  1  0.949713  0.210415  0.060078  1
  H  H65  1  0.889636  0.949713  0.239299  1
  H  H66  1  0.560078  0.349663  0.110364  1
  H  H67  1  0.349663  0.110364  0.560078  1
  O  O68  1  0.921303  0.113088  0.588016  1
  O  O69  1  0.588016  0.921303  0.113088  1
  O  O70  1  0.911984  0.025072  0.333287  1
  O  O71  1  0.386912  0.578697  0.911984  1
  O  O72  1  0.474928  0.588016  0.166713  1
  O  O73  1  0.113088  0.025072  0.191785  1
  O  O74  1  0.578697  0.911984  0.386912  1
  O  O75  1  0.166713  0.474928  0.588016  1
  O  O76  1  0.025072  0.191785  0.113088  1
  O  O77  1  0.921303  0.308215  0.333287  1
  O  O78  1  0.386912  0.308215  0.474928  1
  O  O79  1  0.911984  0.386912  0.578697  1
  O  O80  1  0.166713  0.191785  0.578697  1
  O  O81  1  0.588016  0.166713  0.474928  1
  O  O82  1  0.578697  0.166713  0.191785  1
  O  O83  1  0.191785  0.113088  0.025072  1
  O  O84  1  0.191785  0.578697  0.166713  1
  O  O85  1  0.113088  0.588016  0.921303  1
  O  O86  1  0.025072  0.333287  0.911984  1
  O  O87  1  0.308215  0.474928  0.386912  1
  O  O88  1  0.333287  0.911984  0.025072  1
  O  O89  1  0.308215  0.333287  0.921303  1
  O  O90  1  0.691785  0.525072  0.613088  1
  O  O91  1  0.974928  0.666713  0.088016  1
  O  O92  1  0.886912  0.411984  0.078697  1
  O  O93  1  0.808215  0.421303  0.833287  1
  O  O94  1  0.808215  0.886912  0.974928  1
  O  O95  1  0.421303  0.833287  0.808215  1
  O  O96  1  0.411984  0.833287  0.525072  1
  O  O97  1  0.833287  0.808215  0.421303  1
  O  O98  1  0.088016  0.613088  0.421303  1
  O  O99  1  0.666713  0.078697  0.691785  1
  O  O100  1  0.078697  0.691785  0.666713  1
  O  O101  1  0.974928  0.808215  0.886912  1
  O  O102  1  0.833287  0.525072  0.411984  1
  O  O103  1  0.421303  0.088016  0.613088  1
  O  O104  1  0.886912  0.974928  0.808215  1
  O  O105  1  0.525072  0.411984  0.833287  1
  O  O106  1  0.613088  0.421303  0.088016  1
  O  O107  1  0.088016  0.974928  0.666713  1
  O  O108  1  0.411984  0.078697  0.886912  1
  O  O109  1  0.078697  0.886912  0.411984  1
  O  O110  1  0.525072  0.613088  0.691785  1
  O  O111  1  0.613088  0.691785  0.525072  1
  O  O112  1  0.666713  0.088016  0.974928  1
  O  O113  1  0.691785  0.666713  0.078697  1
  O  O114  1  0.474928  0.386912  0.308215  1
  O  O115  1  0.333287  0.921303  0.308215  1
