# generated using pymatgen
data_Sn2SO5
_symmetry_space_group_name_H-M   'P 1'
_cell_length_a   11.26007321
_cell_length_b   11.26007321
_cell_length_c   9.06729158
_cell_angle_alpha   90.00000000
_cell_angle_beta   90.00000000
_cell_angle_gamma   90.00000000
_symmetry_Int_Tables_number   1
_chemical_formula_structural   Sn2SO5
_chemical_formula_sum   'Sn16 S8 O40'
_cell_volume   1149.63508712
_cell_formula_units_Z   8
loop_
 _symmetry_equiv_pos_site_id
 _symmetry_equiv_pos_as_xyz
  1  'x, y, z'
loop_
 _atom_site_type_symbol
 _atom_site_label
 _atom_site_symmetry_multiplicity
 _atom_site_fract_x
 _atom_site_fract_y
 _atom_site_fract_z
 _atom_site_occupancy
  Sn  Sn0  1  0.517492  0.213876  0.743366  1
  Sn  Sn1  1  0.482508  0.786124  0.743366  1
  Sn  Sn2  1  0.213876  0.482508  0.256634  1
  Sn  Sn3  1  0.786124  0.517492  0.256634  1
  Sn  Sn4  1  0.713876  0.017492  0.243366  1
  Sn  Sn5  1  0.982508  0.713876  0.756634  1
  Sn  Sn6  1  0.017492  0.286124  0.756634  1
  Sn  Sn7  1  0.286124  0.982508  0.243366  1
  Sn  Sn8  1  0.659196  0.506421  0.635169  1
  Sn  Sn9  1  0.340804  0.493579  0.635169  1
  Sn  Sn10  1  0.506421  0.340804  0.364831  1
  Sn  Sn11  1  0.493579  0.659196  0.364831  1
  Sn  Sn12  1  0.006421  0.159196  0.135169  1
  Sn  Sn13  1  0.840804  0.006421  0.864831  1
  Sn  Sn14  1  0.159196  0.993579  0.864831  1
  Sn  Sn15  1  0.993579  0.840804  0.135169  1
  S  S16  1  0.792926  0.209819  0.507847  1
  S  S17  1  0.207074  0.790181  0.507847  1
  S  S18  1  0.209819  0.207074  0.492153  1
  S  S19  1  0.790181  0.792926  0.492153  1
  S  S20  1  0.709819  0.292926  0.007847  1
  S  S21  1  0.707074  0.709819  0.992153  1
  S  S22  1  0.292926  0.290181  0.992153  1
  S  S23  1  0.290181  0.707074  0.007847  1
  O  O24  1  0.817525  0.164889  0.352914  1
  O  O25  1  0.182475  0.835111  0.352914  1
  O  O26  1  0.164889  0.182475  0.647086  1
  O  O27  1  0.835111  0.817525  0.647086  1
  O  O28  1  0.664889  0.317525  0.852914  1
  O  O29  1  0.682475  0.664889  0.147086  1
  O  O30  1  0.317525  0.335111  0.147086  1
  O  O31  1  0.335111  0.682475  0.852914  1
  O  O32  1  0.892185  0.169589  0.605402  1
  O  O33  1  0.107815  0.830411  0.605402  1
  O  O34  1  0.169589  0.107815  0.394598  1
  O  O35  1  0.830411  0.892185  0.394598  1
  O  O36  1  0.669589  0.392185  0.105402  1
  O  O37  1  0.607815  0.669589  0.894598  1
  O  O38  1  0.392185  0.330411  0.894598  1
  O  O39  1  0.678631  0.157311  0.557361  1
  O  O40  1  0.330411  0.607815  0.105402  1
  O  O41  1  0.211942  0.658513  0.502754  1
  O  O42  1  0.341487  0.211942  0.497246  1
  O  O43  1  0.658513  0.788058  0.497246  1
  O  O44  1  0.841487  0.288058  0.002754  1
  O  O45  1  0.711942  0.841487  0.997246  1
  O  O46  1  0.288058  0.158513  0.997246  1
  O  O47  1  0.158513  0.711942  0.002754  1
  O  O48  1  0.124782  0.984815  0.113153  1
  O  O49  1  0.015185  0.124782  0.886847  1
  O  O50  1  0.984815  0.875218  0.886847  1
  O  O51  1  0.875218  0.015185  0.113153  1
  O  O52  1  0.624782  0.515185  0.386847  1
  O  O53  1  0.375218  0.484815  0.386847  1
  O  O54  1  0.484815  0.624782  0.613153  1
  O  O55  1  0.515185  0.375218  0.613153  1
  O  O56  1  0.342689  0.821369  0.057361  1
  O  O57  1  0.178631  0.342689  0.942639  1
  O  O58  1  0.821369  0.657311  0.942639  1
  O  O59  1  0.657311  0.178631  0.057361  1
  O  O60  1  0.842689  0.678631  0.442639  1
  O  O61  1  0.157311  0.321369  0.442639  1
  O  O62  1  0.321369  0.842689  0.557361  1
  O  O63  1  0.788058  0.341487  0.502754  1
