# generated using pymatgen
data_Li3VPCO7
_symmetry_space_group_name_H-M   'P 1'
_cell_length_a   5.00399055
_cell_length_b   6.60990252
_cell_length_c   8.53227896
_cell_angle_alpha   90.00000000
_cell_angle_beta   96.56163282
_cell_angle_gamma   90.00000000
_symmetry_Int_Tables_number   1
_chemical_formula_structural   Li3VPCO7
_chemical_formula_sum   'Li6 V2 P2 C2 O14'
_cell_volume   280.36408637
_cell_formula_units_Z   2
loop_
 _symmetry_equiv_pos_site_id
 _symmetry_equiv_pos_as_xyz
  1  'x, y, z'
loop_
 _atom_site_type_symbol
 _atom_site_label
 _atom_site_symmetry_multiplicity
 _atom_site_fract_x
 _atom_site_fract_y
 _atom_site_fract_z
 _atom_site_occupancy
  Li  Li0  1  0.732799  0.978076  0.279387  1
  Li  Li1  1  0.267201  0.021924  0.720613  1
  Li  Li2  1  0.795879  0.250000  0.894870  1
  Li  Li3  1  0.204121  0.750000  0.105130  1
  Li  Li4  1  0.267201  0.478076  0.720613  1
  Li  Li5  1  0.732799  0.521924  0.279387  1
  V  V6  1  0.791490  0.750000  0.674302  1
  V  V7  1  0.208510  0.250000  0.325698  1
  P  P8  1  0.731319  0.250000  0.590031  1
  P  P9  1  0.268681  0.750000  0.409969  1
  C  C10  1  0.671301  0.750000  0.963764  1
  C  C11  1  0.328699  0.250000  0.036236  1
  O  O12  1  0.513238  0.250000  0.157986  1
  O  O13  1  0.919988  0.750000  0.933874  1
  O  O14  1  0.167923  0.750000  0.573981  1
  O  O15  1  0.486762  0.750000  0.842014  1
  O  O16  1  0.161989  0.567220  0.305816  1
  O  O17  1  0.832077  0.250000  0.426019  1
  O  O18  1  0.161989  0.932780  0.305816  1
  O  O19  1  0.838011  0.432780  0.694184  1
  O  O20  1  0.838011  0.067220  0.694184  1
  O  O21  1  0.416817  0.250000  0.567499  1
  O  O22  1  0.606707  0.750000  0.106317  1
  O  O23  1  0.393293  0.250000  0.893683  1
  O  O24  1  0.583183  0.750000  0.432501  1
  O  O25  1  0.080012  0.250000  0.066126  1
