# generated using pymatgen
data_CaAlSiHO5
_symmetry_space_group_name_H-M   'P 1'
_cell_length_a   5.75151886
_cell_length_b   7.11997734
_cell_length_c   8.60503134
_cell_angle_alpha   90.00000000
_cell_angle_beta   90.00000000
_cell_angle_gamma   90.00000000
_symmetry_Int_Tables_number   1
_chemical_formula_structural   CaAlSiHO5
_chemical_formula_sum   'Ca4 Al4 Si4 H4 O20'
_cell_volume   352.38191882
_cell_formula_units_Z   4
loop_
 _symmetry_equiv_pos_site_id
 _symmetry_equiv_pos_as_xyz
  1  'x, y, z'
loop_
 _atom_site_type_symbol
 _atom_site_label
 _atom_site_symmetry_multiplicity
 _atom_site_fract_x
 _atom_site_fract_y
 _atom_site_fract_z
 _atom_site_occupancy
  Ca  Ca0  1  0.469705  0.636306  0.164361  1
  Ca  Ca1  1  0.969705  0.863694  0.835639  1
  Ca  Ca2  1  0.530295  0.136306  0.335639  1
  Ca  Ca3  1  0.030295  0.363694  0.664361  1
  Al  Al4  1  0.242827  0.237661  0.005334  1
  Al  Al5  1  0.742827  0.262339  0.994666  1
  Al  Al6  1  0.257173  0.762339  0.505334  1
  Al  Al7  1  0.757173  0.737661  0.494666  1
  Si  Si8  1  0.987580  0.379137  0.310186  1
  Si  Si9  1  0.012420  0.879137  0.189814  1
  Si  Si10  1  0.487580  0.120863  0.689814  1
  Si  Si11  1  0.512420  0.620863  0.810186  1
  H  H12  1  0.479936  0.477162  0.493074  1
  H  H13  1  0.979936  0.022838  0.506926  1
  H  H14  1  0.520064  0.977162  0.006926  1
  H  H15  1  0.020064  0.522838  0.993074  1
  O  O16  1  0.494405  0.604443  0.435795  1
  O  O17  1  0.994405  0.895557  0.564205  1
  O  O18  1  0.505595  0.104443  0.064205  1
  O  O19  1  0.005595  0.395557  0.935795  1
  O  O20  1  0.758321  0.386431  0.192910  1
  O  O21  1  0.258321  0.113569  0.807090  1
  O  O22  1  0.241679  0.886431  0.307090  1
  O  O23  1  0.741679  0.613569  0.692910  1
  O  O24  1  0.491300  0.429993  0.928801  1
  O  O25  1  0.991300  0.070007  0.071199  1
  O  O26  1  0.508700  0.929993  0.571199  1
  O  O27  1  0.008700  0.570007  0.428801  1
  O  O28  1  0.572192  0.788853  0.932944  1
  O  O29  1  0.072192  0.711147  0.067056  1
  O  O30  1  0.427808  0.288853  0.567056  1
  O  O31  1  0.927808  0.211147  0.432944  1
  O  O32  1  0.267777  0.648622  0.710703  1
  O  O33  1  0.767777  0.851378  0.289297  1
  O  O34  1  0.732223  0.148622  0.789297  1
  O  O35  1  0.232223  0.351378  0.210703  1
