# generated using pymatgen
data_NbCrP
_symmetry_space_group_name_H-M   'P 1'
_cell_length_a   3.54315220
_cell_length_b   6.28715115
_cell_length_c   7.40678242
_cell_angle_alpha   90.00000000
_cell_angle_beta   90.00000000
_cell_angle_gamma   90.00000000
_symmetry_Int_Tables_number   1
_chemical_formula_structural   NbCrP
_chemical_formula_sum   'Nb4 Cr4 P4'
_cell_volume   164.99595482
_cell_formula_units_Z   4
loop_
 _symmetry_equiv_pos_site_id
 _symmetry_equiv_pos_as_xyz
  1  'x, y, z'
loop_
 _atom_site_type_symbol
 _atom_site_label
 _atom_site_symmetry_multiplicity
 _atom_site_fract_x
 _atom_site_fract_y
 _atom_site_fract_z
 _atom_site_occupancy
  Nb  Nb0  1  0.250000  0.531241  0.672399  1
  Nb  Nb1  1  0.250000  0.031241  0.827601  1
  Nb  Nb2  1  0.750000  0.968759  0.172399  1
  Nb  Nb3  1  0.750000  0.468759  0.327601  1
  Cr  Cr4  1  0.750000  0.357365  0.940447  1
  Cr  Cr5  1  0.250000  0.142635  0.440447  1
  Cr  Cr6  1  0.750000  0.857365  0.559553  1
  Cr  Cr7  1  0.250000  0.642635  0.059553  1
  P  P8  1  0.250000  0.269994  0.131475  1
  P  P9  1  0.250000  0.769994  0.368525  1
  P  P10  1  0.750000  0.730006  0.868525  1
  P  P11  1  0.750000  0.230006  0.631475  1
