# generated using pymatgen
data_NbAs
_symmetry_space_group_name_H-M   'P 1'
_cell_length_a   6.37610035
_cell_length_b   6.37610035
_cell_length_c   6.37610035
_cell_angle_alpha   148.28318853
_cell_angle_beta   148.28318853
_cell_angle_gamma   45.46749577
_symmetry_Int_Tables_number   1
_chemical_formula_structural   NbAs
_chemical_formula_sum   'Nb2 As2'
_cell_volume   71.40980136
_cell_formula_units_Z   2
loop_
 _symmetry_equiv_pos_site_id
 _symmetry_equiv_pos_as_xyz
  1  'x, y, z'
loop_
 _atom_site_type_symbol
 _atom_site_label
 _atom_site_symmetry_multiplicity
 _atom_site_fract_x
 _atom_site_fract_y
 _atom_site_fract_z
 _atom_site_occupancy
  Nb  Nb0  1  0.749343  0.749343  0.000000  1
  Nb  Nb1  1  0.499343  0.999343  0.500000  1
  As  As2  1  0.167657  0.167657  0.000000  1
  As  As3  1  0.917657  0.417657  0.500000  1
