# generated using pymatgen
data_KH2N
_symmetry_space_group_name_H-M   'P 1'
_cell_length_a   4.62500684
_cell_length_b   3.82406099
_cell_length_c   6.28316730
_cell_angle_alpha   90.00000000
_cell_angle_beta   95.46110805
_cell_angle_gamma   90.00000000
_symmetry_Int_Tables_number   1
_chemical_formula_structural   KH2N
_chemical_formula_sum   'K2 H4 N2'
_cell_volume   110.62163559
_cell_formula_units_Z   2
loop_
 _symmetry_equiv_pos_site_id
 _symmetry_equiv_pos_as_xyz
  1  'x, y, z'
loop_
 _atom_site_type_symbol
 _atom_site_label
 _atom_site_symmetry_multiplicity
 _atom_site_fract_x
 _atom_site_fract_y
 _atom_site_fract_z
 _atom_site_occupancy
  K  K0  1  0.776152  0.250000  0.686624  1
  K  K1  1  0.223848  0.750000  0.313376  1
  H  H2  1  0.296942  0.542752  0.868626  1
  H  H3  1  0.703058  0.042752  0.131374  1
  H  H4  1  0.296942  0.957248  0.868626  1
  H  H5  1  0.703058  0.457248  0.131374  1
  N  N6  1  0.272513  0.750000  0.763067  1
  N  N7  1  0.727487  0.250000  0.236933  1
