# generated using pymatgen
data_VAg(HO2)2
_symmetry_space_group_name_H-M   'P 1'
_cell_length_a   3.70237575
_cell_length_b   7.24472740
_cell_length_c   15.86016783
_cell_angle_alpha   90.00000000
_cell_angle_beta   90.00000000
_cell_angle_gamma   90.00000000
_symmetry_Int_Tables_number   1
_chemical_formula_structural   VAg(HO2)2
_chemical_formula_sum   'V4 Ag4 H8 O16'
_cell_volume   425.41257189
_cell_formula_units_Z   4
loop_
 _symmetry_equiv_pos_site_id
 _symmetry_equiv_pos_as_xyz
  1  'x, y, z'
loop_
 _atom_site_type_symbol
 _atom_site_label
 _atom_site_symmetry_multiplicity
 _atom_site_fract_x
 _atom_site_fract_y
 _atom_site_fract_z
 _atom_site_occupancy
  V  V0  1  0.250000  0.374538  0.056471  1
  V  V1  1  0.750000  0.625462  0.943529  1
  V  V2  1  0.250000  0.874538  0.443529  1
  V  V3  1  0.750000  0.125462  0.556471  1
  Ag  Ag4  1  0.750000  0.938717  0.094904  1
  Ag  Ag5  1  0.250000  0.061283  0.905096  1
  Ag  Ag6  1  0.750000  0.438717  0.405096  1
  Ag  Ag7  1  0.250000  0.561283  0.594904  1
  H  H8  1  0.457999  0.631884  0.761187  1
  H  H9  1  0.957999  0.368116  0.238813  1
  H  H10  1  0.042001  0.131884  0.738813  1
  H  H11  1  0.542001  0.868116  0.261187  1
  H  H12  1  0.542001  0.368116  0.238813  1
  H  H13  1  0.042001  0.631884  0.761187  1
  H  H14  1  0.957999  0.868116  0.261187  1
  H  H15  1  0.457999  0.131884  0.738813  1
  O  O16  1  0.750000  0.362193  0.545117  1
  O  O17  1  0.750000  0.862193  0.954883  1
  O  O18  1  0.250000  0.637807  0.454883  1
  O  O19  1  0.250000  0.137807  0.045117  1
  O  O20  1  0.750000  0.913499  0.474428  1
  O  O21  1  0.250000  0.086501  0.525572  1
  O  O22  1  0.750000  0.413499  0.025572  1
  O  O23  1  0.250000  0.586501  0.974428  1
  O  O24  1  0.750000  0.331319  0.274687  1
  O  O25  1  0.250000  0.422426  0.159011  1
  O  O26  1  0.750000  0.077574  0.659011  1
  O  O27  1  0.250000  0.922426  0.340989  1
  O  O28  1  0.250000  0.168681  0.774687  1
  O  O29  1  0.750000  0.831319  0.225313  1
  O  O30  1  0.250000  0.668681  0.725313  1
  O  O31  1  0.750000  0.577574  0.840989  1
