# generated using pymatgen
data_B(HO)3
_symmetry_space_group_name_H-M   'P 1'
_cell_length_a   6.88106491
_cell_length_b   6.96595044
_cell_length_c   6.97202358
_cell_angle_alpha   60.06222678
_cell_angle_beta   77.00626470
_cell_angle_gamma   79.51183890
_symmetry_Int_Tables_number   1
_chemical_formula_structural   B(HO)3
_chemical_formula_sum   'B4 H12 O12'
_cell_volume   281.21761114
_cell_formula_units_Z   4
loop_
 _symmetry_equiv_pos_site_id
 _symmetry_equiv_pos_as_xyz
  1  'x, y, z'
loop_
 _atom_site_type_symbol
 _atom_site_label
 _atom_site_symmetry_multiplicity
 _atom_site_fract_x
 _atom_site_fract_y
 _atom_site_fract_z
 _atom_site_occupancy
  B  B0  1  0.756788  0.552563  0.757604  1
  B  B1  1  0.243212  0.447437  0.242396  1
  B  B2  1  0.256449  0.779269  0.573816  1
  B  B3  1  0.743551  0.220731  0.426184  1
  H  H4  1  0.757709  0.244909  0.023829  1
  H  H5  1  0.255298  0.045855  0.615943  1
  H  H6  1  0.744702  0.954145  0.384057  1
  H  H7  1  0.248473  0.471993  0.842087  1
  H  H8  1  0.242291  0.755091  0.976171  1
  H  H9  1  0.753719  0.594160  0.450019  1
  H  H10  1  0.246281  0.405840  0.549981  1
  H  H11  1  0.744762  0.820711  0.800840  1
  H  H12  1  0.255238  0.179289  0.199160  1
  H  H13  1  0.748840  0.179778  0.732668  1
  H  H14  1  0.251160  0.820222  0.267332  1
  H  H15  1  0.751527  0.528007  0.157913  1
  O  O16  1  0.764122  0.324397  0.856687  1
  O  O17  1  0.753474  0.680066  0.530645  1
  O  O18  1  0.246526  0.319934  0.469355  1
  O  O19  1  0.751361  0.653852  0.885521  1
  O  O20  1  0.248639  0.346148  0.114479  1
  O  O21  1  0.740487  0.094450  0.654021  1
  O  O22  1  0.259513  0.905550  0.345979  1
  O  O23  1  0.749732  0.448011  0.324428  1
  O  O24  1  0.250268  0.551989  0.675572  1
  O  O25  1  0.741944  0.120660  0.299026  1
  O  O26  1  0.258056  0.879340  0.700974  1
  O  O27  1  0.235878  0.675603  0.143313  1
