# generated using pymatgen
data_PrNb5O14
_symmetry_space_group_name_H-M   'P 1'
_cell_length_a   6.34844828
_cell_length_b   7.78965447
_cell_length_c   20.55868699
_cell_angle_alpha   90.00000000
_cell_angle_beta   90.00000000
_cell_angle_gamma   90.00000000
_symmetry_Int_Tables_number   1
_chemical_formula_structural   PrNb5O14
_chemical_formula_sum   'Pr4 Nb20 O56'
_cell_volume   1016.67268155
_cell_formula_units_Z   4
loop_
 _symmetry_equiv_pos_site_id
 _symmetry_equiv_pos_as_xyz
  1  'x, y, z'
loop_
 _atom_site_type_symbol
 _atom_site_label
 _atom_site_symmetry_multiplicity
 _atom_site_fract_x
 _atom_site_fract_y
 _atom_site_fract_z
 _atom_site_occupancy
  Pr  Pr0  1  0.953973  0.000000  0.264176  1
  Pr  Pr1  1  0.953973  0.000000  0.735824  1
  Pr  Pr2  1  0.046027  0.500000  0.235824  1
  Pr  Pr3  1  0.046027  0.500000  0.764176  1
  Nb  Nb4  1  0.497161  0.751307  0.500000  1
  Nb  Nb5  1  0.497161  0.248693  0.500000  1
  Nb  Nb6  1  0.502839  0.251307  0.000000  1
  Nb  Nb7  1  0.502839  0.748693  0.000000  1
  Nb  Nb8  1  0.051182  0.751789  0.093411  1
  Nb  Nb9  1  0.051182  0.248211  0.906589  1
  Nb  Nb10  1  0.948818  0.251789  0.406589  1
  Nb  Nb11  1  0.948818  0.748211  0.593411  1
  Nb  Nb12  1  0.948818  0.748211  0.406589  1
  Nb  Nb13  1  0.948818  0.251789  0.593411  1
  Nb  Nb14  1  0.051182  0.248211  0.093411  1
  Nb  Nb15  1  0.051182  0.751789  0.906589  1
  Nb  Nb16  1  0.410744  0.752219  0.327212  1
  Nb  Nb17  1  0.410744  0.247781  0.672788  1
  Nb  Nb18  1  0.589256  0.252219  0.172788  1
  Nb  Nb19  1  0.589256  0.747781  0.827212  1
  Nb  Nb20  1  0.589256  0.747781  0.172788  1
  Nb  Nb21  1  0.589256  0.252219  0.827212  1
  Nb  Nb22  1  0.410744  0.247781  0.327212  1
  Nb  Nb23  1  0.410744  0.752219  0.672788  1
  O  O24  1  0.328886  0.000000  0.319605  1
  O  O25  1  0.328886  0.000000  0.680395  1
  O  O26  1  0.671114  0.500000  0.180395  1
  O  O27  1  0.671114  0.500000  0.819605  1
  O  O28  1  0.335008  0.712343  0.222931  1
  O  O29  1  0.335008  0.287657  0.777069  1
  O  O30  1  0.664992  0.212343  0.277069  1
  O  O31  1  0.664992  0.787657  0.722931  1
  O  O32  1  0.664992  0.787657  0.277069  1
  O  O33  1  0.664992  0.212343  0.722931  1
  O  O34  1  0.335008  0.287657  0.222931  1
  O  O35  1  0.335008  0.712343  0.777069  1
  O  O36  1  0.610909  0.000000  0.171727  1
  O  O37  1  0.610909  0.000000  0.828273  1
  O  O38  1  0.389091  0.500000  0.328273  1
  O  O39  1  0.389091  0.500000  0.671727  1
  O  O40  1  0.910374  0.500000  0.401317  1
  O  O41  1  0.910374  0.500000  0.598683  1
  O  O42  1  0.089626  0.000000  0.098683  1
  O  O43  1  0.234227  0.244005  0.435869  1
  O  O44  1  0.089626  0.000000  0.901317  1
  O  O45  1  0.499905  0.000000  0.000000  1
  O  O46  1  0.765773  0.744005  0.064131  1
  O  O47  1  0.765773  0.255995  0.935869  1
  O  O48  1  0.925787  0.768955  0.817071  1
  O  O49  1  0.925787  0.231045  0.182929  1
  O  O50  1  0.074213  0.268955  0.682929  1
  O  O51  1  0.074213  0.731045  0.317071  1
  O  O52  1  0.074213  0.731045  0.682929  1
  O  O53  1  0.074213  0.268955  0.317071  1
  O  O54  1  0.925787  0.231045  0.817071  1
  O  O55  1  0.925787  0.768955  0.182929  1
  O  O56  1  0.158775  0.735714  0.000000  1
  O  O57  1  0.158775  0.264286  0.000000  1
  O  O58  1  0.841225  0.235714  0.500000  1
  O  O59  1  0.841225  0.764286  0.500000  1
  O  O60  1  0.609067  0.754766  0.596740  1
  O  O61  1  0.609067  0.245234  0.403260  1
  O  O62  1  0.390933  0.254766  0.903260  1
  O  O63  1  0.390933  0.745234  0.096740  1
  O  O64  1  0.390933  0.745234  0.903260  1
  O  O65  1  0.390933  0.254766  0.096740  1
  O  O66  1  0.609067  0.245234  0.596740  1
  O  O67  1  0.609067  0.754766  0.403260  1
  O  O68  1  0.504375  0.500000  0.000000  1
  O  O69  1  0.495625  0.000000  0.500000  1
  O  O70  1  0.086408  0.500000  0.883874  1
  O  O71  1  0.086408  0.500000  0.116126  1
  O  O72  1  0.913592  0.000000  0.616126  1
  O  O73  1  0.913592  0.000000  0.383874  1
  O  O74  1  0.765773  0.744005  0.935869  1
  O  O75  1  0.765773  0.255995  0.064131  1
  O  O76  1  0.234227  0.244005  0.564131  1
  O  O77  1  0.234227  0.755995  0.435869  1
  O  O78  1  0.234227  0.755995  0.564131  1
  O  O79  1  0.500095  0.500000  0.500000  1
