# generated using pymatgen
data_Lu3Ni2Ge3
_symmetry_space_group_name_H-M   'P 1'
_cell_length_a   5.45660889
_cell_length_b   5.45660889
_cell_length_c   13.83636663
_cell_angle_alpha   90.00000000
_cell_angle_beta   90.00000000
_cell_angle_gamma   135.21553960
_symmetry_Int_Tables_number   1
_chemical_formula_structural   Lu3Ni2Ge3
_chemical_formula_sum   'Lu6 Ni4 Ge6'
_cell_volume   290.21028045
_cell_formula_units_Z   2
loop_
 _symmetry_equiv_pos_site_id
 _symmetry_equiv_pos_as_xyz
  1  'x, y, z'
loop_
 _atom_site_type_symbol
 _atom_site_label
 _atom_site_symmetry_multiplicity
 _atom_site_fract_x
 _atom_site_fract_y
 _atom_site_fract_z
 _atom_site_occupancy
  Lu  Lu0  1  0.586654  0.413346  0.609373  1
  Lu  Lu1  1  0.413346  0.586654  0.390627  1
  Lu  Lu2  1  0.413346  0.586654  0.109373  1
  Lu  Lu3  1  0.586654  0.413346  0.890627  1
  Lu  Lu4  1  0.136078  0.863922  0.250000  1
  Lu  Lu5  1  0.863922  0.136078  0.750000  1
  Ni  Ni6  1  0.297845  0.702155  0.600595  1
  Ni  Ni7  1  0.702155  0.297845  0.399405  1
  Ni  Ni8  1  0.702155  0.297845  0.100595  1
  Ni  Ni9  1  0.297845  0.702155  0.899405  1
  Ge  Ge10  1  0.877647  0.122353  0.538411  1
  Ge  Ge11  1  0.122353  0.877647  0.461589  1
  Ge  Ge12  1  0.160146  0.839854  0.750000  1
  Ge  Ge13  1  0.839854  0.160146  0.250000  1
  Ge  Ge14  1  0.877647  0.122353  0.961589  1
  Ge  Ge15  1  0.122353  0.877647  0.038411  1
