# generated using pymatgen
data_Yb2Sn5Pt3
_symmetry_space_group_name_H-M   'P 1'
_cell_length_a   4.49333965
_cell_length_b   7.43751442
_cell_length_c   26.74316126
_cell_angle_alpha   90.00000000
_cell_angle_beta   90.00000000
_cell_angle_gamma   90.00000000
_symmetry_Int_Tables_number   1
_chemical_formula_structural   Yb2Sn5Pt3
_chemical_formula_sum   'Yb8 Sn20 Pt12'
_cell_volume   893.73715254
_cell_formula_units_Z   4
loop_
 _symmetry_equiv_pos_site_id
 _symmetry_equiv_pos_as_xyz
  1  'x, y, z'
loop_
 _atom_site_type_symbol
 _atom_site_label
 _atom_site_symmetry_multiplicity
 _atom_site_fract_x
 _atom_site_fract_y
 _atom_site_fract_z
 _atom_site_occupancy
  Yb  Yb0  1  0.750000  0.751394  0.577058  1
  Yb  Yb1  1  0.750000  0.782989  0.272948  1
  Yb  Yb2  1  0.250000  0.717011  0.772948  1
  Yb  Yb3  1  0.750000  0.282989  0.227052  1
  Yb  Yb4  1  0.750000  0.251394  0.922942  1
  Yb  Yb5  1  0.250000  0.248606  0.422942  1
  Yb  Yb6  1  0.250000  0.217011  0.727052  1
  Yb  Yb7  1  0.250000  0.748606  0.077058  1
  Sn  Sn8  1  0.750000  0.715381  0.868880  1
  Sn  Sn9  1  0.750000  0.379677  0.798259  1
  Sn  Sn10  1  0.750000  0.961652  0.456569  1
  Sn  Sn11  1  0.250000  0.093885  0.846864  1
  Sn  Sn12  1  0.750000  0.406115  0.346864  1
  Sn  Sn13  1  0.250000  0.538348  0.956569  1
  Sn  Sn14  1  0.250000  0.284619  0.131120  1
  Sn  Sn15  1  0.250000  0.964712  0.956520  1
  Sn  Sn16  1  0.250000  0.038348  0.543431  1
  Sn  Sn17  1  0.250000  0.784619  0.368880  1
  Sn  Sn18  1  0.250000  0.464712  0.543480  1
  Sn  Sn19  1  0.250000  0.120323  0.298259  1
  Sn  Sn20  1  0.750000  0.879677  0.701741  1
  Sn  Sn21  1  0.250000  0.620323  0.201741  1
  Sn  Sn22  1  0.750000  0.535288  0.456520  1
  Sn  Sn23  1  0.750000  0.215381  0.631120  1
  Sn  Sn24  1  0.750000  0.035288  0.043480  1
  Sn  Sn25  1  0.750000  0.461652  0.043431  1
  Sn  Sn26  1  0.750000  0.906115  0.153136  1
  Sn  Sn27  1  0.250000  0.593885  0.653136  1
  Pt  Pt28  1  0.250000  0.500729  0.298749  1
  Pt  Pt29  1  0.250000  0.464589  0.856587  1
  Pt  Pt30  1  0.750000  0.999271  0.798749  1
  Pt  Pt31  1  0.750000  0.535411  0.143413  1
  Pt  Pt32  1  0.750000  0.757303  0.972219  1
  Pt  Pt33  1  0.750000  0.257303  0.527781  1
  Pt  Pt34  1  0.750000  0.499271  0.701251  1
  Pt  Pt35  1  0.250000  0.742697  0.472219  1
  Pt  Pt36  1  0.750000  0.035411  0.356587  1
  Pt  Pt37  1  0.250000  0.964589  0.643413  1
  Pt  Pt38  1  0.250000  0.242697  0.027781  1
  Pt  Pt39  1  0.250000  0.000729  0.201251  1
