# generated using pymatgen
data_BaTm2CuO5
_symmetry_space_group_name_H-M   'P 1'
_cell_length_a   5.64869398
_cell_length_b   7.13887857
_cell_length_c   12.12921840
_cell_angle_alpha   90.00000000
_cell_angle_beta   90.00000000
_cell_angle_gamma   90.00000000
_symmetry_Int_Tables_number   1
_chemical_formula_structural   BaTm2CuO5
_chemical_formula_sum   'Ba4 Tm8 Cu4 O20'
_cell_volume   489.11486079
_cell_formula_units_Z   4
loop_
 _symmetry_equiv_pos_site_id
 _symmetry_equiv_pos_as_xyz
  1  'x, y, z'
loop_
 _atom_site_type_symbol
 _atom_site_label
 _atom_site_symmetry_multiplicity
 _atom_site_fract_x
 _atom_site_fract_y
 _atom_site_fract_z
 _atom_site_occupancy
  Ba  Ba0  1  0.250000  0.569142  0.403876  1
  Ba  Ba1  1  0.750000  0.430858  0.596124  1
  Ba  Ba2  1  0.750000  0.069142  0.096124  1
  Ba  Ba3  1  0.250000  0.930858  0.903876  1
  Tm  Tm4  1  0.250000  0.102839  0.573897  1
  Tm  Tm5  1  0.750000  0.897161  0.426103  1
  Tm  Tm6  1  0.750000  0.602839  0.926103  1
  Tm  Tm7  1  0.250000  0.397161  0.073897  1
  Tm  Tm8  1  0.250000  0.386634  0.786950  1
  Tm  Tm9  1  0.750000  0.613366  0.213050  1
  Tm  Tm10  1  0.750000  0.886634  0.713050  1
  Tm  Tm11  1  0.250000  0.113366  0.286950  1
  Cu  Cu12  1  0.250000  0.781798  0.160768  1
  Cu  Cu13  1  0.750000  0.218202  0.839232  1
  Cu  Cu14  1  0.750000  0.281798  0.339232  1
  Cu  Cu15  1  0.250000  0.718202  0.660768  1
  O  O16  1  0.250000  0.413063  0.601083  1
  O  O17  1  0.750000  0.586937  0.398917  1
  O  O18  1  0.750000  0.913063  0.898917  1
  O  O19  1  0.250000  0.086937  0.101084  1
  O  O20  1  0.002139  0.857418  0.272250  1
  O  O21  1  0.502139  0.142582  0.727750  1
  O  O22  1  0.997861  0.357418  0.227750  1
  O  O23  1  0.497861  0.642582  0.772250  1
  O  O24  1  0.997861  0.142582  0.727750  1
  O  O25  1  0.497861  0.857418  0.272250  1
  O  O26  1  0.002139  0.642582  0.772250  1
  O  O27  1  0.502139  0.357418  0.227750  1
  O  O28  1  0.496561  0.659201  0.068206  1
  O  O29  1  0.996561  0.340799  0.931794  1
  O  O30  1  0.503439  0.159201  0.431794  1
  O  O31  1  0.003439  0.840799  0.568206  1
  O  O32  1  0.996561  0.159201  0.431794  1
  O  O33  1  0.496561  0.840799  0.568206  1
  O  O34  1  0.003439  0.659201  0.068206  1
  O  O35  1  0.503439  0.340799  0.931794  1
