# generated using pymatgen
data_Li15Bi4(PdO10)2
_symmetry_space_group_name_H-M   'P 1'
_cell_length_a   5.40338486
_cell_length_b   8.12177778
_cell_length_c   11.21643266
_cell_angle_alpha   92.62260743
_cell_angle_beta   103.54695500
_cell_angle_gamma   104.35544525
_symmetry_Int_Tables_number   1
_chemical_formula_structural   Li15Bi4(PdO10)2
_chemical_formula_sum   'Li15 Bi4 Pd2 O20'
_cell_volume   460.77152435
_cell_formula_units_Z   1
loop_
 _symmetry_equiv_pos_site_id
 _symmetry_equiv_pos_as_xyz
  1  'x, y, z'
loop_
 _atom_site_type_symbol
 _atom_site_label
 _atom_site_symmetry_multiplicity
 _atom_site_fract_x
 _atom_site_fract_y
 _atom_site_fract_z
 _atom_site_occupancy
  Li  Li0  1  0.512834  0.959323  0.392683  1
  Li  Li1  1  0.465202  0.873884  0.088710  1
  Li  Li2  1  0.020850  0.814372  0.459455  1
  Li  Li3  1  0.018106  0.726057  0.199282  1
  Li  Li4  1  0.482597  0.040649  0.618566  1
  Li  Li5  1  0.526117  0.116427  0.899460  1
  Li  Li6  1  0.972597  0.188919  0.543475  1
  Li  Li7  1  0.983308  0.269389  0.795999  1
  Li  Li8  1  0.520886  0.226961  0.198389  1
  Li  Li9  1  0.991154  0.550876  0.616662  1
  Li  Li10  1  0.532761  0.309502  0.463243  1
  Li  Li11  1  0.048650  0.627647  0.900051  1
  Li  Li12  1  0.967769  0.375385  0.090858  1
  Li  Li13  1  0.458658  0.697098  0.544488  1
  Li  Li14  1  0.013736  0.459654  0.391102  1
  Bi  Bi15  1  0.503134  0.592016  0.280524  1
  Bi  Bi16  1  0.998320  0.903221  0.720449  1
  Bi  Bi17  1  0.500674  0.412059  0.721508  1
  Bi  Bi18  1  0.001510  0.093284  0.279505  1
  Pd  Pd19  1  0.498947  0.494242  0.001368  1
  Pd  Pd20  1  0.997965  0.005125  0.999567  1
  O  O21  1  0.217801  0.899453  0.913753  1
  O  O22  1  0.214144  0.980907  0.164461  1
  O  O23  1  0.251070  0.066635  0.443308  1
  O  O24  1  0.742175  0.934828  0.557447  1
  O  O25  1  0.802439  0.035128  0.835346  1
  O  O26  1  0.751687  0.561495  0.443093  1
  O  O27  1  0.254618  0.160155  0.734848  1
  O  O28  1  0.770971  0.106861  0.091391  1
  O  O29  1  0.268798  0.494942  0.837828  1
  O  O30  1  0.758662  0.199966  0.359553  1
  O  O31  1  0.732519  0.294007  0.640239  1
  O  O32  1  0.723634  0.483663  0.167098  1
  O  O33  1  0.723997  0.394175  0.911861  1
  O  O34  1  0.799902  0.644485  0.733520  1
  O  O35  1  0.249521  0.335245  0.255113  1
  O  O36  1  0.277236  0.603756  0.090603  1
  O  O37  1  0.247806  0.440693  0.557761  1
  O  O38  1  0.258435  0.700242  0.358177  1
  O  O39  1  0.230860  0.806505  0.629140  1
  O  O40  1  0.751492  0.835638  0.258266  1
