# generated using pymatgen
data_K2MgH4
_symmetry_space_group_name_H-M   'P 1'
_cell_length_a   7.41465357
_cell_length_b   7.41465357
_cell_length_c   7.41465357
_cell_angle_alpha   148.38876939
_cell_angle_beta   148.38876939
_cell_angle_gamma   45.31179018
_symmetry_Int_Tables_number   1
_chemical_formula_structural   K2MgH4
_chemical_formula_sum   'K2 Mg1 H4'
_cell_volume   111.63223815
_cell_formula_units_Z   1
loop_
 _symmetry_equiv_pos_site_id
 _symmetry_equiv_pos_as_xyz
  1  'x, y, z'
loop_
 _atom_site_type_symbol
 _atom_site_label
 _atom_site_symmetry_multiplicity
 _atom_site_fract_x
 _atom_site_fract_y
 _atom_site_fract_z
 _atom_site_occupancy
  K  K0  1  0.643741  0.643741  0.000000  1
  K  K1  1  0.356259  0.356259  0.000000  1
  Mg  Mg2  1  0.000000  0.000000  0.000000  1
  H  H3  1  1.000000  0.500000  0.500000  1
  H  H4  1  0.500000  1.000000  0.500000  1
  H  H5  1  0.853024  0.853024  0.000000  1
  H  H6  1  0.146976  0.146976  0.000000  1
