# generated using pymatgen
data_NdIn2Ir
_symmetry_space_group_name_H-M   'P 1'
_cell_length_a   5.65825744
_cell_length_b   5.65825744
_cell_length_c   8.07291198
_cell_angle_alpha   90.00000000
_cell_angle_beta   90.00000000
_cell_angle_gamma   133.92601072
_symmetry_Int_Tables_number   1
_chemical_formula_structural   NdIn2Ir
_chemical_formula_sum   'Nd2 In4 Ir2'
_cell_volume   186.15324070
_cell_formula_units_Z   2
loop_
 _symmetry_equiv_pos_site_id
 _symmetry_equiv_pos_as_xyz
  1  'x, y, z'
loop_
 _atom_site_type_symbol
 _atom_site_label
 _atom_site_symmetry_multiplicity
 _atom_site_fract_x
 _atom_site_fract_y
 _atom_site_fract_z
 _atom_site_occupancy
  Nd  Nd0  1  0.930036  0.069964  0.750000  1
  Nd  Nd1  1  0.069964  0.930036  0.250000  1
  In  In2  1  0.644949  0.355051  0.551494  1
  In  In3  1  0.355051  0.644949  0.448506  1
  In  In4  1  0.644949  0.355051  0.948506  1
  In  In5  1  0.355051  0.644949  0.051494  1
  Ir  Ir6  1  0.781485  0.218515  0.250000  1
  Ir  Ir7  1  0.218515  0.781485  0.750000  1
