# generated using pymatgen
data_Si3N4
_symmetry_space_group_name_H-M   'P 1'
_cell_length_a   7.80918673
_cell_length_b   7.80918673
_cell_length_c   5.65995100
_cell_angle_alpha   90.00000000
_cell_angle_beta   90.00000000
_cell_angle_gamma   120.00000000
_symmetry_Int_Tables_number   1
_chemical_formula_structural   Si3N4
_chemical_formula_sum   'Si12 N16'
_cell_volume   298.91996229
_cell_formula_units_Z   4
loop_
 _symmetry_equiv_pos_site_id
 _symmetry_equiv_pos_as_xyz
  1  'x, y, z'
loop_
 _atom_site_type_symbol
 _atom_site_label
 _atom_site_symmetry_multiplicity
 _atom_site_fract_x
 _atom_site_fract_y
 _atom_site_fract_z
 _atom_site_occupancy
  Si  Si0  1  0.512077  0.429649  0.660804  1
  Si  Si1  1  0.570351  0.082428  0.660804  1
  Si  Si2  1  0.917572  0.487923  0.660804  1
  Si  Si3  1  0.429649  0.512077  0.160804  1
  Si  Si4  1  0.082428  0.570351  0.160804  1
  Si  Si5  1  0.487923  0.917572  0.160804  1
  Si  Si6  1  0.167295  0.913861  0.452554  1
  Si  Si7  1  0.086139  0.253434  0.452554  1
  Si  Si8  1  0.746566  0.832705  0.452554  1
  Si  Si9  1  0.913861  0.167295  0.952554  1
  Si  Si10  1  0.253434  0.086139  0.952554  1
  Si  Si11  1  0.832705  0.746566  0.952554  1
  N  N12  1  0.610045  0.954564  0.433561  1
  N  N13  1  0.045436  0.655481  0.433561  1
  N  N14  1  0.344519  0.389955  0.433561  1
  N  N15  1  0.954564  0.610045  0.933561  1
  N  N16  1  0.655481  0.045436  0.933561  1
  N  N17  1  0.389955  0.344519  0.933561  1
  N  N18  1  0.318861  0.004342  0.698618  1
  N  N19  1  0.995658  0.314519  0.698618  1
  N  N20  1  0.685481  0.681139  0.698618  1
  N  N21  1  0.004342  0.318861  0.198618  1
  N  N22  1  0.314519  0.995658  0.198618  1
  N  N23  1  0.681139  0.685481  0.198618  1
  N  N24  1  0.666667  0.333333  0.605230  1
  N  N25  1  0.333333  0.666667  0.105230  1
  N  N26  1  0.000000  0.000000  0.453258  1
  N  N27  1  0.000000  0.000000  0.953258  1
