# generated using pymatgen
data_P2PtO7
_symmetry_space_group_name_H-M   'P 1'
_cell_length_a   7.20355972
_cell_length_b   8.04002507
_cell_length_c   9.51421304
_cell_angle_alpha   90.00000000
_cell_angle_beta   112.98765594
_cell_angle_gamma   90.00000000
_symmetry_Int_Tables_number   1
_chemical_formula_structural   P2PtO7
_chemical_formula_sum   'P8 Pt4 O28'
_cell_volume   507.27472393
_cell_formula_units_Z   4
loop_
 _symmetry_equiv_pos_site_id
 _symmetry_equiv_pos_as_xyz
  1  'x, y, z'
loop_
 _atom_site_type_symbol
 _atom_site_label
 _atom_site_symmetry_multiplicity
 _atom_site_fract_x
 _atom_site_fract_y
 _atom_site_fract_z
 _atom_site_occupancy
  P  P0  1  0.343309  0.251835  0.206566  1
  P  P1  1  0.656691  0.751835  0.293434  1
  P  P2  1  0.656691  0.748165  0.793434  1
  P  P3  1  0.343309  0.248165  0.706566  1
  P  P4  1  0.932126  0.319661  0.179994  1
  P  P5  1  0.067874  0.819661  0.320006  1
  P  P6  1  0.067874  0.680339  0.820006  1
  P  P7  1  0.932126  0.180339  0.679994  1
  Pt  Pt8  1  0.500000  0.000000  0.500000  1
  Pt  Pt9  1  0.500000  0.500000  0.000000  1
  Pt  Pt10  1  0.000000  0.500000  0.500000  1
  Pt  Pt11  1  0.000000  0.000000  0.000000  1
  O  O12  1  0.149573  0.366779  0.180946  1
  O  O13  1  0.850427  0.866779  0.319054  1
  O  O14  1  0.850427  0.633221  0.819054  1
  O  O15  1  0.149573  0.133221  0.680946  1
  O  O16  1  0.876857  0.141067  0.118336  1
  O  O17  1  0.123143  0.641067  0.381664  1
  O  O18  1  0.123143  0.858933  0.881664  1
  O  O19  1  0.876857  0.358933  0.618336  1
  O  O20  1  0.942107  0.313656  0.344726  1
  O  O21  1  0.057893  0.813656  0.155274  1
  O  O22  1  0.057893  0.686344  0.655274  1
  O  O23  1  0.942107  0.186344  0.844726  1
  O  O24  1  0.277756  0.399203  0.599687  1
  O  O25  1  0.722244  0.899203  0.900313  1
  O  O26  1  0.722244  0.600797  0.400313  1
  O  O27  1  0.277756  0.100797  0.099687  1
  O  O28  1  0.443373  0.287452  0.878215  1
  O  O29  1  0.556627  0.787452  0.621785  1
  O  O30  1  0.556627  0.712548  0.121785  1
  O  O31  1  0.443373  0.212548  0.378215  1
  O  O32  1  0.496910  0.138115  0.675810  1
  O  O33  1  0.503090  0.638115  0.824190  1
  O  O34  1  0.503090  0.861885  0.324190  1
  O  O35  1  0.496910  0.361885  0.175810  1
  O  O36  1  0.801471  0.040010  0.578782  1
  O  O37  1  0.198529  0.540010  0.921218  1
  O  O38  1  0.198529  0.959990  0.421218  1
  O  O39  1  0.801471  0.459990  0.078782  1
