# generated using pymatgen
data_NaLiSe
_symmetry_space_group_name_H-M   'P 1'
_cell_length_a   4.27993939
_cell_length_b   7.20731319
_cell_length_c   7.77681907
_cell_angle_alpha   90.00000000
_cell_angle_beta   90.00000000
_cell_angle_gamma   90.00000000
_symmetry_Int_Tables_number   1
_chemical_formula_structural   NaLiSe
_chemical_formula_sum   'Na4 Li4 Se4'
_cell_volume   239.89047723
_cell_formula_units_Z   4
loop_
 _symmetry_equiv_pos_site_id
 _symmetry_equiv_pos_as_xyz
  1  'x, y, z'
loop_
 _atom_site_type_symbol
 _atom_site_label
 _atom_site_symmetry_multiplicity
 _atom_site_fract_x
 _atom_site_fract_y
 _atom_site_fract_z
 _atom_site_occupancy
  Na  Na0  1  0.750000  0.485368  0.683412  1
  Na  Na1  1  0.250000  0.514632  0.316588  1
  Na  Na2  1  0.750000  0.985368  0.816588  1
  Na  Na3  1  0.250000  0.014632  0.183412  1
  Li  Li4  1  0.750000  0.356492  0.071789  1
  Li  Li5  1  0.250000  0.643508  0.928211  1
  Li  Li6  1  0.750000  0.856492  0.428211  1
  Li  Li7  1  0.250000  0.143508  0.571789  1
  Se  Se8  1  0.750000  0.721235  0.107014  1
  Se  Se9  1  0.250000  0.278765  0.892986  1
  Se  Se10  1  0.750000  0.221235  0.392986  1
  Se  Se11  1  0.250000  0.778765  0.607014  1
