# generated using pymatgen
data_P4(SeO2)3
_symmetry_space_group_name_H-M   'P 1'
_cell_length_a   10.26143304
_cell_length_b   8.89458369
_cell_length_c   13.29265540
_cell_angle_alpha   90.00000000
_cell_angle_beta   90.37393950
_cell_angle_gamma   90.00000000
_symmetry_Int_Tables_number   1
_chemical_formula_structural   P4(SeO2)3
_chemical_formula_sum   'P16 Se12 O24'
_cell_volume   1213.21043738
_cell_formula_units_Z   4
loop_
 _symmetry_equiv_pos_site_id
 _symmetry_equiv_pos_as_xyz
  1  'x, y, z'
loop_
 _atom_site_type_symbol
 _atom_site_label
 _atom_site_symmetry_multiplicity
 _atom_site_fract_x
 _atom_site_fract_y
 _atom_site_fract_z
 _atom_site_occupancy
  P  P0  1  0.599317  0.561977  0.703860  1
  P  P1  1  0.900683  0.061977  0.296140  1
  P  P2  1  0.400683  0.438023  0.296140  1
  P  P3  1  0.099317  0.938023  0.703860  1
  P  P4  1  0.669876  0.480926  0.366785  1
  P  P5  1  0.169876  0.019074  0.366785  1
  P  P6  1  0.330124  0.519074  0.633215  1
  P  P7  1  0.621337  0.411595  0.156675  1
  P  P8  1  0.121337  0.088405  0.156675  1
  P  P9  1  0.378663  0.588405  0.843325  1
  P  P10  1  0.948930  0.203871  0.763620  1
  P  P11  1  0.551070  0.703871  0.236380  1
  P  P12  1  0.051070  0.796129  0.236380  1
  P  P13  1  0.448930  0.296129  0.763620  1
  P  P14  1  0.878663  0.911595  0.843325  1
  P  P15  1  0.830124  0.980926  0.633215  1
  Se  Se16  1  0.694168  0.301423  0.035429  1
  Se  Se17  1  0.805832  0.801423  0.964571  1
  Se  Se18  1  0.305832  0.698577  0.964571  1
  Se  Se19  1  0.194168  0.198577  0.035429  1
  Se  Se20  1  0.701735  0.949336  0.517211  1
  Se  Se21  1  0.798265  0.449336  0.482789  1
  Se  Se22  1  0.298265  0.050664  0.482789  1
  Se  Se23  1  0.201735  0.550664  0.517211  1
  Se  Se24  1  0.958047  0.427191  0.797154  1
  Se  Se25  1  0.541953  0.927191  0.202846  1
  Se  Se26  1  0.041953  0.572809  0.202846  1
  Se  Se27  1  0.458047  0.072809  0.797154  1
  O  O28  1  0.021676  0.862806  0.803066  1
  O  O29  1  0.478324  0.362806  0.196934  1
  O  O30  1  0.978324  0.137194  0.196934  1
  O  O31  1  0.521676  0.637194  0.803066  1
  O  O32  1  0.083866  0.120881  0.733277  1
  O  O33  1  0.416134  0.620881  0.266723  1
  O  O34  1  0.916134  0.879119  0.266723  1
  O  O35  1  0.583866  0.379119  0.733277  1
  O  O36  1  0.978793  0.923693  0.617710  1
  O  O37  1  0.521207  0.423693  0.382290  1
  O  O38  1  0.021207  0.076307  0.382290  1
  O  O39  1  0.478793  0.576307  0.617710  1
  O  O40  1  0.147269  0.844564  0.330257  1
  O  O41  1  0.352731  0.344564  0.669743  1
  O  O42  1  0.790945  0.899318  0.739382  1
  O  O43  1  0.709055  0.399318  0.260618  1
  O  O44  1  0.209055  0.100682  0.260618  1
  O  O45  1  0.290945  0.600682  0.739382  1
  O  O46  1  0.894340  0.094900  0.853706  1
  O  O47  1  0.647269  0.655436  0.330257  1
  O  O48  1  0.605660  0.594900  0.146294  1
  O  O49  1  0.105660  0.905100  0.146294  1
  O  O50  1  0.394340  0.405100  0.853706  1
  O  O51  1  0.852731  0.155436  0.669743  1
