# generated using pymatgen
data_Sb2(S2O7)3
_symmetry_space_group_name_H-M   'P 1'
_cell_length_a   6.77956669
_cell_length_b   9.84343622
_cell_length_c   12.95211017
_cell_angle_alpha   87.33654180
_cell_angle_beta   82.60946412
_cell_angle_gamma   81.91152241
_symmetry_Int_Tables_number   1
_chemical_formula_structural   Sb2(S2O7)3
_chemical_formula_sum   'Sb4 S12 O42'
_cell_volume   848.28698159
_cell_formula_units_Z   2
loop_
 _symmetry_equiv_pos_site_id
 _symmetry_equiv_pos_as_xyz
  1  'x, y, z'
loop_
 _atom_site_type_symbol
 _atom_site_label
 _atom_site_symmetry_multiplicity
 _atom_site_fract_x
 _atom_site_fract_y
 _atom_site_fract_z
 _atom_site_occupancy
  Sb  Sb0  1  0.743474  0.587518  0.243035  1
  Sb  Sb1  1  0.256526  0.412482  0.756965  1
  Sb  Sb2  1  0.267191  0.092234  0.205089  1
  Sb  Sb3  1  0.732809  0.907766  0.794911  1
  S  S4  1  0.216183  0.469656  0.285570  1
  S  S5  1  0.783817  0.530344  0.714430  1
  S  S6  1  0.933971  0.312285  0.400510  1
  S  S7  1  0.066029  0.687715  0.599490  1
  S  S8  1  0.582794  0.821794  0.418995  1
  S  S9  1  0.417206  0.178206  0.581005  1
  S  S10  1  0.837039  0.934636  0.256561  1
  S  S11  1  0.162961  0.065364  0.743439  1
  S  S12  1  0.603908  0.200278  0.958841  1
  S  S13  1  0.396092  0.799722  0.041159  1
  S  S14  1  0.957170  0.276708  0.044198  1
  S  S15  1  0.042830  0.723292  0.955802  1
  O  O16  1  0.056276  0.583491  0.258189  1
  O  O17  1  0.943724  0.416509  0.741811  1
  O  O18  1  0.387976  0.525167  0.311226  1
  O  O19  1  0.612024  0.474833  0.688774  1
  O  O20  1  0.249177  0.361064  0.210885  1
  O  O21  1  0.750823  0.638936  0.789115  1
  O  O22  1  0.122711  0.407061  0.396867  1
  O  O23  1  0.877289  0.592939  0.603133  1
  O  O24  1  0.874710  0.294323  0.509004  1
  O  O25  1  0.125290  0.705677  0.490996  1
  O  O26  1  0.019145  0.188155  0.343706  1
  O  O27  1  0.980855  0.811845  0.656294  1
  O  O28  1  0.783704  0.399580  0.342833  1
  O  O29  1  0.216296  0.600420  0.657167  1
  O  O30  1  0.667823  0.673882  0.391490  1
  O  O31  1  0.332177  0.326118  0.608510  1
  O  O32  1  0.924214  0.844723  0.904032  1
  O  O33  1  0.075786  0.155277  0.095968  1
  O  O34  1  0.190728  0.646718  0.883179  1
  O  O35  1  0.809272  0.353282  0.116821  1
  O  O36  1  0.915854  0.650030  0.028526  1
  O  O37  1  0.084146  0.349970  0.971474  1
  O  O38  1  0.154827  0.818574  0.025445  1
  O  O39  1  0.845173  0.181426  0.974555  1
  O  O40  1  0.507870  0.800740  0.938216  1
  O  O41  1  0.492130  0.199260  0.061784  1
  O  O42  1  0.435437  0.677707  0.104962  1
  O  O43  1  0.564563  0.322293  0.895038  1
  O  O44  1  0.396833  0.929143  0.096058  1
  O  O45  1  0.603167  0.070857  0.903942  1
  O  O46  1  0.943167  0.059388  0.751873  1
  O  O47  1  0.056833  0.940612  0.248127  1
  O  O48  1  0.200217  0.187946  0.795717  1
  O  O49  1  0.799783  0.812054  0.204283  1
  O  O50  1  0.283669  0.941052  0.771816  1
  O  O51  1  0.716331  0.058948  0.228184  1
  O  O52  1  0.214553  0.096774  0.619389  1
  O  O53  1  0.785447  0.903226  0.380611  1
  O  O54  1  0.444183  0.164393  0.470953  1
  O  O55  1  0.555817  0.835607  0.529047  1
  O  O56  1  0.570501  0.121197  0.643935  1
  O  O57  1  0.429499  0.878803  0.356065  1
