# generated using pymatgen
data_Tb(FeGe)2
_symmetry_space_group_name_H-M   'P 1'
_cell_length_a   6.03775159
_cell_length_b   6.03775159
_cell_length_c   6.03775159
_cell_angle_alpha   141.78125626
_cell_angle_beta   141.78125626
_cell_angle_gamma   55.15843687
_symmetry_Int_Tables_number   1
_chemical_formula_structural   Tb(FeGe)2
_chemical_formula_sum   'Tb1 Fe2 Ge2'
_cell_volume   83.63456675
_cell_formula_units_Z   1
loop_
 _symmetry_equiv_pos_site_id
 _symmetry_equiv_pos_as_xyz
  1  'x, y, z'
loop_
 _atom_site_type_symbol
 _atom_site_label
 _atom_site_symmetry_multiplicity
 _atom_site_fract_x
 _atom_site_fract_y
 _atom_site_fract_z
 _atom_site_occupancy
  Tb  Tb0  1  0.000000  0.000000  0.000000  1
  Fe  Fe1  1  0.750000  0.250000  0.500000  1
  Fe  Fe2  1  0.250000  0.750000  0.500000  1
  Ge  Ge3  1  0.618141  0.618141  0.000000  1
  Ge  Ge4  1  0.381859  0.381859  0.000000  1
