# generated using pymatgen
data_SrIn2Pd
_symmetry_space_group_name_H-M   'P 1'
_cell_length_a   5.94885720
_cell_length_b   5.94885720
_cell_length_c   8.01838318
_cell_angle_alpha   90.00000000
_cell_angle_beta   90.00000000
_cell_angle_gamma   134.43906992
_symmetry_Int_Tables_number   1
_chemical_formula_structural   SrIn2Pd
_chemical_formula_sum   'Sr2 In4 Pd2'
_cell_volume   202.60460703
_cell_formula_units_Z   2
loop_
 _symmetry_equiv_pos_site_id
 _symmetry_equiv_pos_as_xyz
  1  'x, y, z'
loop_
 _atom_site_type_symbol
 _atom_site_label
 _atom_site_symmetry_multiplicity
 _atom_site_fract_x
 _atom_site_fract_y
 _atom_site_fract_z
 _atom_site_occupancy
  Sr  Sr0  1  0.939248  0.060752  0.750000  1
  Sr  Sr1  1  0.060752  0.939248  0.250000  1
  In  In2  1  0.651617  0.348383  0.945627  1
  In  In3  1  0.348383  0.651617  0.054373  1
  In  In4  1  0.348383  0.651617  0.445627  1
  In  In5  1  0.651617  0.348383  0.554373  1
  Pd  Pd6  1  0.219965  0.780035  0.750000  1
  Pd  Pd7  1  0.780035  0.219965  0.250000  1
