# generated using pymatgen
data_PbSe
_symmetry_space_group_name_H-M   'P 1'
_cell_length_a   12.40111132
_cell_length_b   12.39927578
_cell_length_c   4.41488959
_cell_angle_alpha   79.76916702
_cell_angle_beta   79.72228520
_cell_angle_gamma   20.50854778
_symmetry_Int_Tables_number   1
_chemical_formula_structural   PbSe
_chemical_formula_sum   'Pb2 Se2'
_cell_volume   233.90993596
_cell_formula_units_Z   2
loop_
 _symmetry_equiv_pos_site_id
 _symmetry_equiv_pos_as_xyz
  1  'x, y, z'
loop_
 _atom_site_type_symbol
 _atom_site_label
 _atom_site_symmetry_multiplicity
 _atom_site_fract_x
 _atom_site_fract_y
 _atom_site_fract_z
 _atom_site_occupancy
  Pb  Pb0  1  0.809270  0.805267  0.194733  1
  Pb  Pb1  1  0.194733  0.190730  0.809270  1
  Se  Se2  1  0.325577  0.295581  0.704419  1
  Se  Se3  1  0.704419  0.674423  0.325577  1
