# generated using pymatgen
data_ThCl4
_symmetry_space_group_name_H-M   'P 1'
_cell_length_a   7.17563324
_cell_length_b   7.17563324
_cell_length_c   7.17563324
_cell_angle_alpha   106.76886146
_cell_angle_beta   106.76886146
_cell_angle_gamma   115.02268368
_symmetry_Int_Tables_number   1
_chemical_formula_structural   ThCl4
_chemical_formula_sum   'Th2 Cl8'
_cell_volume   282.39704104
_cell_formula_units_Z   2
loop_
 _symmetry_equiv_pos_site_id
 _symmetry_equiv_pos_as_xyz
  1  'x, y, z'
loop_
 _atom_site_type_symbol
 _atom_site_label
 _atom_site_symmetry_multiplicity
 _atom_site_fract_x
 _atom_site_fract_y
 _atom_site_fract_z
 _atom_site_occupancy
  Th  Th0  1  0.250000  0.750000  0.500000  1
  Th  Th1  1  0.000000  0.000000  0.000000  1
  Cl  Cl2  1  0.383281  0.070284  0.312997  1
  Cl  Cl3  1  0.320284  0.507287  0.187003  1
  Cl  Cl4  1  0.929716  0.242713  0.312997  1
  Cl  Cl5  1  0.866719  0.679716  0.187003  1
  Cl  Cl6  1  0.492713  0.679716  0.812997  1
  Cl  Cl7  1  0.929716  0.616719  0.687003  1
  Cl  Cl8  1  0.757287  0.070284  0.687003  1
  Cl  Cl9  1  0.320284  0.133281  0.812997  1
