# generated using pymatgen
data_LiNb(PO3)4
_symmetry_space_group_name_H-M   'P 1'
_cell_length_a   7.40469340
_cell_length_b   7.40469340
_cell_length_c   10.22509292
_cell_angle_alpha   66.33694677
_cell_angle_beta   113.66305323
_cell_angle_gamma   110.21658059
_symmetry_Int_Tables_number   1
_chemical_formula_structural   LiNb(PO3)4
_chemical_formula_sum   'Li2 Nb2 P8 O24'
_cell_volume   458.81186684
_cell_formula_units_Z   2
loop_
 _symmetry_equiv_pos_site_id
 _symmetry_equiv_pos_as_xyz
  1  'x, y, z'
loop_
 _atom_site_type_symbol
 _atom_site_label
 _atom_site_symmetry_multiplicity
 _atom_site_fract_x
 _atom_site_fract_y
 _atom_site_fract_z
 _atom_site_occupancy
  Li  Li0  1  0.500000  0.000000  0.000000  1
  Li  Li1  1  0.000000  0.500000  0.500000  1
  Nb  Nb2  1  0.943413  0.943413  0.250000  1
  Nb  Nb3  1  0.056587  0.056587  0.750000  1
  P  P4  1  0.276434  0.258523  0.477266  1
  P  P5  1  0.723566  0.741477  0.522734  1
  P  P6  1  0.704782  0.310547  0.198680  1
  P  P7  1  0.689453  0.295218  0.698680  1
  P  P8  1  0.310547  0.704782  0.301320  1
  P  P9  1  0.741477  0.723566  0.977266  1
  P  P10  1  0.258523  0.276434  0.022734  1
  P  P11  1  0.295218  0.689453  0.801320  1
  O  O12  1  0.498874  0.774169  0.437325  1
  O  O13  1  0.281050  0.873904  0.824290  1
  O  O14  1  0.225831  0.501126  0.937325  1
  O  O15  1  0.718161  0.808866  0.081592  1
  O  O16  1  0.094357  0.161971  0.094338  1
  O  O17  1  0.808866  0.718161  0.418408  1
  O  O18  1  0.281839  0.191134  0.918408  1
  O  O19  1  0.161971  0.094357  0.405662  1
  O  O20  1  0.306221  0.466541  0.347535  1
  O  O21  1  0.873904  0.281050  0.675710  1
  O  O22  1  0.126096  0.718950  0.324290  1
  O  O23  1  0.501126  0.225831  0.562675  1
  O  O24  1  0.650404  0.192674  0.844290  1
  O  O25  1  0.905643  0.838029  0.905662  1
  O  O26  1  0.533459  0.693779  0.847535  1
  O  O27  1  0.466541  0.306221  0.152465  1
  O  O28  1  0.807326  0.349596  0.344290  1
  O  O29  1  0.192674  0.650404  0.655710  1
  O  O30  1  0.774169  0.498874  0.062675  1
  O  O31  1  0.349596  0.807326  0.155710  1
  O  O32  1  0.191134  0.281839  0.581592  1
  O  O33  1  0.718950  0.126096  0.175710  1
  O  O34  1  0.693779  0.533459  0.652465  1
  O  O35  1  0.838029  0.905643  0.594338  1
