# generated using pymatgen
data_H3OF
_symmetry_space_group_name_H-M   'P 1'
_cell_length_a   4.18265379
_cell_length_b   6.28316085
_cell_length_c   6.43374456
_cell_angle_alpha   90.00000000
_cell_angle_beta   90.00000000
_cell_angle_gamma   90.00000000
_symmetry_Int_Tables_number   1
_chemical_formula_structural   H3OF
_chemical_formula_sum   'H12 O4 F4'
_cell_volume   169.08065058
_cell_formula_units_Z   4
loop_
 _symmetry_equiv_pos_site_id
 _symmetry_equiv_pos_as_xyz
  1  'x, y, z'
loop_
 _atom_site_type_symbol
 _atom_site_label
 _atom_site_symmetry_multiplicity
 _atom_site_fract_x
 _atom_site_fract_y
 _atom_site_fract_z
 _atom_site_occupancy
  H  H0  1  0.750000  0.045075  0.204141  1
  H  H1  1  0.250000  0.954925  0.795859  1
  H  H2  1  0.750000  0.454925  0.704141  1
  H  H3  1  0.250000  0.545075  0.295859  1
  H  H4  1  0.454759  0.739708  0.882001  1
  H  H5  1  0.954759  0.260292  0.117999  1
  H  H6  1  0.045241  0.760292  0.382001  1
  H  H7  1  0.545241  0.239708  0.617999  1
  H  H8  1  0.454759  0.760292  0.382001  1
  H  H9  1  0.954759  0.239708  0.617999  1
  H  H10  1  0.045241  0.739708  0.882001  1
  H  H11  1  0.545241  0.260292  0.117999  1
  O  O12  1  0.250000  0.669411  0.402498  1
  O  O13  1  0.750000  0.330589  0.597502  1
  O  O14  1  0.250000  0.830589  0.902498  1
  O  O15  1  0.750000  0.169411  0.097502  1
  F  F16  1  0.750000  0.874046  0.351652  1
  F  F17  1  0.250000  0.125954  0.648348  1
  F  F18  1  0.750000  0.625954  0.851652  1
  F  F19  1  0.250000  0.374046  0.148348  1
