# generated using pymatgen
data_YbMnO3
_symmetry_space_group_name_H-M   'P 1'
_cell_length_a   5.24392017
_cell_length_b   5.36995634
_cell_length_c   7.46957837
_cell_angle_alpha   90.00000000
_cell_angle_beta   90.00000000
_cell_angle_gamma   90.00000000
_symmetry_Int_Tables_number   1
_chemical_formula_structural   YbMnO3
_chemical_formula_sum   'Yb4 Mn4 O12'
_cell_volume   210.34050611
_cell_formula_units_Z   4
loop_
 _symmetry_equiv_pos_site_id
 _symmetry_equiv_pos_as_xyz
  1  'x, y, z'
loop_
 _atom_site_type_symbol
 _atom_site_label
 _atom_site_symmetry_multiplicity
 _atom_site_fract_x
 _atom_site_fract_y
 _atom_site_fract_z
 _atom_site_occupancy
  Yb  Yb0  1  0.012909  0.945451  0.250000  1
  Yb  Yb1  1  0.512909  0.554549  0.750000  1
  Yb  Yb2  1  0.487091  0.445451  0.250000  1
  Yb  Yb3  1  0.987091  0.054549  0.750000  1
  Mn  Mn4  1  0.500000  0.000000  0.000000  1
  Mn  Mn5  1  0.000000  0.500000  0.000000  1
  Mn  Mn6  1  0.000000  0.500000  0.500000  1
  Mn  Mn7  1  0.500000  0.000000  0.500000  1
  O  O8  1  0.702634  0.295086  0.956568  1
  O  O9  1  0.202634  0.204914  0.043432  1
  O  O10  1  0.797366  0.795086  0.543432  1
  O  O11  1  0.297366  0.704914  0.456568  1
  O  O12  1  0.297366  0.704914  0.043432  1
  O  O13  1  0.797366  0.795086  0.956568  1
  O  O14  1  0.202634  0.204914  0.456568  1
  O  O15  1  0.702634  0.295086  0.543432  1
  O  O16  1  0.084119  0.480074  0.750000  1
  O  O17  1  0.584119  0.019926  0.250000  1
  O  O18  1  0.415881  0.980074  0.750000  1
  O  O19  1  0.915881  0.519926  0.250000  1
