# generated using pymatgen
data_Ce2CoSi3
_symmetry_space_group_name_H-M   'P 1'
_cell_length_a   8.03831350
_cell_length_b   8.03831350
_cell_length_c   4.10653360
_cell_angle_alpha   90.00000000
_cell_angle_beta   90.00000000
_cell_angle_gamma   120.00000000
_symmetry_Int_Tables_number   1
_chemical_formula_structural   Ce2CoSi3
_chemical_formula_sum   'Ce4 Co2 Si6'
_cell_volume   229.79252224
_cell_formula_units_Z   2
loop_
 _symmetry_equiv_pos_site_id
 _symmetry_equiv_pos_as_xyz
  1  'x, y, z'
loop_
 _atom_site_type_symbol
 _atom_site_label
 _atom_site_symmetry_multiplicity
 _atom_site_fract_x
 _atom_site_fract_y
 _atom_site_fract_z
 _atom_site_occupancy
  Ce  Ce0  1  0.500000  0.500000  0.000000  1
  Ce  Ce1  1  0.000000  0.500000  0.000000  1
  Ce  Ce2  1  0.500000  0.000000  0.000000  1
  Ce  Ce3  1  0.000000  0.000000  0.000000  1
  Co  Co4  1  0.333333  0.666667  0.500000  1
  Co  Co5  1  0.666667  0.333333  0.500000  1
  Si  Si6  1  0.830034  0.660068  0.500000  1
  Si  Si7  1  0.169966  0.830034  0.500000  1
  Si  Si8  1  0.660068  0.830034  0.500000  1
  Si  Si9  1  0.169966  0.339932  0.500000  1
  Si  Si10  1  0.830034  0.169966  0.500000  1
  Si  Si11  1  0.339932  0.169966  0.500000  1
