# generated using pymatgen
data_Pb7(BrF6)2
_symmetry_space_group_name_H-M   'P 1'
_cell_length_a   10.50597041
_cell_length_b   10.50597041
_cell_length_c   4.05551003
_cell_angle_alpha   90.00000000
_cell_angle_beta   90.00000000
_cell_angle_gamma   120.00000000
_symmetry_Int_Tables_number   1
_chemical_formula_structural   Pb7(BrF6)2
_chemical_formula_sum   'Pb7 Br2 F12'
_cell_volume   387.65773870
_cell_formula_units_Z   1
loop_
 _symmetry_equiv_pos_site_id
 _symmetry_equiv_pos_as_xyz
  1  'x, y, z'
loop_
 _atom_site_type_symbol
 _atom_site_label
 _atom_site_symmetry_multiplicity
 _atom_site_fract_x
 _atom_site_fract_y
 _atom_site_fract_z
 _atom_site_occupancy
  Pb  Pb0  1  0.588538  0.688248  0.000000  1
  Pb  Pb1  1  0.713523  0.106469  0.500000  1
  Pb  Pb2  1  0.893531  0.607054  0.500000  1
  Pb  Pb3  1  0.392946  0.286477  0.500000  1
  Pb  Pb4  1  0.099710  0.411462  0.000000  1
  Pb  Pb5  1  0.311752  0.900290  0.000000  1
  Pb  Pb6  1  0.000000  0.000000  0.000000  1
  Br  Br7  1  0.666667  0.333333  0.000000  1
  Br  Br8  1  0.333333  0.666667  0.500000  1
  F  F9  1  0.425673  0.039496  0.500000  1
  F  F10  1  0.613823  0.574327  0.500000  1
  F  F11  1  0.960504  0.386177  0.500000  1
  F  F12  1  0.128931  0.206395  0.500000  1
  F  F13  1  0.077464  0.871069  0.500000  1
  F  F14  1  0.793605  0.922536  0.500000  1
  F  F15  1  0.567744  0.950843  0.000000  1
  F  F16  1  0.049157  0.616901  0.000000  1
  F  F17  1  0.383099  0.432256  0.000000  1
  F  F18  1  0.274902  0.114307  0.000000  1
  F  F19  1  0.839405  0.725098  0.000000  1
  F  F20  1  0.885693  0.160595  0.000000  1
