# generated using pymatgen
data_CuH12Br4(NO)2
_symmetry_space_group_name_H-M   'P 1'
_cell_length_a   8.10988952
_cell_length_b   8.10988952
_cell_length_c   8.29563017
_cell_angle_alpha   90.00000000
_cell_angle_beta   90.00000000
_cell_angle_gamma   90.00000000
_symmetry_Int_Tables_number   1
_chemical_formula_structural   CuH12Br4(NO)2
_chemical_formula_sum   'Cu2 H24 Br8 N4 O4'
_cell_volume   545.60615156
_cell_formula_units_Z   2
loop_
 _symmetry_equiv_pos_site_id
 _symmetry_equiv_pos_as_xyz
  1  'x, y, z'
loop_
 _atom_site_type_symbol
 _atom_site_label
 _atom_site_symmetry_multiplicity
 _atom_site_fract_x
 _atom_site_fract_y
 _atom_site_fract_z
 _atom_site_occupancy
  Cu  Cu0  1  0.500000  0.500000  0.500000  1
  Cu  Cu1  1  0.000000  0.000000  0.000000  1
  H  H2  1  0.929655  0.929655  0.693766  1
  H  H3  1  0.070345  0.070345  0.693766  1
  H  H4  1  0.929655  0.929655  0.306234  1
  H  H5  1  0.429655  0.570345  0.193766  1
  H  H6  1  0.570345  0.429655  0.193766  1
  H  H7  1  0.570345  0.429655  0.806234  1
  H  H8  1  0.429655  0.570345  0.806234  1
  H  H9  1  0.070345  0.070345  0.306234  1
  H  H10  1  0.071201  0.423226  0.321877  1
  H  H11  1  0.928799  0.576774  0.321877  1
  H  H12  1  0.423226  0.071201  0.678123  1
  H  H13  1  0.923226  0.428799  0.821877  1
  H  H14  1  0.076774  0.571201  0.821877  1
  H  H15  1  0.428799  0.923226  0.178123  1
  H  H16  1  0.571201  0.076774  0.178123  1
  H  H17  1  0.576774  0.928799  0.678123  1
  H  H18  1  0.928799  0.576774  0.678123  1
  H  H19  1  0.071201  0.423226  0.678123  1
  H  H20  1  0.423226  0.071201  0.321877  1
  H  H21  1  0.428799  0.923226  0.821877  1
  H  H22  1  0.571201  0.076774  0.821877  1
  H  H23  1  0.923226  0.428799  0.178123  1
  H  H24  1  0.076774  0.571201  0.178123  1
  H  H25  1  0.576774  0.928799  0.321877  1
  Br  Br26  1  0.214926  0.214926  0.500000  1
  Br  Br27  1  0.714926  0.285074  0.000000  1
  Br  Br28  1  0.788314  0.788314  0.000000  1
  Br  Br29  1  0.711686  0.288314  0.500000  1
  Br  Br30  1  0.288314  0.711686  0.500000  1
  Br  Br31  1  0.211686  0.211686  0.000000  1
  Br  Br32  1  0.285074  0.714926  0.000000  1
  Br  Br33  1  0.785074  0.785074  0.500000  1
  N  N34  1  0.000000  0.500000  0.750000  1
  N  N35  1  0.000000  0.500000  0.250000  1
  N  N36  1  0.500000  0.000000  0.750000  1
  N  N37  1  0.500000  0.000000  0.250000  1
  O  O38  1  0.000000  0.000000  0.762929  1
  O  O39  1  0.500000  0.500000  0.262929  1
  O  O40  1  0.500000  0.500000  0.737071  1
  O  O41  1  0.000000  0.000000  0.237071  1
