# generated using pymatgen
data_CaNiBP2H3O10
_symmetry_space_group_name_H-M   'P 1'
_cell_length_a   6.68114713
_cell_length_b   6.68114713
_cell_length_c   9.24140855
_cell_angle_alpha   70.34891968
_cell_angle_beta   109.65108032
_cell_angle_gamma   101.77204575
_symmetry_Int_Tables_number   1
_chemical_formula_structural   CaNiBP2H3O10
_chemical_formula_sum   'Ca2 Ni2 B2 P4 H6 O20'
_cell_volume   363.93555109
_cell_formula_units_Z   2
loop_
 _symmetry_equiv_pos_site_id
 _symmetry_equiv_pos_as_xyz
  1  'x, y, z'
loop_
 _atom_site_type_symbol
 _atom_site_label
 _atom_site_symmetry_multiplicity
 _atom_site_fract_x
 _atom_site_fract_y
 _atom_site_fract_z
 _atom_site_occupancy
  Ca  Ca0  1  0.125676  0.125676  0.250000  1
  Ca  Ca1  1  0.874324  0.874324  0.750000  1
  Ni  Ni2  1  0.500000  0.000000  0.000000  1
  Ni  Ni3  1  1.000000  0.500000  0.500000  1
  B  B4  1  0.527603  0.527603  0.250000  1
  B  B5  1  0.472397  0.472397  0.750000  1
  P  P6  1  0.152838  0.717447  0.173048  1
  P  P7  1  0.717447  0.152838  0.326952  1
  P  P8  1  0.282553  0.847162  0.673048  1
  P  P9  1  0.847162  0.282553  0.826952  1
  H  H10  1  0.000000  0.500000  0.000000  1
  H  H11  1  0.500000  0.000000  0.500000  1
  H  H12  1  0.662588  0.694405  0.414880  1
  H  H13  1  0.694405  0.662588  0.085120  1
  H  H14  1  0.305595  0.337412  0.914880  1
  H  H15  1  0.337412  0.305595  0.585120  1
  O  O16  1  0.299685  0.529694  0.243274  1
  O  O17  1  0.676847  0.560993  0.398868  1
  O  O18  1  0.470306  0.700315  0.743274  1
  O  O19  1  0.700315  0.470306  0.756726  1
  O  O20  1  0.529694  0.299685  0.256726  1
  O  O21  1  0.560993  0.676847  0.101132  1
  O  O22  1  0.653566  0.970380  0.470371  1
  O  O23  1  0.970380  0.653566  0.029629  1
  O  O24  1  0.346434  0.029620  0.529629  1
  O  O25  1  0.029620  0.346434  0.970371  1
  O  O26  1  0.323153  0.439007  0.601132  1
  O  O27  1  0.061437  0.731524  0.613736  1
  O  O28  1  0.268476  0.938563  0.113736  1
  O  O29  1  0.938563  0.268476  0.386264  1
  O  O30  1  0.266235  0.938819  0.798865  1
  O  O31  1  0.938819  0.266235  0.701135  1
  O  O32  1  0.733765  0.061181  0.201135  1
  O  O33  1  0.061181  0.733765  0.298865  1
  O  O34  1  0.439007  0.323153  0.898868  1
  O  O35  1  0.731524  0.061437  0.886264  1
