# generated using pymatgen
data_Li2CrO4
_symmetry_space_group_name_H-M   'P 1'
_cell_length_a   8.78930092
_cell_length_b   8.78930092
_cell_length_c   8.78930092
_cell_angle_alpha   107.73749666
_cell_angle_beta   107.73749666
_cell_angle_gamma   107.73749666
_symmetry_Int_Tables_number   1
_chemical_formula_structural   Li2CrO4
_chemical_formula_sum   'Li12 Cr6 O24'
_cell_volume   553.69894711
_cell_formula_units_Z   6
loop_
 _symmetry_equiv_pos_site_id
 _symmetry_equiv_pos_as_xyz
  1  'x, y, z'
loop_
 _atom_site_type_symbol
 _atom_site_label
 _atom_site_symmetry_multiplicity
 _atom_site_fract_x
 _atom_site_fract_y
 _atom_site_fract_z
 _atom_site_occupancy
  Li  Li0  1  0.622605  0.395883  0.223579  1
  Li  Li1  1  0.223579  0.622605  0.395883  1
  Li  Li2  1  0.395883  0.223579  0.622605  1
  Li  Li3  1  0.377395  0.604117  0.776421  1
  Li  Li4  1  0.776421  0.377395  0.604117  1
  Li  Li5  1  0.604117  0.776421  0.377395  1
  Li  Li6  1  0.294800  0.060979  0.887709  1
  Li  Li7  1  0.887709  0.294800  0.060979  1
  Li  Li8  1  0.060979  0.887709  0.294800  1
  Li  Li9  1  0.705200  0.939021  0.112291  1
  Li  Li10  1  0.112291  0.705200  0.939021  1
  Li  Li11  1  0.939021  0.112291  0.705200  1
  Cr  Cr12  1  0.959467  0.734331  0.552332  1
  Cr  Cr13  1  0.552332  0.959467  0.734331  1
  Cr  Cr14  1  0.734331  0.552332  0.959467  1
  Cr  Cr15  1  0.040533  0.265669  0.447668  1
  Cr  Cr16  1  0.447668  0.040533  0.265669  1
  Cr  Cr17  1  0.265669  0.447668  0.040533  1
  O  O18  1  0.857064  0.863968  0.535835  1
  O  O19  1  0.535835  0.857064  0.863968  1
  O  O20  1  0.863968  0.535835  0.857064  1
  O  O21  1  0.142936  0.136032  0.464165  1
  O  O22  1  0.464165  0.142936  0.136032  1
  O  O23  1  0.136032  0.464165  0.142936  1
  O  O24  1  0.070754  0.741420  0.429465  1
  O  O25  1  0.429465  0.070754  0.741420  1
  O  O26  1  0.741420  0.429465  0.070754  1
  O  O27  1  0.929246  0.258580  0.570535  1
  O  O28  1  0.570535  0.929246  0.258580  1
  O  O29  1  0.258580  0.570535  0.929246  1
  O  O30  1  0.807265  0.527038  0.475485  1
  O  O31  1  0.475485  0.807265  0.527038  1
  O  O32  1  0.527038  0.475485  0.807265  1
  O  O33  1  0.192735  0.472962  0.524515  1
  O  O34  1  0.524515  0.192735  0.472962  1
  O  O35  1  0.472962  0.524515  0.192735  1
  O  O36  1  0.100857  0.809997  0.764604  1
  O  O37  1  0.764604  0.100857  0.809997  1
  O  O38  1  0.809997  0.764605  0.100857  1
  O  O39  1  0.899143  0.190003  0.235396  1
  O  O40  1  0.235396  0.899143  0.190003  1
  O  O41  1  0.190003  0.235396  0.899143  1
