# generated using pymatgen
data_HoGeRu
_symmetry_space_group_name_H-M   'P 1'
_cell_length_a   4.41526218
_cell_length_b   7.02389220
_cell_length_c   7.25200254
_cell_angle_alpha   90.00000000
_cell_angle_beta   90.00000000
_cell_angle_gamma   90.00000000
_symmetry_Int_Tables_number   1
_chemical_formula_structural   HoGeRu
_chemical_formula_sum   'Ho4 Ge4 Ru4'
_cell_volume   224.90146393
_cell_formula_units_Z   4
loop_
 _symmetry_equiv_pos_site_id
 _symmetry_equiv_pos_as_xyz
  1  'x, y, z'
loop_
 _atom_site_type_symbol
 _atom_site_label
 _atom_site_symmetry_multiplicity
 _atom_site_fract_x
 _atom_site_fract_y
 _atom_site_fract_z
 _atom_site_occupancy
  Ho  Ho0  1  0.250000  0.487113  0.191823  1
  Ho  Ho1  1  0.750000  0.512887  0.808177  1
  Ho  Ho2  1  0.250000  0.987113  0.308177  1
  Ho  Ho3  1  0.750000  0.012887  0.691823  1
  Ge  Ge4  1  0.250000  0.796371  0.892925  1
  Ge  Ge5  1  0.750000  0.203629  0.107075  1
  Ge  Ge6  1  0.250000  0.296371  0.607075  1
  Ge  Ge7  1  0.750000  0.703629  0.392925  1
  Ru  Ru8  1  0.750000  0.844820  0.063170  1
  Ru  Ru9  1  0.250000  0.155180  0.936830  1
  Ru  Ru10  1  0.750000  0.344820  0.436830  1
  Ru  Ru11  1  0.250000  0.655180  0.563170  1
