# generated using pymatgen
data_MnAs
_symmetry_space_group_name_H-M   'P 1'
_cell_length_a   3.42267518
_cell_length_b   5.55722078
_cell_length_c   6.03514172
_cell_angle_alpha   90.00000000
_cell_angle_beta   90.00000000
_cell_angle_gamma   90.00000000
_symmetry_Int_Tables_number   1
_chemical_formula_structural   MnAs
_chemical_formula_sum   'Mn4 As4'
_cell_volume   114.79178505
_cell_formula_units_Z   4
loop_
 _symmetry_equiv_pos_site_id
 _symmetry_equiv_pos_as_xyz
  1  'x, y, z'
loop_
 _atom_site_type_symbol
 _atom_site_label
 _atom_site_symmetry_multiplicity
 _atom_site_fract_x
 _atom_site_fract_y
 _atom_site_fract_z
 _atom_site_occupancy
  Mn  Mn0  1  0.750000  0.996710  0.189798  1
  Mn  Mn1  1  0.250000  0.003290  0.810202  1
  Mn  Mn2  1  0.750000  0.496710  0.310202  1
  Mn  Mn3  1  0.250000  0.503290  0.689798  1
  As  As4  1  0.750000  0.803526  0.581169  1
  As  As5  1  0.250000  0.196474  0.418831  1
  As  As6  1  0.750000  0.303526  0.918831  1
  As  As7  1  0.250000  0.696474  0.081169  1
