# generated using pymatgen
data_K2CuH12(SO7)2
_symmetry_space_group_name_H-M   'P 1'
_cell_length_a   6.18425460
_cell_length_b   12.32451727
_cell_length_c   9.13744781
_cell_angle_alpha   90.00000000
_cell_angle_beta   104.19424462
_cell_angle_gamma   90.00000000
_symmetry_Int_Tables_number   1
_chemical_formula_structural   K2CuH12(SO7)2
_chemical_formula_sum   'K4 Cu2 H24 S4 O28'
_cell_volume   675.17531520
_cell_formula_units_Z   2
loop_
 _symmetry_equiv_pos_site_id
 _symmetry_equiv_pos_as_xyz
  1  'x, y, z'
loop_
 _atom_site_type_symbol
 _atom_site_label
 _atom_site_symmetry_multiplicity
 _atom_site_fract_x
 _atom_site_fract_y
 _atom_site_fract_z
 _atom_site_occupancy
  K  K0  1  0.345847  0.849699  0.624421  1
  K  K1  1  0.345847  0.650301  0.124421  1
  K  K2  1  0.654153  0.349699  0.875579  1
  K  K3  1  0.654153  0.150301  0.375579  1
  Cu  Cu4  1  0.000000  0.000000  0.000000  1
  Cu  Cu5  1  0.000000  0.500000  0.500000  1
  H  H6  1  0.673600  0.560784  0.601378  1
  H  H7  1  0.925481  0.606678  0.210400  1
  H  H8  1  0.995478  0.304600  0.663564  1
  H  H9  1  0.326400  0.439216  0.398622  1
  H  H10  1  0.684848  0.858237  0.965764  1
  H  H11  1  0.681692  0.410659  0.296569  1
  H  H12  1  0.074519  0.106678  0.289600  1
  H  H13  1  0.681692  0.089341  0.796569  1
  H  H14  1  0.084583  0.623903  0.738943  1
  H  H15  1  0.673600  0.939216  0.101378  1
  H  H16  1  0.915417  0.123903  0.761057  1
  H  H17  1  0.084583  0.876097  0.238943  1
  H  H18  1  0.684848  0.641763  0.465764  1
  H  H19  1  0.004522  0.804600  0.836436  1
  H  H20  1  0.915417  0.376097  0.261057  1
  H  H21  1  0.315152  0.358237  0.534236  1
  H  H22  1  0.004522  0.695400  0.336436  1
  H  H23  1  0.315152  0.141763  0.034236  1
  H  H24  1  0.925481  0.893322  0.710400  1
  H  H25  1  0.326400  0.060784  0.898622  1
  H  H26  1  0.074519  0.393322  0.789600  1
  H  H27  1  0.318308  0.589341  0.703431  1
  H  H28  1  0.995478  0.195400  0.163564  1
  H  H29  1  0.318308  0.910659  0.203431  1
  S  S30  1  0.723404  0.861790  0.397224  1
  S  S31  1  0.276596  0.138210  0.602776  1
  S  S32  1  0.276596  0.361790  0.102776  1
  S  S33  1  0.723404  0.638210  0.897224  1
  O  O34  1  0.950899  0.667064  0.879006  1
  O  O35  1  0.740560  0.922601  0.539750  1
  O  O36  1  0.049101  0.167064  0.620994  1
  O  O37  1  0.710522  0.564581  0.500706  1
  O  O38  1  0.588133  0.738980  0.896271  1
  O  O39  1  0.394541  0.067787  0.732354  1
  O  O40  1  0.289478  0.435419  0.499294  1
  O  O41  1  0.394541  0.432213  0.232354  1
  O  O42  1  0.838361  0.112363  0.843588  1
  O  O43  1  0.710522  0.935419  0.000706  1
  O  O44  1  0.161639  0.612363  0.656412  1
  O  O45  1  0.605459  0.567787  0.767646  1
  O  O46  1  0.838361  0.387637  0.343588  1
  O  O47  1  0.411867  0.238980  0.603729  1
  O  O48  1  0.289478  0.064581  0.999294  1
  O  O49  1  0.259440  0.422601  0.960250  1
  O  O50  1  0.958717  0.377644  0.695474  1
  O  O51  1  0.411867  0.261020  0.103729  1
  O  O52  1  0.740560  0.577399  0.039750  1
  O  O53  1  0.041283  0.622356  0.304526  1
  O  O54  1  0.161639  0.887637  0.156412  1
  O  O55  1  0.049101  0.332936  0.120994  1
  O  O56  1  0.588133  0.761020  0.396271  1
  O  O57  1  0.041283  0.877644  0.804526  1
  O  O58  1  0.605459  0.932213  0.267646  1
  O  O59  1  0.958717  0.122356  0.195474  1
  O  O60  1  0.950899  0.832936  0.379006  1
  O  O61  1  0.259440  0.077399  0.460250  1
