# generated using pymatgen
data_DyGaPd
_symmetry_space_group_name_H-M   'P 1'
_cell_length_a   4.47029850
_cell_length_b   6.92303750
_cell_length_c   7.69092943
_cell_angle_alpha   90.00000000
_cell_angle_beta   90.00000000
_cell_angle_gamma   90.00000000
_symmetry_Int_Tables_number   1
_chemical_formula_structural   DyGaPd
_chemical_formula_sum   'Dy4 Ga4 Pd4'
_cell_volume   238.01922357
_cell_formula_units_Z   4
loop_
 _symmetry_equiv_pos_site_id
 _symmetry_equiv_pos_as_xyz
  1  'x, y, z'
loop_
 _atom_site_type_symbol
 _atom_site_label
 _atom_site_symmetry_multiplicity
 _atom_site_fract_x
 _atom_site_fract_y
 _atom_site_fract_z
 _atom_site_occupancy
  Dy  Dy0  1  0.750000  0.017909  0.698359  1
  Dy  Dy1  1  0.750000  0.517909  0.801641  1
  Dy  Dy2  1  0.250000  0.982091  0.301641  1
  Dy  Dy3  1  0.250000  0.482091  0.198359  1
  Ga  Ga4  1  0.250000  0.823052  0.925900  1
  Ga  Ga5  1  0.250000  0.323052  0.574100  1
  Ga  Ga6  1  0.750000  0.176948  0.074100  1
  Ga  Ga7  1  0.750000  0.676948  0.425900  1
  Pd  Pd8  1  0.750000  0.780040  0.098163  1
  Pd  Pd9  1  0.250000  0.719960  0.598163  1
  Pd  Pd10  1  0.250000  0.219960  0.901837  1
  Pd  Pd11  1  0.750000  0.280040  0.401837  1
