# generated using pymatgen
data_La4In5S13
_symmetry_space_group_name_H-M   'P 1'
_cell_length_a   4.04599899
_cell_length_b   11.98986940
_cell_length_c   21.87397512
_cell_angle_alpha   90.00000000
_cell_angle_beta   90.00000000
_cell_angle_gamma   90.00000000
_symmetry_Int_Tables_number   1
_chemical_formula_structural   La4In5S13
_chemical_formula_sum   'La8 In10 S26'
_cell_volume   1061.12839573
_cell_formula_units_Z   2
loop_
 _symmetry_equiv_pos_site_id
 _symmetry_equiv_pos_as_xyz
  1  'x, y, z'
loop_
 _atom_site_type_symbol
 _atom_site_label
 _atom_site_symmetry_multiplicity
 _atom_site_fract_x
 _atom_site_fract_y
 _atom_site_fract_z
 _atom_site_occupancy
  La  La0  1  0.000000  0.519434  0.167911  1
  La  La1  1  0.000000  0.480566  0.832089  1
  La  La2  1  0.000000  0.019434  0.332089  1
  La  La3  1  0.000000  0.980566  0.667911  1
  La  La4  1  0.000000  0.665363  0.343434  1
  La  La5  1  0.000000  0.334637  0.656566  1
  La  La6  1  0.000000  0.165363  0.156566  1
  La  La7  1  0.000000  0.834637  0.843434  1
  In  In8  1  0.500000  0.848352  0.170668  1
  In  In9  1  0.500000  0.151648  0.829332  1
  In  In10  1  0.500000  0.348352  0.329332  1
  In  In11  1  0.500000  0.651648  0.670668  1
  In  In12  1  0.500000  0.654886  0.992896  1
  In  In13  1  0.500000  0.345114  0.007104  1
  In  In14  1  0.500000  0.154886  0.507104  1
  In  In15  1  0.500000  0.845114  0.492896  1
  In  In16  1  0.000000  0.000000  0.000000  1
  In  In17  1  0.000000  0.500000  0.500000  1
  S  S18  1  0.000000  0.500000  0.000000  1
  S  S19  1  0.000000  0.000000  0.500000  1
  S  S20  1  0.500000  0.664085  0.113033  1
  S  S21  1  0.500000  0.335915  0.886967  1
  S  S22  1  0.500000  0.164085  0.386967  1
  S  S23  1  0.500000  0.835915  0.613033  1
  S  S24  1  0.500000  0.000178  0.090145  1
  S  S25  1  0.500000  0.999822  0.909855  1
  S  S26  1  0.500000  0.500178  0.409855  1
  S  S27  1  0.500000  0.499822  0.590145  1
  S  S28  1  0.000000  0.797276  0.978647  1
  S  S29  1  0.000000  0.202724  0.021353  1
  S  S30  1  0.000000  0.297276  0.521353  1
  S  S31  1  0.000000  0.702724  0.478647  1
  S  S32  1  0.000000  0.826658  0.237147  1
  S  S33  1  0.000000  0.173342  0.762853  1
  S  S34  1  0.000000  0.326658  0.262853  1
  S  S35  1  0.000000  0.673342  0.737147  1
  S  S36  1  0.500000  0.845704  0.366924  1
  S  S37  1  0.500000  0.154296  0.633076  1
  S  S38  1  0.500000  0.345704  0.133076  1
  S  S39  1  0.500000  0.654296  0.866924  1
  S  S40  1  0.500000  0.925620  0.761514  1
  S  S41  1  0.500000  0.074380  0.238486  1
  S  S42  1  0.500000  0.425620  0.738486  1
  S  S43  1  0.500000  0.574380  0.261514  1
