# generated using pymatgen
data_Ag4P2S7
_symmetry_space_group_name_H-M   'P 1'
_cell_length_a   6.40783234
_cell_length_b   6.40783234
_cell_length_c   16.53335455
_cell_angle_alpha   76.27878797
_cell_angle_beta   103.72121203
_cell_angle_gamma   117.42509964
_symmetry_Int_Tables_number   1
_chemical_formula_structural   Ag4P2S7
_chemical_formula_sum   'Ag8 P4 S14'
_cell_volume   578.89313102
_cell_formula_units_Z   2
loop_
 _symmetry_equiv_pos_site_id
 _symmetry_equiv_pos_as_xyz
  1  'x, y, z'
loop_
 _atom_site_type_symbol
 _atom_site_label
 _atom_site_symmetry_multiplicity
 _atom_site_fract_x
 _atom_site_fract_y
 _atom_site_fract_z
 _atom_site_occupancy
  Ag  Ag0  1  0.738932  0.821947  0.445048  1
  Ag  Ag1  1  0.821947  0.738932  0.054952  1
  Ag  Ag2  1  0.261068  0.178053  0.554952  1
  Ag  Ag3  1  0.178053  0.261068  0.945048  1
  Ag  Ag4  1  0.445456  0.961870  0.162948  1
  Ag  Ag5  1  0.961870  0.445456  0.337052  1
  Ag  Ag6  1  0.554544  0.038130  0.837052  1
  Ag  Ag7  1  0.038130  0.554544  0.662948  1
  P  P8  1  0.933122  0.716977  0.856432  1
  P  P9  1  0.283023  0.066878  0.356432  1
  P  P10  1  0.066878  0.283023  0.143568  1
  P  P11  1  0.716977  0.933122  0.643568  1
  S  S12  1  0.648039  0.637617  0.597424  1
  S  S13  1  0.637617  0.648039  0.902576  1
  S  S14  1  0.575326  0.063167  0.323759  1
  S  S15  1  0.063167  0.575326  0.176241  1
  S  S16  1  0.005246  0.005246  0.250000  1
  S  S17  1  0.362383  0.351961  0.097424  1
  S  S18  1  0.351961  0.362383  0.402576  1
  S  S19  1  0.994754  0.994754  0.750000  1
  S  S20  1  0.899758  0.239324  0.568052  1
  S  S21  1  0.239324  0.899758  0.931948  1
  S  S22  1  0.100242  0.760676  0.431948  1
  S  S23  1  0.760676  0.100242  0.068052  1
  S  S24  1  0.936833  0.424674  0.823759  1
  S  S25  1  0.424674  0.936833  0.676241  1
