# generated using pymatgen
data_FeO2
_symmetry_space_group_name_H-M   'P 1'
_cell_length_a   5.37531783
_cell_length_b   5.37531783
_cell_length_c   5.37531783
_cell_angle_alpha   137.90639419
_cell_angle_beta   137.90639419
_cell_angle_gamma   61.04639046
_symmetry_Int_Tables_number   1
_chemical_formula_structural   FeO2
_chemical_formula_sum   'Fe2 O4'
_cell_volume   69.02297024
_cell_formula_units_Z   2
loop_
 _symmetry_equiv_pos_site_id
 _symmetry_equiv_pos_as_xyz
  1  'x, y, z'
loop_
 _atom_site_type_symbol
 _atom_site_label
 _atom_site_symmetry_multiplicity
 _atom_site_fract_x
 _atom_site_fract_y
 _atom_site_fract_z
 _atom_site_occupancy
  Fe  Fe0  1  0.000000  0.000000  0.000000  1
  Fe  Fe1  1  0.750000  0.250000  0.500000  1
  O  O2  1  0.957699  0.457699  0.500000  1
  O  O3  1  0.792301  0.792301  0.000000  1
  O  O4  1  0.207699  0.207699  0.000000  1
  O  O5  1  0.542301  0.042301  0.500000  1
