# generated using pymatgen
data_La2Al2I
_symmetry_space_group_name_H-M   'P 1'
_cell_length_a   4.40002668
_cell_length_b   4.40002668
_cell_length_c   17.70004320
_cell_angle_alpha   90.00000000
_cell_angle_beta   90.00000000
_cell_angle_gamma   120.00000000
_symmetry_Int_Tables_number   1
_chemical_formula_structural   La2Al2I
_chemical_formula_sum   'La4 Al4 I2'
_cell_volume   296.76698028
_cell_formula_units_Z   2
loop_
 _symmetry_equiv_pos_site_id
 _symmetry_equiv_pos_as_xyz
  1  'x, y, z'
loop_
 _atom_site_type_symbol
 _atom_site_label
 _atom_site_symmetry_multiplicity
 _atom_site_fract_x
 _atom_site_fract_y
 _atom_site_fract_z
 _atom_site_occupancy
  La  La0  1  0.000000  0.000000  0.380810  1
  La  La1  1  0.000000  0.000000  0.880810  1
  La  La2  1  0.000000  0.000000  0.619190  1
  La  La3  1  0.000000  0.000000  0.119190  1
  Al  Al4  1  0.666667  0.333333  0.493839  1
  Al  Al5  1  0.333333  0.666667  0.993839  1
  Al  Al6  1  0.333333  0.666667  0.506161  1
  Al  Al7  1  0.666667  0.333333  0.006161  1
  I  I8  1  0.333333  0.666667  0.250000  1
  I  I9  1  0.666667  0.333333  0.750000  1
