# generated using pymatgen
data_VAsRh
_symmetry_space_group_name_H-M   'P 1'
_cell_length_a   3.90790255
_cell_length_b   6.15626875
_cell_length_c   7.30143466
_cell_angle_alpha   90.00000000
_cell_angle_beta   90.00000000
_cell_angle_gamma   90.00000000
_symmetry_Int_Tables_number   1
_chemical_formula_structural   VAsRh
_chemical_formula_sum   'V4 As4 Rh4'
_cell_volume   175.65863312
_cell_formula_units_Z   4
loop_
 _symmetry_equiv_pos_site_id
 _symmetry_equiv_pos_as_xyz
  1  'x, y, z'
loop_
 _atom_site_type_symbol
 _atom_site_label
 _atom_site_symmetry_multiplicity
 _atom_site_fract_x
 _atom_site_fract_y
 _atom_site_fract_z
 _atom_site_occupancy
  V  V0  1  0.750000  0.969499  0.821594  1
  V  V1  1  0.750000  0.469499  0.678406  1
  V  V2  1  0.250000  0.030501  0.178406  1
  V  V3  1  0.250000  0.530501  0.321594  1
  As  As4  1  0.750000  0.257769  0.381403  1
  As  As5  1  0.750000  0.757769  0.118597  1
  As  As6  1  0.250000  0.742231  0.618597  1
  As  As7  1  0.250000  0.242231  0.881403  1
  Rh  Rh8  1  0.750000  0.854488  0.436686  1
  Rh  Rh9  1  0.750000  0.354488  0.063314  1
  Rh  Rh10  1  0.250000  0.145512  0.563314  1
  Rh  Rh11  1  0.250000  0.645512  0.936686  1
