# generated using pymatgen
data_Ni3P
_symmetry_space_group_name_H-M   'P 1'
_cell_length_a   6.68465177
_cell_length_b   6.68465177
_cell_length_c   6.68465177
_cell_angle_alpha   96.14923331
_cell_angle_beta   96.14923331
_cell_angle_gamma   141.79131085
_symmetry_Int_Tables_number   1
_chemical_formula_structural   Ni3P
_chemical_formula_sum   'Ni12 P4'
_cell_volume   174.57913963
_cell_formula_units_Z   4
loop_
 _symmetry_equiv_pos_site_id
 _symmetry_equiv_pos_as_xyz
  1  'x, y, z'
loop_
 _atom_site_type_symbol
 _atom_site_label
 _atom_site_symmetry_multiplicity
 _atom_site_fract_x
 _atom_site_fract_y
 _atom_site_fract_z
 _atom_site_occupancy
  Ni  Ni0  1  0.680663  0.647101  0.809370  1
  Ni  Ni1  1  0.837731  0.871294  0.190630  1
  Ni  Ni2  1  0.352899  0.162269  0.033563  1
  Ni  Ni3  1  0.128706  0.319337  0.966437  1
  Ni  Ni4  1  0.657584  0.992886  0.605352  1
  Ni  Ni5  1  0.387534  0.052232  0.394648  1
  Ni  Ni6  1  0.007114  0.612466  0.664698  1
  Ni  Ni7  1  0.947768  0.342416  0.335302  1
  Ni  Ni8  1  0.079440  0.028758  0.608424  1
  Ni  Ni9  1  0.420334  0.471016  0.391576  1
  Ni  Ni10  1  0.971242  0.579666  0.050682  1
  Ni  Ni11  1  0.528984  0.920560  0.949318  1
  P  P12  1  0.232869  0.472487  0.669226  1
  P  P13  1  0.803261  0.563643  0.330774  1
  P  P14  1  0.527513  0.196739  0.760382  1
  P  P15  1  0.436357  0.767131  0.239618  1
