# generated using pymatgen
data_Ca2Os2O7
_symmetry_space_group_name_H-M   'P 1'
_cell_length_a   7.30664496
_cell_length_b   7.30664496
_cell_length_c   7.30664496
_cell_angle_alpha   120.44969405
_cell_angle_beta   118.36066019
_cell_angle_gamma   91.04273903
_symmetry_Int_Tables_number   1
_chemical_formula_structural   Ca2Os2O7
_chemical_formula_sum   'Ca4 Os4 O14'
_cell_volume   278.14538531
_cell_formula_units_Z   2
loop_
 _symmetry_equiv_pos_site_id
 _symmetry_equiv_pos_as_xyz
  1  'x, y, z'
loop_
 _atom_site_type_symbol
 _atom_site_label
 _atom_site_symmetry_multiplicity
 _atom_site_fract_x
 _atom_site_fract_y
 _atom_site_fract_z
 _atom_site_occupancy
  Ca  Ca0  1  0.000000  0.000000  0.000000  1
  Ca  Ca1  1  0.500000  0.500000  0.000000  1
  Ca  Ca2  1  0.000000  0.500000  0.000000  1
  Ca  Ca3  1  0.000000  0.000000  0.500000  1
  Os  Os4  1  0.500000  0.500000  0.500000  1
  Os  Os5  1  0.500000  0.000000  0.000000  1
  Os  Os6  1  0.500000  0.000000  0.500000  1
  Os  Os7  1  0.000000  0.500000  0.500000  1
  O  O8  1  0.549282  0.318641  0.634365  1
  O  O9  1  0.450718  0.085083  0.769360  1
  O  O10  1  0.815724  0.181359  0.230640  1
  O  O11  1  0.184276  0.414917  0.365635  1
  O  O12  1  0.450718  0.681359  0.365635  1
  O  O13  1  0.549282  0.914917  0.230640  1
  O  O14  1  0.184276  0.818641  0.769360  1
  O  O15  1  0.815724  0.585083  0.634365  1
  O  O16  1  0.414058  0.250000  0.164058  1
  O  O17  1  0.585942  0.750000  0.835942  1
  O  O18  1  0.134541  0.403376  0.731165  1
  O  O19  1  0.865459  0.596624  0.268835  1
  O  O20  1  0.827790  0.096624  0.731165  1
  O  O21  1  0.172210  0.903376  0.268835  1
