# generated using pymatgen
data_Th2In
_symmetry_space_group_name_H-M   'P 1'
_cell_length_a   6.30646172
_cell_length_b   6.30646172
_cell_length_c   6.30646172
_cell_angle_alpha   103.18662495
_cell_angle_beta   103.18662495
_cell_angle_gamma   122.93947645
_symmetry_Int_Tables_number   1
_chemical_formula_structural   Th2In
_chemical_formula_sum   'Th4 In2'
_cell_volume   184.93544415
_cell_formula_units_Z   2
loop_
 _symmetry_equiv_pos_site_id
 _symmetry_equiv_pos_as_xyz
  1  'x, y, z'
loop_
 _atom_site_type_symbol
 _atom_site_label
 _atom_site_symmetry_multiplicity
 _atom_site_fract_x
 _atom_site_fract_y
 _atom_site_fract_z
 _atom_site_occupancy
  Th  Th0  1  0.347258  0.152742  0.500000  1
  Th  Th1  1  0.847258  0.347258  0.194517  1
  Th  Th2  1  0.152742  0.652742  0.805483  1
  Th  Th3  1  0.652742  0.847258  0.500000  1
  In  In4  1  0.250000  0.250000  0.000000  1
  In  In5  1  0.750000  0.750000  0.000000  1
