# generated using pymatgen
data_YSnPt
_symmetry_space_group_name_H-M   'P 1'
_cell_length_a   4.57567634
_cell_length_b   7.22566769
_cell_length_c   8.06468825
_cell_angle_alpha   90.00000000
_cell_angle_beta   90.00000000
_cell_angle_gamma   90.00000000
_symmetry_Int_Tables_number   1
_chemical_formula_structural   YSnPt
_chemical_formula_sum   'Y4 Sn4 Pt4'
_cell_volume   266.63727693
_cell_formula_units_Z   4
loop_
 _symmetry_equiv_pos_site_id
 _symmetry_equiv_pos_as_xyz
  1  'x, y, z'
loop_
 _atom_site_type_symbol
 _atom_site_label
 _atom_site_symmetry_multiplicity
 _atom_site_fract_x
 _atom_site_fract_y
 _atom_site_fract_z
 _atom_site_occupancy
  Y  Y0  1  0.750000  0.990427  0.698131  1
  Y  Y1  1  0.250000  0.009573  0.301869  1
  Y  Y2  1  0.750000  0.490427  0.801869  1
  Y  Y3  1  0.250000  0.509573  0.198131  1
  Sn  Sn4  1  0.750000  0.318494  0.415150  1
  Sn  Sn5  1  0.250000  0.181506  0.915150  1
  Sn  Sn6  1  0.250000  0.681506  0.584850  1
  Sn  Sn7  1  0.750000  0.818494  0.084850  1
  Pt  Pt8  1  0.250000  0.785031  0.910162  1
  Pt  Pt9  1  0.250000  0.285031  0.589838  1
  Pt  Pt10  1  0.750000  0.714969  0.410162  1
  Pt  Pt11  1  0.750000  0.214969  0.089838  1
