# generated using pymatgen
data_La2NiO4
_symmetry_space_group_name_H-M   'P 1'
_cell_length_a   6.84756623
_cell_length_b   6.84756623
_cell_length_c   6.84756623
_cell_angle_alpha   146.69913937
_cell_angle_beta   146.69913937
_cell_angle_gamma   47.80946296
_symmetry_Int_Tables_number   1
_chemical_formula_structural   La2NiO4
_chemical_formula_sum   'La2 Ni1 O4'
_cell_volume   96.39736613
_cell_formula_units_Z   1
loop_
 _symmetry_equiv_pos_site_id
 _symmetry_equiv_pos_as_xyz
  1  'x, y, z'
loop_
 _atom_site_type_symbol
 _atom_site_label
 _atom_site_symmetry_multiplicity
 _atom_site_fract_x
 _atom_site_fract_y
 _atom_site_fract_z
 _atom_site_occupancy
  La  La0  1  0.363473  0.363473  0.000000  1
  La  La1  1  0.636527  0.636527  0.000000  1
  Ni  Ni2  1  0.000000  0.000000  0.000000  1
  O  O3  1  0.178993  0.178993  0.000000  1
  O  O4  1  0.821007  0.821007  0.000000  1
  O  O5  1  0.000000  0.500000  0.500000  1
  O  O6  1  0.500000  1.000000  0.500000  1
