# generated using pymatgen
data_Na3MgC2ClO6
_symmetry_space_group_name_H-M   'P 1'
_cell_length_a   10.02898366
_cell_length_b   10.02898366
_cell_length_c   10.02898366
_cell_angle_alpha   60.00000000
_cell_angle_beta   60.00000000
_cell_angle_gamma   60.00000000
_symmetry_Int_Tables_number   1
_chemical_formula_structural   Na3MgC2ClO6
_chemical_formula_sum   'Na12 Mg4 C8 Cl4 O24'
_cell_volume   713.27298201
_cell_formula_units_Z   4
loop_
 _symmetry_equiv_pos_site_id
 _symmetry_equiv_pos_as_xyz
  1  'x, y, z'
loop_
 _atom_site_type_symbol
 _atom_site_label
 _atom_site_symmetry_multiplicity
 _atom_site_fract_x
 _atom_site_fract_y
 _atom_site_fract_z
 _atom_site_occupancy
  Na  Na0  1  0.774631  0.225369  0.225369  1
  Na  Na1  1  0.774631  0.225369  0.774631  1
  Na  Na2  1  0.225369  0.774631  0.225369  1
  Na  Na3  1  0.774631  0.774631  0.225369  1
  Na  Na4  1  0.225369  0.774631  0.774631  1
  Na  Na5  1  0.024631  0.024631  0.475369  1
  Na  Na6  1  0.475369  0.024631  0.475369  1
  Na  Na7  1  0.024631  0.475369  0.024631  1
  Na  Na8  1  0.475369  0.475369  0.024631  1
  Na  Na9  1  0.024631  0.475369  0.475369  1
  Na  Na10  1  0.225369  0.225369  0.774631  1
  Na  Na11  1  0.475369  0.024631  0.024631  1
  Mg  Mg12  1  0.625000  0.125000  0.625000  1
  Mg  Mg13  1  0.625000  0.625000  0.125000  1
  Mg  Mg14  1  0.125000  0.625000  0.625000  1
  Mg  Mg15  1  0.625000  0.625000  0.625000  1
  C  C16  1  0.408358  0.408358  0.408358  1
  C  C17  1  0.774926  0.408358  0.408358  1
  C  C18  1  0.408358  0.408358  0.774926  1
  C  C19  1  0.408358  0.774926  0.408358  1
  C  C20  1  0.841642  0.841642  0.841642  1
  C  C21  1  0.475074  0.841642  0.841642  1
  C  C22  1  0.841642  0.841642  0.475074  1
  C  C23  1  0.841642  0.475074  0.841642  1
  Cl  Cl24  1  0.125000  0.625000  0.125000  1
  Cl  Cl25  1  0.125000  0.125000  0.625000  1
  Cl  Cl26  1  0.625000  0.125000  0.125000  1
  Cl  Cl27  1  0.125000  0.125000  0.125000  1
  O  O28  1  0.776842  0.442739  0.516096  1
  O  O29  1  0.516096  0.264323  0.776842  1
  O  O30  1  0.516096  0.442739  0.264323  1
  O  O31  1  0.264323  0.516096  0.442739  1
  O  O32  1  0.776842  0.264323  0.442739  1
  O  O33  1  0.776842  0.516096  0.264323  1
  O  O34  1  0.264323  0.442739  0.776842  1
  O  O35  1  0.442739  0.264323  0.516096  1
  O  O36  1  0.442739  0.776842  0.264323  1
  O  O37  1  0.516096  0.776842  0.442739  1
  O  O38  1  0.807261  0.985677  0.733904  1
  O  O39  1  0.985677  0.807261  0.473158  1
  O  O40  1  0.473158  0.733904  0.985677  1
  O  O41  1  0.807261  0.733904  0.473158  1
  O  O42  1  0.473158  0.985677  0.807261  1
  O  O43  1  0.985677  0.733904  0.807261  1
  O  O44  1  0.733904  0.807261  0.985677  1
  O  O45  1  0.733904  0.985677  0.473158  1
  O  O46  1  0.264323  0.776842  0.516096  1
  O  O47  1  0.473158  0.807261  0.733904  1
  O  O48  1  0.733904  0.473158  0.807261  1
  O  O49  1  0.807261  0.473158  0.985677  1
  O  O50  1  0.985677  0.473158  0.733904  1
  O  O51  1  0.442739  0.516096  0.776842  1
