# generated using pymatgen
data_U2Mn3Si5
_symmetry_space_group_name_H-M   'P 1'
_cell_length_a   10.49561917
_cell_length_b   10.49561917
_cell_length_c   5.38977882
_cell_angle_alpha   90.00000000
_cell_angle_beta   90.00000000
_cell_angle_gamma   90.00000000
_symmetry_Int_Tables_number   1
_chemical_formula_structural   U2Mn3Si5
_chemical_formula_sum   'U8 Mn12 Si20'
_cell_volume   593.72737254
_cell_formula_units_Z   4
loop_
 _symmetry_equiv_pos_site_id
 _symmetry_equiv_pos_as_xyz
  1  'x, y, z'
loop_
 _atom_site_type_symbol
 _atom_site_label
 _atom_site_symmetry_multiplicity
 _atom_site_fract_x
 _atom_site_fract_y
 _atom_site_fract_z
 _atom_site_occupancy
  U  U0  1  0.930465  0.764488  0.500000  1
  U  U1  1  0.069535  0.235512  0.500000  1
  U  U2  1  0.235512  0.930465  0.500000  1
  U  U3  1  0.764488  0.069535  0.500000  1
  U  U4  1  0.264488  0.430465  0.000000  1
  U  U5  1  0.430465  0.735512  0.000000  1
  U  U6  1  0.569535  0.264488  0.000000  1
  U  U7  1  0.735512  0.569535  0.000000  1
  Mn  Mn8  1  0.873855  0.140232  0.000000  1
  Mn  Mn9  1  0.000000  0.500000  0.750000  1
  Mn  Mn10  1  0.500000  0.000000  0.250000  1
  Mn  Mn11  1  0.000000  0.500000  0.250000  1
  Mn  Mn12  1  0.626145  0.640232  0.500000  1
  Mn  Mn13  1  0.373855  0.359768  0.500000  1
  Mn  Mn14  1  0.359768  0.626145  0.500000  1
  Mn  Mn15  1  0.640232  0.373855  0.500000  1
  Mn  Mn16  1  0.140232  0.126145  0.000000  1
  Mn  Mn17  1  0.126145  0.859768  0.000000  1
  Mn  Mn18  1  0.859768  0.873855  0.000000  1
  Mn  Mn19  1  0.500000  0.000000  0.750000  1
  Si  Si20  1  0.816242  0.520639  0.500000  1
  Si  Si21  1  0.183758  0.479361  0.500000  1
  Si  Si22  1  0.479361  0.816242  0.500000  1
  Si  Si23  1  0.520639  0.183758  0.500000  1
  Si  Si24  1  0.020639  0.316242  0.000000  1
  Si  Si25  1  0.316242  0.979361  0.000000  1
  Si  Si26  1  0.683758  0.020639  0.000000  1
  Si  Si27  1  0.979361  0.683758  0.000000  1
  Si  Si28  1  0.000000  0.000000  0.755531  1
  Si  Si29  1  0.500000  0.500000  0.744469  1
  Si  Si30  1  0.000000  0.000000  0.244469  1
  Si  Si31  1  0.500000  0.500000  0.255531  1
  Si  Si32  1  0.178802  0.678802  0.750000  1
  Si  Si33  1  0.678802  0.821198  0.750000  1
  Si  Si34  1  0.321198  0.178802  0.750000  1
  Si  Si35  1  0.178802  0.678802  0.250000  1
  Si  Si36  1  0.821198  0.321198  0.250000  1
  Si  Si37  1  0.321198  0.178802  0.250000  1
  Si  Si38  1  0.678802  0.821198  0.250000  1
  Si  Si39  1  0.821198  0.321198  0.750000  1
