# generated using pymatgen
data_U2Cl5O2
_symmetry_space_group_name_H-M   'P 1'
_cell_length_a   8.11159134
_cell_length_b   8.11159134
_cell_length_c   4.13086104
_cell_angle_alpha   90.00000000
_cell_angle_beta   90.00000000
_cell_angle_gamma   116.87211232
_symmetry_Int_Tables_number   1
_chemical_formula_structural   U2Cl5O2
_chemical_formula_sum   'U2 Cl5 O2'
_cell_volume   242.45221343
_cell_formula_units_Z   1
loop_
 _symmetry_equiv_pos_site_id
 _symmetry_equiv_pos_as_xyz
  1  'x, y, z'
loop_
 _atom_site_type_symbol
 _atom_site_label
 _atom_site_symmetry_multiplicity
 _atom_site_fract_x
 _atom_site_fract_y
 _atom_site_fract_z
 _atom_site_occupancy
  U  U0  1  0.200269  0.799731  0.000000  1
  U  U1  1  0.799731  0.200269  0.000000  1
  Cl  Cl2  1  0.450186  0.171032  0.000000  1
  Cl  Cl3  1  0.549814  0.828968  0.000000  1
  Cl  Cl4  1  0.000000  0.000000  0.000000  1
  Cl  Cl5  1  0.171032  0.450186  0.000000  1
  Cl  Cl6  1  0.828968  0.549814  0.000000  1
  O  O7  1  0.200636  0.799364  0.500000  1
  O  O8  1  0.799364  0.200636  0.500000  1
