# generated using pymatgen
data_Hg2ClO
_symmetry_space_group_name_H-M   'P 1'
_cell_length_a   6.87044006
_cell_length_b   6.87044006
_cell_length_c   9.75211371
_cell_angle_alpha   76.04816352
_cell_angle_beta   103.95183648
_cell_angle_gamma   127.23134146
_symmetry_Int_Tables_number   1
_chemical_formula_structural   Hg2ClO
_chemical_formula_sum   'Hg8 Cl4 O4'
_cell_volume   352.98900314
_cell_formula_units_Z   4
loop_
 _symmetry_equiv_pos_site_id
 _symmetry_equiv_pos_as_xyz
  1  'x, y, z'
loop_
 _atom_site_type_symbol
 _atom_site_label
 _atom_site_symmetry_multiplicity
 _atom_site_fract_x
 _atom_site_fract_y
 _atom_site_fract_z
 _atom_site_occupancy
  Hg  Hg0  1  0.244092  0.143311  0.896237  1
  Hg  Hg1  1  0.143311  0.244092  0.603763  1
  Hg  Hg2  1  0.755908  0.856689  0.103763  1
  Hg  Hg3  1  0.856689  0.755908  0.396237  1
  Hg  Hg4  1  0.594331  0.594331  0.750000  1
  Hg  Hg5  1  0.405669  0.405669  0.250000  1
  Hg  Hg6  1  0.000000  0.500000  0.000000  1
  Hg  Hg7  1  0.500000  1.000000  0.500000  1
  Cl  Cl8  1  0.109176  0.488915  0.359440  1
  Cl  Cl9  1  0.488915  0.109176  0.140560  1
  Cl  Cl10  1  0.890824  0.511085  0.640560  1
  Cl  Cl11  1  0.511085  0.890824  0.859440  1
  O  O12  1  0.095603  0.254967  0.060717  1
  O  O13  1  0.254967  0.095603  0.439283  1
  O  O14  1  0.904397  0.745033  0.939283  1
  O  O15  1  0.745033  0.904397  0.560717  1
