# generated using pymatgen
data_FeBiO3
_symmetry_space_group_name_H-M   'P 1'
_cell_length_a   4.07634426
_cell_length_b   4.07634426
_cell_length_c   4.07634426
_cell_angle_alpha   88.31298171
_cell_angle_beta   88.31298171
_cell_angle_gamma   88.31298171
_symmetry_Int_Tables_number   1
_chemical_formula_structural   FeBiO3
_chemical_formula_sum   'Fe1 Bi1 O3'
_cell_volume   67.64852498
_cell_formula_units_Z   1
loop_
 _symmetry_equiv_pos_site_id
 _symmetry_equiv_pos_as_xyz
  1  'x, y, z'
loop_
 _atom_site_type_symbol
 _atom_site_label
 _atom_site_symmetry_multiplicity
 _atom_site_fract_x
 _atom_site_fract_y
 _atom_site_fract_z
 _atom_site_occupancy
  Fe  Fe0  1  0.046533  0.046533  0.046533  1
  Bi  Bi1  1  0.469063  0.469063  0.469063  1
  O  O2  1  0.094575  0.568114  0.094575  1
  O  O3  1  0.568114  0.094575  0.094575  1
  O  O4  1  0.094575  0.094575  0.568114  1
