# generated using pymatgen
data_UCoSi
_symmetry_space_group_name_H-M   'P 1'
_cell_length_a   3.96626836
_cell_length_b   7.01301070
_cell_length_c   7.13680207
_cell_angle_alpha   90.00000000
_cell_angle_beta   90.00000000
_cell_angle_gamma   90.00000000
_symmetry_Int_Tables_number   1
_chemical_formula_structural   UCoSi
_chemical_formula_sum   'U4 Co4 Si4'
_cell_volume   198.51359271
_cell_formula_units_Z   4
loop_
 _symmetry_equiv_pos_site_id
 _symmetry_equiv_pos_as_xyz
  1  'x, y, z'
loop_
 _atom_site_type_symbol
 _atom_site_label
 _atom_site_symmetry_multiplicity
 _atom_site_fract_x
 _atom_site_fract_y
 _atom_site_fract_z
 _atom_site_occupancy
  U  U0  1  0.250000  0.999279  0.747252  1
  U  U1  1  0.750000  0.000721  0.252748  1
  U  U2  1  0.250000  0.499279  0.752748  1
  U  U3  1  0.750000  0.500721  0.247252  1
  Co  Co4  1  0.750000  0.253173  0.597569  1
  Co  Co5  1  0.250000  0.746827  0.402431  1
  Co  Co6  1  0.750000  0.753173  0.902431  1
  Co  Co7  1  0.250000  0.246827  0.097569  1
  Si  Si8  1  0.250000  0.753571  0.076604  1
  Si  Si9  1  0.750000  0.246429  0.923396  1
  Si  Si10  1  0.250000  0.253571  0.423396  1
  Si  Si11  1  0.750000  0.746429  0.576604  1
