# generated using pymatgen
data_LiBi2(PO4)3
_symmetry_space_group_name_H-M   'P 1'
_cell_length_a   8.93976914
_cell_length_b   9.34117429
_cell_length_c   12.78211800
_cell_angle_alpha   90.00000000
_cell_angle_beta   90.53104689
_cell_angle_gamma   90.00000000
_symmetry_Int_Tables_number   1
_chemical_formula_structural   LiBi2(PO4)3
_chemical_formula_sum   'Li4 Bi8 P12 O48'
_cell_volume   1067.36251657
_cell_formula_units_Z   4
loop_
 _symmetry_equiv_pos_site_id
 _symmetry_equiv_pos_as_xyz
  1  'x, y, z'
loop_
 _atom_site_type_symbol
 _atom_site_label
 _atom_site_symmetry_multiplicity
 _atom_site_fract_x
 _atom_site_fract_y
 _atom_site_fract_z
 _atom_site_occupancy
  Li  Li0  1  0.827750  0.997635  0.102197  1
  Li  Li1  1  0.172250  0.497635  0.897803  1
  Li  Li2  1  0.179615  0.914209  0.561106  1
  Li  Li3  1  0.820385  0.414209  0.438894  1
  Bi  Bi4  1  0.001069  0.530161  0.139513  1
  Bi  Bi5  1  0.998931  0.030161  0.860487  1
  Bi  Bi6  1  0.009507  0.455514  0.644651  1
  Bi  Bi7  1  0.990493  0.955514  0.355349  1
  Bi  Bi8  1  0.516340  0.537560  0.855888  1
  Bi  Bi9  1  0.523928  0.972766  0.638341  1
  Bi  Bi10  1  0.483660  0.037560  0.144112  1
  Bi  Bi11  1  0.476072  0.472766  0.361659  1
  P  P12  1  0.640697  0.882994  0.918687  1
  P  P13  1  0.701405  0.754242  0.254281  1
  P  P14  1  0.653491  0.605283  0.603578  1
  P  P15  1  0.792692  0.242350  0.246782  1
  P  P16  1  0.868482  0.123219  0.582777  1
  P  P17  1  0.863152  0.387265  0.898767  1
  P  P18  1  0.136848  0.887265  0.101233  1
  P  P19  1  0.131518  0.623219  0.417223  1
  P  P20  1  0.298595  0.254242  0.745719  1
  P  P21  1  0.359303  0.382994  0.081313  1
  P  P22  1  0.346509  0.105283  0.396422  1
  P  P23  1  0.207308  0.742350  0.753218  1
  O  O24  1  0.515664  0.965234  0.980401  1
  O  O25  1  0.163749  0.629394  0.666843  1
  O  O26  1  0.109432  0.786150  0.448436  1
  O  O27  1  0.099653  0.607150  0.301106  1
  O  O28  1  0.126807  0.998056  0.013689  1
  O  O29  1  0.186486  0.095998  0.343517  1
  O  O30  1  0.203218  0.425121  0.038375  1
  O  O31  1  0.211326  0.142875  0.807696  1
  O  O32  1  0.291099  0.856872  0.690103  1
  O  O33  1  0.293480  0.891414  0.157165  1
  O  O34  1  0.290629  0.584011  0.451403  1
  O  O35  1  0.300963  0.669483  0.843592  1
  O  O36  1  0.333740  0.378969  0.825240  1
  O  O37  1  0.353718  0.006074  0.492960  1
  O  O38  1  0.371778  0.216412  0.063740  1
  O  O39  1  0.377105  0.419351  0.197208  1
  O  O40  1  0.373391  0.262086  0.424658  1
  O  O41  1  0.441794  0.197343  0.697098  1
  O  O42  1  0.466818  0.053756  0.315715  1
  O  O43  1  0.484336  0.465234  0.019599  1
  O  O44  1  0.533182  0.553756  0.684285  1
  O  O45  1  0.204153  0.314190  0.649518  1
  O  O46  1  0.558206  0.697343  0.302902  1
  O  O47  1  0.626609  0.762086  0.575342  1
  O  O48  1  0.622895  0.919351  0.802792  1
  O  O49  1  0.628222  0.716412  0.936260  1
  O  O50  1  0.646282  0.506074  0.507040  1
  O  O51  1  0.666260  0.878969  0.174760  1
  O  O52  1  0.709371  0.084011  0.548597  1
  O  O53  1  0.708901  0.356872  0.309897  1
  O  O54  1  0.699037  0.169483  0.156408  1
  O  O55  1  0.706520  0.391414  0.842835  1
  O  O56  1  0.788674  0.642875  0.192304  1
  O  O57  1  0.813514  0.595998  0.656483  1
  O  O58  1  0.795847  0.814190  0.350482  1
  O  O59  1  0.796782  0.925121  0.961625  1
  O  O60  1  0.836251  0.129394  0.333157  1
  O  O61  1  0.873193  0.498056  0.986311  1
  O  O62  1  0.890568  0.286150  0.551564  1
  O  O63  1  0.900347  0.107150  0.698894  1
  O  O64  1  0.893382  0.233660  0.934011  1
  O  O65  1  0.932627  0.299869  0.193639  1
  O  O66  1  0.106618  0.733660  0.065989  1
  O  O67  1  0.988838  0.433985  0.817598  1
  O  O68  1  0.011162  0.933985  0.182402  1
  O  O69  1  0.013310  0.527903  0.477201  1
  O  O70  1  0.067373  0.799869  0.806361  1
  O  O71  1  0.986690  0.027903  0.522799  1
