# generated using pymatgen
data_PNCl2
_symmetry_space_group_name_H-M   'P 1'
_cell_length_a   6.55379402
_cell_length_b   13.75047978
_cell_length_c   14.74003199
_cell_angle_alpha   90.00000000
_cell_angle_beta   90.00000000
_cell_angle_gamma   90.00000000
_symmetry_Int_Tables_number   1
_chemical_formula_structural   PNCl2
_chemical_formula_sum   'P12 N12 Cl24'
_cell_volume   1328.33943402
_cell_formula_units_Z   12
loop_
 _symmetry_equiv_pos_site_id
 _symmetry_equiv_pos_as_xyz
  1  'x, y, z'
loop_
 _atom_site_type_symbol
 _atom_site_label
 _atom_site_symmetry_multiplicity
 _atom_site_fract_x
 _atom_site_fract_y
 _atom_site_fract_z
 _atom_site_occupancy
  P  P0  1  0.937979  0.350925  0.905485  1
  P  P1  1  0.437979  0.649075  0.594515  1
  P  P2  1  0.062021  0.850925  0.094515  1
  P  P3  1  0.562021  0.149075  0.405485  1
  P  P4  1  0.062021  0.649075  0.094515  1
  P  P5  1  0.562021  0.350925  0.405485  1
  P  P6  1  0.937979  0.149075  0.905485  1
  P  P7  1  0.437979  0.850925  0.594515  1
  P  P8  1  0.909825  0.750000  0.946194  1
  P  P9  1  0.409825  0.250000  0.553806  1
  P  P10  1  0.090175  0.250000  0.053806  1
  P  P11  1  0.590175  0.750000  0.446194  1
  N  N12  1  0.043862  0.349881  0.002802  1
  N  N13  1  0.543863  0.650119  0.497198  1
  N  N14  1  0.956137  0.849881  0.997198  1
  N  N15  1  0.456137  0.150119  0.502802  1
  N  N16  1  0.956137  0.650119  0.997198  1
  N  N17  1  0.456137  0.349881  0.502802  1
  N  N18  1  0.043862  0.150119  0.002802  1
  N  N19  1  0.543863  0.849881  0.497198  1
  N  N20  1  0.103390  0.750000  0.144768  1
  N  N21  1  0.603390  0.250000  0.355232  1
  N  N22  1  0.896610  0.250000  0.855232  1
  N  N23  1  0.396610  0.750000  0.644768  1
  Cl  Cl24  1  0.442163  0.750000  0.326096  1
  Cl  Cl25  1  0.942163  0.250000  0.173904  1
  Cl  Cl26  1  0.557837  0.250000  0.673904  1
  Cl  Cl27  1  0.057837  0.750000  0.826096  1
  Cl  Cl28  1  0.883626  0.750000  0.405936  1
  Cl  Cl29  1  0.383626  0.250000  0.094064  1
  Cl  Cl30  1  0.116374  0.250000  0.594064  1
  Cl  Cl31  1  0.616374  0.750000  0.905936  1
  Cl  Cl32  1  0.172323  0.924768  0.586394  1
  Cl  Cl33  1  0.672323  0.075232  0.913606  1
  Cl  Cl34  1  0.827677  0.424768  0.413606  1
  Cl  Cl35  1  0.327677  0.575232  0.086394  1
  Cl  Cl36  1  0.827677  0.075232  0.413606  1
  Cl  Cl37  1  0.327677  0.924768  0.086394  1
  Cl  Cl38  1  0.172323  0.575232  0.586394  1
  Cl  Cl39  1  0.672323  0.424768  0.913606  1
  Cl  Cl40  1  0.602039  0.936486  0.677864  1
  Cl  Cl41  1  0.102039  0.063514  0.822136  1
  Cl  Cl42  1  0.397961  0.436486  0.322136  1
  Cl  Cl43  1  0.897961  0.563514  0.177864  1
  Cl  Cl44  1  0.397961  0.063514  0.322136  1
  Cl  Cl45  1  0.897961  0.936486  0.177864  1
  Cl  Cl46  1  0.602039  0.563514  0.677864  1
  Cl  Cl47  1  0.102039  0.436486  0.822136  1
