# generated using pymatgen
data_ZnH8SO8
_symmetry_space_group_name_H-M   'P 1'
_cell_length_a   6.09473596
_cell_length_b   13.61312860
_cell_length_c   10.00105123
_cell_angle_alpha   90.00000000
_cell_angle_beta   127.27923707
_cell_angle_gamma   90.00000000
_symmetry_Int_Tables_number   1
_chemical_formula_structural   ZnH8SO8
_chemical_formula_sum   'Zn4 H32 S4 O32'
_cell_volume   660.24336771
_cell_formula_units_Z   4
loop_
 _symmetry_equiv_pos_site_id
 _symmetry_equiv_pos_as_xyz
  1  'x, y, z'
loop_
 _atom_site_type_symbol
 _atom_site_label
 _atom_site_symmetry_multiplicity
 _atom_site_fract_x
 _atom_site_fract_y
 _atom_site_fract_z
 _atom_site_occupancy
  Zn  Zn0  1  0.206024  0.896287  0.280307  1
  Zn  Zn1  1  0.793976  0.396287  0.219693  1
  Zn  Zn2  1  0.793976  0.103713  0.719693  1
  Zn  Zn3  1  0.206024  0.603713  0.780307  1
  H  H4  1  0.023901  0.900005  0.948726  1
  H  H5  1  0.976099  0.400005  0.551274  1
  H  H6  1  0.976099  0.099995  0.051274  1
  H  H7  1  0.023901  0.599995  0.448726  1
  H  H8  1  0.246524  0.814167  0.048047  1
  H  H9  1  0.753476  0.314167  0.451953  1
  H  H10  1  0.753476  0.185833  0.951953  1
  H  H11  1  0.246524  0.685833  0.548047  1
  H  H12  1  0.661633  0.916257  0.026792  1
  H  H13  1  0.338367  0.416257  0.473208  1
  H  H14  1  0.338367  0.083743  0.973208  1
  H  H15  1  0.661633  0.583743  0.526792  1
  H  H16  1  0.725432  0.984033  0.176487  1
  H  H17  1  0.274568  0.484033  0.323513  1
  H  H18  1  0.274568  0.015967  0.823513  1
  H  H19  1  0.725432  0.515967  0.676487  1
  H  H20  1  0.747870  0.914799  0.447458  1
  H  H21  1  0.903001  0.734959  0.221083  1
  H  H22  1  0.252130  0.085201  0.552542  1
  H  H23  1  0.747870  0.585201  0.947458  1
  H  H24  1  0.651978  0.814195  0.345435  1
  H  H25  1  0.348022  0.314195  0.154565  1
  H  H26  1  0.348022  0.185805  0.654565  1
  H  H27  1  0.651978  0.685805  0.845435  1
  H  H28  1  0.192717  0.692931  0.277115  1
  H  H29  1  0.807283  0.192931  0.222885  1
  H  H30  1  0.807283  0.307069  0.722885  1
  H  H31  1  0.192717  0.807069  0.777115  1
  H  H32  1  0.903001  0.765041  0.721083  1
  H  H33  1  0.096999  0.265041  0.778917  1
  H  H34  1  0.096999  0.234959  0.278917  1
  H  H35  1  0.252130  0.414799  0.052542  1
  S  S36  1  0.487601  0.891396  0.683186  1
  S  S37  1  0.512399  0.391396  0.816814  1
  S  S38  1  0.512399  0.108604  0.316814  1
  S  S39  1  0.487601  0.608604  0.183186  1
  O  O40  1  0.101780  0.749314  0.288143  1
  O  O41  1  0.898220  0.249314  0.211857  1
  O  O42  1  0.898220  0.250686  0.711857  1
  O  O43  1  0.101780  0.750686  0.788143  1
  O  O44  1  0.177751  0.875682  0.061554  1
  O  O45  1  0.370963  0.142586  0.584563  1
  O  O46  1  0.370963  0.357414  0.084563  1
  O  O47  1  0.629037  0.857414  0.415437  1
  O  O48  1  0.398195  0.906158  0.793079  1
  O  O49  1  0.601805  0.406158  0.706921  1
  O  O50  1  0.601805  0.093842  0.206921  1
  O  O51  1  0.398195  0.593842  0.293079  1
  O  O52  1  0.547284  0.786139  0.682548  1
  O  O53  1  0.452716  0.286139  0.817452  1
  O  O54  1  0.452716  0.213861  0.317452  1
  O  O55  1  0.547284  0.713861  0.182548  1
  O  O56  1  0.786593  0.575335  0.650113  1
  O  O57  1  0.213407  0.075335  0.849887  1
  O  O58  1  0.213407  0.424665  0.349887  1
  O  O59  1  0.786593  0.924665  0.150113  1
  O  O60  1  0.745584  0.949555  0.752964  1
  O  O61  1  0.254416  0.449555  0.747036  1
  O  O62  1  0.254416  0.050445  0.247036  1
  O  O63  1  0.745584  0.550445  0.252964  1
  O  O64  1  0.262313  0.928239  0.510914  1
  O  O65  1  0.737687  0.428239  0.989086  1
  O  O66  1  0.737687  0.071761  0.489086  1
  O  O67  1  0.262313  0.571761  0.010914  1
  O  O68  1  0.177751  0.624318  0.561554  1
  O  O69  1  0.822249  0.124318  0.938446  1
  O  O70  1  0.822249  0.375682  0.438446  1
  O  O71  1  0.629037  0.642586  0.915437  1
