# generated using pymatgen
data_KTlO
_symmetry_space_group_name_H-M   'P 1'
_cell_length_a   6.82465066
_cell_length_b   6.82465066
_cell_length_c   6.39049260
_cell_angle_alpha   73.66393424
_cell_angle_beta   106.33606576
_cell_angle_gamma   148.49460213
_symmetry_Int_Tables_number   1
_chemical_formula_structural   KTlO
_chemical_formula_sum   'K2 Tl2 O2'
_cell_volume   148.75127250
_cell_formula_units_Z   2
loop_
 _symmetry_equiv_pos_site_id
 _symmetry_equiv_pos_as_xyz
  1  'x, y, z'
loop_
 _atom_site_type_symbol
 _atom_site_label
 _atom_site_symmetry_multiplicity
 _atom_site_fract_x
 _atom_site_fract_y
 _atom_site_fract_z
 _atom_site_occupancy
  K  K0  1  0.130908  0.869092  0.348415  1
  K  K1  1  0.869092  0.130908  0.651585  1
  Tl  Tl2  1  0.638721  0.361279  0.849001  1
  Tl  Tl3  1  0.361279  0.638721  0.150999  1
  O  O4  1  0.749119  0.250881  0.218409  1
  O  O5  1  0.250881  0.749119  0.781591  1
