# generated using pymatgen
data_Rb4CdCl6
_symmetry_space_group_name_H-M   'P 1'
_cell_length_a   9.03787422
_cell_length_b   9.03787422
_cell_length_c   9.03787422
_cell_angle_alpha   89.42479089
_cell_angle_beta   89.42479089
_cell_angle_gamma   89.42479089
_symmetry_Int_Tables_number   1
_chemical_formula_structural   Rb4CdCl6
_chemical_formula_sum   'Rb8 Cd2 Cl12'
_cell_volume   738.13135346
_cell_formula_units_Z   2
loop_
 _symmetry_equiv_pos_site_id
 _symmetry_equiv_pos_as_xyz
  1  'x, y, z'
loop_
 _atom_site_type_symbol
 _atom_site_label
 _atom_site_symmetry_multiplicity
 _atom_site_fract_x
 _atom_site_fract_y
 _atom_site_fract_z
 _atom_site_occupancy
  Rb  Rb0  1  0.750000  0.750000  0.750000  1
  Rb  Rb1  1  0.250000  0.250000  0.250000  1
  Rb  Rb2  1  0.873596  0.250000  0.626404  1
  Rb  Rb3  1  0.250000  0.626404  0.873596  1
  Rb  Rb4  1  0.626404  0.873596  0.250000  1
  Rb  Rb5  1  0.126404  0.750000  0.373596  1
  Rb  Rb6  1  0.750000  0.373596  0.126404  1
  Rb  Rb7  1  0.373596  0.126404  0.750000  1
  Cd  Cd8  1  0.000000  0.000000  0.000000  1
  Cd  Cd9  1  0.500000  0.500000  0.500000  1
  Cl  Cl10  1  0.431406  0.557692  0.214947  1
  Cl  Cl11  1  0.557692  0.214947  0.431406  1
  Cl  Cl12  1  0.214947  0.431406  0.557692  1
  Cl  Cl13  1  0.942308  0.068594  0.285053  1
  Cl  Cl14  1  0.068594  0.285053  0.942308  1
  Cl  Cl15  1  0.285053  0.942308  0.068594  1
  Cl  Cl16  1  0.568594  0.442308  0.785053  1
  Cl  Cl17  1  0.442308  0.785053  0.568594  1
  Cl  Cl18  1  0.785053  0.568594  0.442308  1
  Cl  Cl19  1  0.057692  0.931406  0.714947  1
  Cl  Cl20  1  0.714947  0.057692  0.931406  1
  Cl  Cl21  1  0.931406  0.714947  0.057692  1
