# generated using pymatgen
data_KGdP2H4O9
_symmetry_space_group_name_H-M   'P 1'
_cell_length_a   7.90497135
_cell_length_b   10.69764376
_cell_length_c   10.20604358
_cell_angle_alpha   90.00000000
_cell_angle_beta   93.48973750
_cell_angle_gamma   90.00000000
_symmetry_Int_Tables_number   1
_chemical_formula_structural   KGdP2H4O9
_chemical_formula_sum   'K4 Gd4 P8 H16 O36'
_cell_volume   861.46928524
_cell_formula_units_Z   4
loop_
 _symmetry_equiv_pos_site_id
 _symmetry_equiv_pos_as_xyz
  1  'x, y, z'
loop_
 _atom_site_type_symbol
 _atom_site_label
 _atom_site_symmetry_multiplicity
 _atom_site_fract_x
 _atom_site_fract_y
 _atom_site_fract_z
 _atom_site_occupancy
  K  K0  1  0.246500  0.781280  0.167270  1
  K  K1  1  0.753500  0.281280  0.332730  1
  K  K2  1  0.753500  0.218720  0.832730  1
  K  K3  1  0.246500  0.718720  0.667270  1
  Gd  Gd4  1  0.748163  0.886605  0.173799  1
  Gd  Gd5  1  0.251837  0.386605  0.326201  1
  Gd  Gd6  1  0.251837  0.113395  0.826201  1
  Gd  Gd7  1  0.748163  0.613395  0.673799  1
  P  P8  1  0.965985  0.652205  0.378016  1
  P  P9  1  0.034015  0.152205  0.121984  1
  P  P10  1  0.034015  0.347795  0.621984  1
  P  P11  1  0.965985  0.847795  0.878016  1
  P  P12  1  0.608583  0.608275  0.331620  1
  P  P13  1  0.391417  0.108275  0.168380  1
  P  P14  1  0.391417  0.391725  0.668380  1
  P  P15  1  0.608583  0.891725  0.831620  1
  H  H16  1  0.847821  0.907095  0.464282  1
  H  H17  1  0.152179  0.407095  0.035718  1
  H  H18  1  0.152179  0.092905  0.535718  1
  H  H19  1  0.847821  0.592905  0.964282  1
  H  H20  1  0.710130  0.017499  0.463294  1
  H  H21  1  0.289870  0.517499  0.036706  1
  H  H22  1  0.289870  0.982501  0.536706  1
  H  H23  1  0.710130  0.482501  0.963294  1
  H  H24  1  0.429807  0.575247  0.868604  1
  H  H25  1  0.570193  0.075247  0.631396  1
  H  H26  1  0.570193  0.424753  0.131396  1
  H  H27  1  0.429807  0.924753  0.368604  1
  H  H28  1  0.465319  0.689272  0.962465  1
  H  H29  1  0.534681  0.189272  0.537535  1
  H  H30  1  0.534681  0.310728  0.037535  1
  H  H31  1  0.465319  0.810728  0.462465  1
  O  O32  1  0.773675  0.959154  0.407405  1
  O  O33  1  0.226325  0.459154  0.092595  1
  O  O34  1  0.226325  0.040846  0.592595  1
  O  O35  1  0.773675  0.540846  0.907405  1
  O  O36  1  0.379849  0.624428  0.939125  1
  O  O37  1  0.620151  0.124428  0.560875  1
  O  O38  1  0.620151  0.375572  0.060875  1
  O  O39  1  0.379849  0.875572  0.439125  1
  O  O40  1  0.950877  0.770514  0.294096  1
  O  O41  1  0.049123  0.270514  0.205904  1
  O  O42  1  0.049123  0.229486  0.705904  1
  O  O43  1  0.950877  0.729486  0.794096  1
  O  O44  1  0.126273  0.578808  0.352837  1
  O  O45  1  0.873727  0.078808  0.147163  1
  O  O46  1  0.873727  0.421192  0.647163  1
  O  O47  1  0.126273  0.921192  0.852837  1
  O  O48  1  0.945219  0.678854  0.523567  1
  O  O49  1  0.054781  0.178854  0.976433  1
  O  O50  1  0.054781  0.321146  0.476433  1
  O  O51  1  0.945219  0.821146  0.023567  1
  O  O52  1  0.806545  0.560803  0.328355  1
  O  O53  1  0.193455  0.060803  0.171645  1
  O  O54  1  0.193455  0.439197  0.671645  1
  O  O55  1  0.806545  0.939197  0.828355  1
  O  O56  1  0.585475  0.717323  0.235061  1
  O  O57  1  0.414525  0.217323  0.264939  1
  O  O58  1  0.414525  0.282677  0.764939  1
  O  O59  1  0.585475  0.782677  0.735061  1
  O  O60  1  0.508444  0.492527  0.284198  1
  O  O61  1  0.491556  0.992527  0.215802  1
  O  O62  1  0.491556  0.507473  0.715802  1
  O  O63  1  0.508444  0.007473  0.784198  1
  O  O64  1  0.580441  0.646736  0.473384  1
  O  O65  1  0.419559  0.146736  0.026616  1
  O  O66  1  0.419559  0.353264  0.526616  1
  O  O67  1  0.580441  0.853264  0.973384  1
