# generated using pymatgen
data_B
_symmetry_space_group_name_H-M   'P 1'
_cell_length_a   8.86624987
_cell_length_b   8.86624987
_cell_length_c   4.92557177
_cell_angle_alpha   90.00000000
_cell_angle_beta   90.00000000
_cell_angle_gamma   90.00000000
_symmetry_Int_Tables_number   1
_chemical_formula_structural   B
_chemical_formula_sum   B50
_cell_volume   387.20110184
_cell_formula_units_Z   50
loop_
 _symmetry_equiv_pos_site_id
 _symmetry_equiv_pos_as_xyz
  1  'x, y, z'
loop_
 _atom_site_type_symbol
 _atom_site_label
 _atom_site_symmetry_multiplicity
 _atom_site_fract_x
 _atom_site_fract_y
 _atom_site_fract_z
 _atom_site_occupancy
  B  B0  1  0.500000  0.500000  0.500000  1
  B  B1  1  0.000000  0.000000  0.000000  1
  B  B2  1  0.628527  0.628527  0.392525  1
  B  B3  1  0.128527  0.871473  0.892525  1
  B  B4  1  0.871473  0.128527  0.892525  1
  B  B5  1  0.371473  0.371473  0.392525  1
  B  B6  1  0.371473  0.628527  0.607475  1
  B  B7  1  0.628527  0.371473  0.607475  1
  B  B8  1  0.128527  0.128527  0.107475  1
  B  B9  1  0.871473  0.871473  0.107475  1
  B  B10  1  0.745630  0.745630  0.573989  1
  B  B11  1  0.245630  0.754370  0.073989  1
  B  B12  1  0.754370  0.245630  0.073989  1
  B  B13  1  0.254370  0.254370  0.573989  1
  B  B14  1  0.254370  0.745630  0.426011  1
  B  B15  1  0.745630  0.254370  0.426011  1
  B  B16  1  0.245630  0.245630  0.926011  1
  B  B17  1  0.754370  0.754370  0.926011  1
  B  B18  1  0.585770  0.829762  0.405751  1
  B  B19  1  0.329762  0.914230  0.905751  1
  B  B20  1  0.670238  0.085770  0.905751  1
  B  B21  1  0.414230  0.170238  0.405751  1
  B  B22  1  0.414230  0.829762  0.594249  1
  B  B23  1  0.585770  0.170238  0.594249  1
  B  B24  1  0.329762  0.085770  0.094249  1
  B  B25  1  0.670238  0.914230  0.094249  1
  B  B26  1  0.914230  0.670238  0.094249  1
  B  B27  1  0.170238  0.585770  0.594249  1
  B  B28  1  0.829762  0.414230  0.594249  1
  B  B29  1  0.085770  0.329762  0.094249  1
  B  B30  1  0.085770  0.670238  0.905751  1
  B  B31  1  0.914230  0.329762  0.905751  1
  B  B32  1  0.170238  0.414230  0.405751  1
  B  B33  1  0.829762  0.585770  0.405751  1
  B  B34  1  0.582957  0.728505  0.087703  1
  B  B35  1  0.228505  0.917043  0.587703  1
  B  B36  1  0.771495  0.082957  0.587703  1
  B  B37  1  0.417043  0.271495  0.087703  1
  B  B38  1  0.417043  0.728505  0.912297  1
  B  B39  1  0.582957  0.271495  0.912297  1
  B  B40  1  0.228505  0.082957  0.412297  1
  B  B41  1  0.771495  0.917043  0.412297  1
  B  B42  1  0.917043  0.771495  0.412297  1
  B  B43  1  0.271495  0.582957  0.912297  1
  B  B44  1  0.728505  0.417043  0.912297  1
  B  B45  1  0.082957  0.228505  0.412297  1
  B  B46  1  0.082957  0.771495  0.587703  1
  B  B47  1  0.917043  0.228505  0.587703  1
  B  B48  1  0.271495  0.417043  0.087703  1
  B  B49  1  0.728505  0.582957  0.087703  1
