# generated using pymatgen
data_Al3Si2H3O10
_symmetry_space_group_name_H-M   'P 1'
_cell_length_a   6.18862423
_cell_length_b   7.33893212
_cell_length_c   7.81306670
_cell_angle_alpha   64.60296513
_cell_angle_beta   88.01590288
_cell_angle_gamma   86.63710617
_symmetry_Int_Tables_number   1
_chemical_formula_structural   Al3Si2H3O10
_chemical_formula_sum   'Al6 Si4 H6 O20'
_cell_volume   319.98952596
_cell_formula_units_Z   2
loop_
 _symmetry_equiv_pos_site_id
 _symmetry_equiv_pos_as_xyz
  1  'x, y, z'
loop_
 _atom_site_type_symbol
 _atom_site_label
 _atom_site_symmetry_multiplicity
 _atom_site_fract_x
 _atom_site_fract_y
 _atom_site_fract_z
 _atom_site_occupancy
  Al  Al0  1  0.154356  0.149075  0.396362  1
  Al  Al1  1  0.845644  0.850925  0.603638  1
  Al  Al2  1  0.655989  0.648727  0.394160  1
  Al  Al3  1  0.344011  0.351273  0.605840  1
  Al  Al4  1  0.716098  0.745239  0.989918  1
  Al  Al5  1  0.283902  0.254761  0.010082  1
  Si  Si6  1  0.864296  0.221004  0.704350  1
  Si  Si7  1  0.135704  0.778996  0.295650  1
  Si  Si8  1  0.372624  0.725434  0.708723  1
  Si  Si9  1  0.627376  0.274566  0.291277  1
  H  H10  1  0.797652  0.235688  0.983957  1
  H  H11  1  0.202348  0.764312  0.016043  1
  H  H12  1  0.120524  0.499274  0.131917  1
  H  H13  1  0.879476  0.500726  0.868083  1
  H  H14  1  0.630079  0.999782  0.133379  1
  H  H15  1  0.369921  0.000218  0.866621  1
  O  O16  1  0.848768  0.111017  0.399377  1
  O  O17  1  0.151232  0.888983  0.600623  1
  O  O18  1  0.349869  0.609195  0.403406  1
  O  O19  1  0.650131  0.390805  0.596594  1
  O  O20  1  0.308333  0.488234  0.776145  1
  O  O21  1  0.691667  0.511766  0.223855  1
  O  O22  1  0.796655  0.986964  0.769590  1
  O  O23  1  0.203345  0.013036  0.230410  1
  O  O24  1  0.366011  0.138721  0.847338  1
  O  O25  1  0.633989  0.861279  0.152662  1
  O  O26  1  0.865771  0.638181  0.846393  1
  O  O27  1  0.134229  0.361819  0.153607  1
  O  O28  1  0.576907  0.238208  0.104611  1
  O  O29  1  0.423093  0.761792  0.895389  1
  O  O30  1  0.087113  0.745451  0.104229  1
  O  O31  1  0.912887  0.254549  0.895771  1
  O  O32  1  0.431815  0.214813  0.440596  1
  O  O33  1  0.568185  0.785187  0.559404  1
  O  O34  1  0.934558  0.716585  0.435915  1
  O  O35  1  0.065442  0.283415  0.564085  1
