# generated using pymatgen
data_Na2ScCuF7
_symmetry_space_group_name_H-M   'P 1'
_cell_length_a   7.34252264
_cell_length_b   7.77302582
_cell_length_c   10.63958738
_cell_angle_alpha   90.00000000
_cell_angle_beta   90.00000000
_cell_angle_gamma   90.00000000
_symmetry_Int_Tables_number   1
_chemical_formula_structural   Na2ScCuF7
_chemical_formula_sum   'Na8 Sc4 Cu4 F28'
_cell_volume   607.23974649
_cell_formula_units_Z   4
loop_
 _symmetry_equiv_pos_site_id
 _symmetry_equiv_pos_as_xyz
  1  'x, y, z'
loop_
 _atom_site_type_symbol
 _atom_site_label
 _atom_site_symmetry_multiplicity
 _atom_site_fract_x
 _atom_site_fract_y
 _atom_site_fract_z
 _atom_site_occupancy
  Na  Na0  1  0.000000  0.500000  0.000000  1
  Na  Na1  1  0.500000  0.500000  0.000000  1
  Na  Na2  1  0.000000  0.000000  0.500000  1
  Na  Na3  1  0.500000  0.000000  0.500000  1
  Na  Na4  1  0.250000  0.216251  0.761629  1
  Na  Na5  1  0.250000  0.283749  0.261629  1
  Na  Na6  1  0.750000  0.716251  0.738371  1
  Na  Na7  1  0.750000  0.783749  0.238371  1
  Sc  Sc8  1  0.250000  0.722256  0.767616  1
  Sc  Sc9  1  0.750000  0.222256  0.732384  1
  Sc  Sc10  1  0.750000  0.277744  0.232384  1
  Sc  Sc11  1  0.250000  0.777744  0.267616  1
  Cu  Cu12  1  0.500000  0.500000  0.500000  1
  Cu  Cu13  1  0.000000  0.500000  0.500000  1
  Cu  Cu14  1  0.500000  0.000000  0.000000  1
  Cu  Cu15  1  0.000000  0.000000  0.000000  1
  F  F16  1  0.530353  0.264311  0.621465  1
  F  F17  1  0.030353  0.735689  0.378535  1
  F  F18  1  0.469647  0.764311  0.878535  1
  F  F19  1  0.969647  0.235689  0.121465  1
  F  F20  1  0.469647  0.735689  0.378535  1
  F  F21  1  0.969647  0.264311  0.621465  1
  F  F22  1  0.530353  0.235689  0.121465  1
  F  F23  1  0.030353  0.764311  0.878535  1
  F  F24  1  0.446733  0.643985  0.643590  1
  F  F25  1  0.946733  0.356015  0.356410  1
  F  F26  1  0.553267  0.143985  0.856410  1
  F  F27  1  0.053267  0.856015  0.143590  1
  F  F28  1  0.553267  0.356015  0.356410  1
  F  F29  1  0.053267  0.643985  0.643590  1
  F  F30  1  0.446733  0.856015  0.143590  1
  F  F31  1  0.946733  0.143985  0.856410  1
  F  F32  1  0.250000  0.065006  0.966914  1
  F  F33  1  0.750000  0.934994  0.033086  1
  F  F34  1  0.750000  0.565006  0.533086  1
  F  F35  1  0.250000  0.434994  0.466914  1
  F  F36  1  0.250000  0.948359  0.671277  1
  F  F37  1  0.750000  0.051641  0.328723  1
  F  F38  1  0.750000  0.448359  0.828723  1
  F  F39  1  0.250000  0.551641  0.171277  1
  F  F40  1  0.250000  0.483179  0.855501  1
  F  F41  1  0.750000  0.516821  0.144499  1
  F  F42  1  0.750000  0.983179  0.644499  1
  F  F43  1  0.250000  0.016821  0.355501  1
