# generated using pymatgen
data_CaLaMn2O6
_symmetry_space_group_name_H-M   'P 1'
_cell_length_a   5.52974952
_cell_length_b   7.67389461
_cell_length_c   11.00373455
_cell_angle_alpha   90.00000000
_cell_angle_beta   90.00000000
_cell_angle_gamma   90.00000000
_symmetry_Int_Tables_number   1
_chemical_formula_structural   CaLaMn2O6
_chemical_formula_sum   'Ca4 La4 Mn8 O24'
_cell_volume   466.94033996
_cell_formula_units_Z   4
loop_
 _symmetry_equiv_pos_site_id
 _symmetry_equiv_pos_as_xyz
  1  'x, y, z'
loop_
 _atom_site_type_symbol
 _atom_site_label
 _atom_site_symmetry_multiplicity
 _atom_site_fract_x
 _atom_site_fract_y
 _atom_site_fract_z
 _atom_site_occupancy
  Ca  Ca0  1  0.259852  0.000000  0.117787  1
  Ca  Ca1  1  0.240148  0.500000  0.617787  1
  Ca  Ca2  1  0.759852  0.500000  0.382213  1
  Ca  Ca3  1  0.740148  0.000000  0.882213  1
  La  La4  1  0.241177  0.500000  0.128165  1
  La  La5  1  0.258823  0.000000  0.628165  1
  La  La6  1  0.758823  0.500000  0.871835  1
  La  La7  1  0.741177  0.000000  0.371835  1
  Mn  Mn8  1  0.755216  0.747074  0.624686  1
  Mn  Mn9  1  0.744784  0.752926  0.124686  1
  Mn  Mn10  1  0.755216  0.252926  0.624686  1
  Mn  Mn11  1  0.744784  0.247074  0.124686  1
  Mn  Mn12  1  0.244784  0.747074  0.375314  1
  Mn  Mn13  1  0.255216  0.247074  0.875314  1
  Mn  Mn14  1  0.255216  0.752926  0.875314  1
  Mn  Mn15  1  0.244784  0.252926  0.375314  1
  O  O16  1  0.675004  0.500000  0.114393  1
  O  O17  1  0.824996  0.000000  0.614393  1
  O  O18  1  0.832499  0.000000  0.132731  1
  O  O19  1  0.667501  0.500000  0.632731  1
  O  O20  1  0.332499  0.500000  0.367269  1
  O  O21  1  0.167501  0.000000  0.867269  1
  O  O22  1  0.175004  0.000000  0.385607  1
  O  O23  1  0.324996  0.500000  0.885607  1
  O  O24  1  0.000000  0.711838  0.000000  1
  O  O25  1  0.500000  0.788162  0.500000  1
  O  O26  1  0.500000  0.211838  0.500000  1
  O  O27  1  0.000000  0.288162  0.000000  1
  O  O28  1  0.517158  0.793211  0.754362  1
  O  O29  1  0.982842  0.706789  0.254362  1
  O  O30  1  0.982842  0.293211  0.254362  1
  O  O31  1  0.517158  0.206789  0.754362  1
  O  O32  1  0.500000  0.204454  0.000000  1
  O  O33  1  0.000000  0.295546  0.500000  1
  O  O34  1  0.000000  0.704454  0.500000  1
  O  O35  1  0.500000  0.795546  0.000000  1
  O  O36  1  0.482842  0.206789  0.245638  1
  O  O37  1  0.017158  0.293211  0.745638  1
  O  O38  1  0.017158  0.706789  0.745638  1
  O  O39  1  0.482842  0.793211  0.245638  1
