# generated using pymatgen
data_Y2Pd2Pb
_symmetry_space_group_name_H-M   'P 1'
_cell_length_a   7.95218792
_cell_length_b   7.95218792
_cell_length_c   3.64017023
_cell_angle_alpha   90.00000000
_cell_angle_beta   90.00000000
_cell_angle_gamma   90.00000000
_symmetry_Int_Tables_number   1
_chemical_formula_structural   Y2Pd2Pb
_chemical_formula_sum   'Y4 Pd4 Pb2'
_cell_volume   230.19451037
_cell_formula_units_Z   2
loop_
 _symmetry_equiv_pos_site_id
 _symmetry_equiv_pos_as_xyz
  1  'x, y, z'
loop_
 _atom_site_type_symbol
 _atom_site_label
 _atom_site_symmetry_multiplicity
 _atom_site_fract_x
 _atom_site_fract_y
 _atom_site_fract_z
 _atom_site_occupancy
  Y  Y0  1  0.671702  0.171702  0.500000  1
  Y  Y1  1  0.171702  0.328298  0.500000  1
  Y  Y2  1  0.828298  0.671702  0.500000  1
  Y  Y3  1  0.328298  0.828298  0.500000  1
  Pd  Pd4  1  0.874855  0.374855  0.000000  1
  Pd  Pd5  1  0.374855  0.125145  0.000000  1
  Pd  Pd6  1  0.625145  0.874855  0.000000  1
  Pd  Pd7  1  0.125145  0.625145  0.000000  1
  Pb  Pb8  1  0.000000  0.000000  0.000000  1
  Pb  Pb9  1  0.500000  0.500000  0.000000  1
