# generated using pymatgen
data_Ga2Te5
_symmetry_space_group_name_H-M   'P 1'
_cell_length_a   6.76854649
_cell_length_b   6.76854649
_cell_length_c   6.76854649
_cell_angle_alpha   105.38184819
_cell_angle_beta   105.38184819
_cell_angle_gamma   118.00175836
_symmetry_Int_Tables_number   1
_chemical_formula_structural   Ga2Te5
_chemical_formula_sum   'Ga2 Te5'
_cell_volume   234.68411145
_cell_formula_units_Z   1
loop_
 _symmetry_equiv_pos_site_id
 _symmetry_equiv_pos_as_xyz
  1  'x, y, z'
loop_
 _atom_site_type_symbol
 _atom_site_label
 _atom_site_symmetry_multiplicity
 _atom_site_fract_x
 _atom_site_fract_y
 _atom_site_fract_z
 _atom_site_occupancy
  Ga  Ga0  1  0.750000  0.250000  0.500000  1
  Ga  Ga1  1  0.250000  0.750000  0.500000  1
  Te  Te2  1  0.673824  0.177878  0.851702  1
  Te  Te3  1  0.326176  0.822122  0.148298  1
  Te  Te4  1  0.822122  0.673824  0.495946  1
  Te  Te5  1  0.177878  0.326176  0.504054  1
  Te  Te6  1  0.000000  0.000000  0.000000  1
