# generated using pymatgen
data_Nb5Sb4
_symmetry_space_group_name_H-M   'P 1'
_cell_length_a   7.58331735
_cell_length_b   7.58331735
_cell_length_c   7.58331735
_cell_angle_alpha   93.20384596
_cell_angle_beta   93.20384596
_cell_angle_gamma   152.65078611
_symmetry_Int_Tables_number   1
_chemical_formula_structural   Nb5Sb4
_chemical_formula_sum   'Nb5 Sb4'
_cell_volume   194.66697811
_cell_formula_units_Z   1
loop_
 _symmetry_equiv_pos_site_id
 _symmetry_equiv_pos_as_xyz
  1  'x, y, z'
loop_
 _atom_site_type_symbol
 _atom_site_label
 _atom_site_symmetry_multiplicity
 _atom_site_fract_x
 _atom_site_fract_y
 _atom_site_fract_z
 _atom_site_occupancy
  Nb  Nb0  1  0.000000  0.000000  0.000000  1
  Nb  Nb1  1  0.627522  0.311726  0.939249  1
  Nb  Nb2  1  0.688274  0.627522  0.315796  1
  Nb  Nb3  1  0.311726  0.372478  0.684204  1
  Nb  Nb4  1  0.372478  0.688274  0.060751  1
  Sb  Sb5  1  0.706722  0.053143  0.759865  1
  Sb  Sb6  1  0.946857  0.706722  0.653580  1
  Sb  Sb7  1  0.053143  0.293278  0.346420  1
  Sb  Sb8  1  0.293278  0.946857  0.240135  1
