# generated using pymatgen
data_TbMnGe
_symmetry_space_group_name_H-M   'P 1'
_cell_length_a   4.12519756
_cell_length_b   7.10728712
_cell_length_c   7.96190414
_cell_angle_alpha   90.00000000
_cell_angle_beta   90.00000000
_cell_angle_gamma   90.00000000
_symmetry_Int_Tables_number   1
_chemical_formula_structural   TbMnGe
_chemical_formula_sum   'Tb4 Mn4 Ge4'
_cell_volume   233.43477676
_cell_formula_units_Z   4
loop_
 _symmetry_equiv_pos_site_id
 _symmetry_equiv_pos_as_xyz
  1  'x, y, z'
loop_
 _atom_site_type_symbol
 _atom_site_label
 _atom_site_symmetry_multiplicity
 _atom_site_fract_x
 _atom_site_fract_y
 _atom_site_fract_z
 _atom_site_occupancy
  Tb  Tb0  1  0.250000  0.523112  0.181403  1
  Tb  Tb1  1  0.750000  0.476888  0.818597  1
  Tb  Tb2  1  0.250000  0.023112  0.318597  1
  Tb  Tb3  1  0.750000  0.976888  0.681403  1
  Mn  Mn4  1  0.750000  0.367194  0.444930  1
  Mn  Mn5  1  0.250000  0.132806  0.944930  1
  Mn  Mn6  1  0.750000  0.867194  0.055070  1
  Mn  Mn7  1  0.250000  0.632806  0.555070  1
  Ge  Ge8  1  0.250000  0.276573  0.618118  1
  Ge  Ge9  1  0.750000  0.223427  0.118118  1
  Ge  Ge10  1  0.250000  0.776573  0.881882  1
  Ge  Ge11  1  0.750000  0.723427  0.381882  1
