# generated using pymatgen
data_KTh2V3O12
_symmetry_space_group_name_H-M   'P 1'
_cell_length_a   10.04963829
_cell_length_b   10.04963829
_cell_length_c   8.25308781
_cell_angle_alpha   79.78052642
_cell_angle_beta   100.21947358
_cell_angle_gamma   137.95990652
_symmetry_Int_Tables_number   1
_chemical_formula_structural   KTh2V3O12
_chemical_formula_sum   'K2 Th4 V6 O24'
_cell_volume   547.99391296
_cell_formula_units_Z   2
loop_
 _symmetry_equiv_pos_site_id
 _symmetry_equiv_pos_as_xyz
  1  'x, y, z'
loop_
 _atom_site_type_symbol
 _atom_site_label
 _atom_site_symmetry_multiplicity
 _atom_site_fract_x
 _atom_site_fract_y
 _atom_site_fract_z
 _atom_site_occupancy
  K  K0  1  0.615415  0.615415  0.750000  1
  K  K1  1  0.384585  0.384585  0.250000  1
  Th  Th2  1  0.058637  0.750614  0.536813  1
  Th  Th3  1  0.750614  0.058637  0.963187  1
  Th  Th4  1  0.941363  0.249386  0.463187  1
  Th  Th5  1  0.249386  0.941363  0.036813  1
  V  V6  1  0.106131  0.106131  0.750000  1
  V  V7  1  0.893869  0.893869  0.250000  1
  V  V8  1  0.605181  0.224294  0.683122  1
  V  V9  1  0.224294  0.605181  0.816878  1
  V  V10  1  0.394819  0.775706  0.316878  1
  V  V11  1  0.775706  0.394819  0.183122  1
  O  O12  1  0.268658  0.200541  0.924526  1
  O  O13  1  0.200541  0.268658  0.575474  1
  O  O14  1  0.731342  0.799459  0.075474  1
  O  O15  1  0.799459  0.731342  0.424526  1
  O  O16  1  0.043978  0.892550  0.740291  1
  O  O17  1  0.892550  0.043978  0.759709  1
  O  O18  1  0.956022  0.107450  0.259709  1
  O  O19  1  0.107450  0.956022  0.240291  1
  O  O20  1  0.754882  0.475714  0.663019  1
  O  O21  1  0.475714  0.754882  0.836981  1
  O  O22  1  0.245118  0.524286  0.336981  1
  O  O23  1  0.524286  0.245118  0.163019  1
  O  O24  1  0.919827  0.618139  0.063749  1
  O  O25  1  0.618139  0.919827  0.436251  1
  O  O26  1  0.080173  0.381861  0.936251  1
  O  O27  1  0.381861  0.080173  0.563749  1
  O  O28  1  0.821600  0.257656  0.175791  1
  O  O29  1  0.257656  0.821600  0.324209  1
  O  O30  1  0.178400  0.742344  0.824209  1
  O  O31  1  0.742344  0.178400  0.675791  1
  O  O32  1  0.856585  0.445822  0.390701  1
  O  O33  1  0.445822  0.856585  0.109299  1
  O  O34  1  0.143415  0.554178  0.609299  1
  O  O35  1  0.554178  0.143415  0.890701  1
