# generated using pymatgen
data_NdGeRh
_symmetry_space_group_name_H-M   'P 1'
_cell_length_a   4.46447063
_cell_length_b   7.24780404
_cell_length_c   7.54126640
_cell_angle_alpha   90.00000000
_cell_angle_beta   90.00000000
_cell_angle_gamma   90.00000000
_symmetry_Int_Tables_number   1
_chemical_formula_structural   NdGeRh
_chemical_formula_sum   'Nd4 Ge4 Rh4'
_cell_volume   244.01734402
_cell_formula_units_Z   4
loop_
 _symmetry_equiv_pos_site_id
 _symmetry_equiv_pos_as_xyz
  1  'x, y, z'
loop_
 _atom_site_type_symbol
 _atom_site_label
 _atom_site_symmetry_multiplicity
 _atom_site_fract_x
 _atom_site_fract_y
 _atom_site_fract_z
 _atom_site_occupancy
  Nd  Nd0  1  0.250000  0.491294  0.689641  1
  Nd  Nd1  1  0.750000  0.508706  0.310359  1
  Nd  Nd2  1  0.250000  0.991294  0.810359  1
  Nd  Nd3  1  0.750000  0.008706  0.189641  1
  Ge  Ge4  1  0.250000  0.298026  0.102752  1
  Ge  Ge5  1  0.750000  0.701974  0.897248  1
  Ge  Ge6  1  0.250000  0.798026  0.397248  1
  Ge  Ge7  1  0.750000  0.201974  0.602752  1
  Rh  Rh8  1  0.750000  0.848075  0.571694  1
  Rh  Rh9  1  0.250000  0.151925  0.428306  1
  Rh  Rh10  1  0.750000  0.348075  0.928306  1
  Rh  Rh11  1  0.250000  0.651925  0.071694  1
