# generated using pymatgen
data_Sb6Pb4S13
_symmetry_space_group_name_H-M   'P 1'
_cell_length_a   3.95840775
_cell_length_b   17.02271550
_cell_length_c   17.99103702
_cell_angle_alpha   91.10548699
_cell_angle_beta   96.28374849
_cell_angle_gamma   96.58401621
_symmetry_Int_Tables_number   1
_chemical_formula_structural   Sb6Pb4S13
_chemical_formula_sum   'Sb12 Pb8 S26'
_cell_volume   1196.43410617
_cell_formula_units_Z   2
loop_
 _symmetry_equiv_pos_site_id
 _symmetry_equiv_pos_as_xyz
  1  'x, y, z'
loop_
 _atom_site_type_symbol
 _atom_site_label
 _atom_site_symmetry_multiplicity
 _atom_site_fract_x
 _atom_site_fract_y
 _atom_site_fract_z
 _atom_site_occupancy
  Sb  Sb0  1  0.622938  0.754876  0.504344  1
  Sb  Sb1  1  0.795609  0.908729  0.702586  1
  Sb  Sb2  1  0.249679  0.432582  0.053032  1
  Sb  Sb3  1  0.336510  0.362149  0.293542  1
  Sb  Sb4  1  0.248990  0.151031  0.349184  1
  Sb  Sb5  1  0.851139  0.824017  0.893948  1
  Sb  Sb6  1  0.674357  0.668133  0.699372  1
  Sb  Sb7  1  0.157587  0.213590  0.108134  1
  Sb  Sb8  1  0.054843  0.798727  0.305428  1
  Sb  Sb9  1  0.410679  0.282886  0.527736  1
  Sb  Sb10  1  0.081987  0.291750  0.875218  1
  Sb  Sb11  1  0.622945  0.022398  0.187599  1
  Pb  Pb12  1  0.438991  0.779184  0.097026  1
  Pb  Pb13  1  0.239982  0.968426  0.505669  1
  Pb  Pb14  1  0.256775  0.608985  0.897338  1
  Pb  Pb15  1  0.421286  0.121671  0.715251  1
  Pb  Pb16  1  0.072748  0.456133  0.684195  1
  Pb  Pb17  1  0.891163  0.559199  0.215057  1
  Pb  Pb18  1  0.514804  0.074439  0.945107  1
  Pb  Pb19  1  0.976734  0.493812  0.453645  1
  S  S20  1  0.158353  0.014244  0.290267  1
  S  S21  1  0.698675  0.170649  0.217068  1
  S  S22  1  0.940237  0.256817  0.617310  1
  S  S23  1  0.714875  0.456181  0.963357  1
  S  S24  1  0.018536  0.870008  0.167961  1
  S  S25  1  0.113271  0.602529  0.616076  1
  S  S26  1  0.773299  0.112312  0.433412  1
  S  S27  1  0.549933  0.314112  0.786432  1
  S  S28  1  0.490390  0.711844  0.260057  1
  S  S29  1  0.382945  0.975427  0.785255  1
  S  S30  1  0.795382  0.394984  0.189796  1
  S  S31  1  0.870311  0.335557  0.400010  1
  S  S32  1  0.230406  0.843792  0.601617  1
  S  S33  1  0.622694  0.233822  0.009023  1
  S  S34  1  0.274579  0.734509  0.800105  1
  S  S35  1  0.496735  0.426972  0.561006  1
  S  S36  1  0.433026  0.887778  0.975285  1
  S  S37  1  0.061362  0.694222  0.422917  1
  S  S38  1  0.842298  0.707532  0.972902  1
  S  S39  1  0.829573  0.029023  0.626234  1
  S  S40  1  0.339556  0.569427  0.101148  1
  S  S41  1  0.074925  0.068560  0.077110  1
  S  S42  1  0.421244  0.502910  0.333753  1
  S  S43  1  0.665139  0.548972  0.776160  1
  S  S44  1  0.652806  0.872636  0.425914  1
  S  S45  1  0.997704  0.145965  0.844917  1
