# generated using pymatgen
data_Tl(CuO)2
_symmetry_space_group_name_H-M   'P 1'
_cell_length_a   6.15367895
_cell_length_b   6.15367895
_cell_length_c   6.15367895
_cell_angle_alpha   126.05821612
_cell_angle_beta   119.61614831
_cell_angle_gamma   85.25082446
_symmetry_Int_Tables_number   1
_chemical_formula_structural   Tl(CuO)2
_chemical_formula_sum   'Tl2 Cu4 O4'
_cell_volume   156.42850614
_cell_formula_units_Z   2
loop_
 _symmetry_equiv_pos_site_id
 _symmetry_equiv_pos_as_xyz
  1  'x, y, z'
loop_
 _atom_site_type_symbol
 _atom_site_label
 _atom_site_symmetry_multiplicity
 _atom_site_fract_x
 _atom_site_fract_y
 _atom_site_fract_z
 _atom_site_occupancy
  Tl  Tl0  1  0.143945  0.893945  0.750000  1
  Tl  Tl1  1  0.856055  0.106055  0.250000  1
  Cu  Cu2  1  0.500000  1.000000  0.500000  1
  Cu  Cu3  1  0.500000  0.500000  0.000000  1
  Cu  Cu4  1  1.000000  0.500000  1.000000  1
  Cu  Cu5  1  0.500000  0.500000  0.500000  1
  O  O6  1  0.334097  0.298899  0.535198  1
  O  O7  1  0.665903  0.701101  0.464802  1
  O  O8  1  0.236299  0.701101  0.035198  1
  O  O9  1  0.763701  0.298899  0.964802  1
