# generated using pymatgen
data_Ta2Bi4O11
_symmetry_space_group_name_H-M   'P 1'
_cell_length_a   6.65870095
_cell_length_b   7.73185055
_cell_length_c   10.05372998
_cell_angle_alpha   101.03008727
_cell_angle_beta   90.38265634
_cell_angle_gamma   89.95195688
_symmetry_Int_Tables_number   1
_chemical_formula_structural   Ta2Bi4O11
_chemical_formula_sum   'Ta4 Bi8 O22'
_cell_volume   508.03383049
_cell_formula_units_Z   2
loop_
 _symmetry_equiv_pos_site_id
 _symmetry_equiv_pos_as_xyz
  1  'x, y, z'
loop_
 _atom_site_type_symbol
 _atom_site_label
 _atom_site_symmetry_multiplicity
 _atom_site_fract_x
 _atom_site_fract_y
 _atom_site_fract_z
 _atom_site_occupancy
  Ta  Ta0  1  0.914700  0.703553  0.813729  1
  Ta  Ta1  1  0.085300  0.296447  0.186271  1
  Ta  Ta2  1  0.910908  0.202687  0.809858  1
  Ta  Ta3  1  0.089092  0.797313  0.190142  1
  Bi  Bi4  1  0.761164  0.372519  0.478835  1
  Bi  Bi5  1  0.238836  0.627481  0.521165  1
  Bi  Bi6  1  0.752585  0.871730  0.478421  1
  Bi  Bi7  1  0.247415  0.128270  0.521579  1
  Bi  Bi8  1  0.438148  0.952432  0.815699  1
  Bi  Bi9  1  0.561852  0.047568  0.184301  1
  Bi  Bi10  1  0.386864  0.454678  0.829436  1
  Bi  Bi11  1  0.613136  0.545322  0.170564  1
  O  O12  1  0.217903  0.728393  0.763381  1
  O  O13  1  0.782097  0.271607  0.236619  1
  O  O14  1  0.631345  0.660048  0.833899  1
  O  O15  1  0.368655  0.339952  0.166101  1
  O  O16  1  0.630612  0.256034  0.847765  1
  O  O17  1  0.369388  0.743966  0.152235  1
  O  O18  1  0.889776  0.168928  0.604342  1
  O  O19  1  0.110224  0.831072  0.395658  1
  O  O20  1  0.215262  0.149033  0.762907  1
  O  O21  1  0.784738  0.850967  0.237093  1
  O  O22  1  0.907505  0.637531  0.600103  1
  O  O23  1  0.092495  0.362469  0.399897  1
  O  O24  1  0.020484  0.546807  0.186308  1
  O  O25  1  0.979516  0.453193  0.813692  1
  O  O26  1  0.996409  0.780779  0.000364  1
  O  O27  1  0.003591  0.219221  0.999636  1
  O  O28  1  0.588817  0.607621  0.386049  1
  O  O29  1  0.411183  0.392379  0.613951  1
  O  O30  1  0.159644  0.053115  0.210452  1
  O  O31  1  0.840356  0.946885  0.789548  1
  O  O32  1  0.543656  0.093547  0.397903  1
  O  O33  1  0.456344  0.906453  0.602097  1
