# generated using pymatgen
data_SnPO4
_symmetry_space_group_name_H-M   'P 1'
_cell_length_a   4.91554364
_cell_length_b   8.26990561
_cell_length_c   18.45258901
_cell_angle_alpha   90.00000000
_cell_angle_beta   90.00000000
_cell_angle_gamma   90.00000000
_symmetry_Int_Tables_number   1
_chemical_formula_structural   SnPO4
_chemical_formula_sum   'Sn8 P8 O32'
_cell_volume   750.11770757
_cell_formula_units_Z   8
loop_
 _symmetry_equiv_pos_site_id
 _symmetry_equiv_pos_as_xyz
  1  'x, y, z'
loop_
 _atom_site_type_symbol
 _atom_site_label
 _atom_site_symmetry_multiplicity
 _atom_site_fract_x
 _atom_site_fract_y
 _atom_site_fract_z
 _atom_site_occupancy
  Sn  Sn0  1  0.556116  0.053832  0.779056  1
  Sn  Sn1  1  0.474986  0.179242  0.550474  1
  Sn  Sn2  1  0.974986  0.320758  0.050474  1
  Sn  Sn3  1  0.056116  0.446168  0.279056  1
  Sn  Sn4  1  0.556116  0.553832  0.720944  1
  Sn  Sn5  1  0.474986  0.679242  0.949526  1
  Sn  Sn6  1  0.974986  0.820758  0.449526  1
  Sn  Sn7  1  0.056116  0.946168  0.220944  1
  P  P8  1  0.943551  0.251197  0.662542  1
  P  P9  1  0.930062  0.229029  0.442653  1
  P  P10  1  0.430062  0.270971  0.942653  1
  P  P11  1  0.443551  0.248803  0.162542  1
  P  P12  1  0.943551  0.751197  0.837458  1
  P  P13  1  0.930062  0.729029  0.057347  1
  P  P14  1  0.430062  0.770971  0.557347  1
  P  P15  1  0.443551  0.748803  0.337458  1
  O  O16  1  0.819249  0.050239  0.452994  1
  O  O17  1  0.791658  0.119100  0.615513  1
  O  O18  1  0.318366  0.081045  0.148260  1
  O  O19  1  0.235806  0.172605  0.992865  1
  O  O20  1  0.923371  0.198959  0.742410  1
  O  O21  1  0.423008  0.218211  0.863850  1
  O  O22  1  0.751590  0.245253  0.138439  1
  O  O23  1  0.226619  0.242305  0.469328  1
  O  O24  1  0.726619  0.257695  0.969328  1
  O  O25  1  0.251590  0.254747  0.638439  1
  O  O26  1  0.923008  0.281789  0.363850  1
  O  O27  1  0.423371  0.301041  0.242410  1
  O  O28  1  0.735806  0.327395  0.492865  1
  O  O29  1  0.818366  0.418955  0.648260  1
  O  O30  1  0.291657  0.380900  0.115513  1
  O  O31  1  0.319249  0.449761  0.952994  1
  O  O32  1  0.819249  0.550239  0.047006  1
  O  O33  1  0.791658  0.619100  0.884487  1
  O  O34  1  0.318366  0.581045  0.351740  1
  O  O35  1  0.235806  0.672605  0.507135  1
  O  O36  1  0.923371  0.698959  0.757590  1
  O  O37  1  0.423008  0.718211  0.636150  1
  O  O38  1  0.751590  0.745253  0.361561  1
  O  O39  1  0.226619  0.742305  0.030672  1
  O  O40  1  0.726619  0.757695  0.530672  1
  O  O41  1  0.251590  0.754747  0.861561  1
  O  O42  1  0.923008  0.781789  0.136150  1
  O  O43  1  0.423371  0.801041  0.257590  1
  O  O44  1  0.735806  0.827395  0.007135  1
  O  O45  1  0.818366  0.918955  0.851740  1
  O  O46  1  0.291657  0.880900  0.384487  1
  O  O47  1  0.319249  0.949761  0.547006  1
