# generated using pymatgen
data_Na2Ca2Ta3O10
_symmetry_space_group_name_H-M   'P 1'
_cell_length_a   14.63455031
_cell_length_b   14.63455031
_cell_length_c   14.63455031
_cell_angle_alpha   164.33534871
_cell_angle_beta   164.33534871
_cell_angle_gamma   22.22327483
_symmetry_Int_Tables_number   1
_chemical_formula_structural   Na2Ca2Ta3O10
_chemical_formula_sum   'Na2 Ca2 Ta3 O10'
_cell_volume   228.45922260
_cell_formula_units_Z   1
loop_
 _symmetry_equiv_pos_site_id
 _symmetry_equiv_pos_as_xyz
  1  'x, y, z'
loop_
 _atom_site_type_symbol
 _atom_site_label
 _atom_site_symmetry_multiplicity
 _atom_site_fract_x
 _atom_site_fract_y
 _atom_site_fract_z
 _atom_site_occupancy
  Na  Na0  1  0.711843  0.711843  0.000000  1
  Na  Na1  1  0.288157  0.288157  0.000000  1
  Ca  Ca2  1  0.575860  0.575860  0.000000  1
  Ca  Ca3  1  0.424140  0.424140  0.000000  1
  Ta  Ta4  1  0.856334  0.856334  0.000000  1
  Ta  Ta5  1  0.143666  0.143666  0.000000  1
  Ta  Ta6  1  0.000000  0.000000  0.000000  1
  O  O7  1  0.068488  0.068488  0.000000  1
  O  O8  1  0.208355  0.208355  0.000000  1
  O  O9  1  0.931512  0.931512  0.000000  1
  O  O10  1  0.633117  0.133117  0.500000  1
  O  O11  1  0.133117  0.633117  0.500000  1
  O  O12  1  0.866883  0.366883  0.500000  1
  O  O13  1  0.791645  0.791645  0.000000  1
  O  O14  1  0.366883  0.866883  0.500000  1
  O  O15  1  0.500000  0.000000  0.500000  1
  O  O16  1  0.000000  0.500000  0.500000  1
