# generated using pymatgen
data_Li3PO4
_symmetry_space_group_name_H-M   'P 1'
_cell_length_a   5.00111902
_cell_length_b   6.17677140
_cell_length_c   10.61503437
_cell_angle_alpha   90.00000000
_cell_angle_beta   90.00000000
_cell_angle_gamma   90.00000000
_symmetry_Int_Tables_number   1
_chemical_formula_structural   Li3PO4
_chemical_formula_sum   'Li12 P4 O16'
_cell_volume   327.90657392
_cell_formula_units_Z   4
loop_
 _symmetry_equiv_pos_site_id
 _symmetry_equiv_pos_as_xyz
  1  'x, y, z'
loop_
 _atom_site_type_symbol
 _atom_site_label
 _atom_site_symmetry_multiplicity
 _atom_site_fract_x
 _atom_site_fract_y
 _atom_site_fract_z
 _atom_site_occupancy
  Li  Li0  1  0.697935  0.498261  0.163609  1
  Li  Li1  1  0.197935  0.501739  0.336391  1
  Li  Li2  1  0.302065  0.998261  0.836391  1
  Li  Li3  1  0.802065  0.001739  0.663609  1
  Li  Li4  1  0.302065  0.501739  0.836391  1
  Li  Li5  1  0.802065  0.498261  0.663609  1
  Li  Li6  1  0.697935  0.001739  0.163609  1
  Li  Li7  1  0.197935  0.998261  0.336391  1
  Li  Li8  1  0.796879  0.250000  0.425295  1
  Li  Li9  1  0.296879  0.750000  0.074705  1
  Li  Li10  1  0.203121  0.750000  0.574705  1
  Li  Li11  1  0.703121  0.250000  0.925295  1
  P  P12  1  0.693671  0.750000  0.411184  1
  P  P13  1  0.806329  0.750000  0.911184  1
  P  P14  1  0.306329  0.250000  0.588816  1
  P  P15  1  0.193671  0.250000  0.088816  1
  O  O16  1  0.618304  0.250000  0.589643  1
  O  O17  1  0.796327  0.956186  0.341351  1
  O  O18  1  0.118304  0.750000  0.910357  1
  O  O19  1  0.381696  0.750000  0.410357  1
  O  O20  1  0.796327  0.543814  0.341351  1
  O  O21  1  0.296327  0.043814  0.158649  1
  O  O22  1  0.203673  0.456186  0.658649  1
  O  O23  1  0.703673  0.543814  0.841351  1
  O  O24  1  0.203673  0.043814  0.658649  1
  O  O25  1  0.703673  0.956186  0.841351  1
  O  O26  1  0.797238  0.750000  0.549318  1
  O  O27  1  0.296327  0.456186  0.158649  1
  O  O28  1  0.702762  0.750000  0.049318  1
  O  O29  1  0.202762  0.250000  0.450682  1
  O  O30  1  0.297238  0.250000  0.950682  1
  O  O31  1  0.881696  0.250000  0.089643  1
