# generated using pymatgen
data_V(SiO3)2
_symmetry_space_group_name_H-M   'P 1'
_cell_length_a   6.51355771
_cell_length_b   6.51355771
_cell_length_c   5.36898969
_cell_angle_alpha   75.82386847
_cell_angle_beta   104.17613153
_cell_angle_gamma   95.08154959
_symmetry_Int_Tables_number   1
_chemical_formula_structural   V(SiO3)2
_chemical_formula_sum   'V2 Si4 O12'
_cell_volume   214.02583648
_cell_formula_units_Z   2
loop_
 _symmetry_equiv_pos_site_id
 _symmetry_equiv_pos_as_xyz
  1  'x, y, z'
loop_
 _atom_site_type_symbol
 _atom_site_label
 _atom_site_symmetry_multiplicity
 _atom_site_fract_x
 _atom_site_fract_y
 _atom_site_fract_z
 _atom_site_occupancy
  V  V0  1  0.397479  0.397479  0.250000  1
  V  V1  1  0.602521  0.602521  0.750000  1
  Si  Si2  1  0.882902  0.285347  0.248384  1
  Si  Si3  1  0.117098  0.714653  0.751616  1
  Si  Si4  1  0.285347  0.882902  0.251616  1
  Si  Si5  1  0.714653  0.117098  0.748384  1
  O  O6  1  0.146695  0.861234  0.964892  1
  O  O7  1  0.119968  0.395068  0.279904  1
  O  O8  1  0.455435  0.683764  0.364836  1
  O  O9  1  0.853305  0.138766  0.035108  1
  O  O10  1  0.880032  0.604932  0.720096  1
  O  O11  1  0.544565  0.316236  0.635164  1
  O  O12  1  0.395068  0.119968  0.220096  1
  O  O13  1  0.683764  0.455435  0.135164  1
  O  O14  1  0.138766  0.853305  0.464892  1
  O  O15  1  0.861234  0.146695  0.535108  1
  O  O16  1  0.316236  0.544565  0.864836  1
  O  O17  1  0.604932  0.880032  0.779904  1
