# generated using pymatgen
data_K3InF6
_symmetry_space_group_name_H-M   'P 1'
_cell_length_a   9.13556157
_cell_length_b   9.13556157
_cell_length_c   9.13556157
_cell_angle_alpha   90.00000000
_cell_angle_beta   90.00000000
_cell_angle_gamma   90.00000000
_symmetry_Int_Tables_number   1
_chemical_formula_structural   K3InF6
_chemical_formula_sum   'K12 In4 F24'
_cell_volume   762.44012956
_cell_formula_units_Z   4
loop_
 _symmetry_equiv_pos_site_id
 _symmetry_equiv_pos_as_xyz
  1  'x, y, z'
loop_
 _atom_site_type_symbol
 _atom_site_label
 _atom_site_symmetry_multiplicity
 _atom_site_fract_x
 _atom_site_fract_y
 _atom_site_fract_z
 _atom_site_occupancy
  K  K0  1  0.000000  0.000000  0.000000  1
  K  K1  1  0.500000  0.500000  0.500000  1
  K  K2  1  0.250000  0.250000  0.250000  1
  K  K3  1  0.250000  0.750000  0.750000  1
  K  K4  1  0.750000  0.250000  0.750000  1
  K  K5  1  0.750000  0.750000  0.250000  1
  K  K6  1  0.500000  0.000000  0.000000  1
  K  K7  1  0.000000  0.500000  0.000000  1
  K  K8  1  0.000000  0.000000  0.500000  1
  K  K9  1  0.000000  0.500000  0.500000  1
  K  K10  1  0.500000  0.000000  0.500000  1
  K  K11  1  0.500000  0.500000  0.000000  1
  In  In12  1  0.750000  0.750000  0.750000  1
  In  In13  1  0.750000  0.250000  0.250000  1
  In  In14  1  0.250000  0.750000  0.250000  1
  In  In15  1  0.250000  0.250000  0.750000  1
  F  F16  1  0.972205  0.801247  0.710259  1
  F  F17  1  0.710259  0.972205  0.801247  1
  F  F18  1  0.801247  0.710259  0.972205  1
  F  F19  1  0.801247  0.289741  0.027795  1
  F  F20  1  0.289741  0.972205  0.198753  1
  F  F21  1  0.710259  0.027795  0.198753  1
  F  F22  1  0.198753  0.289741  0.972205  1
  F  F23  1  0.289741  0.027795  0.801247  1
  F  F24  1  0.198753  0.710259  0.027795  1
  F  F25  1  0.027795  0.801247  0.289741  1
  F  F26  1  0.972205  0.198753  0.289741  1
  F  F27  1  0.027795  0.198753  0.710259  1
  F  F28  1  0.527795  0.698753  0.789741  1
  F  F29  1  0.789741  0.527795  0.698753  1
  F  F30  1  0.698753  0.789741  0.527795  1
  F  F31  1  0.698753  0.210259  0.472205  1
  F  F32  1  0.210259  0.527795  0.301247  1
  F  F33  1  0.789741  0.472205  0.301247  1
  F  F34  1  0.301247  0.210259  0.527795  1
  F  F35  1  0.210259  0.472205  0.698753  1
  F  F36  1  0.301247  0.789741  0.472205  1
  F  F37  1  0.472205  0.698753  0.210259  1
  F  F38  1  0.527795  0.301247  0.210259  1
  F  F39  1  0.472205  0.301247  0.789741  1
