# generated using pymatgen
data_Hg3As2F12
_symmetry_space_group_name_H-M   'P 1'
_cell_length_a   6.11801194
_cell_length_b   8.78142084
_cell_length_c   11.56345283
_cell_angle_alpha   90.00000000
_cell_angle_beta   92.34326669
_cell_angle_gamma   90.00000000
_symmetry_Int_Tables_number   1
_chemical_formula_structural   Hg3As2F12
_chemical_formula_sum   'Hg6 As4 F24'
_cell_volume   620.72514352
_cell_formula_units_Z   2
loop_
 _symmetry_equiv_pos_site_id
 _symmetry_equiv_pos_as_xyz
  1  'x, y, z'
loop_
 _atom_site_type_symbol
 _atom_site_label
 _atom_site_symmetry_multiplicity
 _atom_site_fract_x
 _atom_site_fract_y
 _atom_site_fract_z
 _atom_site_occupancy
  Hg  Hg0  1  0.761121  0.735291  0.429744  1
  Hg  Hg1  1  0.238879  0.235291  0.070256  1
  Hg  Hg2  1  0.238879  0.264709  0.570256  1
  Hg  Hg3  1  0.761121  0.764709  0.929744  1
  Hg  Hg4  1  0.000000  0.500000  0.500000  1
  Hg  Hg5  1  0.000000  0.000000  0.000000  1
  As  As6  1  0.700512  0.141498  0.327753  1
  As  As7  1  0.299488  0.641498  0.172247  1
  As  As8  1  0.299488  0.858502  0.672247  1
  As  As9  1  0.700512  0.358502  0.827753  1
  F  F10  1  0.575345  0.967552  0.378838  1
  F  F11  1  0.424655  0.467552  0.121162  1
  F  F12  1  0.424655  0.032448  0.621162  1
  F  F13  1  0.575345  0.532448  0.878838  1
  F  F14  1  0.433158  0.213682  0.298296  1
  F  F15  1  0.566842  0.713682  0.201704  1
  F  F16  1  0.566842  0.786318  0.701704  1
  F  F17  1  0.433158  0.286318  0.798296  1
  F  F18  1  0.698696  0.063476  0.186153  1
  F  F19  1  0.301304  0.563476  0.313847  1
  F  F20  1  0.824128  0.190094  0.779671  1
  F  F21  1  0.175872  0.690094  0.720329  1
  F  F22  1  0.175872  0.809906  0.220329  1
  F  F23  1  0.824128  0.309906  0.279671  1
  F  F24  1  0.691151  0.282112  0.970005  1
  F  F25  1  0.308849  0.782112  0.529995  1
  F  F26  1  0.308849  0.717888  0.029995  1
  F  F27  1  0.691151  0.217888  0.470005  1
  F  F28  1  0.958432  0.441039  0.861592  1
  F  F29  1  0.041568  0.941039  0.638408  1
  F  F30  1  0.041568  0.558961  0.138408  1
  F  F31  1  0.958432  0.058961  0.361592  1
  F  F32  1  0.698696  0.436524  0.686153  1
  F  F33  1  0.301304  0.936524  0.813847  1
