# generated using pymatgen
data_ErGe
_symmetry_space_group_name_H-M   'P 1'
_cell_length_a   5.73242324
_cell_length_b   5.73242324
_cell_length_c   3.93088369
_cell_angle_alpha   90.00000000
_cell_angle_beta   90.00000000
_cell_angle_gamma   136.48352708
_symmetry_Int_Tables_number   1
_chemical_formula_structural   ErGe
_chemical_formula_sum   'Er2 Ge2'
_cell_volume   88.94272550
_cell_formula_units_Z   2
loop_
 _symmetry_equiv_pos_site_id
 _symmetry_equiv_pos_as_xyz
  1  'x, y, z'
loop_
 _atom_site_type_symbol
 _atom_site_label
 _atom_site_symmetry_multiplicity
 _atom_site_fract_x
 _atom_site_fract_y
 _atom_site_fract_z
 _atom_site_occupancy
  Er  Er0  1  0.138129  0.861870  0.250000  1
  Er  Er1  1  0.861871  0.138129  0.750000  1
  Ge  Ge2  1  0.413362  0.586638  0.250000  1
  Ge  Ge3  1  0.586638  0.413362  0.750000  1
