# generated using pymatgen
data_CaIn4Rh
_symmetry_space_group_name_H-M   'P 1'
_cell_length_a   4.28545716
_cell_length_b   7.58678659
_cell_length_c   8.78004618
_cell_angle_alpha   90.00000000
_cell_angle_beta   90.00000000
_cell_angle_gamma   90.00000000
_symmetry_Int_Tables_number   1
_chemical_formula_structural   CaIn4Rh
_chemical_formula_sum   'Ca2 In8 Rh2'
_cell_volume   285.46431490
_cell_formula_units_Z   2
loop_
 _symmetry_equiv_pos_site_id
 _symmetry_equiv_pos_as_xyz
  1  'x, y, z'
loop_
 _atom_site_type_symbol
 _atom_site_label
 _atom_site_symmetry_multiplicity
 _atom_site_fract_x
 _atom_site_fract_y
 _atom_site_fract_z
 _atom_site_occupancy
  Ca  Ca0  1  0.000000  0.400386  0.250000  1
  Ca  Ca1  1  0.000000  0.599614  0.750000  1
  In  In2  1  0.000000  0.000000  0.000000  1
  In  In3  1  0.000000  0.000000  0.500000  1
  In  In4  1  0.500000  0.066816  0.250000  1
  In  In5  1  0.500000  0.933184  0.750000  1
  In  In6  1  0.500000  0.685912  0.064181  1
  In  In7  1  0.500000  0.314088  0.935819  1
  In  In8  1  0.500000  0.685912  0.435819  1
  In  In9  1  0.500000  0.314088  0.564181  1
  Rh  Rh10  1  0.000000  0.806163  0.250000  1
  Rh  Rh11  1  0.000000  0.193837  0.750000  1
