# generated using pymatgen
data_Rb4YbI6
_symmetry_space_group_name_H-M   'P 1'
_cell_length_a   10.20627004
_cell_length_b   10.20627004
_cell_length_c   10.20627004
_cell_angle_alpha   89.78042834
_cell_angle_beta   89.78042834
_cell_angle_gamma   89.78042834
_symmetry_Int_Tables_number   1
_chemical_formula_structural   Rb4YbI6
_chemical_formula_sum   'Rb8 Yb2 I12'
_cell_volume   1063.14284695
_cell_formula_units_Z   2
loop_
 _symmetry_equiv_pos_site_id
 _symmetry_equiv_pos_as_xyz
  1  'x, y, z'
loop_
 _atom_site_type_symbol
 _atom_site_label
 _atom_site_symmetry_multiplicity
 _atom_site_fract_x
 _atom_site_fract_y
 _atom_site_fract_z
 _atom_site_occupancy
  Rb  Rb0  1  0.750000  0.750000  0.750000  1
  Rb  Rb1  1  0.250000  0.250000  0.250000  1
  Rb  Rb2  1  0.750000  0.369766  0.130234  1
  Rb  Rb3  1  0.130234  0.750000  0.369766  1
  Rb  Rb4  1  0.369766  0.130234  0.750000  1
  Rb  Rb5  1  0.250000  0.630234  0.869766  1
  Rb  Rb6  1  0.869766  0.250000  0.630234  1
  Rb  Rb7  1  0.630234  0.869766  0.250000  1
  Yb  Yb8  1  0.000000  0.000000  0.000000  1
  Yb  Yb9  1  0.500000  0.500000  0.500000  1
  I  I10  1  0.569488  0.442798  0.794994  1
  I  I11  1  0.069488  0.294994  0.942798  1
  I  I12  1  0.294994  0.942798  0.069488  1
  I  I13  1  0.430512  0.557202  0.205006  1
  I  I14  1  0.942798  0.069488  0.294994  1
  I  I15  1  0.205006  0.430512  0.557202  1
  I  I16  1  0.557202  0.205006  0.430512  1
  I  I17  1  0.794994  0.569488  0.442798  1
  I  I18  1  0.705006  0.057202  0.930512  1
  I  I19  1  0.930512  0.705006  0.057202  1
  I  I20  1  0.057202  0.930512  0.705006  1
  I  I21  1  0.442798  0.794994  0.569488  1
