# generated using pymatgen
data_FePO4
_symmetry_space_group_name_H-M   'P 1'
_cell_length_a   4.76065653
_cell_length_b   4.76065653
_cell_length_c   6.45011254
_cell_angle_alpha   90.00000000
_cell_angle_beta   90.00000000
_cell_angle_gamma   112.72064240
_symmetry_Int_Tables_number   1
_chemical_formula_structural   FePO4
_chemical_formula_sum   'Fe2 P2 O8'
_cell_volume   134.84033190
_cell_formula_units_Z   2
loop_
 _symmetry_equiv_pos_site_id
 _symmetry_equiv_pos_as_xyz
  1  'x, y, z'
loop_
 _atom_site_type_symbol
 _atom_site_label
 _atom_site_symmetry_multiplicity
 _atom_site_fract_x
 _atom_site_fract_y
 _atom_site_fract_z
 _atom_site_occupancy
  Fe  Fe0  1  0.500000  0.500000  0.500000  1
  Fe  Fe1  1  0.500000  0.500000  0.000000  1
  P  P2  1  0.153453  0.846547  0.750000  1
  P  P3  1  0.846547  0.153453  0.250000  1
  O  O4  1  0.259973  0.740027  0.552707  1
  O  O5  1  0.794210  0.720486  0.750000  1
  O  O6  1  0.279514  0.205790  0.750000  1
  O  O7  1  0.259973  0.740027  0.947293  1
  O  O8  1  0.740027  0.259973  0.052707  1
  O  O9  1  0.205790  0.279514  0.250000  1
  O  O10  1  0.720486  0.794210  0.250000  1
  O  O11  1  0.740027  0.259973  0.447293  1
