# generated using pymatgen
data_C2(OF2)3
_symmetry_space_group_name_H-M   'P 1'
_cell_length_a   4.95131603
_cell_length_b   7.65085650
_cell_length_c   8.22797992
_cell_angle_alpha   78.90540738
_cell_angle_beta   86.28147443
_cell_angle_gamma   83.25493530
_symmetry_Int_Tables_number   1
_chemical_formula_structural   C2(OF2)3
_chemical_formula_sum   'C4 O6 F12'
_cell_volume   303.46283985
_cell_formula_units_Z   2
loop_
 _symmetry_equiv_pos_site_id
 _symmetry_equiv_pos_as_xyz
  1  'x, y, z'
loop_
 _atom_site_type_symbol
 _atom_site_label
 _atom_site_symmetry_multiplicity
 _atom_site_fract_x
 _atom_site_fract_y
 _atom_site_fract_z
 _atom_site_occupancy
  C  C0  1  0.138875  0.764169  0.159099  1
  C  C1  1  0.861125  0.235831  0.840901  1
  C  C2  1  0.542870  0.266697  0.354497  1
  C  C3  1  0.457130  0.733303  0.645503  1
  O  O4  1  0.126493  0.597735  0.265275  1
  O  O5  1  0.873507  0.402265  0.734725  1
  O  O6  1  0.254105  0.460294  0.176525  1
  O  O7  1  0.745895  0.539706  0.823475  1
  O  O8  1  0.534646  0.417066  0.225609  1
  O  O9  1  0.465354  0.582934  0.774391  1
  F  F10  1  0.012380  0.883007  0.247069  1
  F  F11  1  0.987620  0.116993  0.752931  1
  F  F12  1  0.007875  0.774536  0.018165  1
  F  F13  1  0.992125  0.225464  0.981835  1
  F  F14  1  0.396429  0.801577  0.117180  1
  F  F15  1  0.603571  0.198423  0.882820  1
  F  F16  1  0.807681  0.229697  0.388079  1
  F  F17  1  0.192319  0.770303  0.611921  1
  F  F18  1  0.452635  0.124772  0.308310  1
  F  F19  1  0.547365  0.875228  0.691690  1
  F  F20  1  0.396225  0.299960  0.491215  1
  F  F21  1  0.603775  0.700040  0.508785  1
