# generated using pymatgen
data_Li2Ta3N5
_symmetry_space_group_name_H-M   'P 1'
_cell_length_a   5.36660628
_cell_length_b   5.36660628
_cell_length_c   9.69119662
_cell_angle_alpha   89.12256951
_cell_angle_beta   90.87743049
_cell_angle_gamma   133.62503204
_symmetry_Int_Tables_number   1
_chemical_formula_structural   Li2Ta3N5
_chemical_formula_sum   'Li4 Ta6 N10'
_cell_volume   202.01214515
_cell_formula_units_Z   2
loop_
 _symmetry_equiv_pos_site_id
 _symmetry_equiv_pos_as_xyz
  1  'x, y, z'
loop_
 _atom_site_type_symbol
 _atom_site_label
 _atom_site_symmetry_multiplicity
 _atom_site_fract_x
 _atom_site_fract_y
 _atom_site_fract_z
 _atom_site_occupancy
  Li  Li0  1  0.646695  0.353305  0.548354  1
  Li  Li1  1  0.456285  0.543715  0.152967  1
  Li  Li2  1  0.543715  0.456285  0.847033  1
  Li  Li3  1  0.353305  0.646695  0.451646  1
  Ta  Ta4  1  0.054901  0.945099  0.356265  1
  Ta  Ta5  1  0.945099  0.054901  0.643735  1
  Ta  Ta6  1  0.762580  0.237420  0.255891  1
  Ta  Ta7  1  0.237420  0.762580  0.744109  1
  Ta  Ta8  1  0.143249  0.856751  0.047492  1
  Ta  Ta9  1  0.856751  0.143249  0.952508  1
  N  N10  1  0.567457  0.432543  0.344029  1
  N  N11  1  0.432543  0.567457  0.655971  1
  N  N12  1  0.860827  0.139173  0.446664  1
  N  N13  1  0.046355  0.953645  0.847207  1
  N  N14  1  0.953645  0.046355  0.152793  1
  N  N15  1  0.139173  0.860827  0.553336  1
  N  N16  1  0.346068  0.653932  0.950543  1
  N  N17  1  0.653932  0.346068  0.049457  1
  N  N18  1  0.749458  0.250542  0.749495  1
  N  N19  1  0.250542  0.749458  0.250505  1
