# generated using pymatgen
data_YCoO3
_symmetry_space_group_name_H-M   'P 1'
_cell_length_a   5.24892490
_cell_length_b   5.64801194
_cell_length_c   7.45000396
_cell_angle_alpha   90.00000000
_cell_angle_beta   90.00000000
_cell_angle_gamma   90.00000000
_symmetry_Int_Tables_number   1
_chemical_formula_structural   YCoO3
_chemical_formula_sum   'Y4 Co4 O12'
_cell_volume   220.86274690
_cell_formula_units_Z   4
loop_
 _symmetry_equiv_pos_site_id
 _symmetry_equiv_pos_as_xyz
  1  'x, y, z'
loop_
 _atom_site_type_symbol
 _atom_site_label
 _atom_site_symmetry_multiplicity
 _atom_site_fract_x
 _atom_site_fract_y
 _atom_site_fract_z
 _atom_site_occupancy
  Y  Y0  1  0.021978  0.421859  0.250000  1
  Y  Y1  1  0.478022  0.921859  0.250000  1
  Y  Y2  1  0.521978  0.078141  0.750000  1
  Y  Y3  1  0.978022  0.578141  0.750000  1
  Co  Co4  1  0.500000  0.500000  0.000000  1
  Co  Co5  1  0.000000  0.000000  0.000000  1
  Co  Co6  1  0.500000  0.500000  0.500000  1
  Co  Co7  1  0.000000  0.000000  0.500000  1
  O  O8  1  0.802483  0.307261  0.552066  1
  O  O9  1  0.302483  0.192739  0.447934  1
  O  O10  1  0.302483  0.192739  0.052066  1
  O  O11  1  0.604446  0.529051  0.250000  1
  O  O12  1  0.802483  0.307261  0.947934  1
  O  O13  1  0.104446  0.970949  0.750000  1
  O  O14  1  0.197517  0.692739  0.052066  1
  O  O15  1  0.395554  0.470949  0.750000  1
  O  O16  1  0.697517  0.807261  0.947934  1
  O  O17  1  0.697517  0.807261  0.552066  1
  O  O18  1  0.895554  0.029051  0.250000  1
  O  O19  1  0.197517  0.692739  0.447934  1
