# generated using pymatgen
data_USbO5
_symmetry_space_group_name_H-M   'P 1'
_cell_length_a   5.52085039
_cell_length_b   5.52085039
_cell_length_c   7.62156678
_cell_angle_alpha   69.91614892
_cell_angle_beta   110.08385108
_cell_angle_gamma   106.73588078
_symmetry_Int_Tables_number   1
_chemical_formula_structural   USbO5
_chemical_formula_sum   'U2 Sb2 O10'
_cell_volume   201.06707950
_cell_formula_units_Z   2
loop_
 _symmetry_equiv_pos_site_id
 _symmetry_equiv_pos_as_xyz
  1  'x, y, z'
loop_
 _atom_site_type_symbol
 _atom_site_label
 _atom_site_symmetry_multiplicity
 _atom_site_fract_x
 _atom_site_fract_y
 _atom_site_fract_z
 _atom_site_occupancy
  U  U0  1  0.470166  0.470166  0.250000  1
  U  U1  1  0.529834  0.529834  0.750000  1
  Sb  Sb2  1  0.000000  1.000000  0.500000  1
  Sb  Sb3  1  0.000000  0.000000  0.000000  1
  O  O4  1  0.730248  0.231081  0.370569  1
  O  O5  1  0.269752  0.768919  0.629431  1
  O  O6  1  0.231081  0.730248  0.129431  1
  O  O7  1  0.768919  0.269752  0.870569  1
  O  O8  1  0.089727  0.089727  0.250000  1
  O  O9  1  0.910273  0.910273  0.750000  1
  O  O10  1  0.707233  0.692529  0.466866  1
  O  O11  1  0.292767  0.307471  0.533134  1
  O  O12  1  0.307471  0.292767  0.966866  1
  O  O13  1  0.692529  0.707233  0.033134  1
