# generated using pymatgen
data_K2FeH2Cl5O
_symmetry_space_group_name_H-M   'P 1'
_cell_length_a   7.40059050
_cell_length_b   9.55290285
_cell_length_c   13.97823260
_cell_angle_alpha   90.00000000
_cell_angle_beta   90.00000000
_cell_angle_gamma   90.00000000
_symmetry_Int_Tables_number   1
_chemical_formula_structural   K2FeH2Cl5O
_chemical_formula_sum   'K8 Fe4 H8 Cl20 O4'
_cell_volume   988.22081657
_cell_formula_units_Z   4
loop_
 _symmetry_equiv_pos_site_id
 _symmetry_equiv_pos_as_xyz
  1  'x, y, z'
loop_
 _atom_site_type_symbol
 _atom_site_label
 _atom_site_symmetry_multiplicity
 _atom_site_fract_x
 _atom_site_fract_y
 _atom_site_fract_z
 _atom_site_occupancy
  K  K0  1  0.133647  0.997429  0.351446  1
  K  K1  1  0.633647  0.002571  0.148554  1
  K  K2  1  0.866353  0.497429  0.648554  1
  K  K3  1  0.366353  0.502571  0.851446  1
  K  K4  1  0.633647  0.497429  0.148554  1
  K  K5  1  0.133647  0.502571  0.351446  1
  K  K6  1  0.366353  0.997429  0.851446  1
  K  K7  1  0.866353  0.002571  0.648554  1
  Fe  Fe8  1  0.189336  0.750000  0.109565  1
  Fe  Fe9  1  0.689336  0.250000  0.390435  1
  Fe  Fe10  1  0.810664  0.250000  0.890435  1
  Fe  Fe11  1  0.310664  0.750000  0.609565  1
  H  H12  1  0.460110  0.166122  0.534758  1
  H  H13  1  0.960110  0.833878  0.965242  1
  H  H14  1  0.539890  0.666122  0.465242  1
  H  H15  1  0.039890  0.333878  0.034758  1
  H  H16  1  0.539890  0.833878  0.465242  1
  H  H17  1  0.039890  0.166122  0.034758  1
  H  H18  1  0.460110  0.333878  0.534758  1
  H  H19  1  0.960110  0.666122  0.965242  1
  Cl  Cl20  1  0.925002  0.750000  0.209995  1
  Cl  Cl21  1  0.425002  0.250000  0.290005  1
  Cl  Cl22  1  0.074998  0.250000  0.790005  1
  Cl  Cl23  1  0.574998  0.750000  0.709995  1
  Cl  Cl24  1  0.378916  0.750000  0.246911  1
  Cl  Cl25  1  0.878916  0.250000  0.253089  1
  Cl  Cl26  1  0.621084  0.250000  0.753089  1
  Cl  Cl27  1  0.121084  0.750000  0.746911  1
  Cl  Cl28  1  0.456549  0.750000  0.008141  1
  Cl  Cl29  1  0.956549  0.250000  0.491859  1
  Cl  Cl30  1  0.543451  0.250000  0.991859  1
  Cl  Cl31  1  0.043451  0.750000  0.508141  1
  Cl  Cl32  1  0.186808  0.001129  0.101762  1
  Cl  Cl33  1  0.686808  0.998871  0.398238  1
  Cl  Cl34  1  0.813192  0.501129  0.898238  1
  Cl  Cl35  1  0.313192  0.498871  0.601762  1
  Cl  Cl36  1  0.813192  0.998871  0.898238  1
  Cl  Cl37  1  0.313192  0.001129  0.601762  1
  Cl  Cl38  1  0.186808  0.498871  0.101762  1
  Cl  Cl39  1  0.686808  0.501129  0.398238  1
  O  O40  1  0.473529  0.750000  0.487535  1
  O  O41  1  0.973529  0.250000  0.012465  1
  O  O42  1  0.526471  0.250000  0.512465  1
  O  O43  1  0.026471  0.750000  0.987535  1
