# generated using pymatgen
data_As(S2F3)2
_symmetry_space_group_name_H-M   'P 1'
_cell_length_a   15.46688046
_cell_length_b   13.69459372
_cell_length_c   16.65527734
_cell_angle_alpha   90.00000000
_cell_angle_beta   107.92047662
_cell_angle_gamma   90.00000000
_symmetry_Int_Tables_number   1
_chemical_formula_structural   As(S2F3)2
_chemical_formula_sum   'As16 S64 F96'
_cell_volume   3356.64542531
_cell_formula_units_Z   16
loop_
 _symmetry_equiv_pos_site_id
 _symmetry_equiv_pos_as_xyz
  1  'x, y, z'
loop_
 _atom_site_type_symbol
 _atom_site_label
 _atom_site_symmetry_multiplicity
 _atom_site_fract_x
 _atom_site_fract_y
 _atom_site_fract_z
 _atom_site_occupancy
  As  As0  1  0.688663  0.966021  0.413127  1
  As  As1  1  0.311337  0.466021  0.086873  1
  As  As2  1  0.311337  0.033979  0.586873  1
  As  As3  1  0.688663  0.533979  0.913127  1
  As  As4  1  0.004391  0.962646  0.746867  1
  As  As5  1  0.995609  0.462646  0.753133  1
  As  As6  1  0.995609  0.037354  0.253133  1
  As  As7  1  0.004391  0.537354  0.246867  1
  As  As8  1  0.735949  0.944543  0.932630  1
  As  As9  1  0.264051  0.444543  0.567370  1
  As  As10  1  0.264051  0.055457  0.067370  1
  As  As11  1  0.735949  0.555457  0.432630  1
  As  As12  1  0.372773  0.771380  0.364709  1
  As  As13  1  0.627227  0.271380  0.135291  1
  As  As14  1  0.627227  0.228620  0.635291  1
  As  As15  1  0.372773  0.728620  0.864709  1
  S  S16  1  0.168014  0.822551  0.636948  1
  S  S17  1  0.831986  0.322551  0.863052  1
  S  S18  1  0.831986  0.177449  0.363052  1
  S  S19  1  0.168014  0.677449  0.136948  1
  S  S20  1  0.116647  0.697646  0.673932  1
  S  S21  1  0.883353  0.197646  0.826068  1
  S  S22  1  0.883353  0.302354  0.326068  1
  S  S23  1  0.116647  0.802354  0.173932  1
  S  S24  1  0.016796  0.655838  0.567149  1
  S  S25  1  0.983204  0.155838  0.932851  1
  S  S26  1  0.983204  0.344162  0.432851  1
  S  S27  1  0.016796  0.844162  0.067149  1
  S  S28  1  0.945032  0.781117  0.523285  1
  S  S29  1  0.054968  0.281117  0.976715  1
  S  S30  1  0.054968  0.218883  0.476715  1
  S  S31  1  0.945032  0.718883  0.023285  1
  S  S32  1  0.943761  0.773419  0.400089  1
  S  S33  1  0.056239  0.273419  0.099911  1
  S  S34  1  0.056239  0.226581  0.599911  1
  S  S35  1  0.943761  0.726581  0.900089  1
  S  S36  1  0.074085  0.825086  0.421388  1
  S  S37  1  0.925915  0.325086  0.078612  1
  S  S38  1  0.925915  0.174914  0.578612  1
  S  S39  1  0.074085  0.674914  0.921388  1
  S  S40  1  0.144295  0.698964  0.466258  1
  S  S41  1  0.855705  0.198964  0.033742  1
  S  S42  1  0.855705  0.301036  0.533742  1
  S  S43  1  0.144295  0.801036  0.966258  1
  S  S44  1  0.239062  0.739802  0.576364  1
  S  S45  1  0.760938  0.239802  0.923636  1
  S  S46  1  0.760938  0.260198  0.423636  1
  S  S47  1  0.239062  0.760198  0.076364  1
  S  S48  1  0.543453  0.863893  0.067871  1
  S  S49  1  0.456547  0.363893  0.432129  1
  S  S50  1  0.456547  0.136107  0.932129  1
  S  S51  1  0.543453  0.636107  0.567871  1
  S  S52  1  0.653253  0.932055  0.152734  1
  S  S53  1  0.346747  0.432055  0.347266  1
  S  S54  1  0.346747  0.067945  0.847266  1
  S  S55  1  0.653253  0.567945  0.652734  1
  S  S56  1  0.726658  0.815088  0.213585  1
  S  S57  1  0.273342  0.315088  0.286415  1
  S  S58  1  0.273342  0.184912  0.786415  1
  S  S59  1  0.726658  0.684912  0.713585  1
  S  S60  1  0.733063  0.723245  0.117950  1
  S  S61  1  0.266937  0.223245  0.382050  1
  S  S62  1  0.266937  0.276755  0.882050  1
  S  S63  1  0.733063  0.776755  0.617950  1
  S  S64  1  0.704932  0.594570  0.167925  1
  S  S65  1  0.295068  0.094570  0.332075  1
  S  S66  1  0.295068  0.405430  0.832075  1
  S  S67  1  0.704932  0.905430  0.667925  1
  S  S68  1  0.566479  0.620324  0.127629  1
  S  S69  1  0.433521  0.120324  0.372371  1
  S  S70  1  0.433521  0.379676  0.872371  1
  S  S71  1  0.566479  0.879676  0.627629  1
  S  S72  1  0.559864  0.714504  0.220806  1
  S  S73  1  0.440136  0.214504  0.279194  1
  S  S74  1  0.440136  0.285496  0.779194  1
  S  S75  1  0.559864  0.785496  0.720806  1
  S  S76  1  0.483094  0.830220  0.158357  1
  S  S77  1  0.516906  0.330220  0.341643  1
  S  S78  1  0.516906  0.169780  0.841643  1
  S  S79  1  0.483094  0.669780  0.658357  1
  F  F80  1  0.609581  0.962335  0.469925  1
  F  F81  1  0.390419  0.462335  0.030075  1
  F  F82  1  0.390419  0.037665  0.530075  1
  F  F83  1  0.609581  0.537665  0.969925  1
  F  F84  1  0.749595  0.865776  0.472950  1
  F  F85  1  0.250405  0.365776  0.027050  1
  F  F86  1  0.250405  0.134224  0.527050  1
  F  F87  1  0.749595  0.634224  0.972950  1
  F  F88  1  0.621147  0.884114  0.336977  1
  F  F89  1  0.378853  0.384114  0.163023  1
  F  F90  1  0.378853  0.115886  0.663023  1
  F  F91  1  0.621147  0.615886  0.836977  1
  F  F92  1  0.759896  0.047260  0.487897  1
  F  F93  1  0.240104  0.547260  0.012103  1
  F  F94  1  0.240104  0.952740  0.512103  1
  F  F95  1  0.759896  0.452740  0.987897  1
  F  F96  1  0.630954  0.067333  0.353721  1
  F  F97  1  0.369046  0.567333  0.146279  1
  F  F98  1  0.369046  0.932667  0.646279  1
  F  F99  1  0.630954  0.432667  0.853721  1
  F  F100  1  0.768255  0.968415  0.354625  1
  F  F101  1  0.231745  0.468415  0.145375  1
  F  F102  1  0.231745  0.031585  0.645375  1
  F  F103  1  0.768255  0.531585  0.854625  1
  F  F104  1  0.009851  0.947478  0.854219  1
  F  F105  1  0.990149  0.447478  0.645781  1
  F  F106  1  0.990149  0.052522  0.145781  1
  F  F107  1  0.009851  0.552522  0.354219  1
  F  F108  1  0.959557  0.842193  0.723816  1
  F  F109  1  0.040443  0.342193  0.776184  1
  F  F110  1  0.040443  0.157807  0.276184  1
  F  F111  1  0.959557  0.657807  0.223816  1
  F  F112  1  0.048373  0.083063  0.768871  1
  F  F113  1  0.951627  0.583063  0.731129  1
  F  F114  1  0.951627  0.916937  0.231129  1
  F  F115  1  0.048373  0.416937  0.268871  1
  F  F116  1  0.116067  0.914885  0.769935  1
  F  F117  1  0.883933  0.414885  0.730065  1
  F  F118  1  0.883933  0.085115  0.230065  1
  F  F119  1  0.116067  0.585115  0.269935  1
  F  F120  1  0.892222  0.009333  0.723875  1
  F  F121  1  0.107778  0.509333  0.776125  1
  F  F122  1  0.107778  0.990667  0.276125  1
  F  F123  1  0.892222  0.490667  0.223875  1
  F  F124  1  0.999111  0.977863  0.639388  1
  F  F125  1  0.000889  0.477863  0.860612  1
  F  F126  1  0.000889  0.022137  0.360612  1
  F  F127  1  0.999111  0.522137  0.139388  1
  F  F128  1  0.840654  0.998244  0.932241  1
  F  F129  1  0.159346  0.498244  0.567759  1
  F  F130  1  0.159346  0.001756  0.067759  1
  F  F131  1  0.840654  0.501756  0.432241  1
  F  F132  1  0.760458  0.840063  0.880187  1
  F  F133  1  0.239542  0.340063  0.619813  1
  F  F134  1  0.239542  0.159937  0.119813  1
  F  F135  1  0.760458  0.659937  0.380187  1
  F  F136  1  0.792624  0.890538  0.032220  1
  F  F137  1  0.207376  0.390538  0.467780  1
  F  F138  1  0.207376  0.109462  0.967780  1
  F  F139  1  0.792624  0.609462  0.532220  1
  F  F140  1  0.679341  0.999275  0.833988  1
  F  F141  1  0.320659  0.499275  0.666012  1
  F  F142  1  0.320659  0.000725  0.166012  1
  F  F143  1  0.679341  0.500725  0.333988  1
  F  F144  1  0.712326  0.050449  0.985144  1
  F  F145  1  0.287674  0.550449  0.514856  1
  F  F146  1  0.287674  0.949551  0.014856  1
  F  F147  1  0.712326  0.449551  0.485144  1
  F  F148  1  0.632318  0.892324  0.935549  1
  F  F149  1  0.367682  0.392324  0.564451  1
  F  F150  1  0.367682  0.107676  0.064451  1
  F  F151  1  0.632318  0.607676  0.435549  1
  F  F152  1  0.252930  0.788652  0.339039  1
  F  F153  1  0.747070  0.288652  0.160961  1
  F  F154  1  0.747070  0.211348  0.660961  1
  F  F155  1  0.252930  0.711348  0.839039  1
  F  F156  1  0.388043  0.899445  0.369359  1
  F  F157  1  0.611957  0.399445  0.130641  1
  F  F158  1  0.611957  0.100555  0.630641  1
  F  F159  1  0.388043  0.600555  0.869359  1
  F  F160  1  0.362804  0.773710  0.254655  1
  F  F161  1  0.637196  0.273710  0.245345  1
  F  F162  1  0.637196  0.226290  0.745345  1
  F  F163  1  0.362804  0.726290  0.754655  1
  F  F164  1  0.382445  0.768064  0.474283  1
  F  F165  1  0.617555  0.268064  0.025717  1
  F  F166  1  0.617555  0.231936  0.525717  1
  F  F167  1  0.382445  0.731936  0.974283  1
  F  F168  1  0.355147  0.643217  0.358817  1
  F  F169  1  0.644853  0.143217  0.141183  1
  F  F170  1  0.644853  0.356783  0.641183  1
  F  F171  1  0.355147  0.856783  0.858817  1
  F  F172  1  0.490856  0.753189  0.389280  1
  F  F173  1  0.509144  0.253189  0.110720  1
  F  F174  1  0.509144  0.246811  0.610720  1
  F  F175  1  0.490856  0.746811  0.889280  1
