# generated using pymatgen
data_NbSbF10
_symmetry_space_group_name_H-M   'P 1'
_cell_length_a   5.79337689
_cell_length_b   7.55326435
_cell_length_c   9.90290248
_cell_angle_alpha   87.66611142
_cell_angle_beta   106.30108225
_cell_angle_gamma   99.40618498
_symmetry_Int_Tables_number   1
_chemical_formula_structural   NbSbF10
_chemical_formula_sum   'Nb2 Sb2 F20'
_cell_volume   410.32159999
_cell_formula_units_Z   2
loop_
 _symmetry_equiv_pos_site_id
 _symmetry_equiv_pos_as_xyz
  1  'x, y, z'
loop_
 _atom_site_type_symbol
 _atom_site_label
 _atom_site_symmetry_multiplicity
 _atom_site_fract_x
 _atom_site_fract_y
 _atom_site_fract_z
 _atom_site_occupancy
  Nb  Nb0  1  0.337850  0.379366  0.220747  1
  Nb  Nb1  1  0.662150  0.620634  0.779253  1
  Sb  Sb2  1  0.964806  0.765529  0.315011  1
  Sb  Sb3  1  0.035194  0.234471  0.684989  1
  F  F4  1  0.026495  0.248681  0.167911  1
  F  F5  1  0.973505  0.751319  0.832089  1
  F  F6  1  0.497403  0.221034  0.158036  1
  F  F7  1  0.502597  0.778966  0.841964  1
  F  F8  1  0.114544  0.225891  0.884022  1
  F  F9  1  0.885456  0.774109  0.115978  1
  F  F10  1  0.960478  0.289185  0.491337  1
  F  F11  1  0.039522  0.710815  0.508663  1
  F  F12  1  0.761271  0.052737  0.663505  1
  F  F13  1  0.238729  0.947263  0.336495  1
  F  F14  1  0.258232  0.083189  0.674805  1
  F  F15  1  0.741768  0.916811  0.325195  1
  F  F16  1  0.306502  0.445538  0.711742  1
  F  F17  1  0.693498  0.554462  0.288258  1
  F  F18  1  0.829746  0.419145  0.699300  1
  F  F19  1  0.170254  0.580855  0.300700  1
  F  F20  1  0.691172  0.450233  0.924894  1
  F  F21  1  0.308828  0.549767  0.075106  1
  F  F22  1  0.571340  0.664924  0.585620  1
  F  F23  1  0.428660  0.335076  0.414380  1
