# generated using pymatgen
data_SmFeB4
_symmetry_space_group_name_H-M   'P 1'
_cell_length_a   3.44159206
_cell_length_b   5.96079437
_cell_length_c   11.53341149
_cell_angle_alpha   90.00000000
_cell_angle_beta   90.00000000
_cell_angle_gamma   90.00000000
_symmetry_Int_Tables_number   1
_chemical_formula_structural   SmFeB4
_chemical_formula_sum   'Sm4 Fe4 B16'
_cell_volume   236.60358372
_cell_formula_units_Z   4
loop_
 _symmetry_equiv_pos_site_id
 _symmetry_equiv_pos_as_xyz
  1  'x, y, z'
loop_
 _atom_site_type_symbol
 _atom_site_label
 _atom_site_symmetry_multiplicity
 _atom_site_fract_x
 _atom_site_fract_y
 _atom_site_fract_z
 _atom_site_occupancy
  Sm  Sm0  1  0.000000  0.373734  0.650581  1
  Sm  Sm1  1  0.000000  0.626266  0.349419  1
  Sm  Sm2  1  0.000000  0.873734  0.849419  1
  Sm  Sm3  1  0.000000  0.126266  0.150581  1
  Fe  Fe4  1  0.000000  0.368304  0.912541  1
  Fe  Fe5  1  0.000000  0.631696  0.087459  1
  Fe  Fe6  1  0.000000  0.868304  0.587459  1
  Fe  Fe7  1  0.000000  0.131696  0.412541  1
  B  B8  1  0.500000  0.023077  0.688431  1
  B  B9  1  0.500000  0.976923  0.311569  1
  B  B10  1  0.500000  0.523077  0.811569  1
  B  B11  1  0.500000  0.476923  0.188431  1
  B  B12  1  0.500000  0.110199  0.545160  1
  B  B13  1  0.500000  0.889801  0.454840  1
  B  B14  1  0.500000  0.610199  0.954840  1
  B  B15  1  0.500000  0.389801  0.045160  1
  B  B16  1  0.500000  0.279814  0.317789  1
  B  B17  1  0.500000  0.720186  0.682211  1
  B  B18  1  0.500000  0.779814  0.182211  1
  B  B19  1  0.500000  0.220186  0.817789  1
  B  B20  1  0.500000  0.358538  0.467801  1
  B  B21  1  0.500000  0.641462  0.532199  1
  B  B22  1  0.500000  0.858538  0.032199  1
  B  B23  1  0.500000  0.141462  0.967801  1
