# generated using pymatgen
data_U2Cu4As5
_symmetry_space_group_name_H-M   'P 1'
_cell_length_a   12.47579644
_cell_length_b   12.47579644
_cell_length_c   12.47579644
_cell_angle_alpha   161.58852567
_cell_angle_beta   161.58852567
_cell_angle_gamma   26.15230827
_symmetry_Int_Tables_number   1
_chemical_formula_structural   U2Cu4As5
_chemical_formula_sum   'U2 Cu4 As5'
_cell_volume   193.63624349
_cell_formula_units_Z   1
loop_
 _symmetry_equiv_pos_site_id
 _symmetry_equiv_pos_as_xyz
  1  'x, y, z'
loop_
 _atom_site_type_symbol
 _atom_site_label
 _atom_site_symmetry_multiplicity
 _atom_site_fract_x
 _atom_site_fract_y
 _atom_site_fract_z
 _atom_site_occupancy
  U  U0  1  0.842073  0.842073  0.000000  1
  U  U1  1  0.157927  0.157927  0.000000  1
  Cu  Cu2  1  0.442027  0.942027  0.500000  1
  Cu  Cu3  1  0.557973  0.057973  0.500000  1
  Cu  Cu4  1  0.057973  0.557973  0.500000  1
  Cu  Cu5  1  0.942027  0.442027  0.500000  1
  As  As6  1  0.375781  0.375781  0.000000  1
  As  As7  1  0.624219  0.624219  0.000000  1
  As  As8  1  0.000000  0.000000  0.000000  1
  As  As9  1  0.250000  0.750000  0.500000  1
  As  As10  1  0.750000  0.250000  0.500000  1
