# generated using pymatgen
data_Er2Ge5
_symmetry_space_group_name_H-M   'P 1'
_cell_length_a   3.92467331
_cell_length_b   4.04404185
_cell_length_c   18.31952193
_cell_angle_alpha   90.00000000
_cell_angle_beta   90.00000000
_cell_angle_gamma   90.00000000
_symmetry_Int_Tables_number   1
_chemical_formula_structural   Er2Ge5
_chemical_formula_sum   'Er4 Ge10'
_cell_volume   290.75908213
_cell_formula_units_Z   2
loop_
 _symmetry_equiv_pos_site_id
 _symmetry_equiv_pos_as_xyz
  1  'x, y, z'
loop_
 _atom_site_type_symbol
 _atom_site_label
 _atom_site_symmetry_multiplicity
 _atom_site_fract_x
 _atom_site_fract_y
 _atom_site_fract_z
 _atom_site_occupancy
  Er  Er0  1  0.500000  0.500000  0.627343  1
  Er  Er1  1  0.000000  0.000000  0.372657  1
  Er  Er2  1  0.500000  0.000000  0.190744  1
  Er  Er3  1  0.000000  0.500000  0.809256  1
  Ge  Ge4  1  0.500000  0.000000  0.503447  1
  Ge  Ge5  1  0.000000  0.500000  0.496553  1
  Ge  Ge6  1  0.500000  0.500000  0.330241  1
  Ge  Ge7  1  0.000000  0.000000  0.669759  1
  Ge  Ge8  1  0.000000  0.000000  0.067858  1
  Ge  Ge9  1  0.500000  0.500000  0.932142  1
  Ge  Ge10  1  0.000000  0.000000  0.930965  1
  Ge  Ge11  1  0.500000  0.500000  0.069035  1
  Ge  Ge12  1  0.000000  0.500000  0.238053  1
  Ge  Ge13  1  0.500000  0.000000  0.761947  1
