# generated using pymatgen
data_Ga3Pd5
_symmetry_space_group_name_H-M   'P 1'
_cell_length_a   4.08089538
_cell_length_b   5.49368440
_cell_length_c   10.70030962
_cell_angle_alpha   90.00000000
_cell_angle_beta   90.00000000
_cell_angle_gamma   90.00000000
_symmetry_Int_Tables_number   1
_chemical_formula_structural   Ga3Pd5
_chemical_formula_sum   'Ga6 Pd10'
_cell_volume   239.89186019
_cell_formula_units_Z   2
loop_
 _symmetry_equiv_pos_site_id
 _symmetry_equiv_pos_as_xyz
  1  'x, y, z'
loop_
 _atom_site_type_symbol
 _atom_site_label
 _atom_site_symmetry_multiplicity
 _atom_site_fract_x
 _atom_site_fract_y
 _atom_site_fract_z
 _atom_site_occupancy
  Ga  Ga0  1  0.000000  0.838120  0.645946  1
  Ga  Ga1  1  0.000000  0.338120  0.854054  1
  Ga  Ga2  1  0.500000  0.500000  0.500000  1
  Ga  Ga3  1  0.000000  0.161880  0.354054  1
  Ga  Ga4  1  0.500000  0.000000  0.000000  1
  Ga  Ga5  1  0.000000  0.661880  0.145946  1
  Pd  Pd6  1  0.000000  0.808234  0.895795  1
  Pd  Pd7  1  0.000000  0.691766  0.395795  1
  Pd  Pd8  1  0.000000  0.308234  0.604205  1
  Pd  Pd9  1  0.500000  0.917067  0.234179  1
  Pd  Pd10  1  0.500000  0.417067  0.265821  1
  Pd  Pd11  1  0.500000  0.582933  0.734179  1
  Pd  Pd12  1  0.500000  0.082933  0.765821  1
  Pd  Pd13  1  0.500000  0.500000  0.000000  1
  Pd  Pd14  1  0.500000  0.000000  0.500000  1
  Pd  Pd15  1  0.000000  0.191766  0.104205  1
