# generated using pymatgen
data_KBrF4
_symmetry_space_group_name_H-M   'P 1'
_cell_length_a   7.19098794
_cell_length_b   7.19098794
_cell_length_c   7.19098794
_cell_angle_alpha   128.02801743
_cell_angle_beta   128.02801743
_cell_angle_gamma   76.57964539
_symmetry_Int_Tables_number   1
_chemical_formula_structural   KBrF4
_chemical_formula_sum   'K2 Br2 F8'
_cell_volume   224.12013287
_cell_formula_units_Z   2
loop_
 _symmetry_equiv_pos_site_id
 _symmetry_equiv_pos_as_xyz
  1  'x, y, z'
loop_
 _atom_site_type_symbol
 _atom_site_label
 _atom_site_symmetry_multiplicity
 _atom_site_fract_x
 _atom_site_fract_y
 _atom_site_fract_z
 _atom_site_occupancy
  K  K0  1  0.250000  0.250000  0.000000  1
  K  K1  1  0.750000  0.750000  0.000000  1
  Br  Br2  1  0.500000  0.000000  0.500000  1
  Br  Br3  1  0.000000  0.500000  0.500000  1
  F  F4  1  0.467663  0.967663  0.192347  1
  F  F5  1  0.224684  0.724684  0.192347  1
  F  F6  1  0.532337  0.032337  0.807653  1
  F  F7  1  0.032337  0.224684  0.500000  1
  F  F8  1  0.775316  0.275316  0.807653  1
  F  F9  1  0.275316  0.467663  0.500000  1
  F  F10  1  0.967663  0.775316  0.500000  1
  F  F11  1  0.724684  0.532337  0.500000  1
