# generated using pymatgen
data_Hg3(SCl)2
_symmetry_space_group_name_H-M   'P 1'
_cell_length_a   7.98592383
_cell_length_b   7.98592383
_cell_length_c   7.98592383
_cell_angle_alpha   109.47122063
_cell_angle_beta   109.47122063
_cell_angle_gamma   109.47122063
_symmetry_Int_Tables_number   1
_chemical_formula_structural   Hg3(SCl)2
_chemical_formula_sum   'Hg6 S4 Cl4'
_cell_volume   392.06096057
_cell_formula_units_Z   2
loop_
 _symmetry_equiv_pos_site_id
 _symmetry_equiv_pos_as_xyz
  1  'x, y, z'
loop_
 _atom_site_type_symbol
 _atom_site_label
 _atom_site_symmetry_multiplicity
 _atom_site_fract_x
 _atom_site_fract_y
 _atom_site_fract_z
 _atom_site_occupancy
  Hg  Hg0  1  0.750000  0.947326  0.197326  1
  Hg  Hg1  1  0.302674  0.250000  0.552674  1
  Hg  Hg2  1  0.552674  0.302674  0.250000  1
  Hg  Hg3  1  0.197326  0.750000  0.947326  1
  Hg  Hg4  1  0.947326  0.197326  0.750000  1
  Hg  Hg5  1  0.250000  0.552674  0.302674  1
  S  S6  1  1.000000  0.975852  0.500000  1
  S  S7  1  0.500000  0.000000  0.975852  1
  S  S8  1  0.975852  0.500000  0.000000  1
  S  S9  1  0.524148  0.524148  0.524148  1
  Cl  Cl10  1  0.000000  0.489052  0.500000  1
  Cl  Cl11  1  0.500000  0.000000  0.489052  1
  Cl  Cl12  1  0.010948  0.010948  0.010948  1
  Cl  Cl13  1  0.489052  0.500000  1.000000  1
