# generated using pymatgen
data_YMo3O8
_symmetry_space_group_name_H-M   'P 1'
_cell_length_a   6.24010119
_cell_length_b   6.24010119
_cell_length_c   4.76023837
_cell_angle_alpha   89.80007922
_cell_angle_beta   90.19992078
_cell_angle_gamma   119.44767901
_symmetry_Int_Tables_number   1
_chemical_formula_structural   YMo3O8
_chemical_formula_sum   'Y1 Mo3 O8'
_cell_volume   161.40959018
_cell_formula_units_Z   1
loop_
 _symmetry_equiv_pos_site_id
 _symmetry_equiv_pos_as_xyz
  1  'x, y, z'
loop_
 _atom_site_type_symbol
 _atom_site_label
 _atom_site_symmetry_multiplicity
 _atom_site_fract_x
 _atom_site_fract_y
 _atom_site_fract_z
 _atom_site_occupancy
  Y  Y0  1  0.000000  0.000000  0.000000  1
  Mo  Mo1  1  0.500000  0.500000  0.500000  1
  Mo  Mo2  1  0.000000  0.500000  0.500000  1
  Mo  Mo3  1  0.500000  1.000000  0.500000  1
  O  O4  1  0.357135  0.187353  0.723535  1
  O  O5  1  0.659690  0.340310  0.284755  1
  O  O6  1  0.187353  0.357135  0.276465  1
  O  O7  1  0.173440  0.826560  0.284585  1
  O  O8  1  0.812647  0.642865  0.723535  1
  O  O9  1  0.340310  0.659690  0.715245  1
  O  O10  1  0.826560  0.173440  0.715415  1
  O  O11  1  0.642865  0.812647  0.276465  1
