# generated using pymatgen
data_AgBiTe2
_symmetry_space_group_name_H-M   'P 1'
_cell_length_a   7.48834491
_cell_length_b   7.48834491
_cell_length_c   7.48834491
_cell_angle_alpha   34.47133432
_cell_angle_beta   34.47133432
_cell_angle_gamma   34.47133432
_symmetry_Int_Tables_number   1
_chemical_formula_structural   AgBiTe2
_chemical_formula_sum   'Ag1 Bi1 Te2'
_cell_volume   120.00097025
_cell_formula_units_Z   1
loop_
 _symmetry_equiv_pos_site_id
 _symmetry_equiv_pos_as_xyz
  1  'x, y, z'
loop_
 _atom_site_type_symbol
 _atom_site_label
 _atom_site_symmetry_multiplicity
 _atom_site_fract_x
 _atom_site_fract_y
 _atom_site_fract_z
 _atom_site_occupancy
  Ag  Ag0  1  0.000000  0.000000  0.000000  1
  Bi  Bi1  1  0.500000  0.500000  0.500000  1
  Te  Te2  1  0.744156  0.744156  0.744156  1
  Te  Te3  1  0.255844  0.255844  0.255844  1
