# generated using pymatgen
data_La2NiIrO6
_symmetry_space_group_name_H-M   'P 1'
_cell_length_a   5.53854712
_cell_length_b   5.80702670
_cell_length_c   9.65730712
_cell_angle_alpha   90.00000000
_cell_angle_beta   124.93638780
_cell_angle_gamma   90.00000000
_symmetry_Int_Tables_number   1
_chemical_formula_structural   La2NiIrO6
_chemical_formula_sum   'La4 Ni2 Ir2 O12'
_cell_volume   254.62876417
_cell_formula_units_Z   2
loop_
 _symmetry_equiv_pos_site_id
 _symmetry_equiv_pos_as_xyz
  1  'x, y, z'
loop_
 _atom_site_type_symbol
 _atom_site_label
 _atom_site_symmetry_multiplicity
 _atom_site_fract_x
 _atom_site_fract_y
 _atom_site_fract_z
 _atom_site_occupancy
  La  La0  1  0.735444  0.558525  0.250745  1
  La  La1  1  0.264556  0.058525  0.249255  1
  La  La2  1  0.735444  0.941475  0.750745  1
  La  La3  1  0.264556  0.441475  0.749255  1
  Ni  Ni4  1  0.000000  0.000000  0.500000  1
  Ni  Ni5  1  0.000000  0.500000  0.000000  1
  Ir  Ir6  1  0.500000  0.000000  0.000000  1
  Ir  Ir7  1  0.500000  0.500000  0.500000  1
  O  O8  1  0.839047  0.526398  0.747686  1
  O  O9  1  0.160953  0.026398  0.752314  1
  O  O10  1  0.160953  0.473602  0.252314  1
  O  O11  1  0.839047  0.973602  0.247686  1
  O  O12  1  0.644831  0.794522  0.451761  1
  O  O13  1  0.355169  0.294522  0.048239  1
  O  O14  1  0.355169  0.205478  0.548239  1
  O  O15  1  0.644831  0.705478  0.951761  1
  O  O16  1  0.750018  0.200247  0.952382  1
  O  O17  1  0.249982  0.700247  0.547618  1
  O  O18  1  0.249982  0.799753  0.047618  1
  O  O19  1  0.750018  0.299753  0.452382  1
