# generated using pymatgen
data_Sc(BC)2
_symmetry_space_group_name_H-M   'P 1'
_cell_length_a   3.45124743
_cell_length_b   5.28401525
_cell_length_c   10.20318603
_cell_angle_alpha   90.00000000
_cell_angle_beta   90.00000000
_cell_angle_gamma   90.00000000
_symmetry_Int_Tables_number   1
_chemical_formula_structural   Sc(BC)2
_chemical_formula_sum   'Sc4 B8 C8'
_cell_volume   186.06983118
_cell_formula_units_Z   4
loop_
 _symmetry_equiv_pos_site_id
 _symmetry_equiv_pos_as_xyz
  1  'x, y, z'
loop_
 _atom_site_type_symbol
 _atom_site_label
 _atom_site_symmetry_multiplicity
 _atom_site_fract_x
 _atom_site_fract_y
 _atom_site_fract_z
 _atom_site_occupancy
  Sc  Sc0  1  0.000000  0.362800  0.648589  1
  Sc  Sc1  1  0.000000  0.637200  0.351411  1
  Sc  Sc2  1  0.000000  0.862800  0.851411  1
  Sc  Sc3  1  0.000000  0.137200  0.148589  1
  B  B4  1  0.500000  0.986238  0.311016  1
  B  B5  1  0.500000  0.013762  0.688984  1
  B  B6  1  0.500000  0.513762  0.811016  1
  B  B7  1  0.500000  0.486238  0.188984  1
  B  B8  1  0.500000  0.356045  0.464506  1
  B  B9  1  0.500000  0.643955  0.535494  1
  B  B10  1  0.500000  0.856045  0.035494  1
  B  B11  1  0.500000  0.143955  0.964506  1
  C  C12  1  0.500000  0.296311  0.309244  1
  C  C13  1  0.500000  0.703689  0.690756  1
  C  C14  1  0.500000  0.203689  0.809244  1
  C  C15  1  0.500000  0.796311  0.190756  1
  C  C16  1  0.500000  0.392608  0.044553  1
  C  C17  1  0.500000  0.607392  0.955447  1
  C  C18  1  0.500000  0.892608  0.455447  1
  C  C19  1  0.500000  0.107392  0.544553  1
