# generated using pymatgen
data_InPd2
_symmetry_space_group_name_H-M   'P 1'
_cell_length_a   4.27537361
_cell_length_b   5.72073071
_cell_length_c   8.38689786
_cell_angle_alpha   90.00000000
_cell_angle_beta   90.00000000
_cell_angle_gamma   90.00000000
_symmetry_Int_Tables_number   1
_chemical_formula_structural   InPd2
_chemical_formula_sum   'In4 Pd8'
_cell_volume   205.12893774
_cell_formula_units_Z   4
loop_
 _symmetry_equiv_pos_site_id
 _symmetry_equiv_pos_as_xyz
  1  'x, y, z'
loop_
 _atom_site_type_symbol
 _atom_site_label
 _atom_site_symmetry_multiplicity
 _atom_site_fract_x
 _atom_site_fract_y
 _atom_site_fract_z
 _atom_site_occupancy
  In  In0  1  0.250000  0.322038  0.899794  1
  In  In1  1  0.750000  0.677962  0.100206  1
  In  In2  1  0.250000  0.822038  0.600206  1
  In  In3  1  0.750000  0.177962  0.399794  1
  Pd  Pd4  1  0.250000  0.432809  0.231002  1
  Pd  Pd5  1  0.750000  0.567191  0.768998  1
  Pd  Pd6  1  0.250000  0.932809  0.268998  1
  Pd  Pd7  1  0.750000  0.067191  0.731002  1
  Pd  Pd8  1  0.750000  0.159363  0.072214  1
  Pd  Pd9  1  0.250000  0.840637  0.927786  1
  Pd  Pd10  1  0.750000  0.659363  0.427786  1
  Pd  Pd11  1  0.250000  0.340637  0.572214  1
