# generated using pymatgen
data_BaSm2CuO5
_symmetry_space_group_name_H-M   'P 1'
_cell_length_a   5.80520169
_cell_length_b   7.38546951
_cell_length_c   12.47526021
_cell_angle_alpha   90.00000000
_cell_angle_beta   90.00000000
_cell_angle_gamma   90.00000000
_symmetry_Int_Tables_number   1
_chemical_formula_structural   BaSm2CuO5
_chemical_formula_sum   'Ba4 Sm8 Cu4 O20'
_cell_volume   534.86605379
_cell_formula_units_Z   4
loop_
 _symmetry_equiv_pos_site_id
 _symmetry_equiv_pos_as_xyz
  1  'x, y, z'
loop_
 _atom_site_type_symbol
 _atom_site_label
 _atom_site_symmetry_multiplicity
 _atom_site_fract_x
 _atom_site_fract_y
 _atom_site_fract_z
 _atom_site_occupancy
  Ba  Ba0  1  0.250000  0.568432  0.906156  1
  Ba  Ba1  1  0.750000  0.431568  0.093844  1
  Ba  Ba2  1  0.750000  0.068432  0.593844  1
  Ba  Ba3  1  0.250000  0.931568  0.406156  1
  Sm  Sm4  1  0.250000  0.104747  0.074156  1
  Sm  Sm5  1  0.750000  0.895253  0.925844  1
  Sm  Sm6  1  0.750000  0.604747  0.425844  1
  Sm  Sm7  1  0.250000  0.395253  0.574156  1
  Sm  Sm8  1  0.250000  0.388259  0.287333  1
  Sm  Sm9  1  0.750000  0.611741  0.712667  1
  Sm  Sm10  1  0.750000  0.888259  0.212667  1
  Sm  Sm11  1  0.250000  0.111741  0.787333  1
  Cu  Cu12  1  0.250000  0.781301  0.660951  1
  Cu  Cu13  1  0.750000  0.218699  0.339049  1
  Cu  Cu14  1  0.750000  0.281301  0.839049  1
  Cu  Cu15  1  0.250000  0.718699  0.160951  1
  O  O16  1  0.250000  0.421353  0.097900  1
  O  O17  1  0.750000  0.578647  0.902100  1
  O  O18  1  0.750000  0.921353  0.402100  1
  O  O19  1  0.250000  0.078647  0.597900  1
  O  O20  1  0.006764  0.850529  0.772119  1
  O  O21  1  0.506764  0.149471  0.227881  1
  O  O22  1  0.993236  0.350529  0.727881  1
  O  O23  1  0.493236  0.649471  0.272119  1
  O  O24  1  0.993236  0.149471  0.227881  1
  O  O25  1  0.493236  0.850529  0.772119  1
  O  O26  1  0.006764  0.649471  0.272119  1
  O  O27  1  0.506764  0.350529  0.727881  1
  O  O28  1  0.490233  0.665181  0.567800  1
  O  O29  1  0.990233  0.334819  0.432200  1
  O  O30  1  0.509767  0.165181  0.932200  1
  O  O31  1  0.009767  0.834819  0.067800  1
  O  O32  1  0.990233  0.165181  0.932200  1
  O  O33  1  0.490233  0.834819  0.067800  1
  O  O34  1  0.009767  0.665181  0.567800  1
  O  O35  1  0.509767  0.334819  0.432200  1
