# generated using pymatgen
data_Na4Cu2S3
_symmetry_space_group_name_H-M   'P 1'
_cell_length_a   19.47401527
_cell_length_b   19.47401527
_cell_length_c   19.47401527
_cell_angle_alpha   151.70020478
_cell_angle_beta   151.70020478
_cell_angle_gamma   40.45126554
_symmetry_Int_Tables_number   1
_chemical_formula_structural   Na4Cu2S3
_chemical_formula_sum   'Na32 Cu16 S24'
_cell_volume   1656.53292068
_cell_formula_units_Z   8
loop_
 _symmetry_equiv_pos_site_id
 _symmetry_equiv_pos_as_xyz
  1  'x, y, z'
loop_
 _atom_site_type_symbol
 _atom_site_label
 _atom_site_symmetry_multiplicity
 _atom_site_fract_x
 _atom_site_fract_y
 _atom_site_fract_z
 _atom_site_occupancy
  Na  Na0  1  0.000000  0.000000  0.000000  1
  Na  Na1  1  0.750000  0.250000  0.500000  1
  Na  Na2  1  0.500000  0.500000  0.000000  1
  Na  Na3  1  0.250000  0.750000  0.500000  1
  Na  Na4  1  0.908075  0.908075  0.000000  1
  Na  Na5  1  0.658075  0.158075  0.500000  1
  Na  Na6  1  0.841925  0.341925  0.500000  1
  Na  Na7  1  0.091925  0.091925  0.000000  1
  Na  Na8  1  0.991894  0.491894  0.500000  1
  Na  Na9  1  0.241894  0.241894  0.000000  1
  Na  Na10  1  0.758106  0.758106  0.000000  1
  Na  Na11  1  0.508106  0.008106  0.500000  1
  Na  Na12  1  0.413129  0.913129  0.500000  1
  Na  Na13  1  0.663129  0.663129  0.000000  1
  Na  Na14  1  0.336871  0.336871  0.000000  1
  Na  Na15  1  0.086871  0.586871  0.500000  1
  Na  Na16  1  0.167644  0.209028  0.548376  1
  Na  Na17  1  0.959028  0.910651  0.541383  1
  Na  Na18  1  0.369268  0.417644  0.458617  1
  Na  Na19  1  0.660651  0.619268  0.451624  1
  Na  Na20  1  0.582356  0.040972  0.951624  1
  Na  Na21  1  0.790972  0.339349  0.958617  1
  Na  Na22  1  0.380732  0.832356  0.041383  1
  Na  Na23  1  0.089349  0.630732  0.048376  1
  Na  Na24  1  0.244167  0.748976  0.006736  1
  Na  Na25  1  0.498976  0.992241  0.004810  1
  Na  Na26  1  0.987431  0.494167  0.995190  1
  Na  Na27  1  0.742241  0.237431  0.993264  1
  Na  Na28  1  0.505833  0.501024  0.493264  1
  Na  Na29  1  0.251024  0.257759  0.495190  1
  Na  Na30  1  0.762569  0.755833  0.504810  1
  Na  Na31  1  0.007759  0.012569  0.506736  1
  Cu  Cu32  1  0.314496  0.572259  0.044864  1
  Cu  Cu33  1  0.322259  0.777396  0.757763  1
  Cu  Cu34  1  0.019633  0.564496  0.242237  1
  Cu  Cu35  1  0.527396  0.269633  0.955136  1
  Cu  Cu36  1  0.435504  0.677741  0.455136  1
  Cu  Cu37  1  0.427741  0.472604  0.742237  1
  Cu  Cu38  1  0.730367  0.685504  0.257763  1
  Cu  Cu39  1  0.222604  0.980367  0.544864  1
  Cu  Cu40  1  0.036746  0.575481  0.774619  1
  Cu  Cu41  1  0.325481  0.050863  0.038735  1
  Cu  Cu42  1  0.012128  0.286746  0.961265  1
  Cu  Cu43  1  0.800863  0.262128  0.225381  1
  Cu  Cu44  1  0.713254  0.674519  0.725381  1
  Cu  Cu45  1  0.424519  0.199137  0.461265  1
  Cu  Cu46  1  0.737872  0.963254  0.538735  1
  Cu  Cu47  1  0.949137  0.987872  0.274619  1
  S  S48  1  0.137826  0.434780  0.811696  1
  S  S49  1  0.184780  0.873084  0.796954  1
  S  S50  1  0.076130  0.387826  0.203046  1
  S  S51  1  0.623084  0.326130  0.188304  1
  S  S52  1  0.612174  0.815220  0.688304  1
  S  S53  1  0.565220  0.376916  0.703046  1
  S  S54  1  0.673870  0.862174  0.296954  1
  S  S55  1  0.126916  0.923870  0.311696  1
  S  S56  1  0.944318  0.721172  0.750238  1
  S  S57  1  0.471172  0.220934  0.276854  1
  S  S58  1  0.944080  0.194318  0.723146  1
  S  S59  1  0.970934  0.194080  0.249762  1
  S  S60  1  0.805682  0.528828  0.749762  1
  S  S61  1  0.278828  0.029066  0.223146  1
  S  S62  1  0.805920  0.055682  0.776854  1
  S  S63  1  0.779066  0.055920  0.250238  1
  S  S64  1  0.444280  0.198889  0.720990  1
  S  S65  1  0.948889  0.727900  0.254609  1
  S  S66  1  0.473290  0.694280  0.745391  1
  S  S67  1  0.477900  0.723290  0.279010  1
  S  S68  1  0.305720  0.051111  0.779010  1
  S  S69  1  0.801111  0.522100  0.245391  1
  S  S70  1  0.276710  0.555720  0.754609  1
  S  S71  1  0.272100  0.526710  0.220990  1
