# generated using pymatgen
data_Cs(WO3)2
_symmetry_space_group_name_H-M   'P 1'
_cell_length_a   7.44280556
_cell_length_b   7.44280556
_cell_length_c   7.44280556
_cell_angle_alpha   60.00000000
_cell_angle_beta   60.00000000
_cell_angle_gamma   60.00000000
_symmetry_Int_Tables_number   1
_chemical_formula_structural   Cs(WO3)2
_chemical_formula_sum   'Cs2 W4 O12'
_cell_volume   291.53790067
_cell_formula_units_Z   2
loop_
 _symmetry_equiv_pos_site_id
 _symmetry_equiv_pos_as_xyz
  1  'x, y, z'
loop_
 _atom_site_type_symbol
 _atom_site_label
 _atom_site_symmetry_multiplicity
 _atom_site_fract_x
 _atom_site_fract_y
 _atom_site_fract_z
 _atom_site_occupancy
  Cs  Cs0  1  0.250000  0.250000  0.250000  1
  Cs  Cs1  1  0.000000  0.000000  1.000000  1
  W  W2  1  0.625000  0.625000  0.625000  1
  W  W3  1  0.625000  0.125000  0.625000  1
  W  W4  1  0.625000  0.625000  0.125000  1
  W  W5  1  0.125000  0.625000  0.625000  1
  O  O6  1  0.685416  0.314584  0.314584  1
  O  O7  1  0.935416  0.564584  0.564584  1
  O  O8  1  0.314584  0.314584  0.685416  1
  O  O9  1  0.685416  0.314584  0.685416  1
  O  O10  1  0.314584  0.685416  0.314584  1
  O  O11  1  0.685416  0.685416  0.314584  1
  O  O12  1  0.314584  0.685416  0.685416  1
  O  O13  1  0.935416  0.564584  0.935416  1
  O  O14  1  0.564584  0.935416  0.564584  1
  O  O15  1  0.564584  0.935416  0.935416  1
  O  O16  1  0.564584  0.564584  0.935416  1
  O  O17  1  0.935416  0.935416  0.564584  1
