# generated using pymatgen
data_Li3Sb3(PO4)4
_symmetry_space_group_name_H-M   'P 1'
_cell_length_a   9.20336778
_cell_length_b   9.25781591
_cell_length_c   13.11638466
_cell_angle_alpha   94.41430081
_cell_angle_beta   90.66689105
_cell_angle_gamma   90.73271308
_symmetry_Int_Tables_number   1
_chemical_formula_structural   Li3Sb3(PO4)4
_chemical_formula_sum   'Li9 Sb9 P12 O48'
_cell_volume   1114.06085397
_cell_formula_units_Z   3
loop_
 _symmetry_equiv_pos_site_id
 _symmetry_equiv_pos_as_xyz
  1  'x, y, z'
loop_
 _atom_site_type_symbol
 _atom_site_label
 _atom_site_symmetry_multiplicity
 _atom_site_fract_x
 _atom_site_fract_y
 _atom_site_fract_z
 _atom_site_occupancy
  Li  Li0  1  0.114603  0.774365  0.154928  1
  Li  Li1  1  0.880852  0.892457  0.518709  1
  Li  Li2  1  0.383821  0.250567  0.147047  1
  Li  Li3  1  0.382948  0.596761  0.481145  1
  Li  Li4  1  0.386779  0.950885  0.820925  1
  Li  Li5  1  0.621413  0.076296  0.182954  1
  Li  Li6  1  0.612769  0.418290  0.521284  1
  Li  Li7  1  0.121707  0.414772  0.813289  1
  Li  Li8  1  0.887023  0.244820  0.851900  1
  Sb  Sb9  1  0.460519  0.670608  0.145058  1
  Sb  Sb10  1  0.851025  0.557745  0.204225  1
  Sb  Sb11  1  0.017678  0.160002  0.170234  1
  Sb  Sb12  1  0.992533  0.513041  0.497916  1
  Sb  Sb13  1  0.038400  0.841413  0.815361  1
  Sb  Sb14  1  0.642929  0.707644  0.865301  1
  Sb  Sb15  1  0.144564  0.109938  0.459277  1
  Sb  Sb16  1  0.533598  0.005135  0.517849  1
  Sb  Sb17  1  0.494314  0.316562  0.832096  1
  P  P18  1  0.815264  0.857444  0.068530  1
  P  P19  1  0.321836  0.966650  0.267802  1
  P  P20  1  0.718030  0.330078  0.051602  1
  P  P21  1  0.679919  0.704130  0.397801  1
  P  P22  1  0.213102  0.492265  0.269349  1
  P  P23  1  0.192088  0.821312  0.603601  1
  P  P24  1  0.795582  0.176914  0.398478  1
  P  P25  1  0.798515  0.492244  0.716583  1
  P  P26  1  0.288190  0.339215  0.611324  1
  P  P27  1  0.293335  0.667358  0.938032  1
  P  P28  1  0.691224  0.011804  0.735455  1
  P  P29  1  0.189450  0.140810  0.940049  1
  O  O30  1  0.915681  0.991010  0.073087  1
  O  O31  1  0.661652  0.883394  0.104081  1
  O  O32  1  0.159782  0.963996  0.234522  1
  O  O33  1  0.267833  0.718380  0.054182  1
  O  O34  1  0.899088  0.741543  0.130356  1
  O  O35  1  0.327537  0.003678  0.388575  1
  O  O36  1  0.375749  0.805662  0.255428  1
  O  O37  1  0.707292  0.501766  0.080634  1
  O  O38  1  0.626147  0.865352  0.413254  1
  O  O39  1  0.671335  0.669065  0.276846  1
  O  O40  1  0.102691  0.590251  0.217217  1
  O  O41  1  0.102930  0.932436  0.539876  1
  O  O42  1  0.710163  0.950084  0.621307  1
  O  O43  1  0.363684  0.500283  0.208491  1
  O  O44  1  0.841908  0.706327  0.431407  1
  O  O45  1  0.877600  0.303584  0.092136  1
  O  O46  1  0.337714  0.785315  0.557363  1
  O  O47  1  0.598474  0.251184  0.104309  1
  O  O48  1  0.233604  0.539874  0.382192  1
  O  O49  1  0.188793  0.175106  0.059670  1
  O  O50  1  0.212251  0.893205  0.717198  1
  O  O51  1  0.586569  0.598232  0.450524  1
  O  O52  1  0.170079  0.329979  0.252319  1
  O  O53  1  0.606607  0.893101  0.795064  1
  O  O54  1  0.082296  0.694186  0.612559  1
  O  O55  1  0.139522  0.976151  0.921576  1
  O  O56  1  0.861639  0.333085  0.410785  1
  O  O57  1  0.799595  0.659944  0.754463  1
  O  O58  1  0.417036  0.070607  0.215068  1
  O  O59  1  0.818978  0.482912  0.597746  1
  O  O60  1  0.768675  0.128739  0.286502  1
  O  O61  1  0.402693  0.422000  0.557717  1
  O  O62  1  0.397742  0.776947  0.892760  1
  O  O63  1  0.817449  0.797393  0.951572  1
  O  O64  1  0.126447  0.375922  0.584187  1
  O  O65  1  0.142601  0.666926  0.878375  1
  O  O66  1  0.646879  0.181068  0.461953  1
  O  O67  1  0.639169  0.440975  0.732854  1
  O  O68  1  0.897156  0.070871  0.451939  1
  O  O69  1  0.914708  0.413694  0.771400  1
  O  O70  1  0.305411  0.356058  0.730059  1
  O  O71  1  0.294333  0.170629  0.577298  1
  O  O72  1  0.353959  0.513988  0.931927  1
  O  O73  1  0.574823  0.133874  0.733381  1
  O  O74  1  0.713515  0.302496  0.934243  1
  O  O75  1  0.091012  0.241127  0.886751  1
  O  O76  1  0.835915  0.053995  0.784900  1
  O  O77  1  0.349277  0.142083  0.901842  1
