# generated using pymatgen
data_Ti(SeO3)2
_symmetry_space_group_name_H-M   'P 1'
_cell_length_a   4.87599053
_cell_length_b   8.44663465
_cell_length_c   7.00913484
_cell_angle_alpha   90.00000000
_cell_angle_beta   111.66733224
_cell_angle_gamma   90.00000000
_symmetry_Int_Tables_number   1
_chemical_formula_structural   Ti(SeO3)2
_chemical_formula_sum   'Ti2 Se4 O12'
_cell_volume   268.27927260
_cell_formula_units_Z   2
loop_
 _symmetry_equiv_pos_site_id
 _symmetry_equiv_pos_as_xyz
  1  'x, y, z'
loop_
 _atom_site_type_symbol
 _atom_site_label
 _atom_site_symmetry_multiplicity
 _atom_site_fract_x
 _atom_site_fract_y
 _atom_site_fract_z
 _atom_site_occupancy
  Ti  Ti0  1  0.500000  0.500000  0.500000  1
  Ti  Ti1  1  0.500000  0.000000  0.000000  1
  Se  Se2  1  0.140330  0.640155  0.820528  1
  Se  Se3  1  0.859670  0.140155  0.679472  1
  Se  Se4  1  0.859670  0.359845  0.179472  1
  Se  Se5  1  0.140330  0.859845  0.320528  1
  O  O6  1  0.167700  0.153163  0.903751  1
  O  O7  1  0.832300  0.653163  0.596249  1
  O  O8  1  0.832300  0.846837  0.096249  1
  O  O9  1  0.167700  0.346837  0.403751  1
  O  O10  1  0.600249  0.051315  0.755952  1
  O  O11  1  0.399751  0.551315  0.744048  1
  O  O12  1  0.243978  0.661907  0.329714  1
  O  O13  1  0.756022  0.161907  0.170286  1
  O  O14  1  0.756022  0.338093  0.670286  1
  O  O15  1  0.243978  0.838093  0.829714  1
  O  O16  1  0.600249  0.448685  0.255952  1
  O  O17  1  0.399751  0.948685  0.244048  1
