# generated using pymatgen
data_Sb2F7
_symmetry_space_group_name_H-M   'P 1'
_cell_length_a   4.91639023
_cell_length_b   11.06527009
_cell_length_c   11.04127519
_cell_angle_alpha   90.00000000
_cell_angle_beta   95.46989567
_cell_angle_gamma   90.00000000
_symmetry_Int_Tables_number   1
_chemical_formula_structural   Sb2F7
_chemical_formula_sum   'Sb8 F28'
_cell_volume   597.92331671
_cell_formula_units_Z   4
loop_
 _symmetry_equiv_pos_site_id
 _symmetry_equiv_pos_as_xyz
  1  'x, y, z'
loop_
 _atom_site_type_symbol
 _atom_site_label
 _atom_site_symmetry_multiplicity
 _atom_site_fract_x
 _atom_site_fract_y
 _atom_site_fract_z
 _atom_site_occupancy
  Sb  Sb0  1  0.894461  0.750000  0.923125  1
  Sb  Sb1  1  0.105539  0.250000  0.076875  1
  Sb  Sb2  1  0.204305  0.061099  0.768310  1
  Sb  Sb3  1  0.795695  0.561099  0.231690  1
  Sb  Sb4  1  0.795695  0.938901  0.231690  1
  Sb  Sb5  1  0.204305  0.438901  0.768310  1
  Sb  Sb6  1  0.433093  0.750000  0.523822  1
  Sb  Sb7  1  0.566907  0.250000  0.476178  1
  F  F8  1  0.355793  0.127318  0.548981  1
  F  F9  1  0.644207  0.627318  0.451019  1
  F  F10  1  0.644207  0.872682  0.451019  1
  F  F11  1  0.355793  0.372682  0.548981  1
  F  F12  1  0.181962  0.750000  0.054831  1
  F  F13  1  0.818038  0.250000  0.945169  1
  F  F14  1  0.230435  0.089903  0.949308  1
  F  F15  1  0.769565  0.589903  0.050692  1
  F  F16  1  0.319232  0.250000  0.777388  1
  F  F17  1  0.680768  0.750000  0.222612  1
  F  F18  1  0.820274  0.250000  0.620003  1
  F  F19  1  0.179726  0.750000  0.379997  1
  F  F20  1  0.588633  0.481008  0.786225  1
  F  F21  1  0.411367  0.981008  0.213775  1
  F  F22  1  0.411367  0.518992  0.213775  1
  F  F23  1  0.588633  0.018992  0.786225  1
  F  F24  1  0.313908  0.250000  0.332914  1
  F  F25  1  0.686092  0.750000  0.667086  1
  F  F26  1  0.775707  0.125462  0.407048  1
  F  F27  1  0.224293  0.625462  0.592952  1
  F  F28  1  0.224293  0.874538  0.592952  1
  F  F29  1  0.775707  0.374538  0.407048  1
  F  F30  1  0.865158  0.125047  0.156115  1
  F  F31  1  0.134842  0.625047  0.843885  1
  F  F32  1  0.134842  0.874953  0.843885  1
  F  F33  1  0.865158  0.374953  0.156115  1
  F  F34  1  0.230435  0.410097  0.949308  1
  F  F35  1  0.769565  0.910097  0.050692  1
