# generated using pymatgen
data_Rb2O3
_symmetry_space_group_name_H-M   'P 1'
_cell_length_a   8.12605266
_cell_length_b   8.12605266
_cell_length_c   8.12605266
_cell_angle_alpha   109.47122063
_cell_angle_beta   109.47122063
_cell_angle_gamma   109.47122063
_symmetry_Int_Tables_number   1
_chemical_formula_structural   Rb2O3
_chemical_formula_sum   'Rb8 O12'
_cell_volume   413.06367652
_cell_formula_units_Z   4
loop_
 _symmetry_equiv_pos_site_id
 _symmetry_equiv_pos_as_xyz
  1  'x, y, z'
loop_
 _atom_site_type_symbol
 _atom_site_label
 _atom_site_symmetry_multiplicity
 _atom_site_fract_x
 _atom_site_fract_y
 _atom_site_fract_z
 _atom_site_occupancy
  Rb  Rb0  1  0.102342  0.102342  0.102342  1
  Rb  Rb1  1  0.897658  0.500000  0.000000  1
  Rb  Rb2  1  1.000000  0.897658  0.500000  1
  Rb  Rb3  1  0.500000  1.000000  0.897658  1
  Rb  Rb4  1  1.000000  0.397658  0.500000  1
  Rb  Rb5  1  0.500000  1.000000  0.397658  1
  Rb  Rb6  1  0.397658  0.500000  0.000000  1
  Rb  Rb7  1  0.602342  0.602342  0.602342  1
  O  O8  1  0.250000  0.550032  0.300032  1
  O  O9  1  0.449968  0.250000  0.699968  1
  O  O10  1  0.050032  0.750000  0.800032  1
  O  O11  1  0.800032  0.050032  0.750000  1
  O  O12  1  0.699968  0.449968  0.250000  1
  O  O13  1  0.250000  0.699968  0.449968  1
  O  O14  1  0.949968  0.199968  0.750000  1
  O  O15  1  0.199968  0.750000  0.949968  1
  O  O16  1  0.550032  0.300032  0.250000  1
  O  O17  1  0.300032  0.250000  0.550032  1
  O  O18  1  0.750000  0.949968  0.199968  1
  O  O19  1  0.750000  0.800032  0.050032  1
