# generated using pymatgen
data_SmMnB4
_symmetry_space_group_name_H-M   'P 1'
_cell_length_a   3.47174778
_cell_length_b   5.97730244
_cell_length_c   11.56262819
_cell_angle_alpha   90.00000000
_cell_angle_beta   90.00000000
_cell_angle_gamma   90.00000000
_symmetry_Int_Tables_number   1
_chemical_formula_structural   SmMnB4
_chemical_formula_sum   'Sm4 Mn4 B16'
_cell_volume   239.94403504
_cell_formula_units_Z   4
loop_
 _symmetry_equiv_pos_site_id
 _symmetry_equiv_pos_as_xyz
  1  'x, y, z'
loop_
 _atom_site_type_symbol
 _atom_site_label
 _atom_site_symmetry_multiplicity
 _atom_site_fract_x
 _atom_site_fract_y
 _atom_site_fract_z
 _atom_site_occupancy
  Sm  Sm0  1  0.000000  0.375420  0.650623  1
  Sm  Sm1  1  0.000000  0.624580  0.349377  1
  Sm  Sm2  1  0.000000  0.875420  0.849377  1
  Sm  Sm3  1  0.000000  0.124580  0.150623  1
  Mn  Mn4  1  0.000000  0.374219  0.916900  1
  Mn  Mn5  1  0.000000  0.625781  0.083100  1
  Mn  Mn6  1  0.000000  0.874219  0.583100  1
  Mn  Mn7  1  0.000000  0.125781  0.416900  1
  B  B8  1  0.500000  0.025270  0.689193  1
  B  B9  1  0.500000  0.974730  0.310807  1
  B  B10  1  0.500000  0.525270  0.810807  1
  B  B11  1  0.500000  0.474730  0.189193  1
  B  B12  1  0.500000  0.388788  0.045528  1
  B  B13  1  0.500000  0.611212  0.954472  1
  B  B14  1  0.500000  0.888788  0.454472  1
  B  B15  1  0.500000  0.111212  0.545528  1
  B  B16  1  0.500000  0.277348  0.317526  1
  B  B17  1  0.500000  0.722652  0.682474  1
  B  B18  1  0.500000  0.777348  0.182474  1
  B  B19  1  0.500000  0.222652  0.817526  1
  B  B20  1  0.500000  0.359368  0.467465  1
  B  B21  1  0.500000  0.640632  0.532535  1
  B  B22  1  0.500000  0.859368  0.032535  1
  B  B23  1  0.500000  0.140632  0.967465  1
