# generated using pymatgen
data_NbCoB2
_symmetry_space_group_name_H-M   'P 1'
_cell_length_a   3.16019189
_cell_length_b   5.97199770
_cell_length_c   8.20405346
_cell_angle_alpha   90.00000000
_cell_angle_beta   90.00000000
_cell_angle_gamma   90.00000000
_symmetry_Int_Tables_number   1
_chemical_formula_structural   NbCoB2
_chemical_formula_sum   'Nb4 Co4 B8'
_cell_volume   154.83230090
_cell_formula_units_Z   4
loop_
 _symmetry_equiv_pos_site_id
 _symmetry_equiv_pos_as_xyz
  1  'x, y, z'
loop_
 _atom_site_type_symbol
 _atom_site_label
 _atom_site_symmetry_multiplicity
 _atom_site_fract_x
 _atom_site_fract_y
 _atom_site_fract_z
 _atom_site_occupancy
  Nb  Nb0  1  0.250000  0.635891  0.132082  1
  Nb  Nb1  1  0.750000  0.364109  0.867918  1
  Nb  Nb2  1  0.250000  0.135891  0.367918  1
  Nb  Nb3  1  0.750000  0.864109  0.632082  1
  Co  Co4  1  0.750000  0.008788  0.112930  1
  Co  Co5  1  0.750000  0.508788  0.387070  1
  Co  Co6  1  0.250000  0.991212  0.887070  1
  Co  Co7  1  0.250000  0.491212  0.612930  1
  B  B8  1  0.250000  0.665392  0.829174  1
  B  B9  1  0.750000  0.334608  0.170826  1
  B  B10  1  0.250000  0.165392  0.670826  1
  B  B11  1  0.750000  0.834608  0.329174  1
  B  B12  1  0.250000  0.732422  0.422608  1
  B  B13  1  0.750000  0.767578  0.922608  1
  B  B14  1  0.250000  0.232422  0.077392  1
  B  B15  1  0.750000  0.267578  0.577392  1
