# generated using pymatgen
data_La2InCuSe5
_symmetry_space_group_name_H-M   'P 1'
_cell_length_a   4.13940865
_cell_length_b   12.25927266
_cell_length_c   17.59535398
_cell_angle_alpha   90.00000000
_cell_angle_beta   90.00000000
_cell_angle_gamma   90.00000000
_symmetry_Int_Tables_number   1
_chemical_formula_structural   La2InCuSe5
_chemical_formula_sum   'La8 In4 Cu4 Se20'
_cell_volume   892.89628395
_cell_formula_units_Z   4
loop_
 _symmetry_equiv_pos_site_id
 _symmetry_equiv_pos_as_xyz
  1  'x, y, z'
loop_
 _atom_site_type_symbol
 _atom_site_label
 _atom_site_symmetry_multiplicity
 _atom_site_fract_x
 _atom_site_fract_y
 _atom_site_fract_z
 _atom_site_occupancy
  La  La0  1  0.250000  0.637264  0.093318  1
  La  La1  1  0.750000  0.362736  0.906682  1
  La  La2  1  0.250000  0.137264  0.406682  1
  La  La3  1  0.750000  0.862736  0.593318  1
  La  La4  1  0.250000  0.977933  0.178216  1
  La  La5  1  0.750000  0.022067  0.821784  1
  La  La6  1  0.250000  0.477933  0.321784  1
  La  La7  1  0.750000  0.522067  0.678216  1
  In  In8  1  0.250000  0.691074  0.861064  1
  In  In9  1  0.750000  0.308926  0.138936  1
  In  In10  1  0.250000  0.191074  0.638936  1
  In  In11  1  0.750000  0.808926  0.361064  1
  Cu  Cu12  1  0.750000  0.424050  0.502093  1
  Cu  Cu13  1  0.250000  0.075950  0.002093  1
  Cu  Cu14  1  0.750000  0.924050  0.997907  1
  Cu  Cu15  1  0.250000  0.575950  0.497907  1
  Se  Se16  1  0.250000  0.983905  0.694685  1
  Se  Se17  1  0.750000  0.016095  0.305315  1
  Se  Se18  1  0.250000  0.483905  0.805315  1
  Se  Se19  1  0.750000  0.516095  0.194685  1
  Se  Se20  1  0.250000  0.892544  0.463327  1
  Se  Se21  1  0.750000  0.107456  0.536673  1
  Se  Se22  1  0.250000  0.392544  0.036673  1
  Se  Se23  1  0.750000  0.607456  0.963327  1
  Se  Se24  1  0.250000  0.681889  0.613929  1
  Se  Se25  1  0.750000  0.818111  0.113929  1
  Se  Se26  1  0.250000  0.181889  0.886071  1
  Se  Se27  1  0.750000  0.318111  0.386071  1
  Se  Se28  1  0.750000  0.601059  0.423300  1
  Se  Se29  1  0.250000  0.398941  0.576700  1
  Se  Se30  1  0.750000  0.101059  0.076700  1
  Se  Se31  1  0.250000  0.898941  0.923300  1
  Se  Se32  1  0.750000  0.760017  0.771065  1
  Se  Se33  1  0.250000  0.239983  0.228935  1
  Se  Se34  1  0.750000  0.260017  0.728935  1
  Se  Se35  1  0.250000  0.739983  0.271065  1
