# generated using pymatgen
data_LiTi(PO3)4
_symmetry_space_group_name_H-M   'P 1'
_cell_length_a   8.38438325
_cell_length_b   9.50487418
_cell_length_c   12.87403033
_cell_angle_alpha   90.00000000
_cell_angle_beta   90.00000000
_cell_angle_gamma   90.00000000
_symmetry_Int_Tables_number   1
_chemical_formula_structural   LiTi(PO3)4
_chemical_formula_sum   'Li4 Ti4 P16 O48'
_cell_volume   1025.96376337
_cell_formula_units_Z   4
loop_
 _symmetry_equiv_pos_site_id
 _symmetry_equiv_pos_as_xyz
  1  'x, y, z'
loop_
 _atom_site_type_symbol
 _atom_site_label
 _atom_site_symmetry_multiplicity
 _atom_site_fract_x
 _atom_site_fract_y
 _atom_site_fract_z
 _atom_site_occupancy
  Li  Li0  1  0.999976  0.750000  0.000000  1
  Li  Li1  1  0.000024  0.250000  0.000000  1
  Li  Li2  1  0.500024  0.250000  0.500000  1
  Li  Li3  1  0.499976  0.750000  0.500000  1
  Ti  Ti4  1  0.366680  0.750000  0.000000  1
  Ti  Ti5  1  0.633320  0.250000  0.000000  1
  Ti  Ti6  1  0.133320  0.250000  0.500000  1
  Ti  Ti7  1  0.866680  0.750000  0.500000  1
  P  P8  1  0.176268  0.503293  0.137515  1
  P  P9  1  0.823732  0.003293  0.137515  1
  P  P10  1  0.467822  0.008945  0.151131  1
  P  P11  1  0.532178  0.508945  0.151131  1
  P  P12  1  0.032178  0.508945  0.348869  1
  P  P13  1  0.967822  0.008945  0.348869  1
  P  P14  1  0.323732  0.003293  0.362485  1
  P  P15  1  0.676268  0.503293  0.362485  1
  P  P16  1  0.323732  0.496707  0.637515  1
  P  P17  1  0.676268  0.996707  0.637515  1
  P  P18  1  0.032178  0.991055  0.651131  1
  P  P19  1  0.967822  0.491055  0.651131  1
  P  P20  1  0.467822  0.491055  0.848869  1
  P  P21  1  0.532178  0.991055  0.848869  1
  P  P22  1  0.176268  0.996707  0.862485  1
  P  P23  1  0.823732  0.496707  0.862485  1
  O  O24  1  0.186297  0.630277  0.065572  1
  O  O25  1  0.813703  0.130277  0.065572  1
  O  O26  1  0.464519  0.126594  0.073131  1
  O  O27  1  0.535481  0.626594  0.073131  1
  O  O28  1  0.092992  0.374960  0.102261  1
  O  O29  1  0.907008  0.874960  0.102261  1
  O  O30  1  0.374309  0.878236  0.123659  1
  O  O31  1  0.625691  0.378236  0.123659  1
  O  O32  1  0.353098  0.463741  0.178775  1
  O  O33  1  0.646902  0.963741  0.178775  1
  O  O34  1  0.097823  0.569446  0.241757  1
  O  O35  1  0.902177  0.069446  0.241757  1
  O  O36  1  0.402177  0.069446  0.258243  1
  O  O37  1  0.597823  0.569446  0.258243  1
  O  O38  1  0.146902  0.963741  0.321225  1
  O  O39  1  0.853098  0.463741  0.321225  1
  O  O40  1  0.125691  0.378236  0.376341  1
  O  O41  1  0.874309  0.878236  0.376341  1
  O  O42  1  0.407008  0.874960  0.397739  1
  O  O43  1  0.592992  0.374960  0.397739  1
  O  O44  1  0.035481  0.626594  0.426869  1
  O  O45  1  0.964519  0.126594  0.426869  1
  O  O46  1  0.313703  0.130277  0.434428  1
  O  O47  1  0.686297  0.630277  0.434428  1
  O  O48  1  0.313703  0.369723  0.565572  1
  O  O49  1  0.686297  0.869723  0.565572  1
  O  O50  1  0.035481  0.873406  0.573131  1
  O  O51  1  0.964519  0.373406  0.573131  1
  O  O52  1  0.407008  0.625040  0.602261  1
  O  O53  1  0.592992  0.125040  0.602261  1
  O  O54  1  0.125691  0.121764  0.623659  1
  O  O55  1  0.874309  0.621764  0.623659  1
  O  O56  1  0.146902  0.536259  0.678775  1
  O  O57  1  0.853098  0.036259  0.678775  1
  O  O58  1  0.402177  0.430554  0.741757  1
  O  O59  1  0.597823  0.930554  0.741757  1
  O  O60  1  0.097823  0.930554  0.758243  1
  O  O61  1  0.902177  0.430554  0.758243  1
  O  O62  1  0.353098  0.036259  0.821225  1
  O  O63  1  0.646902  0.536259  0.821225  1
  O  O64  1  0.374309  0.621764  0.876341  1
  O  O65  1  0.625691  0.121764  0.876341  1
  O  O66  1  0.092992  0.125040  0.897739  1
  O  O67  1  0.907008  0.625040  0.897739  1
  O  O68  1  0.464519  0.373406  0.926869  1
  O  O69  1  0.535481  0.873406  0.926869  1
  O  O70  1  0.186297  0.869723  0.934428  1
  O  O71  1  0.813703  0.369723  0.934428  1
