# generated using pymatgen
data_NaLuCl4
_symmetry_space_group_name_H-M   'P 1'
_cell_length_a   6.34478481
_cell_length_b   6.62131813
_cell_length_c   16.06739070
_cell_angle_alpha   90.00000000
_cell_angle_beta   90.00000000
_cell_angle_gamma   90.00000000
_symmetry_Int_Tables_number   1
_chemical_formula_structural   NaLuCl4
_chemical_formula_sum   'Na4 Lu4 Cl16'
_cell_volume   675.00455892
_cell_formula_units_Z   4
loop_
 _symmetry_equiv_pos_site_id
 _symmetry_equiv_pos_as_xyz
  1  'x, y, z'
loop_
 _atom_site_type_symbol
 _atom_site_label
 _atom_site_symmetry_multiplicity
 _atom_site_fract_x
 _atom_site_fract_y
 _atom_site_fract_z
 _atom_site_occupancy
  Na  Na0  1  0.000000  0.250000  0.318766  1
  Na  Na1  1  0.500000  0.750000  0.181234  1
  Na  Na2  1  0.000000  0.750000  0.681234  1
  Na  Na3  1  0.500000  0.250000  0.818766  1
  Lu  Lu4  1  0.000000  0.250000  0.071868  1
  Lu  Lu5  1  0.500000  0.250000  0.571868  1
  Lu  Lu6  1  0.000000  0.750000  0.928132  1
  Lu  Lu7  1  0.500000  0.750000  0.428132  1
  Cl  Cl8  1  0.264705  0.599571  0.319119  1
  Cl  Cl9  1  0.771413  0.426749  0.950990  1
  Cl  Cl10  1  0.271413  0.573251  0.549010  1
  Cl  Cl11  1  0.728587  0.926749  0.549010  1
  Cl  Cl12  1  0.764705  0.400429  0.180881  1
  Cl  Cl13  1  0.235295  0.599571  0.819119  1
  Cl  Cl14  1  0.735295  0.900429  0.319119  1
  Cl  Cl15  1  0.235295  0.099571  0.180881  1
  Cl  Cl16  1  0.264705  0.099571  0.680881  1
  Cl  Cl17  1  0.735295  0.400429  0.680881  1
  Cl  Cl18  1  0.228587  0.573251  0.049010  1
  Cl  Cl19  1  0.764705  0.900429  0.819119  1
  Cl  Cl20  1  0.771413  0.926749  0.049010  1
  Cl  Cl21  1  0.271413  0.073251  0.450990  1
  Cl  Cl22  1  0.728587  0.426749  0.450990  1
  Cl  Cl23  1  0.228587  0.073251  0.950990  1
