# generated using pymatgen
data_Hf3(NbGe2)2
_symmetry_space_group_name_H-M   'P 1'
_cell_length_a   6.90152985
_cell_length_b   7.01497725
_cell_length_c   13.33442842
_cell_angle_alpha   90.00000000
_cell_angle_beta   90.00000000
_cell_angle_gamma   90.00000000
_symmetry_Int_Tables_number   1
_chemical_formula_structural   Hf3(NbGe2)2
_chemical_formula_sum   'Hf12 Nb8 Ge16'
_cell_volume   645.57401611
_cell_formula_units_Z   4
loop_
 _symmetry_equiv_pos_site_id
 _symmetry_equiv_pos_as_xyz
  1  'x, y, z'
loop_
 _atom_site_type_symbol
 _atom_site_label
 _atom_site_symmetry_multiplicity
 _atom_site_fract_x
 _atom_site_fract_y
 _atom_site_fract_z
 _atom_site_occupancy
  Hf  Hf0  1  0.987204  0.826369  0.592742  1
  Hf  Hf1  1  0.169812  0.505921  0.250000  1
  Hf  Hf2  1  0.487204  0.673631  0.907258  1
  Hf  Hf3  1  0.512796  0.326369  0.092742  1
  Hf  Hf4  1  0.669812  0.994079  0.250000  1
  Hf  Hf5  1  0.830188  0.494079  0.750000  1
  Hf  Hf6  1  0.330188  0.005921  0.750000  1
  Hf  Hf7  1  0.487204  0.673631  0.592742  1
  Hf  Hf8  1  0.987204  0.826369  0.907258  1
  Hf  Hf9  1  0.512796  0.326369  0.407258  1
  Hf  Hf10  1  0.012796  0.173631  0.092742  1
  Hf  Hf11  1  0.012796  0.173631  0.407258  1
  Nb  Nb12  1  0.657227  0.171183  0.622892  1
  Nb  Nb13  1  0.157227  0.328817  0.622892  1
  Nb  Nb14  1  0.342773  0.828817  0.122892  1
  Nb  Nb15  1  0.842773  0.671183  0.122892  1
  Nb  Nb16  1  0.657227  0.171183  0.877108  1
  Nb  Nb17  1  0.157227  0.328817  0.877108  1
  Nb  Nb18  1  0.342773  0.828817  0.377108  1
  Nb  Nb19  1  0.842773  0.671183  0.377108  1
  Ge  Ge20  1  0.954006  0.115224  0.750000  1
  Ge  Ge21  1  0.816281  0.464457  0.961711  1
  Ge  Ge22  1  0.809219  0.354561  0.250000  1
  Ge  Ge23  1  0.690781  0.854561  0.750000  1
  Ge  Ge24  1  0.545994  0.615224  0.250000  1
  Ge  Ge25  1  0.683719  0.964457  0.461711  1
  Ge  Ge26  1  0.316281  0.035543  0.961711  1
  Ge  Ge27  1  0.816281  0.464457  0.538289  1
  Ge  Ge28  1  0.045994  0.884776  0.250000  1
  Ge  Ge29  1  0.183719  0.535543  0.038289  1
  Ge  Ge30  1  0.316281  0.035543  0.538289  1
  Ge  Ge31  1  0.190781  0.645439  0.750000  1
  Ge  Ge32  1  0.683719  0.964457  0.038289  1
  Ge  Ge33  1  0.309219  0.145439  0.250000  1
  Ge  Ge34  1  0.454006  0.384776  0.750000  1
  Ge  Ge35  1  0.183719  0.535543  0.461711  1
