# generated using pymatgen
data_Ba2Si3O8
_symmetry_space_group_name_H-M   'P 1'
_cell_length_a   12.66486246
_cell_length_b   4.75581300
_cell_length_c   14.14900338
_cell_angle_alpha   90.00000000
_cell_angle_beta   93.47238118
_cell_angle_gamma   90.00000000
_symmetry_Int_Tables_number   1
_chemical_formula_structural   Ba2Si3O8
_chemical_formula_sum   'Ba8 Si12 O32'
_cell_volume   850.65419554
_cell_formula_units_Z   4
loop_
 _symmetry_equiv_pos_site_id
 _symmetry_equiv_pos_as_xyz
  1  'x, y, z'
loop_
 _atom_site_type_symbol
 _atom_site_label
 _atom_site_symmetry_multiplicity
 _atom_site_fract_x
 _atom_site_fract_y
 _atom_site_fract_z
 _atom_site_occupancy
  Ba  Ba0  1  0.855906  0.755435  0.532500  1
  Ba  Ba1  1  0.144094  0.255435  0.967500  1
  Ba  Ba2  1  0.144094  0.244565  0.467500  1
  Ba  Ba3  1  0.855906  0.744565  0.032500  1
  Ba  Ba4  1  0.582480  0.273276  0.610307  1
  Ba  Ba5  1  0.417520  0.773276  0.889693  1
  Ba  Ba6  1  0.417520  0.726724  0.389693  1
  Ba  Ba7  1  0.582480  0.226724  0.110307  1
  Si  Si8  1  0.973233  0.820182  0.812317  1
  Si  Si9  1  0.026767  0.320182  0.687683  1
  Si  Si10  1  0.026767  0.179818  0.187683  1
  Si  Si11  1  0.973233  0.679818  0.312317  1
  Si  Si12  1  0.723853  0.820296  0.777043  1
  Si  Si13  1  0.276147  0.320296  0.722957  1
  Si  Si14  1  0.276147  0.179704  0.222957  1
  Si  Si15  1  0.723853  0.679704  0.277043  1
  Si  Si16  1  0.648981  0.313579  0.889112  1
  Si  Si17  1  0.351019  0.813579  0.610888  1
  Si  Si18  1  0.351019  0.686421  0.110888  1
  Si  Si19  1  0.648981  0.186421  0.389112  1
  O  O20  1  0.002325  0.149086  0.785632  1
  O  O21  1  0.997675  0.649086  0.714368  1
  O  O22  1  0.997675  0.850914  0.214368  1
  O  O23  1  0.002325  0.350914  0.285632  1
  O  O24  1  0.034113  0.735952  0.910443  1
  O  O25  1  0.965887  0.235952  0.589557  1
  O  O26  1  0.965887  0.264048  0.089557  1
  O  O27  1  0.034113  0.764048  0.410443  1
  O  O28  1  0.844912  0.799242  0.827485  1
  O  O29  1  0.155088  0.299242  0.672515  1
  O  O30  1  0.155088  0.200758  0.172515  1
  O  O31  1  0.844912  0.700758  0.327485  1
  O  O32  1  0.713795  0.737280  0.667527  1
  O  O33  1  0.286205  0.237280  0.832473  1
  O  O34  1  0.286205  0.262720  0.332473  1
  O  O35  1  0.713795  0.762720  0.167527  1
  O  O36  1  0.680779  0.146019  0.790170  1
  O  O37  1  0.319221  0.646019  0.709830  1
  O  O38  1  0.319221  0.853981  0.209830  1
  O  O39  1  0.680779  0.353981  0.290170  1
  O  O40  1  0.528607  0.248413  0.415765  1
  O  O41  1  0.471393  0.748413  0.084235  1
  O  O42  1  0.471393  0.751587  0.584235  1
  O  O43  1  0.528607  0.251587  0.915765  1
  O  O44  1  0.733242  0.231828  0.478264  1
  O  O45  1  0.266758  0.731828  0.021736  1
  O  O46  1  0.266758  0.768172  0.521736  1
  O  O47  1  0.733242  0.268172  0.978264  1
  O  O48  1  0.648455  0.853578  0.349076  1
  O  O49  1  0.351545  0.353578  0.150924  1
  O  O50  1  0.351545  0.146422  0.650924  1
  O  O51  1  0.648455  0.646422  0.849076  1
