# generated using pymatgen
data_CaAl2Si2(H2O5)2
_symmetry_space_group_name_H-M   'P 1'
_cell_length_a   5.94890010
_cell_length_b   8.84400315
_cell_length_c   13.17551694
_cell_angle_alpha   90.00000000
_cell_angle_beta   90.00000000
_cell_angle_gamma   90.00000000
_symmetry_Int_Tables_number   1
_chemical_formula_structural   CaAl2Si2(H2O5)2
_chemical_formula_sum   'Ca4 Al8 Si8 H16 O40'
_cell_volume   693.19149916
_cell_formula_units_Z   4
loop_
 _symmetry_equiv_pos_site_id
 _symmetry_equiv_pos_as_xyz
  1  'x, y, z'
loop_
 _atom_site_type_symbol
 _atom_site_label
 _atom_site_symmetry_multiplicity
 _atom_site_fract_x
 _atom_site_fract_y
 _atom_site_fract_z
 _atom_site_occupancy
  Ca  Ca0  1  0.234125  0.582754  0.751943  1
  Ca  Ca1  1  0.734125  0.417246  0.248057  1
  Ca  Ca2  1  0.234125  0.917246  0.251943  1
  Ca  Ca3  1  0.734125  0.082754  0.748057  1
  Al  Al4  1  0.497417  0.000528  0.499080  1
  Al  Al5  1  0.003906  0.996328  0.998062  1
  Al  Al6  1  0.503906  0.003672  0.001938  1
  Al  Al7  1  0.003906  0.503672  0.498062  1
  Al  Al8  1  0.503906  0.496328  0.501938  1
  Al  Al9  1  0.997417  0.999472  0.500920  1
  Al  Al10  1  0.997417  0.500528  0.000920  1
  Al  Al11  1  0.497417  0.499472  0.999080  1
  Si  Si12  1  0.251083  0.225753  0.865681  1
  Si  Si13  1  0.247524  0.271474  0.131310  1
  Si  Si14  1  0.747524  0.728526  0.868690  1
  Si  Si15  1  0.747524  0.771474  0.368690  1
  Si  Si16  1  0.247524  0.228526  0.631310  1
  Si  Si17  1  0.751083  0.725753  0.634319  1
  Si  Si18  1  0.751083  0.774247  0.134319  1
  Si  Si19  1  0.251083  0.274247  0.365681  1
  H  H20  1  0.275689  0.833915  0.894201  1
  H  H21  1  0.775689  0.166085  0.105799  1
  H  H22  1  0.275689  0.666085  0.394201  1
  H  H23  1  0.775689  0.333915  0.605799  1
  H  H24  1  0.249516  0.781496  0.523540  1
  H  H25  1  0.749516  0.218504  0.476460  1
  H  H26  1  0.249516  0.718504  0.023540  1
  H  H27  1  0.749516  0.281496  0.976460  1
  H  H28  1  0.178377  0.944499  0.776603  1
  H  H29  1  0.678377  0.055501  0.223397  1
  H  H30  1  0.178377  0.555501  0.276603  1
  H  H31  1  0.678377  0.444499  0.723397  1
  H  H32  1  0.255958  0.877219  0.669583  1
  H  H33  1  0.755958  0.122781  0.330417  1
  H  H34  1  0.255958  0.622781  0.169583  1
  H  H35  1  0.755958  0.377219  0.830417  1
  O  O36  1  0.532234  0.613050  0.625629  1
  O  O37  1  0.761109  0.139843  0.253802  1
  O  O38  1  0.260085  0.879109  0.961336  1
  O  O39  1  0.761109  0.360157  0.753802  1
  O  O40  1  0.756628  0.799117  0.751251  1
  O  O41  1  0.256628  0.200883  0.248749  1
  O  O42  1  0.756628  0.700883  0.251251  1
  O  O43  1  0.256628  0.299117  0.748749  1
  O  O44  1  0.032234  0.113050  0.874371  1
  O  O45  1  0.532234  0.886950  0.125629  1
  O  O46  1  0.032234  0.386950  0.374371  1
  O  O47  1  0.261109  0.860157  0.746198  1
  O  O48  1  0.020236  0.126508  0.618201  1
  O  O49  1  0.520236  0.873492  0.381799  1
  O  O50  1  0.020236  0.373492  0.118201  1
  O  O51  1  0.520236  0.626508  0.881799  1
  O  O52  1  0.475113  0.371094  0.114307  1
  O  O53  1  0.975113  0.628906  0.885693  1
  O  O54  1  0.475113  0.128906  0.614307  1
  O  O55  1  0.975113  0.871094  0.385693  1
  O  O56  1  0.478000  0.374514  0.383124  1
  O  O57  1  0.978000  0.625486  0.616876  1
  O  O58  1  0.478000  0.125486  0.883124  1
  O  O59  1  0.978000  0.874514  0.116876  1
  O  O60  1  0.747667  0.886185  0.937391  1
  O  O61  1  0.247667  0.113815  0.062609  1
  O  O62  1  0.747667  0.613815  0.437391  1
  O  O63  1  0.247667  0.386185  0.562609  1
  O  O64  1  0.743305  0.883424  0.565678  1
  O  O65  1  0.243305  0.116576  0.434322  1
  O  O66  1  0.743305  0.616576  0.065678  1
  O  O67  1  0.243305  0.383424  0.934322  1
  O  O68  1  0.749428  0.388050  0.950140  1
  O  O69  1  0.249428  0.611950  0.049860  1
  O  O70  1  0.749428  0.111950  0.450140  1
  O  O71  1  0.249428  0.888050  0.549860  1
  O  O72  1  0.760085  0.379109  0.538664  1
  O  O73  1  0.260085  0.620891  0.461336  1
  O  O74  1  0.760085  0.120891  0.038664  1
  O  O75  1  0.261109  0.639843  0.246198  1
