# generated using pymatgen
data_Fe(SiO3)2
_symmetry_space_group_name_H-M   'P 1'
_cell_length_a   6.55880943
_cell_length_b   6.55880943
_cell_length_c   5.36254356
_cell_angle_alpha   75.88587533
_cell_angle_beta   104.11412467
_cell_angle_gamma   95.97570565
_symmetry_Int_Tables_number   1
_chemical_formula_structural   Fe(SiO3)2
_chemical_formula_sum   'Fe2 Si4 O12'
_cell_volume   216.72356954
_cell_formula_units_Z   2
loop_
 _symmetry_equiv_pos_site_id
 _symmetry_equiv_pos_as_xyz
  1  'x, y, z'
loop_
 _atom_site_type_symbol
 _atom_site_label
 _atom_site_symmetry_multiplicity
 _atom_site_fract_x
 _atom_site_fract_y
 _atom_site_fract_z
 _atom_site_occupancy
  Fe  Fe0  1  0.100554  0.100554  0.250000  1
  Fe  Fe1  1  0.899446  0.899446  0.750000  1
  Si  Si2  1  0.382075  0.789407  0.741380  1
  Si  Si3  1  0.210593  0.617925  0.241380  1
  Si  Si4  1  0.617925  0.210593  0.258620  1
  Si  Si5  1  0.789407  0.382075  0.758620  1
  O  O6  1  0.810952  0.043112  0.364853  1
  O  O7  1  0.903722  0.615657  0.717675  1
  O  O8  1  0.956888  0.189048  0.864853  1
  O  O9  1  0.355516  0.643159  0.527534  1
  O  O10  1  0.615657  0.903722  0.782325  1
  O  O11  1  0.043112  0.810952  0.135147  1
  O  O12  1  0.096278  0.384343  0.282325  1
  O  O13  1  0.384343  0.096278  0.217675  1
  O  O14  1  0.356841  0.644484  0.027534  1
  O  O15  1  0.643159  0.355516  0.972466  1
  O  O16  1  0.189048  0.956888  0.635147  1
  O  O17  1  0.644484  0.356841  0.472466  1
