# generated using pymatgen
data_V3Sb2
_symmetry_space_group_name_H-M   'P 1'
_cell_length_a   7.53451018
_cell_length_b   7.53451018
_cell_length_c   7.53451018
_cell_angle_alpha   42.96213942
_cell_angle_beta   42.96213942
_cell_angle_gamma   42.96213942
_symmetry_Int_Tables_number   1
_chemical_formula_structural   V3Sb2
_chemical_formula_sum   'V6 Sb4'
_cell_volume   180.05404429
_cell_formula_units_Z   2
loop_
 _symmetry_equiv_pos_site_id
 _symmetry_equiv_pos_as_xyz
  1  'x, y, z'
loop_
 _atom_site_type_symbol
 _atom_site_label
 _atom_site_symmetry_multiplicity
 _atom_site_fract_x
 _atom_site_fract_y
 _atom_site_fract_z
 _atom_site_occupancy
  V  V0  1  0.397671  0.873079  0.397671  1
  V  V1  1  0.397671  0.397671  0.873079  1
  V  V2  1  0.873079  0.397671  0.397671  1
  V  V3  1  0.602329  0.126921  0.602329  1
  V  V4  1  0.602329  0.602329  0.126921  1
  V  V5  1  0.126921  0.602329  0.602329  1
  Sb  Sb6  1  0.889982  0.889982  0.889982  1
  Sb  Sb7  1  0.110018  0.110018  0.110018  1
  Sb  Sb8  1  0.668685  0.668685  0.668685  1
  Sb  Sb9  1  0.331315  0.331315  0.331315  1
