# generated using pymatgen
data_Li2CrCl4
_symmetry_space_group_name_H-M   'P 1'
_cell_length_a   7.17812230
_cell_length_b   7.17812230
_cell_length_c   7.57043354
_cell_angle_alpha   62.33009184
_cell_angle_beta   117.66990816
_cell_angle_gamma   90.95273981
_symmetry_Int_Tables_number   1
_chemical_formula_structural   Li2CrCl4
_chemical_formula_sum   'Li4 Cr2 Cl8'
_cell_volume   295.94020364
_cell_formula_units_Z   2
loop_
 _symmetry_equiv_pos_site_id
 _symmetry_equiv_pos_as_xyz
  1  'x, y, z'
loop_
 _atom_site_type_symbol
 _atom_site_label
 _atom_site_symmetry_multiplicity
 _atom_site_fract_x
 _atom_site_fract_y
 _atom_site_fract_z
 _atom_site_occupancy
  Li  Li0  1  0.105452  0.105452  0.250000  1
  Li  Li1  1  0.894548  0.894548  0.750000  1
  Li  Li2  1  0.500000  0.500000  0.000000  1
  Li  Li3  1  0.500000  0.500000  0.500000  1
  Cr  Cr4  1  0.000000  0.500000  0.500000  1
  Cr  Cr5  1  0.500000  0.000000  0.000000  1
  Cl  Cl6  1  0.744840  0.281199  0.473019  1
  Cl  Cl7  1  0.770936  0.731989  0.508161  1
  Cl  Cl8  1  0.731989  0.770936  0.991839  1
  Cl  Cl9  1  0.229064  0.268011  0.491839  1
  Cl  Cl10  1  0.268011  0.229064  0.008161  1
  Cl  Cl11  1  0.255160  0.718801  0.526981  1
  Cl  Cl12  1  0.718801  0.255160  0.973019  1
  Cl  Cl13  1  0.281199  0.744840  0.026981  1
