# generated using pymatgen
data_USe2
_symmetry_space_group_name_H-M   'P 1'
_cell_length_a   4.14405322
_cell_length_b   7.49801252
_cell_length_c   9.07604665
_cell_angle_alpha   90.00000000
_cell_angle_beta   90.00000000
_cell_angle_gamma   90.00000000
_symmetry_Int_Tables_number   1
_chemical_formula_structural   USe2
_chemical_formula_sum   'U4 Se8'
_cell_volume   282.01240024
_cell_formula_units_Z   4
loop_
 _symmetry_equiv_pos_site_id
 _symmetry_equiv_pos_as_xyz
  1  'x, y, z'
loop_
 _atom_site_type_symbol
 _atom_site_label
 _atom_site_symmetry_multiplicity
 _atom_site_fract_x
 _atom_site_fract_y
 _atom_site_fract_z
 _atom_site_occupancy
  U  U0  1  0.250000  0.253413  0.369967  1
  U  U1  1  0.750000  0.746587  0.630033  1
  U  U2  1  0.250000  0.753413  0.130033  1
  U  U3  1  0.750000  0.246587  0.869967  1
  Se  Se4  1  0.250000  0.531800  0.835090  1
  Se  Se5  1  0.750000  0.468200  0.164910  1
  Se  Se6  1  0.250000  0.031800  0.664910  1
  Se  Se7  1  0.750000  0.968200  0.335090  1
  Se  Se8  1  0.250000  0.140435  0.068927  1
  Se  Se9  1  0.750000  0.859565  0.931073  1
  Se  Se10  1  0.250000  0.640435  0.431073  1
  Se  Se11  1  0.750000  0.359565  0.568927  1
