# generated using pymatgen
data_Tl2CuH12(SO7)2
_symmetry_space_group_name_H-M   'P 1'
_cell_length_a   6.29940220
_cell_length_b   12.50898267
_cell_length_c   9.29256897
_cell_angle_alpha   90.00000000
_cell_angle_beta   104.61581031
_cell_angle_gamma   90.00000000
_symmetry_Int_Tables_number   1
_chemical_formula_structural   Tl2CuH12(SO7)2
_chemical_formula_sum   'Tl4 Cu2 H24 S4 O28'
_cell_volume   708.55039581
_cell_formula_units_Z   2
loop_
 _symmetry_equiv_pos_site_id
 _symmetry_equiv_pos_as_xyz
  1  'x, y, z'
loop_
 _atom_site_type_symbol
 _atom_site_label
 _atom_site_symmetry_multiplicity
 _atom_site_fract_x
 _atom_site_fract_y
 _atom_site_fract_z
 _atom_site_occupancy
  Tl  Tl0  1  0.655933  0.354151  0.874648  1
  Tl  Tl1  1  0.344067  0.854151  0.625352  1
  Tl  Tl2  1  0.344067  0.645849  0.125352  1
  Tl  Tl3  1  0.655933  0.145849  0.374648  1
  Cu  Cu4  1  0.000000  0.500000  0.500000  1
  Cu  Cu5  1  0.000000  0.000000  0.000000  1
  H  H6  1  0.696031  0.641487  0.467518  1
  H  H7  1  0.303969  0.141487  0.032482  1
  H  H8  1  0.303969  0.358513  0.532482  1
  H  H9  1  0.696031  0.858513  0.967518  1
  H  H10  1  0.678317  0.563492  0.600599  1
  H  H11  1  0.321683  0.063492  0.899401  1
  H  H12  1  0.078756  0.393521  0.798961  1
  H  H13  1  0.921244  0.893521  0.701039  1
  H  H14  1  0.921244  0.606479  0.201039  1
  H  H15  1  0.078756  0.106479  0.298961  1
  H  H16  1  0.916210  0.379140  0.268034  1
  H  H17  1  0.083790  0.879140  0.231966  1
  H  H18  1  0.083790  0.620860  0.731966  1
  H  H19  1  0.916210  0.120860  0.768034  1
  H  H20  1  0.684072  0.410835  0.302741  1
  H  H21  1  0.315928  0.910835  0.197259  1
  H  H22  1  0.315928  0.589165  0.697259  1
  H  H23  1  0.684072  0.089165  0.802741  1
  H  H24  1  0.997900  0.804177  0.823315  1
  H  H25  1  0.002100  0.304177  0.676685  1
  H  H26  1  0.678317  0.936508  0.100599  1
  H  H27  1  0.321683  0.436508  0.399401  1
  H  H28  1  0.997900  0.695823  0.323315  1
  H  H29  1  0.002100  0.195823  0.176685  1
  S  S30  1  0.729220  0.860450  0.388132  1
  S  S31  1  0.270780  0.360450  0.111868  1
  S  S32  1  0.270780  0.139550  0.611868  1
  S  S33  1  0.729220  0.639550  0.888132  1
  O  O34  1  0.159232  0.607956  0.651240  1
  O  O35  1  0.159232  0.892044  0.151240  1
  O  O36  1  0.969163  0.122132  0.203825  1
  O  O37  1  0.030837  0.622132  0.296175  1
  O  O38  1  0.030837  0.877868  0.796175  1
  O  O39  1  0.969163  0.377868  0.703825  1
  O  O40  1  0.716802  0.934501  0.002317  1
  O  O41  1  0.840768  0.107956  0.848760  1
  O  O42  1  0.283198  0.065499  0.997683  1
  O  O43  1  0.716802  0.565499  0.502317  1
  O  O44  1  0.052104  0.332448  0.138500  1
  O  O45  1  0.947896  0.832448  0.361500  1
  O  O46  1  0.947896  0.667552  0.861500  1
  O  O47  1  0.052104  0.167552  0.638500  1
  O  O48  1  0.400247  0.425918  0.240776  1
  O  O49  1  0.599753  0.925918  0.259224  1
  O  O50  1  0.599753  0.574082  0.759224  1
  O  O51  1  0.400247  0.074082  0.740776  1
  O  O52  1  0.241681  0.425314  0.974353  1
  O  O53  1  0.758319  0.925314  0.525647  1
  O  O54  1  0.758319  0.574686  0.025647  1
  O  O55  1  0.241681  0.074686  0.474353  1
  O  O56  1  0.283198  0.434501  0.497683  1
  O  O57  1  0.604284  0.760680  0.398886  1
  O  O58  1  0.604284  0.739320  0.898886  1
  O  O59  1  0.395716  0.239320  0.601114  1
  O  O60  1  0.840768  0.392044  0.348760  1
  O  O61  1  0.395716  0.260680  0.101114  1
