# generated using pymatgen
data_Mo2SBr2
_symmetry_space_group_name_H-M   'P 1'
_cell_length_a   9.88353363
_cell_length_b   9.88353363
_cell_length_c   12.06592884
_cell_angle_alpha   90.00000000
_cell_angle_beta   90.00000000
_cell_angle_gamma   140.30796905
_symmetry_Int_Tables_number   1
_chemical_formula_structural   Mo2SBr2
_chemical_formula_sum   'Mo12 S6 Br12'
_cell_volume   752.75822233
_cell_formula_units_Z   6
loop_
 _symmetry_equiv_pos_site_id
 _symmetry_equiv_pos_as_xyz
  1  'x, y, z'
loop_
 _atom_site_type_symbol
 _atom_site_label
 _atom_site_symmetry_multiplicity
 _atom_site_fract_x
 _atom_site_fract_y
 _atom_site_fract_z
 _atom_site_occupancy
  Mo  Mo0  1  0.744292  0.744292  0.938481  1
  Mo  Mo1  1  0.744292  0.744292  0.561519  1
  Mo  Mo2  1  0.255708  0.255708  0.438481  1
  Mo  Mo3  1  0.255708  0.255708  0.061519  1
  Mo  Mo4  1  0.012341  0.155718  0.898165  1
  Mo  Mo5  1  0.155718  0.012341  0.601835  1
  Mo  Mo6  1  0.987659  0.844282  0.398165  1
  Mo  Mo7  1  0.844282  0.987659  0.101835  1
  Mo  Mo8  1  0.987659  0.844282  0.101835  1
  Mo  Mo9  1  0.844282  0.987659  0.398165  1
  Mo  Mo10  1  0.012341  0.155718  0.601835  1
  Mo  Mo11  1  0.155718  0.012341  0.898165  1
  S  S12  1  0.380911  0.380911  0.628064  1
  S  S13  1  0.380911  0.380911  0.871936  1
  S  S14  1  0.619089  0.619089  0.128064  1
  S  S15  1  0.619089  0.619089  0.371936  1
  S  S16  1  0.911619  0.911619  0.750000  1
  S  S17  1  0.088381  0.088381  0.250000  1
  Br  Br18  1  0.974072  0.631125  0.250000  1
  Br  Br19  1  0.631125  0.974072  0.250000  1
  Br  Br20  1  0.025928  0.368875  0.750000  1
  Br  Br21  1  0.368875  0.025928  0.750000  1
  Br  Br22  1  0.110807  0.395057  0.063454  1
  Br  Br23  1  0.395057  0.110807  0.436546  1
  Br  Br24  1  0.395057  0.110807  0.063454  1
  Br  Br25  1  0.110807  0.395057  0.436546  1
  Br  Br26  1  0.604943  0.889193  0.563454  1
  Br  Br27  1  0.889193  0.604943  0.936546  1
  Br  Br28  1  0.604943  0.889193  0.936546  1
  Br  Br29  1  0.889193  0.604943  0.563454  1
