# generated using pymatgen
data_Ca2InPt2
_symmetry_space_group_name_H-M   'P 1'
_cell_length_a   5.84593662
_cell_length_b   5.84593662
_cell_length_c   8.22868737
_cell_angle_alpha   77.25198125
_cell_angle_beta   102.74801875
_cell_angle_gamma   121.44884299
_symmetry_Int_Tables_number   1
_chemical_formula_structural   Ca2InPt2
_chemical_formula_sum   'Ca4 In2 Pt4'
_cell_volume   232.10303073
_cell_formula_units_Z   2
loop_
 _symmetry_equiv_pos_site_id
 _symmetry_equiv_pos_as_xyz
  1  'x, y, z'
loop_
 _atom_site_type_symbol
 _atom_site_label
 _atom_site_symmetry_multiplicity
 _atom_site_fract_x
 _atom_site_fract_y
 _atom_site_fract_z
 _atom_site_occupancy
  Ca  Ca0  1  0.501850  0.203956  0.649086  1
  Ca  Ca1  1  0.203956  0.501850  0.850914  1
  Ca  Ca2  1  0.498150  0.796044  0.350914  1
  Ca  Ca3  1  0.796044  0.498150  0.149086  1
  In  In4  1  0.848315  0.848315  0.750000  1
  In  In5  1  0.151685  0.151685  0.250000  1
  Pt  Pt6  1  0.275992  0.002801  0.003698  1
  Pt  Pt7  1  0.002801  0.275992  0.496302  1
  Pt  Pt8  1  0.724008  0.997199  0.996302  1
  Pt  Pt9  1  0.997199  0.724008  0.503698  1
