# generated using pymatgen
data_Li2Cu3(P2O7)2
_symmetry_space_group_name_H-M   'P 1'
_cell_length_a   7.24131267
_cell_length_b   8.04286327
_cell_length_c   9.29191512
_cell_angle_alpha   90.00000000
_cell_angle_beta   107.65664742
_cell_angle_gamma   90.00000000
_symmetry_Int_Tables_number   1
_chemical_formula_structural   Li2Cu3(P2O7)2
_chemical_formula_sum   'Li4 Cu6 P8 O28'
_cell_volume   515.67557312
_cell_formula_units_Z   2
loop_
 _symmetry_equiv_pos_site_id
 _symmetry_equiv_pos_as_xyz
  1  'x, y, z'
loop_
 _atom_site_type_symbol
 _atom_site_label
 _atom_site_symmetry_multiplicity
 _atom_site_fract_x
 _atom_site_fract_y
 _atom_site_fract_z
 _atom_site_occupancy
  Li  Li0  1  0.297938  0.589007  0.873126  1
  Li  Li1  1  0.702062  0.410993  0.126874  1
  Li  Li2  1  0.702062  0.089007  0.626874  1
  Li  Li3  1  0.297938  0.910993  0.373126  1
  Cu  Cu4  1  0.191985  0.622349  0.520121  1
  Cu  Cu5  1  0.808015  0.122349  0.979879  1
  Cu  Cu6  1  0.808015  0.377651  0.479879  1
  Cu  Cu7  1  0.191985  0.877651  0.020121  1
  Cu  Cu8  1  0.000000  0.000000  0.500000  1
  Cu  Cu9  1  0.000000  0.500000  0.000000  1
  P  P10  1  0.406201  0.538343  0.283235  1
  P  P11  1  0.108223  0.212624  0.801729  1
  P  P12  1  0.406201  0.961657  0.783235  1
  P  P13  1  0.593799  0.461657  0.716765  1
  P  P14  1  0.891777  0.787376  0.198271  1
  P  P15  1  0.891777  0.712624  0.698271  1
  P  P16  1  0.108223  0.287376  0.301729  1
  P  P17  1  0.593799  0.038343  0.216765  1
  O  O18  1  0.682778  0.642145  0.690417  1
  O  O19  1  0.302933  0.596439  0.122506  1
  O  O20  1  0.015421  0.089420  0.884660  1
  O  O21  1  0.317222  0.142145  0.809583  1
  O  O22  1  0.990675  0.286561  0.130790  1
  O  O23  1  0.619804  0.003449  0.805025  1
  O  O24  1  0.619804  0.496551  0.305025  1
  O  O25  1  0.857844  0.883028  0.623213  1
  O  O26  1  0.380196  0.996551  0.194975  1
  O  O27  1  0.984579  0.589420  0.615340  1
  O  O28  1  0.375082  0.658400  0.402945  1
  O  O29  1  0.624918  0.158400  0.097055  1
  O  O30  1  0.380196  0.503449  0.694975  1
  O  O31  1  0.009325  0.713439  0.869210  1
  O  O32  1  0.697067  0.096439  0.377494  1
  O  O33  1  0.857844  0.616972  0.123213  1
  O  O34  1  0.682778  0.857855  0.190417  1
  O  O35  1  0.302933  0.903561  0.622506  1
  O  O36  1  0.015421  0.410580  0.384660  1
  O  O37  1  0.990675  0.213439  0.630790  1
  O  O38  1  0.009325  0.786561  0.369210  1
  O  O39  1  0.984579  0.910580  0.115340  1
  O  O40  1  0.375082  0.841600  0.902945  1
  O  O41  1  0.317222  0.357855  0.309583  1
  O  O42  1  0.624918  0.341600  0.597055  1
  O  O43  1  0.142156  0.116972  0.376787  1
  O  O44  1  0.697067  0.403561  0.877494  1
  O  O45  1  0.142156  0.383028  0.876787  1
