# generated using pymatgen
data_U2N3
_symmetry_space_group_name_H-M   'P 1'
_cell_length_a   9.23474754
_cell_length_b   9.23474754
_cell_length_c   9.23474754
_cell_angle_alpha   109.47122063
_cell_angle_beta   109.47122063
_cell_angle_gamma   109.47122063
_symmetry_Int_Tables_number   1
_chemical_formula_structural   U2N3
_chemical_formula_sum   'U16 N24'
_cell_volume   606.25200980
_cell_formula_units_Z   8
loop_
 _symmetry_equiv_pos_site_id
 _symmetry_equiv_pos_as_xyz
  1  'x, y, z'
loop_
 _atom_site_type_symbol
 _atom_site_label
 _atom_site_symmetry_multiplicity
 _atom_site_fract_x
 _atom_site_fract_y
 _atom_site_fract_z
 _atom_site_occupancy
  U  U0  1  0.500000  0.500000  0.500000  1
  U  U1  1  1.000000  1.000000  0.500000  1
  U  U2  1  0.500000  1.000000  0.000000  1
  U  U3  1  1.000000  0.500000  0.000000  1
  U  U4  1  0.250000  0.228595  0.978595  1
  U  U5  1  0.271405  0.521405  0.750000  1
  U  U6  1  0.521405  0.750000  0.271405  1
  U  U7  1  0.228595  0.978595  0.250000  1
  U  U8  1  0.978595  0.250000  0.228595  1
  U  U9  1  0.750000  0.271405  0.521405  1
  U  U10  1  0.750000  0.771405  0.021405  1
  U  U11  1  0.728595  0.478595  0.250000  1
  U  U12  1  0.478595  0.250000  0.728595  1
  U  U13  1  0.771405  0.021405  0.750000  1
  U  U14  1  0.021405  0.750000  0.771405  1
  U  U15  1  0.250000  0.728595  0.478595  1
  N  N16  1  0.525278  0.762624  0.528791  1
  N  N17  1  0.996487  0.971209  0.733833  1
  N  N18  1  0.262654  0.766167  0.737376  1
  N  N19  1  0.503513  0.237346  0.974722  1
  N  N20  1  0.971209  0.733833  0.996487  1
  N  N21  1  0.737376  0.262654  0.766167  1
  N  N22  1  0.237346  0.974722  0.503513  1
  N  N23  1  0.528791  0.525278  0.762624  1
  N  N24  1  0.762624  0.528791  0.525278  1
  N  N25  1  0.733833  0.996487  0.971209  1
  N  N26  1  0.766167  0.737376  0.262654  1
  N  N27  1  0.974722  0.503513  0.237346  1
  N  N28  1  0.474722  0.237376  0.471209  1
  N  N29  1  0.003513  0.028791  0.266167  1
  N  N30  1  0.737346  0.233833  0.262624  1
  N  N31  1  0.496487  0.762654  0.025278  1
  N  N32  1  0.028791  0.266167  0.003513  1
  N  N33  1  0.262624  0.737346  0.233833  1
  N  N34  1  0.762654  0.025278  0.496487  1
  N  N35  1  0.471209  0.474722  0.237376  1
  N  N36  1  0.237376  0.471209  0.474722  1
  N  N37  1  0.266167  0.003513  0.028791  1
  N  N38  1  0.233833  0.262624  0.737346  1
  N  N39  1  0.025278  0.496487  0.762654  1
