# generated using pymatgen
data_Y2InCl7
_symmetry_space_group_name_H-M   'P 1'
_cell_length_a   6.98600137
_cell_length_b   12.71176032
_cell_length_c   13.23125842
_cell_angle_alpha   90.00000000
_cell_angle_beta   90.00000000
_cell_angle_gamma   90.00000000
_symmetry_Int_Tables_number   1
_chemical_formula_structural   Y2InCl7
_chemical_formula_sum   'Y8 In4 Cl28'
_cell_volume   1174.99363459
_cell_formula_units_Z   4
loop_
 _symmetry_equiv_pos_site_id
 _symmetry_equiv_pos_as_xyz
  1  'x, y, z'
loop_
 _atom_site_type_symbol
 _atom_site_label
 _atom_site_symmetry_multiplicity
 _atom_site_fract_x
 _atom_site_fract_y
 _atom_site_fract_z
 _atom_site_occupancy
  Y  Y0  1  0.250000  0.964809  0.736960  1
  Y  Y1  1  0.750000  0.035191  0.263040  1
  Y  Y2  1  0.750000  0.464809  0.763040  1
  Y  Y3  1  0.250000  0.535191  0.236960  1
  Y  Y4  1  0.250000  0.662442  0.748119  1
  Y  Y5  1  0.750000  0.337558  0.251881  1
  Y  Y6  1  0.750000  0.162442  0.751881  1
  Y  Y7  1  0.250000  0.837558  0.248119  1
  In  In8  1  0.250000  0.301733  0.539002  1
  In  In9  1  0.750000  0.698267  0.460998  1
  In  In10  1  0.750000  0.801733  0.960998  1
  In  In11  1  0.250000  0.198267  0.039002  1
  Cl  Cl12  1  0.990950  0.455359  0.369297  1
  Cl  Cl13  1  0.490950  0.544641  0.630703  1
  Cl  Cl14  1  0.009050  0.955359  0.130703  1
  Cl  Cl15  1  0.509050  0.044641  0.869297  1
  Cl  Cl16  1  0.009050  0.544641  0.630703  1
  Cl  Cl17  1  0.509050  0.455359  0.369297  1
  Cl  Cl18  1  0.990950  0.044641  0.869297  1
  Cl  Cl19  1  0.490950  0.955359  0.130703  1
  Cl  Cl20  1  0.011050  0.416057  0.120714  1
  Cl  Cl21  1  0.511050  0.583943  0.879286  1
  Cl  Cl22  1  0.988950  0.916057  0.379286  1
  Cl  Cl23  1  0.488950  0.083943  0.620714  1
  Cl  Cl24  1  0.250000  0.683743  0.392333  1
  Cl  Cl25  1  0.750000  0.316257  0.607667  1
  Cl  Cl26  1  0.750000  0.183743  0.107667  1
  Cl  Cl27  1  0.250000  0.816257  0.892333  1
  Cl  Cl28  1  0.491793  0.688328  0.173403  1
  Cl  Cl29  1  0.991793  0.311672  0.826597  1
  Cl  Cl30  1  0.508207  0.188328  0.326597  1
  Cl  Cl31  1  0.008207  0.811672  0.673403  1
  Cl  Cl32  1  0.508207  0.311672  0.826597  1
  Cl  Cl33  1  0.008207  0.688328  0.173403  1
  Cl  Cl34  1  0.491793  0.811672  0.673403  1
  Cl  Cl35  1  0.991793  0.188328  0.326597  1
  Cl  Cl36  1  0.511050  0.916057  0.379286  1
  Cl  Cl37  1  0.011050  0.083943  0.620714  1
  Cl  Cl38  1  0.488950  0.416057  0.120714  1
  Cl  Cl39  1  0.988950  0.583943  0.879286  1
