# generated using pymatgen
data_Bi2PdO4
_symmetry_space_group_name_H-M   'P 1'
_cell_length_a   8.61246564
_cell_length_b   8.61246564
_cell_length_c   6.16996686
_cell_angle_alpha   90.00000000
_cell_angle_beta   90.00000000
_cell_angle_gamma   90.00000000
_symmetry_Int_Tables_number   1
_chemical_formula_structural   Bi2PdO4
_chemical_formula_sum   'Bi8 Pd4 O16'
_cell_volume   457.65460420
_cell_formula_units_Z   4
loop_
 _symmetry_equiv_pos_site_id
 _symmetry_equiv_pos_as_xyz
  1  'x, y, z'
loop_
 _atom_site_type_symbol
 _atom_site_label
 _atom_site_symmetry_multiplicity
 _atom_site_fract_x
 _atom_site_fract_y
 _atom_site_fract_z
 _atom_site_occupancy
  Bi  Bi0  1  0.326559  0.673441  0.750000  1
  Bi  Bi1  1  0.173441  0.173441  0.750000  1
  Bi  Bi2  1  0.826559  0.826559  0.750000  1
  Bi  Bi3  1  0.673441  0.326559  0.750000  1
  Bi  Bi4  1  0.173441  0.826559  0.250000  1
  Bi  Bi5  1  0.326559  0.326559  0.250000  1
  Bi  Bi6  1  0.673441  0.673441  0.250000  1
  Bi  Bi7  1  0.826559  0.173441  0.250000  1
  Pd  Pd8  1  0.000000  0.500000  0.580038  1
  Pd  Pd9  1  0.500000  0.000000  0.919962  1
  Pd  Pd10  1  0.500000  0.000000  0.419962  1
  Pd  Pd11  1  0.000000  0.500000  0.080038  1
  O  O12  1  0.215458  0.398424  0.587489  1
  O  O13  1  0.784542  0.601576  0.587489  1
  O  O14  1  0.101576  0.715458  0.587489  1
  O  O15  1  0.898424  0.284542  0.587489  1
  O  O16  1  0.398424  0.215458  0.912511  1
  O  O17  1  0.715458  0.101576  0.912511  1
  O  O18  1  0.284542  0.898424  0.912511  1
  O  O19  1  0.601576  0.784542  0.912511  1
  O  O20  1  0.284542  0.101576  0.412511  1
  O  O21  1  0.715458  0.898424  0.412511  1
  O  O22  1  0.398424  0.784542  0.412511  1
  O  O23  1  0.601576  0.215458  0.412511  1
  O  O24  1  0.898424  0.715458  0.087489  1
  O  O25  1  0.215458  0.601576  0.087489  1
  O  O26  1  0.784542  0.398424  0.087489  1
  O  O27  1  0.101576  0.284542  0.087489  1
