# generated using pymatgen
data_SnPd
_symmetry_space_group_name_H-M   'P 1'
_cell_length_a   3.90942452
_cell_length_b   6.33605568
_cell_length_c   6.46066229
_cell_angle_alpha   90.00000000
_cell_angle_beta   90.00000000
_cell_angle_gamma   90.00000000
_symmetry_Int_Tables_number   1
_chemical_formula_structural   SnPd
_chemical_formula_sum   'Sn4 Pd4'
_cell_volume   160.03274622
_cell_formula_units_Z   4
loop_
 _symmetry_equiv_pos_site_id
 _symmetry_equiv_pos_as_xyz
  1  'x, y, z'
loop_
 _atom_site_type_symbol
 _atom_site_label
 _atom_site_symmetry_multiplicity
 _atom_site_fract_x
 _atom_site_fract_y
 _atom_site_fract_z
 _atom_site_occupancy
  Sn  Sn0  1  0.750000  0.307992  0.908649  1
  Sn  Sn1  1  0.750000  0.807992  0.591351  1
  Sn  Sn2  1  0.250000  0.692008  0.091351  1
  Sn  Sn3  1  0.250000  0.192008  0.408649  1
  Pd  Pd4  1  0.750000  0.489908  0.312694  1
  Pd  Pd5  1  0.750000  0.989908  0.187306  1
  Pd  Pd6  1  0.250000  0.510092  0.687306  1
  Pd  Pd7  1  0.250000  0.010092  0.812694  1
