# generated using pymatgen
data_Ti(CuS)4
_symmetry_space_group_name_H-M   'P 1'
_cell_length_a   6.55423748
_cell_length_b   6.55423748
_cell_length_c   6.55423748
_cell_angle_alpha   130.93779972
_cell_angle_beta   130.93779972
_cell_angle_gamma   71.91192087
_symmetry_Int_Tables_number   1
_chemical_formula_structural   Ti(CuS)4
_chemical_formula_sum   'Ti1 Cu4 S4'
_cell_volume   157.14993682
_cell_formula_units_Z   1
loop_
 _symmetry_equiv_pos_site_id
 _symmetry_equiv_pos_as_xyz
  1  'x, y, z'
loop_
 _atom_site_type_symbol
 _atom_site_label
 _atom_site_symmetry_multiplicity
 _atom_site_fract_x
 _atom_site_fract_y
 _atom_site_fract_z
 _atom_site_occupancy
  Ti  Ti0  1  0.000000  0.000000  0.000000  1
  Cu  Cu1  1  0.500000  1.000000  0.500000  1
  Cu  Cu2  1  0.000000  0.500000  0.500000  1
  Cu  Cu3  1  0.258148  0.258148  0.000000  1
  Cu  Cu4  1  0.741852  0.741852  0.000000  1
  S  S5  1  0.881210  0.369625  0.000000  1
  S  S6  1  0.630375  0.630375  0.511585  1
  S  S7  1  0.118790  0.118790  0.488415  1
  S  S8  1  0.369625  0.881210  0.000000  1
