# generated using pymatgen
data_Ta3Br7
_symmetry_space_group_name_H-M   'P 1'
_cell_length_a   10.32343596
_cell_length_b   10.32343596
_cell_length_c   11.94127148
_cell_angle_alpha   90.00000000
_cell_angle_beta   90.00000000
_cell_angle_gamma   92.97386831
_symmetry_Int_Tables_number   1
_chemical_formula_structural   Ta3Br7
_chemical_formula_sum   'Ta12 Br28'
_cell_volume   1270.90722728
_cell_formula_units_Z   4
loop_
 _symmetry_equiv_pos_site_id
 _symmetry_equiv_pos_as_xyz
  1  'x, y, z'
loop_
 _atom_site_type_symbol
 _atom_site_label
 _atom_site_symmetry_multiplicity
 _atom_site_fract_x
 _atom_site_fract_y
 _atom_site_fract_z
 _atom_site_occupancy
  Ta  Ta0  1  0.610964  0.389036  0.920689  1
  Ta  Ta1  1  0.889036  0.110964  0.420689  1
  Ta  Ta2  1  0.110964  0.889036  0.579311  1
  Ta  Ta3  1  0.389036  0.610964  0.079311  1
  Ta  Ta4  1  0.443881  0.345292  0.108670  1
  Ta  Ta5  1  0.056119  0.154708  0.608670  1
  Ta  Ta6  1  0.154708  0.056119  0.391330  1
  Ta  Ta7  1  0.345292  0.443881  0.891330  1
  Ta  Ta8  1  0.556119  0.654708  0.891330  1
  Ta  Ta9  1  0.943881  0.845292  0.391330  1
  Ta  Ta10  1  0.845292  0.943881  0.608670  1
  Ta  Ta11  1  0.654708  0.556119  0.108670  1
  Br  Br12  1  0.372980  0.127020  0.250000  1
  Br  Br13  1  0.127020  0.372980  0.750000  1
  Br  Br14  1  0.627020  0.872980  0.750000  1
  Br  Br15  1  0.872980  0.627020  0.250000  1
  Br  Br16  1  0.585694  0.164437  0.020672  1
  Br  Br17  1  0.914306  0.335563  0.520672  1
  Br  Br18  1  0.335563  0.914306  0.479328  1
  Br  Br19  1  0.164437  0.585694  0.979328  1
  Br  Br20  1  0.414306  0.835563  0.979328  1
  Br  Br21  1  0.085694  0.664437  0.479328  1
  Br  Br22  1  0.664437  0.085694  0.520672  1
  Br  Br23  1  0.835563  0.414306  0.020672  1
  Br  Br24  1  0.620851  0.379149  0.265203  1
  Br  Br25  1  0.879149  0.120851  0.765203  1
  Br  Br26  1  0.120851  0.879149  0.234797  1
  Br  Br27  1  0.379149  0.620851  0.734797  1
  Br  Br28  1  0.755820  0.755820  0.000000  1
  Br  Br29  1  0.744180  0.744180  0.500000  1
  Br  Br30  1  0.244180  0.244180  0.000000  1
  Br  Br31  1  0.255820  0.255820  0.500000  1
  Br  Br32  1  0.531589  0.715573  0.238532  1
  Br  Br33  1  0.968411  0.784427  0.738532  1
  Br  Br34  1  0.784427  0.968411  0.261468  1
  Br  Br35  1  0.715573  0.531589  0.761468  1
  Br  Br36  1  0.468411  0.284427  0.761468  1
  Br  Br37  1  0.031589  0.215573  0.261468  1
  Br  Br38  1  0.215573  0.031589  0.738532  1
  Br  Br39  1  0.284427  0.468411  0.238532  1
