# generated using pymatgen
data_LiYb2Cl5
_symmetry_space_group_name_H-M   'P 1'
_cell_length_a   8.24570846
_cell_length_b   8.24570846
_cell_length_c   7.07439697
_cell_angle_alpha   84.99476340
_cell_angle_beta   95.00523660
_cell_angle_gamma   133.67759949
_symmetry_Int_Tables_number   1
_chemical_formula_structural   LiYb2Cl5
_chemical_formula_sum   'Li2 Yb4 Cl10'
_cell_volume   346.30745821
_cell_formula_units_Z   2
loop_
 _symmetry_equiv_pos_site_id
 _symmetry_equiv_pos_as_xyz
  1  'x, y, z'
loop_
 _atom_site_type_symbol
 _atom_site_label
 _atom_site_symmetry_multiplicity
 _atom_site_fract_x
 _atom_site_fract_y
 _atom_site_fract_z
 _atom_site_occupancy
  Li  Li0  1  1.000000  0.500000  0.000000  1
  Li  Li1  1  0.500000  1.000000  0.500000  1
  Yb  Yb2  1  0.124786  0.330855  0.430774  1
  Yb  Yb3  1  0.669145  0.875214  0.930774  1
  Yb  Yb4  1  0.875214  0.669145  0.569226  1
  Yb  Yb5  1  0.330855  0.124786  0.069226  1
  Cl  Cl6  1  0.526977  0.708173  0.576532  1
  Cl  Cl7  1  0.064326  0.064326  0.750000  1
  Cl  Cl8  1  0.935674  0.935674  0.250000  1
  Cl  Cl9  1  0.854427  0.291912  0.682324  1
  Cl  Cl10  1  0.145573  0.708088  0.317676  1
  Cl  Cl11  1  0.708088  0.145573  0.182324  1
  Cl  Cl12  1  0.291912  0.854427  0.817676  1
  Cl  Cl13  1  0.473023  0.291827  0.423468  1
  Cl  Cl14  1  0.291827  0.473023  0.076532  1
  Cl  Cl15  1  0.708173  0.526977  0.923468  1
