# generated using pymatgen
data_PrSnPd
_symmetry_space_group_name_H-M   'P 1'
_cell_length_a   4.73940861
_cell_length_b   7.60183726
_cell_length_c   8.06903481
_cell_angle_alpha   90.00000000
_cell_angle_beta   90.00000000
_cell_angle_gamma   90.00000000
_symmetry_Int_Tables_number   1
_chemical_formula_structural   PrSnPd
_chemical_formula_sum   'Pr4 Sn4 Pd4'
_cell_volume   290.71290453
_cell_formula_units_Z   4
loop_
 _symmetry_equiv_pos_site_id
 _symmetry_equiv_pos_as_xyz
  1  'x, y, z'
loop_
 _atom_site_type_symbol
 _atom_site_label
 _atom_site_symmetry_multiplicity
 _atom_site_fract_x
 _atom_site_fract_y
 _atom_site_fract_z
 _atom_site_occupancy
  Pr  Pr0  1  0.250000  0.486914  0.700584  1
  Pr  Pr1  1  0.750000  0.513086  0.299416  1
  Pr  Pr2  1  0.250000  0.986914  0.799416  1
  Pr  Pr3  1  0.750000  0.013086  0.200584  1
  Sn  Sn4  1  0.250000  0.813775  0.413200  1
  Sn  Sn5  1  0.750000  0.686225  0.913200  1
  Sn  Sn6  1  0.250000  0.313775  0.086800  1
  Sn  Sn7  1  0.750000  0.186225  0.586800  1
  Pd  Pd8  1  0.750000  0.300051  0.913936  1
  Pd  Pd9  1  0.250000  0.199949  0.413936  1
  Pd  Pd10  1  0.750000  0.800051  0.586064  1
  Pd  Pd11  1  0.250000  0.699949  0.086064  1
