# generated using pymatgen
data_Tb(HO)3
_symmetry_space_group_name_H-M   'P 1'
_cell_length_a   6.34241871
_cell_length_b   6.34241871
_cell_length_c   3.59023683
_cell_angle_alpha   90.00000000
_cell_angle_beta   90.00000000
_cell_angle_gamma   120.00000000
_symmetry_Int_Tables_number   1
_chemical_formula_structural   Tb(HO)3
_chemical_formula_sum   'Tb2 H6 O6'
_cell_volume   125.07299472
_cell_formula_units_Z   2
loop_
 _symmetry_equiv_pos_site_id
 _symmetry_equiv_pos_as_xyz
  1  'x, y, z'
loop_
 _atom_site_type_symbol
 _atom_site_label
 _atom_site_symmetry_multiplicity
 _atom_site_fract_x
 _atom_site_fract_y
 _atom_site_fract_z
 _atom_site_occupancy
  Tb  Tb0  1  0.666667  0.333333  0.750000  1
  Tb  Tb1  1  0.333333  0.666667  0.250000  1
  H  H2  1  0.725012  0.859678  0.750000  1
  H  H3  1  0.865334  0.725012  0.250000  1
  H  H4  1  0.134666  0.274988  0.750000  1
  H  H5  1  0.274988  0.140322  0.250000  1
  H  H6  1  0.859678  0.134666  0.250000  1
  H  H7  1  0.140322  0.865334  0.750000  1
  O  O8  1  0.917194  0.604279  0.250000  1
  O  O9  1  0.604279  0.687085  0.750000  1
  O  O10  1  0.082806  0.395721  0.750000  1
  O  O11  1  0.395721  0.312915  0.250000  1
  O  O12  1  0.687085  0.082806  0.250000  1
  O  O13  1  0.312915  0.917194  0.750000  1
