# generated using pymatgen
data_CaIn2Ir
_symmetry_space_group_name_H-M   'P 1'
_cell_length_a   5.76375728
_cell_length_b   7.96056978
_cell_length_c   16.06643484
_cell_angle_alpha   90.00000000
_cell_angle_beta   90.00000000
_cell_angle_gamma   90.00000000
_symmetry_Int_Tables_number   1
_chemical_formula_structural   CaIn2Ir
_chemical_formula_sum   'Ca8 In16 Ir8'
_cell_volume   737.17288831
_cell_formula_units_Z   8
loop_
 _symmetry_equiv_pos_site_id
 _symmetry_equiv_pos_as_xyz
  1  'x, y, z'
loop_
 _atom_site_type_symbol
 _atom_site_label
 _atom_site_symmetry_multiplicity
 _atom_site_fract_x
 _atom_site_fract_y
 _atom_site_fract_z
 _atom_site_occupancy
  Ca  Ca0  1  0.461054  0.750000  0.138210  1
  Ca  Ca1  1  0.961054  0.250000  0.361790  1
  Ca  Ca2  1  0.538946  0.250000  0.861790  1
  Ca  Ca3  1  0.038946  0.750000  0.638210  1
  Ca  Ca4  1  0.747964  0.750000  0.397615  1
  Ca  Ca5  1  0.247964  0.250000  0.102385  1
  Ca  Ca6  1  0.252036  0.250000  0.602385  1
  Ca  Ca7  1  0.752036  0.750000  0.897615  1
  In  In8  1  0.748325  0.445950  0.539288  1
  In  In9  1  0.251675  0.945950  0.460712  1
  In  In10  1  0.751675  0.054050  0.039288  1
  In  In11  1  0.967022  0.950066  0.212187  1
  In  In12  1  0.248325  0.554050  0.960712  1
  In  In13  1  0.748325  0.054050  0.539288  1
  In  In14  1  0.248325  0.945950  0.960712  1
  In  In15  1  0.251675  0.554050  0.460712  1
  In  In16  1  0.032978  0.049934  0.787813  1
  In  In17  1  0.467022  0.049934  0.287813  1
  In  In18  1  0.032978  0.450066  0.787813  1
  In  In19  1  0.532978  0.549934  0.712187  1
  In  In20  1  0.467022  0.450066  0.287813  1
  In  In21  1  0.532978  0.950066  0.712187  1
  In  In22  1  0.967022  0.549934  0.212187  1
  In  In23  1  0.751675  0.445950  0.039288  1
  Ir  Ir24  1  0.234116  0.750000  0.314195  1
  Ir  Ir25  1  0.520665  0.750000  0.570271  1
  Ir  Ir26  1  0.020665  0.250000  0.929729  1
  Ir  Ir27  1  0.479335  0.250000  0.429729  1
  Ir  Ir28  1  0.979335  0.750000  0.070271  1
  Ir  Ir29  1  0.265884  0.750000  0.814195  1
  Ir  Ir30  1  0.765884  0.250000  0.685805  1
  Ir  Ir31  1  0.734116  0.250000  0.185805  1
