# generated using pymatgen
data_Li2NiPCO7
_symmetry_space_group_name_H-M   'P 1'
_cell_length_a   5.01287642
_cell_length_b   6.34304967
_cell_length_c   8.43289190
_cell_angle_alpha   90.00000000
_cell_angle_beta   93.02365676
_cell_angle_gamma   90.00000000
_symmetry_Int_Tables_number   1
_chemical_formula_structural   Li2NiPCO7
_chemical_formula_sum   'Li4 Ni2 P2 C2 O14'
_cell_volume   267.76673023
_cell_formula_units_Z   2
loop_
 _symmetry_equiv_pos_site_id
 _symmetry_equiv_pos_as_xyz
  1  'x, y, z'
loop_
 _atom_site_type_symbol
 _atom_site_label
 _atom_site_symmetry_multiplicity
 _atom_site_fract_x
 _atom_site_fract_y
 _atom_site_fract_z
 _atom_site_occupancy
  Li  Li0  1  0.786931  0.003925  0.238510  1
  Li  Li1  1  0.213069  0.996075  0.761490  1
  Li  Li2  1  0.213069  0.503925  0.761490  1
  Li  Li3  1  0.786931  0.496075  0.238510  1
  Ni  Ni4  1  0.782497  0.750000  0.652934  1
  Ni  Ni5  1  0.217503  0.250000  0.347066  1
  P  P6  1  0.715671  0.250000  0.577180  1
  P  P7  1  0.284329  0.750000  0.422820  1
  C  C8  1  0.717279  0.750000  0.944421  1
  C  C9  1  0.282721  0.250000  0.055579  1
  O  O10  1  0.508738  0.750000  0.847483  1
  O  O11  1  0.945278  0.750000  0.874780  1
  O  O12  1  0.491262  0.250000  0.152517  1
  O  O13  1  0.184908  0.941364  0.323527  1
  O  O14  1  0.184908  0.558636  0.323527  1
  O  O15  1  0.174301  0.750000  0.590994  1
  O  O16  1  0.825699  0.250000  0.409006  1
  O  O17  1  0.815092  0.441364  0.676473  1
  O  O18  1  0.815092  0.058636  0.676473  1
  O  O19  1  0.402473  0.250000  0.557135  1
  O  O20  1  0.712285  0.750000  0.094331  1
  O  O21  1  0.287715  0.250000  0.905669  1
  O  O22  1  0.597527  0.750000  0.442865  1
  O  O23  1  0.054722  0.250000  0.125220  1
