# generated using pymatgen
data_Y4OsBr4
_symmetry_space_group_name_H-M   'P 1'
_cell_length_a   8.98264319
_cell_length_b   8.98264319
_cell_length_c   6.59038176
_cell_angle_alpha   89.51183476
_cell_angle_beta   90.48816524
_cell_angle_gamma   90.63659491
_symmetry_Int_Tables_number   1
_chemical_formula_structural   Y4OsBr4
_chemical_formula_sum   'Y8 Os2 Br8'
_cell_volume   531.69292539
_cell_formula_units_Z   2
loop_
 _symmetry_equiv_pos_site_id
 _symmetry_equiv_pos_as_xyz
  1  'x, y, z'
loop_
 _atom_site_type_symbol
 _atom_site_label
 _atom_site_symmetry_multiplicity
 _atom_site_fract_x
 _atom_site_fract_y
 _atom_site_fract_z
 _atom_site_occupancy
  Y  Y0  1  0.900957  0.750431  0.989639  1
  Y  Y1  1  0.249569  0.099043  0.489639  1
  Y  Y2  1  0.751480  0.097653  0.991467  1
  Y  Y3  1  0.902347  0.248520  0.491467  1
  Y  Y4  1  0.248520  0.902347  0.008533  1
  Y  Y5  1  0.750431  0.900957  0.510361  1
  Y  Y6  1  0.099043  0.249569  0.010361  1
  Y  Y7  1  0.097653  0.751480  0.508533  1
  Os  Os8  1  0.995118  0.995118  0.250000  1
  Os  Os9  1  0.004882  0.004882  0.750000  1
  Br  Br10  1  0.817186  0.580917  0.592280  1
  Br  Br11  1  0.414706  0.810274  0.405235  1
  Br  Br12  1  0.810274  0.414706  0.094765  1
  Br  Br13  1  0.585294  0.189726  0.594765  1
  Br  Br14  1  0.189726  0.585294  0.905235  1
  Br  Br15  1  0.182814  0.419083  0.407720  1
  Br  Br16  1  0.419083  0.182814  0.092280  1
  Br  Br17  1  0.580917  0.817186  0.907720  1
