# generated using pymatgen
data_BiPd
_symmetry_space_group_name_H-M   'P 1'
_cell_length_a   5.73430878
_cell_length_b   10.85224061
_cell_length_c   5.75015242
_cell_angle_alpha   90.00000000
_cell_angle_beta   101.10184131
_cell_angle_gamma   90.00000000
_symmetry_Int_Tables_number   1
_chemical_formula_structural   BiPd
_chemical_formula_sum   'Bi8 Pd8'
_cell_volume   351.13624428
_cell_formula_units_Z   8
loop_
 _symmetry_equiv_pos_site_id
 _symmetry_equiv_pos_as_xyz
  1  'x, y, z'
loop_
 _atom_site_type_symbol
 _atom_site_label
 _atom_site_symmetry_multiplicity
 _atom_site_fract_x
 _atom_site_fract_y
 _atom_site_fract_z
 _atom_site_occupancy
  Bi  Bi0  1  0.113138  0.287202  0.151408  1
  Bi  Bi1  1  0.886862  0.787202  0.848592  1
  Bi  Bi2  1  0.640548  0.292496  0.603173  1
  Bi  Bi3  1  0.359452  0.792496  0.396827  1
  Bi  Bi4  1  0.116697  0.509037  0.656428  1
  Bi  Bi5  1  0.883303  0.009037  0.343572  1
  Bi  Bi6  1  0.649304  0.504929  0.105348  1
  Bi  Bi7  1  0.350696  0.004929  0.894652  1
  Pd  Pd8  1  0.170454  0.559269  0.175961  1
  Pd  Pd9  1  0.829546  0.059269  0.824039  1
  Pd  Pd10  1  0.597656  0.566519  0.591362  1
  Pd  Pd11  1  0.402344  0.066519  0.408638  1
  Pd  Pd12  1  0.842657  0.735346  0.332225  1
  Pd  Pd13  1  0.157343  0.235346  0.667775  1
  Pd  Pd14  1  0.406266  0.730304  0.912169  1
  Pd  Pd15  1  0.593734  0.230304  0.087831  1
