# generated using pymatgen
data_LiCoAs
_symmetry_space_group_name_H-M   'P 1'
_cell_length_a   3.75962898
_cell_length_b   3.75962898
_cell_length_c   6.12185446
_cell_angle_alpha   90.00000000
_cell_angle_beta   90.00000000
_cell_angle_gamma   90.00000000
_symmetry_Int_Tables_number   1
_chemical_formula_structural   LiCoAs
_chemical_formula_sum   'Li2 Co2 As2'
_cell_volume   86.53125005
_cell_formula_units_Z   2
loop_
 _symmetry_equiv_pos_site_id
 _symmetry_equiv_pos_as_xyz
  1  'x, y, z'
loop_
 _atom_site_type_symbol
 _atom_site_label
 _atom_site_symmetry_multiplicity
 _atom_site_fract_x
 _atom_site_fract_y
 _atom_site_fract_z
 _atom_site_occupancy
  Li  Li0  1  0.000000  0.500000  0.671409  1
  Li  Li1  1  0.500000  0.000000  0.328591  1
  Co  Co2  1  0.500000  0.500000  0.000000  1
  Co  Co3  1  0.000000  0.000000  0.000000  1
  As  As4  1  0.500000  0.000000  0.769288  1
  As  As5  1  0.000000  0.500000  0.230712  1
