# generated using pymatgen
data_Hf27P16
_symmetry_space_group_name_H-M   'P 1'
_cell_length_a   14.93891896
_cell_length_b   14.93891896
_cell_length_c   14.93891896
_cell_angle_alpha   166.37622779
_cell_angle_beta   102.77780278
_cell_angle_gamma   78.87009893
_symmetry_Int_Tables_number   1
_chemical_formula_structural   Hf27P16
_chemical_formula_sum   'Hf27 P16'
_cell_volume   762.35319299
_cell_formula_units_Z   1
loop_
 _symmetry_equiv_pos_site_id
 _symmetry_equiv_pos_as_xyz
  1  'x, y, z'
loop_
 _atom_site_type_symbol
 _atom_site_label
 _atom_site_symmetry_multiplicity
 _atom_site_fract_x
 _atom_site_fract_y
 _atom_site_fract_z
 _atom_site_occupancy
  Hf  Hf0  1  0.172958  0.579967  0.592991  1
  Hf  Hf1  1  0.827042  0.420033  0.407009  1
  Hf  Hf2  1  0.013024  0.420033  0.592991  1
  Hf  Hf3  1  0.986976  0.579967  0.407009  1
  Hf  Hf4  1  0.784702  0.284702  0.500000  1
  Hf  Hf5  1  0.215298  0.715298  0.500000  1
  Hf  Hf6  1  0.646732  0.146732  0.500000  1
  Hf  Hf7  1  0.353268  0.853268  0.500000  1
  Hf  Hf8  1  0.583844  0.000000  0.583844  1
  Hf  Hf9  1  0.416156  0.000000  0.416156  1
  Hf  Hf10  1  0.000000  0.000000  0.000000  1
  Hf  Hf11  1  0.098652  0.784595  0.314057  1
  Hf  Hf12  1  0.901348  0.215405  0.685943  1
  Hf  Hf13  1  0.529461  0.215405  0.314057  1
  Hf  Hf14  1  0.470539  0.784595  0.685943  1
  Hf  Hf15  1  0.174472  0.928822  0.245650  1
  Hf  Hf16  1  0.825528  0.071178  0.754350  1
  Hf  Hf17  1  0.316828  0.071178  0.245650  1
  Hf  Hf18  1  0.683172  0.928822  0.754350  1
  Hf  Hf19  1  0.950692  0.817430  0.133261  1
  Hf  Hf20  1  0.049308  0.182570  0.866739  1
  Hf  Hf21  1  0.315831  0.182570  0.133261  1
  Hf  Hf22  1  0.684169  0.817430  0.866739  1
  Hf  Hf23  1  0.739970  0.608570  0.131400  1
  Hf  Hf24  1  0.260030  0.391430  0.868600  1
  Hf  Hf25  1  0.522830  0.391430  0.131400  1
  Hf  Hf26  1  0.477170  0.608570  0.868600  1
  P  P27  1  0.138519  0.000000  0.138519  1
  P  P28  1  0.861481  0.000000  0.861481  1
  P  P29  1  0.691299  0.500000  0.191299  1
  P  P30  1  0.308701  0.500000  0.808701  1
  P  P31  1  0.439881  0.439881  0.000000  1
  P  P32  1  0.560119  0.560119  0.000000  1
  P  P33  1  0.124690  0.124690  0.000000  1
  P  P34  1  0.875310  0.875310  0.000000  1
  P  P35  1  0.925311  0.656782  0.268530  1
  P  P36  1  0.074689  0.343218  0.731470  1
  P  P37  1  0.611748  0.343218  0.268530  1
  P  P38  1  0.388252  0.656782  0.731470  1
  P  P39  1  0.790246  0.714517  0.075729  1
  P  P40  1  0.209754  0.285483  0.924271  1
  P  P41  1  0.361213  0.285483  0.075729  1
  P  P42  1  0.638787  0.714517  0.924271  1
