# generated using pymatgen
data_ThZr2F12
_symmetry_space_group_name_H-M   'P 1'
_cell_length_a   8.30159991
_cell_length_b   8.30159991
_cell_length_c   7.97751894
_cell_angle_alpha   61.79424451
_cell_angle_beta   118.20575549
_cell_angle_gamma   100.33710211
_symmetry_Int_Tables_number   1
_chemical_formula_structural   ThZr2F12
_chemical_formula_sum   'Th2 Zr4 F24'
_cell_volume   426.28404292
_cell_formula_units_Z   2
loop_
 _symmetry_equiv_pos_site_id
 _symmetry_equiv_pos_as_xyz
  1  'x, y, z'
loop_
 _atom_site_type_symbol
 _atom_site_label
 _atom_site_symmetry_multiplicity
 _atom_site_fract_x
 _atom_site_fract_y
 _atom_site_fract_z
 _atom_site_occupancy
  Th  Th0  1  0.778748  0.778748  0.000000  1
  Th  Th1  1  0.221252  0.221252  0.000000  1
  Zr  Zr2  1  0.649002  0.350998  0.774302  1
  Zr  Zr3  1  0.350998  0.649002  0.225698  1
  Zr  Zr4  1  0.810882  0.189118  0.430242  1
  Zr  Zr5  1  0.189118  0.810882  0.569758  1
  F  F6  1  0.304109  0.439271  0.133316  1
  F  F7  1  0.439271  0.304109  0.866684  1
  F  F8  1  0.695891  0.560729  0.866684  1
  F  F9  1  0.560729  0.695891  0.133316  1
  F  F10  1  0.777819  0.222181  0.140773  1
  F  F11  1  0.222181  0.777819  0.859227  1
  F  F12  1  0.000000  0.000000  0.000000  1
  F  F13  1  1.000000  0.000000  0.500000  1
  F  F14  1  0.388073  0.388073  0.500000  1
  F  F15  1  0.611927  0.611927  0.500000  1
  F  F16  1  0.466380  0.830257  0.721094  1
  F  F17  1  0.830257  0.466380  0.278906  1
  F  F18  1  0.533620  0.169743  0.278906  1
  F  F19  1  0.169743  0.533620  0.721094  1
  F  F20  1  0.288324  0.711676  0.428149  1
  F  F21  1  0.711676  0.288324  0.571851  1
  F  F22  1  0.353757  0.933846  0.110586  1
  F  F23  1  0.933846  0.353757  0.889414  1
  F  F24  1  0.646243  0.066154  0.889414  1
  F  F25  1  0.066154  0.646243  0.110586  1
  F  F26  1  0.940526  0.780108  0.334868  1
  F  F27  1  0.780108  0.940526  0.665132  1
  F  F28  1  0.059474  0.219892  0.665132  1
  F  F29  1  0.219892  0.059474  0.334868  1
