# generated using pymatgen
data_Zr3NiSb7
_symmetry_space_group_name_H-M   'P 1'
_cell_length_a   3.96451171
_cell_length_b   14.50896407
_cell_length_c   17.67426919
_cell_angle_alpha   90.00000000
_cell_angle_beta   90.00000000
_cell_angle_gamma   90.00000000
_symmetry_Int_Tables_number   1
_chemical_formula_structural   Zr3NiSb7
_chemical_formula_sum   'Zr12 Ni4 Sb28'
_cell_volume   1016.64089497
_cell_formula_units_Z   4
loop_
 _symmetry_equiv_pos_site_id
 _symmetry_equiv_pos_as_xyz
  1  'x, y, z'
loop_
 _atom_site_type_symbol
 _atom_site_label
 _atom_site_symmetry_multiplicity
 _atom_site_fract_x
 _atom_site_fract_y
 _atom_site_fract_z
 _atom_site_occupancy
  Zr  Zr0  1  0.250000  0.470714  0.370282  1
  Zr  Zr1  1  0.750000  0.529286  0.629718  1
  Zr  Zr2  1  0.750000  0.970714  0.129718  1
  Zr  Zr3  1  0.250000  0.029286  0.870282  1
  Zr  Zr4  1  0.250000  0.909848  0.392167  1
  Zr  Zr5  1  0.750000  0.090152  0.607833  1
  Zr  Zr6  1  0.750000  0.409848  0.107833  1
  Zr  Zr7  1  0.250000  0.590152  0.892167  1
  Zr  Zr8  1  0.250000  0.309137  0.846381  1
  Zr  Zr9  1  0.750000  0.690863  0.153619  1
  Zr  Zr10  1  0.750000  0.809137  0.653619  1
  Zr  Zr11  1  0.250000  0.190863  0.346381  1
  Ni  Ni12  1  0.250000  0.810900  0.936860  1
  Ni  Ni13  1  0.750000  0.189100  0.063140  1
  Ni  Ni14  1  0.750000  0.310900  0.563140  1
  Ni  Ni15  1  0.250000  0.689100  0.436860  1
  Sb  Sb16  1  0.250000  0.297583  0.021507  1
  Sb  Sb17  1  0.750000  0.702417  0.978493  1
  Sb  Sb18  1  0.750000  0.797583  0.478493  1
  Sb  Sb19  1  0.250000  0.202417  0.521507  1
  Sb  Sb20  1  0.250000  0.076592  0.037404  1
  Sb  Sb21  1  0.750000  0.923408  0.962596  1
  Sb  Sb22  1  0.750000  0.576592  0.462596  1
  Sb  Sb23  1  0.250000  0.423408  0.537404  1
  Sb  Sb24  1  0.250000  0.560396  0.070528  1
  Sb  Sb25  1  0.750000  0.439604  0.929472  1
  Sb  Sb26  1  0.750000  0.060396  0.429472  1
  Sb  Sb27  1  0.250000  0.939604  0.570528  1
  Sb  Sb28  1  0.250000  0.825057  0.090955  1
  Sb  Sb29  1  0.750000  0.174943  0.909045  1
  Sb  Sb30  1  0.750000  0.325057  0.409045  1
  Sb  Sb31  1  0.250000  0.674943  0.590955  1
  Sb  Sb32  1  0.250000  0.353984  0.228236  1
  Sb  Sb33  1  0.750000  0.646016  0.771764  1
  Sb  Sb34  1  0.750000  0.853984  0.271764  1
  Sb  Sb35  1  0.250000  0.146016  0.728236  1
  Sb  Sb36  1  0.250000  0.021454  0.248019  1
  Sb  Sb37  1  0.750000  0.978546  0.751981  1
  Sb  Sb38  1  0.750000  0.521454  0.251981  1
  Sb  Sb39  1  0.250000  0.478546  0.748019  1
  Sb  Sb40  1  0.250000  0.685043  0.290336  1
  Sb  Sb41  1  0.750000  0.314957  0.709664  1
  Sb  Sb42  1  0.750000  0.185043  0.209664  1
  Sb  Sb43  1  0.250000  0.814957  0.790336  1
