# generated using pymatgen
data_Yb2Cu2O5
_symmetry_space_group_name_H-M   'P 1'
_cell_length_a   3.49334768
_cell_length_b   10.48215278
_cell_length_c   12.57077552
_cell_angle_alpha   90.00000000
_cell_angle_beta   90.00000000
_cell_angle_gamma   90.00000000
_symmetry_Int_Tables_number   1
_chemical_formula_structural   Yb2Cu2O5
_chemical_formula_sum   'Yb8 Cu8 O20'
_cell_volume   460.31419532
_cell_formula_units_Z   4
loop_
 _symmetry_equiv_pos_site_id
 _symmetry_equiv_pos_as_xyz
  1  'x, y, z'
loop_
 _atom_site_type_symbol
 _atom_site_label
 _atom_site_symmetry_multiplicity
 _atom_site_fract_x
 _atom_site_fract_y
 _atom_site_fract_z
 _atom_site_occupancy
  Yb  Yb0  1  0.318338  0.546455  0.832458  1
  Yb  Yb1  1  0.681662  0.453545  0.332458  1
  Yb  Yb2  1  0.181662  0.046455  0.832458  1
  Yb  Yb3  1  0.818338  0.953545  0.332458  1
  Yb  Yb4  1  0.323080  0.703921  0.500100  1
  Yb  Yb5  1  0.676920  0.296079  0.000100  1
  Yb  Yb6  1  0.176920  0.203921  0.500100  1
  Yb  Yb7  1  0.823080  0.796079  0.000100  1
  Cu  Cu8  1  0.860652  0.761789  0.713636  1
  Cu  Cu9  1  0.139348  0.238211  0.213636  1
  Cu  Cu10  1  0.639348  0.261789  0.713636  1
  Cu  Cu11  1  0.360652  0.738211  0.213636  1
  Cu  Cu12  1  0.856715  0.488295  0.615738  1
  Cu  Cu13  1  0.143285  0.511705  0.115738  1
  Cu  Cu14  1  0.643285  0.988295  0.615738  1
  Cu  Cu15  1  0.356715  0.011705  0.115738  1
  O  O16  1  0.323437  0.938915  0.983202  1
  O  O17  1  0.676563  0.061085  0.483202  1
  O  O18  1  0.176563  0.438915  0.983202  1
  O  O19  1  0.823437  0.561085  0.483202  1
  O  O20  1  0.666896  0.919260  0.753441  1
  O  O21  1  0.333104  0.080740  0.253441  1
  O  O22  1  0.833104  0.419260  0.753441  1
  O  O23  1  0.166896  0.580740  0.253441  1
  O  O24  1  0.140591  0.624120  0.665696  1
  O  O25  1  0.859409  0.375880  0.165696  1
  O  O26  1  0.359409  0.124120  0.665696  1
  O  O27  1  0.640591  0.875880  0.165696  1
  O  O28  1  0.841156  0.831423  0.575430  1
  O  O29  1  0.158844  0.168577  0.075430  1
  O  O30  1  0.658844  0.331423  0.575430  1
  O  O31  1  0.341156  0.668577  0.075430  1
  O  O32  1  0.320928  0.810764  0.345699  1
  O  O33  1  0.679072  0.189236  0.845699  1
  O  O34  1  0.179072  0.310764  0.345699  1
  O  O35  1  0.820928  0.689236  0.845699  1
