# generated using pymatgen
data_LiCd4Ge5HO15
_symmetry_space_group_name_H-M   'P 1'
_cell_length_a   7.19957185
_cell_length_b   8.07427203
_cell_length_c   12.49081036
_cell_angle_alpha   105.74352557
_cell_angle_beta   93.08269352
_cell_angle_gamma   94.85390895
_symmetry_Int_Tables_number   1
_chemical_formula_structural   LiCd4Ge5HO15
_chemical_formula_sum   'Li2 Cd8 Ge10 H2 O30'
_cell_volume   694.12874641
_cell_formula_units_Z   2
loop_
 _symmetry_equiv_pos_site_id
 _symmetry_equiv_pos_as_xyz
  1  'x, y, z'
loop_
 _atom_site_type_symbol
 _atom_site_label
 _atom_site_symmetry_multiplicity
 _atom_site_fract_x
 _atom_site_fract_y
 _atom_site_fract_z
 _atom_site_occupancy
  Li  Li0  1  0.676733  0.864754  0.404764  1
  Li  Li1  1  0.323267  0.135246  0.595236  1
  Cd  Cd2  1  0.056585  0.095740  0.151242  1
  Cd  Cd3  1  0.727500  0.253844  0.981242  1
  Cd  Cd4  1  0.272500  0.746156  0.018758  1
  Cd  Cd5  1  0.814636  0.464641  0.263712  1
  Cd  Cd6  1  0.185364  0.535359  0.736288  1
  Cd  Cd7  1  0.867546  0.683010  0.556683  1
  Cd  Cd8  1  0.132454  0.316990  0.443317  1
  Cd  Cd9  1  0.943415  0.904260  0.848758  1
  Ge  Ge10  1  0.572967  0.024693  0.174677  1
  Ge  Ge11  1  0.893899  0.145628  0.647405  1
  Ge  Ge12  1  0.106101  0.854372  0.352595  1
  Ge  Ge13  1  0.777360  0.681047  0.040063  1
  Ge  Ge14  1  0.222640  0.318953  0.959937  1
  Ge  Ge15  1  0.706061  0.490081  0.772596  1
  Ge  Ge16  1  0.293939  0.509919  0.227404  1
  Ge  Ge17  1  0.642000  0.223743  0.442975  1
  Ge  Ge18  1  0.358000  0.776257  0.557025  1
  Ge  Ge19  1  0.427033  0.975307  0.825323  1
  H  H20  1  0.520983  0.590380  0.390034  1
  H  H21  1  0.479017  0.409620  0.609966  1
  O  O22  1  0.223096  0.721434  0.239488  1
  O  O23  1  0.509782  0.515900  0.304757  1
  O  O24  1  0.490218  0.484100  0.695243  1
  O  O25  1  0.833730  0.511248  0.093968  1
  O  O26  1  0.166270  0.488752  0.906032  1
  O  O27  1  0.649627  0.974355  0.887355  1
  O  O28  1  0.350373  0.025645  0.112645  1
  O  O29  1  0.902183  0.738949  0.379317  1
  O  O30  1  0.097817  0.261051  0.620683  1
  O  O31  1  0.562913  0.709439  0.496940  1
  O  O32  1  0.437087  0.290561  0.503060  1
  O  O33  1  0.776904  0.278566  0.760512  1
  O  O34  1  0.120015  0.380220  0.269337  1
  O  O35  1  0.937052  0.954467  0.677860  1
  O  O36  1  0.062948  0.045533  0.322140  1
  O  O37  1  0.602669  0.797130  0.117228  1
  O  O38  1  0.397331  0.202870  0.882772  1
  O  O39  1  0.644141  0.568325  0.910759  1
  O  O40  1  0.415251  0.957439  0.678384  1
  O  O41  1  0.584749  0.042561  0.321616  1
  O  O42  1  0.035816  0.175683  0.976450  1
  O  O43  1  0.964184  0.824317  0.023550  1
  O  O44  1  0.266082  0.909382  0.475350  1
  O  O45  1  0.879985  0.619780  0.730663  1
  O  O46  1  0.747113  0.174843  0.151611  1
  O  O47  1  0.733918  0.090618  0.524650  1
  O  O48  1  0.183811  0.613671  0.564540  1
  O  O49  1  0.816189  0.386329  0.435460  1
  O  O50  1  0.252887  0.825157  0.848389  1
  O  O51  1  0.355859  0.431675  0.089241  1
