# generated using pymatgen
data_V5Ge3
_symmetry_space_group_name_H-M   'P 1'
_cell_length_a   7.27280987
_cell_length_b   7.27280987
_cell_length_c   4.94801100
_cell_angle_alpha   90.00000000
_cell_angle_beta   90.00000000
_cell_angle_gamma   120.00000000
_symmetry_Int_Tables_number   1
_chemical_formula_structural   V5Ge3
_chemical_formula_sum   'V10 Ge6'
_cell_volume   226.65523591
_cell_formula_units_Z   2
loop_
 _symmetry_equiv_pos_site_id
 _symmetry_equiv_pos_as_xyz
  1  'x, y, z'
loop_
 _atom_site_type_symbol
 _atom_site_label
 _atom_site_symmetry_multiplicity
 _atom_site_fract_x
 _atom_site_fract_y
 _atom_site_fract_z
 _atom_site_occupancy
  V  V0  1  0.757129  0.000000  0.750000  1
  V  V1  1  0.757129  0.757129  0.250000  1
  V  V2  1  0.000000  0.242871  0.250000  1
  V  V3  1  0.000000  0.757129  0.750000  1
  V  V4  1  0.242871  0.242871  0.750000  1
  V  V5  1  0.242871  0.000000  0.250000  1
  V  V6  1  0.333333  0.666667  0.000000  1
  V  V7  1  0.666667  0.333333  0.500000  1
  V  V8  1  0.666667  0.333333  0.000000  1
  V  V9  1  0.333333  0.666667  0.500000  1
  Ge  Ge10  1  0.392464  0.000000  0.750000  1
  Ge  Ge11  1  0.392464  0.392464  0.250000  1
  Ge  Ge12  1  0.000000  0.607536  0.250000  1
  Ge  Ge13  1  0.000000  0.392464  0.750000  1
  Ge  Ge14  1  0.607536  0.607536  0.750000  1
  Ge  Ge15  1  0.607536  0.000000  0.250000  1
