# generated using pymatgen
data_K2MgH12(SO7)2
_symmetry_space_group_name_H-M   'P 1'
_cell_length_a   6.18556002
_cell_length_b   12.39413421
_cell_length_c   9.14992541
_cell_angle_alpha   90.00000000
_cell_angle_beta   104.38097547
_cell_angle_gamma   90.00000000
_symmetry_Int_Tables_number   1
_chemical_formula_structural   K2MgH12(SO7)2
_chemical_formula_sum   'K4 Mg2 H24 S4 O28'
_cell_volume   679.49566047
_cell_formula_units_Z   2
loop_
 _symmetry_equiv_pos_site_id
 _symmetry_equiv_pos_as_xyz
  1  'x, y, z'
loop_
 _atom_site_type_symbol
 _atom_site_label
 _atom_site_symmetry_multiplicity
 _atom_site_fract_x
 _atom_site_fract_y
 _atom_site_fract_z
 _atom_site_occupancy
  K  K0  1  0.346580  0.847197  0.632214  1
  K  K1  1  0.653420  0.347197  0.867786  1
  K  K2  1  0.653420  0.152803  0.367786  1
  K  K3  1  0.346580  0.652803  0.132214  1
  Mg  Mg4  1  0.000000  0.000000  0.000000  1
  Mg  Mg5  1  0.000000  0.500000  0.500000  1
  H  H6  1  0.337898  0.436663  0.393905  1
  H  H7  1  0.662102  0.936663  0.106095  1
  H  H8  1  0.662102  0.563337  0.606095  1
  H  H9  1  0.337898  0.063337  0.893905  1
  H  H10  1  0.666870  0.646194  0.474415  1
  H  H11  1  0.333130  0.146194  0.025585  1
  H  H12  1  0.333130  0.353806  0.525585  1
  H  H13  1  0.666870  0.853806  0.974415  1
  H  H14  1  0.930231  0.600375  0.227373  1
  H  H15  1  0.069769  0.100375  0.272627  1
  H  H16  1  0.000012  0.688823  0.354942  1
  H  H17  1  0.999988  0.188823  0.145058  1
  H  H18  1  0.999988  0.311177  0.645058  1
  H  H19  1  0.000012  0.811177  0.854942  1
  H  H20  1  0.671625  0.409238  0.282058  1
  H  H21  1  0.328375  0.909238  0.217942  1
  H  H22  1  0.328375  0.590762  0.717942  1
  H  H23  1  0.671625  0.090762  0.782058  1
  H  H24  1  0.905522  0.372173  0.253505  1
  H  H25  1  0.094478  0.872173  0.246495  1
  H  H26  1  0.094478  0.627827  0.746495  1
  H  H27  1  0.905522  0.127827  0.753505  1
  H  H28  1  0.069769  0.399625  0.772627  1
  H  H29  1  0.930231  0.899625  0.727373  1
  S  S30  1  0.728585  0.861853  0.409202  1
  S  S31  1  0.271415  0.138147  0.590798  1
  S  S32  1  0.728585  0.638147  0.909202  1
  S  S33  1  0.271415  0.361853  0.090798  1
  O  O34  1  0.759865  0.580016  0.054962  1
  O  O35  1  0.759865  0.919984  0.554962  1
  O  O36  1  0.828018  0.110500  0.833126  1
  O  O37  1  0.171982  0.610500  0.666874  1
  O  O38  1  0.171982  0.889500  0.166874  1
  O  O39  1  0.828018  0.389500  0.333126  1
  O  O40  1  0.968930  0.113312  0.170547  1
  O  O41  1  0.240135  0.080016  0.445038  1
  O  O42  1  0.031070  0.886688  0.829453  1
  O  O43  1  0.968930  0.386688  0.670547  1
  O  O44  1  0.294084  0.070911  0.990590  1
  O  O45  1  0.705916  0.570911  0.509410  1
  O  O46  1  0.705916  0.929089  0.009410  1
  O  O47  1  0.294084  0.429089  0.490590  1
  O  O48  1  0.050428  0.325219  0.113021  1
  O  O49  1  0.949572  0.825219  0.386979  1
  O  O50  1  0.949572  0.674781  0.886979  1
  O  O51  1  0.050428  0.174781  0.613021  1
  O  O52  1  0.421919  0.266805  0.094286  1
  O  O53  1  0.578081  0.766805  0.405714  1
  O  O54  1  0.578081  0.733195  0.905714  1
  O  O55  1  0.421919  0.233195  0.594286  1
  O  O56  1  0.031070  0.613312  0.329453  1
  O  O57  1  0.617771  0.936920  0.284389  1
  O  O58  1  0.617771  0.563080  0.784389  1
  O  O59  1  0.382229  0.063080  0.715611  1
  O  O60  1  0.240135  0.419984  0.945038  1
  O  O61  1  0.382229  0.436920  0.215611  1
