# generated using pymatgen
data_PuGa
_symmetry_space_group_name_H-M   'P 1'
_cell_length_a   6.22244051
_cell_length_b   6.22244051
_cell_length_c   6.22244051
_cell_angle_alpha   118.05399132
_cell_angle_beta   118.05399132
_cell_angle_gamma   93.40498599
_symmetry_Int_Tables_number   1
_chemical_formula_structural   PuGa
_chemical_formula_sum   'Pu4 Ga4'
_cell_volume   175.03645436
_cell_formula_units_Z   4
loop_
 _symmetry_equiv_pos_site_id
 _symmetry_equiv_pos_as_xyz
  1  'x, y, z'
loop_
 _atom_site_type_symbol
 _atom_site_label
 _atom_site_symmetry_multiplicity
 _atom_site_fract_x
 _atom_site_fract_y
 _atom_site_fract_z
 _atom_site_occupancy
  Pu  Pu0  1  0.250000  0.750000  0.500000  1
  Pu  Pu1  1  0.750000  0.250000  0.500000  1
  Pu  Pu2  1  0.200793  0.200793  0.000000  1
  Pu  Pu3  1  0.799207  0.799207  0.000000  1
  Ga  Ga4  1  0.710412  0.289588  1.000000  1
  Ga  Ga5  1  0.289588  0.289588  0.579176  1
  Ga  Ga6  1  0.710412  0.710412  0.420824  1
  Ga  Ga7  1  0.289588  0.710412  0.000000  1
