# generated using pymatgen
data_NO2
_symmetry_space_group_name_H-M   'P 1'
_cell_length_a   7.10229921
_cell_length_b   7.10229921
_cell_length_c   7.10229921
_cell_angle_alpha   109.47122063
_cell_angle_beta   109.47122063
_cell_angle_gamma   109.47122063
_symmetry_Int_Tables_number   1
_chemical_formula_structural   NO2
_chemical_formula_sum   'N6 O12'
_cell_volume   275.78776974
_cell_formula_units_Z   6
loop_
 _symmetry_equiv_pos_site_id
 _symmetry_equiv_pos_as_xyz
  1  'x, y, z'
loop_
 _atom_site_type_symbol
 _atom_site_label
 _atom_site_symmetry_multiplicity
 _atom_site_fract_x
 _atom_site_fract_y
 _atom_site_fract_z
 _atom_site_occupancy
  N  N0  1  0.387203  1.000000  0.387203  1
  N  N1  1  0.000000  0.612797  0.612797  1
  N  N2  1  0.387203  0.387203  0.000000  1
  N  N3  1  0.612797  0.612797  0.000000  1
  N  N4  1  0.000000  0.387203  0.387203  1
  N  N5  1  0.612797  1.000000  0.612797  1
  O  O6  1  0.465787  0.135392  0.330396  1
  O  O7  1  0.135392  0.669604  0.804996  1
  O  O8  1  0.330395  0.195004  0.864608  1
  O  O9  1  0.864608  0.669604  0.534213  1
  O  O10  1  0.669604  0.804996  0.135392  1
  O  O11  1  0.864608  0.330396  0.195004  1
  O  O12  1  0.669604  0.534213  0.864608  1
  O  O13  1  0.330396  0.465787  0.135392  1
  O  O14  1  0.135392  0.330396  0.465787  1
  O  O15  1  0.804996  0.135392  0.669604  1
  O  O16  1  0.195004  0.864608  0.330395  1
  O  O17  1  0.534213  0.864608  0.669604  1
