# generated using pymatgen
data_Ba2(CuO2)3
_symmetry_space_group_name_H-M   'P 1'
_cell_length_a   9.30592426
_cell_length_b   8.47858989
_cell_length_c   7.03693935
_cell_angle_alpha   73.04164906
_cell_angle_beta   60.63094213
_cell_angle_gamma   46.32740882
_symmetry_Int_Tables_number   1
_chemical_formula_structural   Ba2(CuO2)3
_chemical_formula_sum   'Ba4 Cu6 O12'
_cell_volume   349.00439030
_cell_formula_units_Z   2
loop_
 _symmetry_equiv_pos_site_id
 _symmetry_equiv_pos_as_xyz
  1  'x, y, z'
loop_
 _atom_site_type_symbol
 _atom_site_label
 _atom_site_symmetry_multiplicity
 _atom_site_fract_x
 _atom_site_fract_y
 _atom_site_fract_z
 _atom_site_occupancy
  Ba  Ba0  1  0.750000  0.750000  0.750000  1
  Ba  Ba1  1  0.232798  0.767202  0.232798  1
  Ba  Ba2  1  0.767202  0.232798  0.767202  1
  Ba  Ba3  1  0.250000  0.250000  0.250000  1
  Cu  Cu4  1  0.692339  0.307661  0.307661  1
  Cu  Cu5  1  0.307661  0.692339  0.692339  1
  Cu  Cu6  1  0.995899  0.300120  0.004101  1
  Cu  Cu7  1  0.699880  0.004101  0.300120  1
  Cu  Cu8  1  0.300120  0.995899  0.699880  1
  Cu  Cu9  1  0.004101  0.699880  0.995899  1
  O  O10  1  0.693474  0.488140  0.079857  1
  O  O11  1  0.511860  0.306526  0.261471  1
  O  O12  1  0.920143  0.261471  0.306526  1
  O  O13  1  0.738529  0.079857  0.488140  1
  O  O14  1  0.700648  0.932293  0.067707  1
  O  O15  1  0.067707  0.299352  0.700648  1
  O  O16  1  0.299352  0.067707  0.932293  1
  O  O17  1  0.932293  0.700648  0.299352  1
  O  O18  1  0.261471  0.920143  0.511860  1
  O  O19  1  0.306526  0.511860  0.920143  1
  O  O20  1  0.488140  0.693474  0.738529  1
  O  O21  1  0.079857  0.738529  0.693474  1
