# generated using pymatgen
data_P2SeO3
_symmetry_space_group_name_H-M   'P 1'
_cell_length_a   11.94377075
_cell_length_b   6.83256133
_cell_length_c   12.36609614
_cell_angle_alpha   90.00000000
_cell_angle_beta   90.33643529
_cell_angle_gamma   90.00000000
_symmetry_Int_Tables_number   1
_chemical_formula_structural   P2SeO3
_chemical_formula_sum   'P16 Se8 O24'
_cell_volume   1009.13699853
_cell_formula_units_Z   8
loop_
 _symmetry_equiv_pos_site_id
 _symmetry_equiv_pos_as_xyz
  1  'x, y, z'
loop_
 _atom_site_type_symbol
 _atom_site_label
 _atom_site_symmetry_multiplicity
 _atom_site_fract_x
 _atom_site_fract_y
 _atom_site_fract_z
 _atom_site_occupancy
  P  P0  1  0.131684  0.746159  0.075510  1
  P  P1  1  0.653802  0.359132  0.520844  1
  P  P2  1  0.653802  0.140868  0.020844  1
  P  P3  1  0.346198  0.640868  0.479156  1
  P  P4  1  0.210650  0.533254  0.884688  1
  P  P5  1  0.789350  0.033254  0.615312  1
  P  P6  1  0.789350  0.466746  0.115312  1
  P  P7  1  0.210650  0.966746  0.384688  1
  P  P8  1  0.322148  0.487848  0.095618  1
  P  P9  1  0.677852  0.987848  0.404382  1
  P  P10  1  0.677852  0.512152  0.904382  1
  P  P11  1  0.322148  0.012152  0.595618  1
  P  P12  1  0.131684  0.753841  0.575510  1
  P  P13  1  0.868316  0.246159  0.424490  1
  P  P14  1  0.868316  0.253841  0.924490  1
  P  P15  1  0.346198  0.859132  0.979156  1
  Se  Se16  1  0.995138  0.847576  0.157422  1
  Se  Se17  1  0.004862  0.347576  0.342578  1
  Se  Se18  1  0.004862  0.152424  0.842578  1
  Se  Se19  1  0.995138  0.652424  0.657422  1
  Se  Se20  1  0.402916  0.295921  0.197439  1
  Se  Se21  1  0.597084  0.795921  0.302561  1
  Se  Se22  1  0.597084  0.704079  0.802561  1
  Se  Se23  1  0.402916  0.204079  0.697439  1
  O  O24  1  0.296395  0.724666  0.878467  1
  O  O25  1  0.703605  0.224666  0.621533  1
  O  O26  1  0.703605  0.275334  0.121533  1
  O  O27  1  0.296395  0.775334  0.378467  1
  O  O28  1  0.225035  0.907734  0.043625  1
  O  O29  1  0.774965  0.407734  0.456375  1
  O  O30  1  0.774965  0.092266  0.956375  1
  O  O31  1  0.225035  0.592266  0.543625  1
  O  O32  1  0.279482  0.401631  0.980804  1
  O  O33  1  0.720518  0.901631  0.519196  1
  O  O34  1  0.720518  0.598369  0.019196  1
  O  O35  1  0.279482  0.098369  0.480804  1
  O  O36  1  0.393882  0.679155  0.061497  1
  O  O37  1  0.606118  0.179155  0.438503  1
  O  O38  1  0.606118  0.320845  0.938503  1
  O  O39  1  0.393882  0.820845  0.561497  1
  O  O40  1  0.207356  0.585588  0.143811  1
  O  O41  1  0.792644  0.085588  0.356189  1
  O  O42  1  0.792644  0.414412  0.856189  1
  O  O43  1  0.109802  0.868630  0.463029  1
  O  O44  1  0.109802  0.631370  0.963029  1
  O  O45  1  0.890198  0.131370  0.536971  1
  O  O46  1  0.890198  0.368630  0.036971  1
  O  O47  1  0.207356  0.914412  0.643811  1
