# generated using pymatgen
data_Rb3TlO3
_symmetry_space_group_name_H-M   'P 1'
_cell_length_a   7.94390875
_cell_length_b   7.27962794
_cell_length_c   11.73498507
_cell_angle_alpha   90.00000000
_cell_angle_beta   94.02542595
_cell_angle_gamma   90.00000000
_symmetry_Int_Tables_number   1
_chemical_formula_structural   Rb3TlO3
_chemical_formula_sum   'Rb12 Tl4 O12'
_cell_volume   676.94477666
_cell_formula_units_Z   4
loop_
 _symmetry_equiv_pos_site_id
 _symmetry_equiv_pos_as_xyz
  1  'x, y, z'
loop_
 _atom_site_type_symbol
 _atom_site_label
 _atom_site_symmetry_multiplicity
 _atom_site_fract_x
 _atom_site_fract_y
 _atom_site_fract_z
 _atom_site_occupancy
  Rb  Rb0  1  0.937076  0.868470  0.344064  1
  Rb  Rb1  1  0.937076  0.631530  0.844064  1
  Rb  Rb2  1  0.354663  0.177127  0.422540  1
  Rb  Rb3  1  0.631031  0.301157  0.689780  1
  Rb  Rb4  1  0.368969  0.801157  0.810220  1
  Rb  Rb5  1  0.368969  0.698843  0.310220  1
  Rb  Rb6  1  0.631031  0.198843  0.189780  1
  Rb  Rb7  1  0.354663  0.322873  0.922540  1
  Rb  Rb8  1  0.645337  0.822873  0.577460  1
  Rb  Rb9  1  0.645337  0.677127  0.077460  1
  Rb  Rb10  1  0.062924  0.368470  0.155936  1
  Rb  Rb11  1  0.062924  0.131530  0.655936  1
  Tl  Tl12  1  0.833540  0.406865  0.430799  1
  Tl  Tl13  1  0.166460  0.593135  0.569201  1
  Tl  Tl14  1  0.833540  0.093135  0.930799  1
  Tl  Tl15  1  0.166460  0.906865  0.069201  1
  O  O16  1  0.689338  0.934458  0.804317  1
  O  O17  1  0.891616  0.960831  0.104821  1
  O  O18  1  0.108384  0.460831  0.395179  1
  O  O19  1  0.740607  0.364997  0.962537  1
  O  O20  1  0.259393  0.864997  0.537463  1
  O  O21  1  0.259393  0.635003  0.037463  1
  O  O22  1  0.740607  0.135003  0.462537  1
  O  O23  1  0.689338  0.565542  0.304317  1
  O  O24  1  0.108384  0.039169  0.895179  1
  O  O25  1  0.310662  0.065542  0.195683  1
  O  O26  1  0.310662  0.434458  0.695683  1
  O  O27  1  0.891616  0.539169  0.604821  1
