# generated using pymatgen
data_Ca2BHN2
_symmetry_space_group_name_H-M   'P 1'
_cell_length_a   3.68067688
_cell_length_b   9.21101204
_cell_length_c   10.01033477
_cell_angle_alpha   90.00000000
_cell_angle_beta   90.00000000
_cell_angle_gamma   90.00000000
_symmetry_Int_Tables_number   1
_chemical_formula_structural   Ca2BHN2
_chemical_formula_sum   'Ca8 B4 H4 N8'
_cell_volume   339.37796779
_cell_formula_units_Z   4
loop_
 _symmetry_equiv_pos_site_id
 _symmetry_equiv_pos_as_xyz
  1  'x, y, z'
loop_
 _atom_site_type_symbol
 _atom_site_label
 _atom_site_symmetry_multiplicity
 _atom_site_fract_x
 _atom_site_fract_y
 _atom_site_fract_z
 _atom_site_occupancy
  Ca  Ca0  1  0.250000  0.676608  0.524333  1
  Ca  Ca1  1  0.750000  0.323392  0.475667  1
  Ca  Ca2  1  0.250000  0.176608  0.975667  1
  Ca  Ca3  1  0.750000  0.823392  0.024333  1
  Ca  Ca4  1  0.250000  0.527329  0.155870  1
  Ca  Ca5  1  0.750000  0.472671  0.844130  1
  Ca  Ca6  1  0.250000  0.027329  0.344130  1
  Ca  Ca7  1  0.750000  0.972671  0.655870  1
  B  B8  1  0.250000  0.734452  0.823507  1
  B  B9  1  0.750000  0.265548  0.176493  1
  B  B10  1  0.250000  0.234452  0.676493  1
  B  B11  1  0.750000  0.765548  0.323507  1
  H  H12  1  0.250000  0.959034  0.102567  1
  H  H13  1  0.750000  0.040966  0.897433  1
  H  H14  1  0.250000  0.459034  0.397433  1
  H  H15  1  0.750000  0.540966  0.602567  1
  N  N16  1  0.750000  0.679061  0.216896  1
  N  N17  1  0.250000  0.320939  0.783104  1
  N  N18  1  0.750000  0.179061  0.283104  1
  N  N19  1  0.250000  0.820939  0.716896  1
  N  N20  1  0.750000  0.847567  0.435697  1
  N  N21  1  0.250000  0.152433  0.564303  1
  N  N22  1  0.750000  0.347567  0.064303  1
  N  N23  1  0.250000  0.652433  0.935697  1
