# generated using pymatgen
data_U(PdS2)2
_symmetry_space_group_name_H-M   'P 1'
_cell_length_a   7.63180332
_cell_length_b   7.63180332
_cell_length_c   7.63180332
_cell_angle_alpha   127.25186294
_cell_angle_beta   127.25186294
_cell_angle_gamma   77.84015482
_symmetry_Int_Tables_number   1
_chemical_formula_structural   U(PdS2)2
_chemical_formula_sum   'U2 Pd4 S8'
_cell_volume   272.99156816
_cell_formula_units_Z   2
loop_
 _symmetry_equiv_pos_site_id
 _symmetry_equiv_pos_as_xyz
  1  'x, y, z'
loop_
 _atom_site_type_symbol
 _atom_site_label
 _atom_site_symmetry_multiplicity
 _atom_site_fract_x
 _atom_site_fract_y
 _atom_site_fract_z
 _atom_site_occupancy
  U  U0  1  0.000000  0.000000  0.000000  1
  U  U1  1  0.750000  0.250000  0.500000  1
  Pd  Pd2  1  0.375000  0.625000  0.750000  1
  Pd  Pd3  1  0.375000  0.125000  0.750000  1
  Pd  Pd4  1  0.375000  0.625000  0.250000  1
  Pd  Pd5  1  0.875000  0.625000  0.250000  1
  S  S6  1  0.402533  0.858935  0.156048  1
  S  S7  1  0.608935  0.952888  0.956402  1
  S  S8  1  0.996486  0.652533  0.043598  1
  S  S9  1  0.702888  0.246486  0.843952  1
  S  S10  1  0.347467  0.391065  0.343952  1
  S  S11  1  0.141065  0.297112  0.543598  1
  S  S12  1  0.047112  0.003514  0.656048  1
  S  S13  1  0.753514  0.597467  0.456402  1
