# generated using pymatgen
data_Nb4O5
_symmetry_space_group_name_H-M   'P 1'
_cell_length_a   6.74563267
_cell_length_b   6.74563267
_cell_length_c   4.85556725
_cell_angle_alpha   90.00000000
_cell_angle_beta   90.00000000
_cell_angle_gamma   90.00000000
_symmetry_Int_Tables_number   1
_chemical_formula_structural   Nb4O5
_chemical_formula_sum   'Nb8 O10'
_cell_volume   220.94559627
_cell_formula_units_Z   2
loop_
 _symmetry_equiv_pos_site_id
 _symmetry_equiv_pos_as_xyz
  1  'x, y, z'
loop_
 _atom_site_type_symbol
 _atom_site_label
 _atom_site_symmetry_multiplicity
 _atom_site_fract_x
 _atom_site_fract_y
 _atom_site_fract_z
 _atom_site_occupancy
  Nb  Nb0  1  0.296148  0.000000  0.296096  1
  Nb  Nb1  1  0.500000  0.203852  0.796096  1
  Nb  Nb2  1  0.796148  0.500000  0.203904  1
  Nb  Nb3  1  0.500000  0.796148  0.796096  1
  Nb  Nb4  1  0.203852  0.500000  0.203904  1
  Nb  Nb5  1  0.000000  0.703852  0.703904  1
  Nb  Nb6  1  0.703852  0.000000  0.296096  1
  Nb  Nb7  1  0.000000  0.296148  0.703904  1
  O  O8  1  0.286169  0.286169  0.500000  1
  O  O9  1  0.286169  0.713831  0.500000  1
  O  O10  1  0.000000  0.000000  0.500000  1
  O  O11  1  0.713831  0.286169  0.500000  1
  O  O12  1  0.786169  0.786169  0.000000  1
  O  O13  1  0.713831  0.713831  0.500000  1
  O  O14  1  0.213831  0.786169  0.000000  1
  O  O15  1  0.786169  0.213831  0.000000  1
  O  O16  1  0.213831  0.213831  0.000000  1
  O  O17  1  0.500000  0.500000  0.000000  1
