# generated using pymatgen
data_Er(SiNi5)2
_symmetry_space_group_name_H-M   'P 1'
_cell_length_a   8.14684130
_cell_length_b   8.14684130
_cell_length_c   4.66291140
_cell_angle_alpha   90.00000000
_cell_angle_beta   90.00000000
_cell_angle_gamma   90.00000000
_symmetry_Int_Tables_number   1
_chemical_formula_structural   Er(SiNi5)2
_chemical_formula_sum   'Er2 Si4 Ni20'
_cell_volume   309.48220056
_cell_formula_units_Z   2
loop_
 _symmetry_equiv_pos_site_id
 _symmetry_equiv_pos_as_xyz
  1  'x, y, z'
loop_
 _atom_site_type_symbol
 _atom_site_label
 _atom_site_symmetry_multiplicity
 _atom_site_fract_x
 _atom_site_fract_y
 _atom_site_fract_z
 _atom_site_occupancy
  Er  Er0  1  0.500000  0.000000  0.778312  1
  Er  Er1  1  0.000000  0.500000  0.221688  1
  Si  Si2  1  0.750000  0.750000  0.500000  1
  Si  Si3  1  0.250000  0.250000  0.500000  1
  Si  Si4  1  0.750000  0.250000  0.500000  1
  Si  Si5  1  0.250000  0.750000  0.500000  1
  Ni  Ni6  1  0.250000  0.250000  0.000000  1
  Ni  Ni7  1  0.250000  0.750000  0.000000  1
  Ni  Ni8  1  0.500000  0.222396  0.270825  1
  Ni  Ni9  1  0.750000  0.750000  0.000000  1
  Ni  Ni10  1  0.750000  0.250000  0.000000  1
  Ni  Ni11  1  0.500000  0.777604  0.270825  1
  Ni  Ni12  1  0.352564  0.500000  0.239293  1
  Ni  Ni13  1  0.000000  0.147436  0.239293  1
  Ni  Ni14  1  0.000000  0.852564  0.239293  1
  Ni  Ni15  1  0.647436  0.500000  0.239293  1
  Ni  Ni16  1  0.147436  0.000000  0.760707  1
  Ni  Ni17  1  0.852564  0.000000  0.760707  1
  Ni  Ni18  1  0.500000  0.352564  0.760707  1
  Ni  Ni19  1  0.500000  0.647436  0.760707  1
  Ni  Ni20  1  0.777604  0.500000  0.729175  1
  Ni  Ni21  1  0.000000  0.722396  0.729175  1
  Ni  Ni22  1  0.000000  0.277604  0.729175  1
  Ni  Ni23  1  0.222396  0.500000  0.729175  1
  Ni  Ni24  1  0.722396  0.000000  0.270825  1
  Ni  Ni25  1  0.277604  0.000000  0.270825  1
