# generated using pymatgen
data_Ba(PdS2)2
_symmetry_space_group_name_H-M   'P 1'
_cell_length_a   6.79600576
_cell_length_b   6.89944242
_cell_length_c   7.33332229
_cell_angle_alpha   90.00000000
_cell_angle_beta   109.99016041
_cell_angle_gamma   90.00000000
_symmetry_Int_Tables_number   1
_chemical_formula_structural   Ba(PdS2)2
_chemical_formula_sum   'Ba2 Pd4 S8'
_cell_volume   323.13310937
_cell_formula_units_Z   2
loop_
 _symmetry_equiv_pos_site_id
 _symmetry_equiv_pos_as_xyz
  1  'x, y, z'
loop_
 _atom_site_type_symbol
 _atom_site_label
 _atom_site_symmetry_multiplicity
 _atom_site_fract_x
 _atom_site_fract_y
 _atom_site_fract_z
 _atom_site_occupancy
  Ba  Ba0  1  0.284023  0.250000  0.494134  1
  Ba  Ba1  1  0.715977  0.750000  0.505866  1
  Pd  Pd2  1  0.000000  0.000000  0.000000  1
  Pd  Pd3  1  0.000000  0.500000  0.000000  1
  Pd  Pd4  1  0.516631  0.250000  0.009472  1
  Pd  Pd5  1  0.483369  0.750000  0.990528  1
  S  S6  1  0.794804  0.250000  0.513592  1
  S  S7  1  0.205196  0.750000  0.486408  1
  S  S8  1  0.974176  0.750000  0.210829  1
  S  S9  1  0.025824  0.250000  0.789171  1
  S  S10  1  0.367614  0.005282  0.142879  1
  S  S11  1  0.632386  0.505282  0.857121  1
  S  S12  1  0.367614  0.494718  0.142879  1
  S  S13  1  0.632386  0.994718  0.857121  1
