# generated using pymatgen
data_K2UCl5
_symmetry_space_group_name_H-M   'P 1'
_cell_length_a   8.15593797
_cell_length_b   8.81293952
_cell_length_c   13.04411236
_cell_angle_alpha   90.00000000
_cell_angle_beta   90.00000000
_cell_angle_gamma   90.00000000
_symmetry_Int_Tables_number   1
_chemical_formula_structural   K2UCl5
_chemical_formula_sum   'K8 U4 Cl20'
_cell_volume   937.58194362
_cell_formula_units_Z   4
loop_
 _symmetry_equiv_pos_site_id
 _symmetry_equiv_pos_as_xyz
  1  'x, y, z'
loop_
 _atom_site_type_symbol
 _atom_site_label
 _atom_site_symmetry_multiplicity
 _atom_site_fract_x
 _atom_site_fract_y
 _atom_site_fract_z
 _atom_site_occupancy
  K  K0  1  0.950120  0.004805  0.829250  1
  K  K1  1  0.450120  0.995195  0.670750  1
  K  K2  1  0.049880  0.504805  0.170750  1
  K  K3  1  0.549880  0.495195  0.329250  1
  K  K4  1  0.049880  0.995195  0.170750  1
  K  K5  1  0.549880  0.004805  0.329250  1
  K  K6  1  0.950120  0.495195  0.829250  1
  K  K7  1  0.450120  0.504805  0.670750  1
  U  U8  1  0.569742  0.750000  0.002777  1
  U  U9  1  0.069742  0.250000  0.497223  1
  U  U10  1  0.430258  0.250000  0.997223  1
  U  U11  1  0.930258  0.750000  0.502777  1
  Cl  Cl12  1  0.337343  0.958879  0.921006  1
  Cl  Cl13  1  0.837343  0.041121  0.578994  1
  Cl  Cl14  1  0.662657  0.458879  0.078994  1
  Cl  Cl15  1  0.162657  0.541121  0.421006  1
  Cl  Cl16  1  0.662657  0.041121  0.078994  1
  Cl  Cl17  1  0.162657  0.958879  0.421006  1
  Cl  Cl18  1  0.337343  0.541121  0.921006  1
  Cl  Cl19  1  0.837343  0.458879  0.578994  1
  Cl  Cl20  1  0.372192  0.750000  0.177399  1
  Cl  Cl21  1  0.872192  0.250000  0.322601  1
  Cl  Cl22  1  0.627808  0.250000  0.822601  1
  Cl  Cl23  1  0.127808  0.750000  0.677399  1
  Cl  Cl24  1  0.080794  0.250000  0.993013  1
  Cl  Cl25  1  0.580794  0.750000  0.506987  1
  Cl  Cl26  1  0.919206  0.750000  0.006987  1
  Cl  Cl27  1  0.419206  0.250000  0.493013  1
  Cl  Cl28  1  0.663113  0.750000  0.796750  1
  Cl  Cl29  1  0.163113  0.250000  0.703250  1
  Cl  Cl30  1  0.336887  0.250000  0.203250  1
  Cl  Cl31  1  0.836887  0.750000  0.296750  1
