# generated using pymatgen
data_Sm2InGe2
_symmetry_space_group_name_H-M   'P 1'
_cell_length_a   7.50206857
_cell_length_b   7.50206857
_cell_length_c   4.30829197
_cell_angle_alpha   90.00000000
_cell_angle_beta   90.00000000
_cell_angle_gamma   90.00000000
_symmetry_Int_Tables_number   1
_chemical_formula_structural   Sm2InGe2
_chemical_formula_sum   'Sm4 In2 Ge4'
_cell_volume   242.47512180
_cell_formula_units_Z   2
loop_
 _symmetry_equiv_pos_site_id
 _symmetry_equiv_pos_as_xyz
  1  'x, y, z'
loop_
 _atom_site_type_symbol
 _atom_site_label
 _atom_site_symmetry_multiplicity
 _atom_site_fract_x
 _atom_site_fract_y
 _atom_site_fract_z
 _atom_site_occupancy
  Sm  Sm0  1  0.321130  0.821130  0.500000  1
  Sm  Sm1  1  0.821130  0.678870  0.500000  1
  Sm  Sm2  1  0.178870  0.321130  0.500000  1
  Sm  Sm3  1  0.678870  0.178870  0.500000  1
  In  In4  1  0.000000  0.000000  0.000000  1
  In  In5  1  0.500000  0.500000  0.000000  1
  Ge  Ge6  1  0.120429  0.620429  0.000000  1
  Ge  Ge7  1  0.620429  0.879571  0.000000  1
  Ge  Ge8  1  0.379571  0.120429  0.000000  1
  Ge  Ge9  1  0.879571  0.379571  0.000000  1
