# generated using pymatgen
data_BaCuN
_symmetry_space_group_name_H-M   'P 1'
_cell_length_a   7.80897605
_cell_length_b   7.80897605
_cell_length_c   9.56267001
_cell_angle_alpha   78.03914988
_cell_angle_beta   101.96085012
_cell_angle_gamma   137.84484631
_symmetry_Int_Tables_number   1
_chemical_formula_structural   BaCuN
_chemical_formula_sum   'Ba6 Cu6 N6'
_cell_volume   381.58892031
_cell_formula_units_Z   6
loop_
 _symmetry_equiv_pos_site_id
 _symmetry_equiv_pos_as_xyz
  1  'x, y, z'
loop_
 _atom_site_type_symbol
 _atom_site_label
 _atom_site_symmetry_multiplicity
 _atom_site_fract_x
 _atom_site_fract_y
 _atom_site_fract_z
 _atom_site_occupancy
  Ba  Ba0  1  0.282293  0.282293  0.250000  1
  Ba  Ba1  1  0.717707  0.717707  0.750000  1
  Ba  Ba2  1  0.930457  0.593941  0.128916  1
  Ba  Ba3  1  0.593941  0.930457  0.371084  1
  Ba  Ba4  1  0.069543  0.406059  0.871084  1
  Ba  Ba5  1  0.406059  0.069543  0.628916  1
  Cu  Cu6  1  0.306094  0.158445  0.940531  1
  Cu  Cu7  1  0.158445  0.306094  0.559469  1
  Cu  Cu8  1  0.693906  0.841555  0.059469  1
  Cu  Cu9  1  0.841555  0.693906  0.440531  1
  Cu  Cu10  1  0.500000  0.000000  0.000000  1
  Cu  Cu11  1  0.000000  0.500000  0.500000  1
  N  N12  1  0.000000  1.000000  0.500000  1
  N  N13  1  0.000000  0.000000  0.000000  1
  N  N14  1  0.700963  0.383457  0.393753  1
  N  N15  1  0.383457  0.700963  0.106247  1
  N  N16  1  0.299037  0.616543  0.606247  1
  N  N17  1  0.616543  0.299037  0.893753  1
