# generated using pymatgen
data_K2PdF4
_symmetry_space_group_name_H-M   'P 1'
_cell_length_a   5.82813203
_cell_length_b   5.82813203
_cell_length_c   4.32743655
_cell_angle_alpha   87.47464442
_cell_angle_beta   92.52535558
_cell_angle_gamma   117.54554787
_symmetry_Int_Tables_number   1
_chemical_formula_structural   K2PdF4
_chemical_formula_sum   'K2 Pd1 F4'
_cell_volume   130.15510391
_cell_formula_units_Z   1
loop_
 _symmetry_equiv_pos_site_id
 _symmetry_equiv_pos_as_xyz
  1  'x, y, z'
loop_
 _atom_site_type_symbol
 _atom_site_label
 _atom_site_symmetry_multiplicity
 _atom_site_fract_x
 _atom_site_fract_y
 _atom_site_fract_z
 _atom_site_occupancy
  K  K0  1  0.655112  0.344888  0.722472  1
  K  K1  1  0.344888  0.655112  0.277528  1
  Pd  Pd2  1  0.000000  0.000000  0.000000  1
  F  F3  1  0.873181  0.652771  0.215089  1
  F  F4  1  0.652771  0.873181  0.784911  1
  F  F5  1  0.126819  0.347229  0.784911  1
  F  F6  1  0.347229  0.126819  0.215089  1
