# generated using pymatgen
data_K3B6BrO10
_symmetry_space_group_name_H-M   'P 1'
_cell_length_a   6.62621125
_cell_length_b   6.62621125
_cell_length_c   6.62621125
_cell_angle_alpha   100.86405553
_cell_angle_beta   100.86405553
_cell_angle_gamma   100.86405553
_symmetry_Int_Tables_number   1
_chemical_formula_structural   K3B6BrO10
_chemical_formula_sum   'K3 B6 Br1 O10'
_cell_volume   272.92661082
_cell_formula_units_Z   1
loop_
 _symmetry_equiv_pos_site_id
 _symmetry_equiv_pos_as_xyz
  1  'x, y, z'
loop_
 _atom_site_type_symbol
 _atom_site_label
 _atom_site_symmetry_multiplicity
 _atom_site_fract_x
 _atom_site_fract_y
 _atom_site_fract_z
 _atom_site_occupancy
  K  K0  1  0.528168  0.070039  0.070039  1
  K  K1  1  0.070039  0.528168  0.070039  1
  K  K2  1  0.070039  0.070039  0.528168  1
  B  B3  1  0.378822  0.641178  0.641178  1
  B  B4  1  0.641178  0.378822  0.641178  1
  B  B5  1  0.641178  0.641178  0.378822  1
  B  B6  1  0.521682  0.968791  0.521682  1
  B  B7  1  0.968791  0.521682  0.521682  1
  B  B8  1  0.521682  0.521682  0.968791  1
  Br  Br9  1  0.005352  0.005352  0.005352  1
  O  O10  1  0.513240  0.513240  0.174174  1
  O  O11  1  0.556785  0.556785  0.556785  1
  O  O12  1  0.513240  0.174174  0.513240  1
  O  O13  1  0.174174  0.513240  0.513240  1
  O  O14  1  0.399988  0.633739  0.864887  1
  O  O15  1  0.633739  0.864887  0.399988  1
  O  O16  1  0.864887  0.399988  0.633739  1
  O  O17  1  0.399988  0.864887  0.633739  1
  O  O18  1  0.864887  0.633739  0.399988  1
  O  O19  1  0.633739  0.399988  0.864887  1
