# generated using pymatgen
data_Zr3Rh5
_symmetry_space_group_name_H-M   'P 1'
_cell_length_a   5.64312499
_cell_length_b   5.64312499
_cell_length_c   8.72245307
_cell_angle_alpha   90.00000000
_cell_angle_beta   90.00000000
_cell_angle_gamma   102.55460613
_symmetry_Int_Tables_number   1
_chemical_formula_structural   Zr3Rh5
_chemical_formula_sum   'Zr6 Rh10'
_cell_volume   271.12372701
_cell_formula_units_Z   2
loop_
 _symmetry_equiv_pos_site_id
 _symmetry_equiv_pos_as_xyz
  1  'x, y, z'
loop_
 _atom_site_type_symbol
 _atom_site_label
 _atom_site_symmetry_multiplicity
 _atom_site_fract_x
 _atom_site_fract_y
 _atom_site_fract_z
 _atom_site_occupancy
  Zr  Zr0  1  0.565515  0.565515  0.750000  1
  Zr  Zr1  1  0.434485  0.434485  0.250000  1
  Zr  Zr2  1  0.791663  0.208337  0.500000  1
  Zr  Zr3  1  0.208337  0.791663  0.000000  1
  Zr  Zr4  1  0.208337  0.791663  0.500000  1
  Zr  Zr5  1  0.791663  0.208337  0.000000  1
  Rh  Rh6  1  0.711692  0.711692  0.026888  1
  Rh  Rh7  1  0.711692  0.711692  0.473112  1
  Rh  Rh8  1  0.288308  0.288308  0.973112  1
  Rh  Rh9  1  0.288308  0.288308  0.526888  1
  Rh  Rh10  1  0.493773  0.024967  0.750000  1
  Rh  Rh11  1  0.506227  0.975032  0.250000  1
  Rh  Rh12  1  0.013107  0.013107  0.250000  1
  Rh  Rh13  1  0.986893  0.986893  0.750000  1
  Rh  Rh14  1  0.024967  0.493773  0.750000  1
  Rh  Rh15  1  0.975032  0.506227  0.250000  1
