# generated using pymatgen
data_SrIn4Ni
_symmetry_space_group_name_H-M   'P 1'
_cell_length_a   8.90241677
_cell_length_b   8.90241677
_cell_length_c   7.43161745
_cell_angle_alpha   90.00000000
_cell_angle_beta   90.00000000
_cell_angle_gamma   150.32562060
_symmetry_Int_Tables_number   1
_chemical_formula_structural   SrIn4Ni
_chemical_formula_sum   'Sr2 In8 Ni2'
_cell_volume   291.58553413
_cell_formula_units_Z   2
loop_
 _symmetry_equiv_pos_site_id
 _symmetry_equiv_pos_as_xyz
  1  'x, y, z'
loop_
 _atom_site_type_symbol
 _atom_site_label
 _atom_site_symmetry_multiplicity
 _atom_site_fract_x
 _atom_site_fract_y
 _atom_site_fract_z
 _atom_site_occupancy
  Sr  Sr0  1  0.121383  0.878617  0.750000  1
  Sr  Sr1  1  0.878617  0.121383  0.250000  1
  In  In2  1  0.689695  0.310305  0.050237  1
  In  In3  1  0.310305  0.689695  0.949763  1
  In  In4  1  0.689695  0.310305  0.449763  1
  In  In5  1  0.075488  0.924512  0.250000  1
  In  In6  1  0.500000  0.500000  1.000000  1
  In  In7  1  0.310305  0.689695  0.550237  1
  In  In8  1  0.500000  0.500000  0.500000  1
  In  In9  1  0.924512  0.075488  0.750000  1
  Ni  Ni10  1  0.225901  0.774099  0.250000  1
  Ni  Ni11  1  0.774099  0.225901  0.750000  1
