# generated using pymatgen
data_As2S2O9
_symmetry_space_group_name_H-M   'P 1'
_cell_length_a   6.85129167
_cell_length_b   6.76258846
_cell_length_c   17.58962431
_cell_angle_alpha   90.00000000
_cell_angle_beta   96.24649388
_cell_angle_gamma   90.00000000
_symmetry_Int_Tables_number   1
_chemical_formula_structural   As2S2O9
_chemical_formula_sum   'As8 S8 O36'
_cell_volume   810.13218751
_cell_formula_units_Z   4
loop_
 _symmetry_equiv_pos_site_id
 _symmetry_equiv_pos_as_xyz
  1  'x, y, z'
loop_
 _atom_site_type_symbol
 _atom_site_label
 _atom_site_symmetry_multiplicity
 _atom_site_fract_x
 _atom_site_fract_y
 _atom_site_fract_z
 _atom_site_occupancy
  As  As0  1  0.702641  0.762034  0.960206  1
  As  As1  1  0.702641  0.737966  0.460206  1
  As  As2  1  0.815169  0.615408  0.796191  1
  As  As3  1  0.815169  0.884592  0.296191  1
  As  As4  1  0.184831  0.115408  0.703809  1
  As  As5  1  0.184831  0.384592  0.203809  1
  As  As6  1  0.297359  0.262034  0.539794  1
  As  As7  1  0.297359  0.237966  0.039794  1
  S  S8  1  0.720537  0.072034  0.823510  1
  S  S9  1  0.720537  0.427966  0.323510  1
  S  S10  1  0.149303  0.720260  0.931046  1
  S  S11  1  0.149303  0.779740  0.431046  1
  S  S12  1  0.279463  0.572034  0.676490  1
  S  S13  1  0.279463  0.927966  0.176490  1
  S  S14  1  0.850697  0.220260  0.568954  1
  S  S15  1  0.850697  0.279740  0.068954  1
  O  O16  1  0.521315  0.098765  0.789319  1
  O  O17  1  0.521315  0.401235  0.289319  1
  O  O18  1  0.852091  0.239455  0.821229  1
  O  O19  1  0.852091  0.260545  0.321229  1
  O  O20  1  0.718997  0.012694  0.908919  1
  O  O21  1  0.718997  0.487306  0.408919  1
  O  O22  1  0.820474  0.899065  0.784406  1
  O  O23  1  0.820474  0.600935  0.284406  1
  O  O24  1  0.213072  0.917164  0.914359  1
  O  O25  1  0.213072  0.582836  0.414359  1
  O  O26  1  0.297128  0.591224  0.970038  1
  O  O27  1  0.297128  0.908776  0.470038  1
  O  O28  1  0.976804  0.729964  0.982514  1
  O  O29  1  0.976804  0.770036  0.482514  1
  O  O30  1  0.065889  0.612252  0.856818  1
  O  O31  1  0.065889  0.887748  0.356818  1
  O  O32  1  0.329879  0.387184  0.124675  1
  O  O33  1  0.329879  0.112816  0.624675  1
  O  O34  1  0.670121  0.887184  0.375325  1
  O  O35  1  0.670121  0.612816  0.875325  1
  O  O36  1  0.023196  0.270036  0.017486  1
  O  O37  1  0.023196  0.229964  0.517486  1
  O  O38  1  0.934111  0.387748  0.143182  1
  O  O39  1  0.934111  0.112252  0.643182  1
  O  O40  1  0.702872  0.408776  0.029962  1
  O  O41  1  0.702872  0.091224  0.529962  1
  O  O42  1  0.786928  0.082836  0.085641  1
  O  O43  1  0.786928  0.417164  0.585641  1
  O  O44  1  0.281003  0.987306  0.091081  1
  O  O45  1  0.281003  0.512694  0.591081  1
  O  O46  1  0.179526  0.100935  0.215594  1
  O  O47  1  0.179526  0.399065  0.715594  1
  O  O48  1  0.147909  0.760545  0.178771  1
  O  O49  1  0.147909  0.739455  0.678771  1
  O  O50  1  0.478685  0.901235  0.210681  1
  O  O51  1  0.478685  0.598765  0.710681  1
