# generated using pymatgen
data_LiSn2(PO3)5
_symmetry_space_group_name_H-M   'P 1'
_cell_length_a   5.54771417
_cell_length_b   9.85421065
_cell_length_c   13.49092576
_cell_angle_alpha   90.00000000
_cell_angle_beta   112.99708775
_cell_angle_gamma   90.00000000
_symmetry_Int_Tables_number   1
_chemical_formula_structural   LiSn2(PO3)5
_chemical_formula_sum   'Li2 Sn4 P10 O30'
_cell_volume   678.91143419
_cell_formula_units_Z   2
loop_
 _symmetry_equiv_pos_site_id
 _symmetry_equiv_pos_as_xyz
  1  'x, y, z'
loop_
 _atom_site_type_symbol
 _atom_site_label
 _atom_site_symmetry_multiplicity
 _atom_site_fract_x
 _atom_site_fract_y
 _atom_site_fract_z
 _atom_site_occupancy
  Li  Li0  1  0.080022  0.983165  0.523787  1
  Li  Li1  1  0.080022  0.016835  0.023787  1
  Sn  Sn2  1  0.028168  0.310882  0.912929  1
  Sn  Sn3  1  0.964949  0.306446  0.581182  1
  Sn  Sn4  1  0.028168  0.689118  0.412929  1
  Sn  Sn5  1  0.964949  0.693554  0.081182  1
  P  P6  1  0.333479  0.805390  0.918059  1
  P  P7  1  0.457219  0.538612  0.853111  1
  P  P8  1  0.011506  0.998475  0.749477  1
  P  P9  1  0.536160  0.540365  0.647014  1
  P  P10  1  0.663849  0.810232  0.584281  1
  P  P11  1  0.333479  0.194610  0.418059  1
  P  P12  1  0.457219  0.461388  0.353111  1
  P  P13  1  0.011506  0.001525  0.249477  1
  P  P14  1  0.536160  0.459635  0.147014  1
  P  P15  1  0.663849  0.189768  0.084281  1
  O  O16  1  0.155891  0.834831  0.975841  1
  O  O17  1  0.624410  0.823307  0.978645  1
  O  O18  1  0.723492  0.538966  0.944893  1
  O  O19  1  0.269836  0.652334  0.872125  1
  O  O20  1  0.956118  0.080687  0.831481  1
  O  O21  1  0.309457  0.406940  0.827230  1
  O  O22  1  0.249469  0.892265  0.808990  1
  O  O23  1  0.488161  0.602106  0.748739  1
  O  O24  1  0.759686  0.898848  0.693239  1
  O  O25  1  0.690352  0.411015  0.676099  1
  O  O26  1  0.078417  0.066418  0.663780  1
  O  O27  1  0.721576  0.657242  0.630901  1
  O  O28  1  0.275404  0.538501  0.552290  1
  O  O29  1  0.370848  0.832039  0.528084  1
  O  O30  1  0.836131  0.833345  0.523421  1
  O  O31  1  0.155891  0.165169  0.475841  1
  O  O32  1  0.624410  0.176693  0.478645  1
  O  O33  1  0.723492  0.461034  0.444893  1
  O  O34  1  0.269836  0.347666  0.372125  1
  O  O35  1  0.956118  0.919313  0.331481  1
  O  O36  1  0.309457  0.593060  0.327230  1
  O  O37  1  0.249469  0.107735  0.308990  1
  O  O38  1  0.488161  0.397894  0.248739  1
  O  O39  1  0.759686  0.101152  0.193239  1
  O  O40  1  0.690352  0.588985  0.176099  1
  O  O41  1  0.078417  0.933582  0.163780  1
  O  O42  1  0.721576  0.342758  0.130901  1
  O  O43  1  0.275404  0.461499  0.052290  1
  O  O44  1  0.370848  0.167961  0.028084  1
  O  O45  1  0.836131  0.166655  0.023421  1
