# generated using pymatgen
data_Rb3Cu2Cl7
_symmetry_space_group_name_H-M   'P 1'
_cell_length_a   13.06570921
_cell_length_b   13.06570921
_cell_length_c   7.32366192
_cell_angle_alpha   90.00000000
_cell_angle_beta   90.00000000
_cell_angle_gamma   147.43831217
_symmetry_Int_Tables_number   1
_chemical_formula_structural   Rb3Cu2Cl7
_chemical_formula_sum   'Rb6 Cu4 Cl14'
_cell_volume   672.88969970
_cell_formula_units_Z   2
loop_
 _symmetry_equiv_pos_site_id
 _symmetry_equiv_pos_as_xyz
  1  'x, y, z'
loop_
 _atom_site_type_symbol
 _atom_site_label
 _atom_site_symmetry_multiplicity
 _atom_site_fract_x
 _atom_site_fract_y
 _atom_site_fract_z
 _atom_site_occupancy
  Rb  Rb0  1  0.179057  0.820943  0.000000  1
  Rb  Rb1  1  0.820943  0.179057  0.000000  1
  Rb  Rb2  1  0.320943  0.679057  0.500000  1
  Rb  Rb3  1  0.679057  0.320943  0.500000  1
  Rb  Rb4  1  0.000000  0.000000  0.000000  1
  Rb  Rb5  1  0.500000  0.500000  0.500000  1
  Cu  Cu6  1  0.404886  0.595114  0.000000  1
  Cu  Cu7  1  0.595114  0.404886  0.000000  1
  Cu  Cu8  1  0.095114  0.904886  0.500000  1
  Cu  Cu9  1  0.904886  0.095114  0.500000  1
  Cl  Cl10  1  0.692431  0.876417  0.715582  1
  Cl  Cl11  1  0.876417  0.692431  0.284418  1
  Cl  Cl12  1  0.307569  0.123583  0.715582  1
  Cl  Cl13  1  0.123583  0.307569  0.284418  1
  Cl  Cl14  1  0.807569  0.623583  0.784418  1
  Cl  Cl15  1  0.623583  0.807569  0.215582  1
  Cl  Cl16  1  0.192431  0.376417  0.784418  1
  Cl  Cl17  1  0.376417  0.192431  0.215582  1
  Cl  Cl18  1  0.310390  0.689610  0.000000  1
  Cl  Cl19  1  0.689610  0.310390  0.000000  1
  Cl  Cl20  1  0.500000  0.500000  0.000000  1
  Cl  Cl21  1  0.000000  0.000000  0.500000  1
  Cl  Cl22  1  0.810390  0.189610  0.500000  1
  Cl  Cl23  1  0.189610  0.810390  0.500000  1
