# generated using pymatgen
data_La2NiO4
_symmetry_space_group_name_H-M   'P 1'
_cell_length_a   5.60789174
_cell_length_b   5.60789174
_cell_length_c   12.42322913
_cell_angle_alpha   90.00000000
_cell_angle_beta   90.00000000
_cell_angle_gamma   90.00000000
_symmetry_Int_Tables_number   1
_chemical_formula_structural   La2NiO4
_chemical_formula_sum   'La8 Ni4 O16'
_cell_volume   390.69129725
_cell_formula_units_Z   4
loop_
 _symmetry_equiv_pos_site_id
 _symmetry_equiv_pos_as_xyz
  1  'x, y, z'
loop_
 _atom_site_type_symbol
 _atom_site_label
 _atom_site_symmetry_multiplicity
 _atom_site_fract_x
 _atom_site_fract_y
 _atom_site_fract_z
 _atom_site_occupancy
  La  La0  1  0.262803  0.762803  0.387017  1
  La  La1  1  0.737197  0.237197  0.387017  1
  La  La2  1  0.762803  0.262803  0.112983  1
  La  La3  1  0.262803  0.237197  0.887017  1
  La  La4  1  0.737197  0.762803  0.887017  1
  La  La5  1  0.237197  0.262803  0.612983  1
  La  La6  1  0.762803  0.737197  0.612983  1
  La  La7  1  0.237197  0.737197  0.112983  1
  Ni  Ni8  1  0.750000  0.250000  0.750000  1
  Ni  Ni9  1  0.250000  0.250000  0.250000  1
  Ni  Ni10  1  0.750000  0.750000  0.250000  1
  Ni  Ni11  1  0.250000  0.750000  0.750000  1
  O  O12  1  0.203529  0.703529  0.570669  1
  O  O13  1  0.796471  0.296471  0.570669  1
  O  O14  1  0.703529  0.203529  0.929331  1
  O  O15  1  0.203529  0.296471  0.070669  1
  O  O16  1  0.796471  0.703529  0.070669  1
  O  O17  1  0.296471  0.203529  0.429331  1
  O  O18  1  0.703529  0.796471  0.429331  1
  O  O19  1  0.296471  0.796471  0.929331  1
  O  O20  1  0.000000  0.000000  0.250000  1
  O  O21  1  0.500000  0.500000  0.750000  1
  O  O22  1  0.500000  0.500000  0.250000  1
  O  O23  1  0.000000  0.000000  0.750000  1
  O  O24  1  0.500000  0.000000  0.725202  1
  O  O25  1  0.500000  0.000000  0.225202  1
  O  O26  1  0.000000  0.500000  0.274798  1
  O  O27  1  0.000000  0.500000  0.774798  1
