# generated using pymatgen
data_K3B12H12I
_symmetry_space_group_name_H-M   'P 1'
_cell_length_a   7.06628382
_cell_length_b   7.06628382
_cell_length_c   7.06628382
_cell_angle_alpha   93.83155734
_cell_angle_beta   93.83155734
_cell_angle_gamma   93.83155734
_symmetry_Int_Tables_number   1
_chemical_formula_structural   K3B12H12I
_chemical_formula_sum   'K3 B12 H12 I1'
_cell_volume   350.35897774
_cell_formula_units_Z   1
loop_
 _symmetry_equiv_pos_site_id
 _symmetry_equiv_pos_as_xyz
  1  'x, y, z'
loop_
 _atom_site_type_symbol
 _atom_site_label
 _atom_site_symmetry_multiplicity
 _atom_site_fract_x
 _atom_site_fract_y
 _atom_site_fract_z
 _atom_site_occupancy
  K  K0  1  0.000000  0.500000  0.500000  1
  K  K1  1  0.500000  0.000000  0.500000  1
  K  K2  1  0.500000  0.500000  1.000000  1
  B  B3  1  0.120923  0.120923  0.842001  1
  B  B4  1  0.879077  0.879077  0.157999  1
  B  B5  1  0.879077  0.157999  0.879077  1
  B  B6  1  0.157999  0.879077  0.879077  1
  B  B7  1  0.232829  0.060814  0.060814  1
  B  B8  1  0.060814  0.232829  0.060814  1
  B  B9  1  0.060814  0.060814  0.232829  1
  B  B10  1  0.939186  0.939186  0.767171  1
  B  B11  1  0.767171  0.939186  0.939186  1
  B  B12  1  0.939186  0.767171  0.939186  1
  B  B13  1  0.842001  0.120923  0.120923  1
  B  B14  1  0.120923  0.842001  0.120923  1
  H  H15  1  0.269778  0.792255  0.792255  1
  H  H16  1  0.792255  0.269778  0.792255  1
  H  H17  1  0.792255  0.792255  0.269778  1
  H  H18  1  0.207745  0.207745  0.730222  1
  H  H19  1  0.601744  0.895595  0.895595  1
  H  H20  1  0.895595  0.601744  0.895595  1
  H  H21  1  0.895595  0.895595  0.601744  1
  H  H22  1  0.104405  0.104405  0.398256  1
  H  H23  1  0.398256  0.104405  0.104405  1
  H  H24  1  0.104405  0.398256  0.104405  1
  H  H25  1  0.730222  0.207745  0.207745  1
  H  H26  1  0.207745  0.730222  0.207745  1
  I  I27  1  0.500000  0.500000  0.500000  1
