# generated using pymatgen
data_Gd2CBr
_symmetry_space_group_name_H-M   'P 1'
_cell_length_a   3.73060519
_cell_length_b   3.73060519
_cell_length_c   14.39714684
_cell_angle_alpha   90.00000000
_cell_angle_beta   90.00000000
_cell_angle_gamma   120.00000000
_symmetry_Int_Tables_number   1
_chemical_formula_structural   Gd2CBr
_chemical_formula_sum   'Gd4 C2 Br2'
_cell_volume   173.52643597
_cell_formula_units_Z   2
loop_
 _symmetry_equiv_pos_site_id
 _symmetry_equiv_pos_as_xyz
  1  'x, y, z'
loop_
 _atom_site_type_symbol
 _atom_site_label
 _atom_site_symmetry_multiplicity
 _atom_site_fract_x
 _atom_site_fract_y
 _atom_site_fract_z
 _atom_site_occupancy
  Gd  Gd0  1  0.333333  0.666667  0.090168  1
  Gd  Gd1  1  0.666667  0.333333  0.590168  1
  Gd  Gd2  1  0.666667  0.333333  0.909832  1
  Gd  Gd3  1  0.333333  0.666667  0.409832  1
  C  C4  1  0.000000  0.000000  0.000000  1
  C  C5  1  0.000000  0.000000  0.500000  1
  Br  Br6  1  0.333333  0.666667  0.750000  1
  Br  Br7  1  0.666667  0.333333  0.250000  1
