# generated using pymatgen
data_Na2W2O7
_symmetry_space_group_name_H-M   'P 1'
_cell_length_a   7.09118716
_cell_length_b   7.09118716
_cell_length_c   15.04439345
_cell_angle_alpha   90.00000000
_cell_angle_beta   90.00000000
_cell_angle_gamma   117.24639797
_symmetry_Int_Tables_number   1
_chemical_formula_structural   Na2W2O7
_chemical_formula_sum   'Na8 W8 O28'
_cell_volume   672.56888884
_cell_formula_units_Z   4
loop_
 _symmetry_equiv_pos_site_id
 _symmetry_equiv_pos_as_xyz
  1  'x, y, z'
loop_
 _atom_site_type_symbol
 _atom_site_label
 _atom_site_symmetry_multiplicity
 _atom_site_fract_x
 _atom_site_fract_y
 _atom_site_fract_z
 _atom_site_occupancy
  Na  Na0  1  0.330651  0.669349  0.653947  1
  Na  Na1  1  0.250293  0.250293  0.000000  1
  Na  Na2  1  0.669349  0.330651  0.346053  1
  Na  Na3  1  0.749707  0.749707  0.000000  1
  Na  Na4  1  0.249707  0.249707  0.500000  1
  Na  Na5  1  0.750293  0.750293  0.500000  1
  Na  Na6  1  0.830651  0.169349  0.846053  1
  Na  Na7  1  0.169349  0.830651  0.153947  1
  W  W8  1  0.337689  0.162311  0.750000  1
  W  W9  1  0.253918  0.746082  0.413664  1
  W  W10  1  0.162311  0.337689  0.250000  1
  W  W11  1  0.662311  0.837689  0.250000  1
  W  W12  1  0.246082  0.753918  0.913664  1
  W  W13  1  0.746082  0.253918  0.586336  1
  W  W14  1  0.753918  0.246082  0.086336  1
  W  W15  1  0.837689  0.662311  0.750000  1
  O  O16  1  0.876328  0.123672  0.530818  1
  O  O17  1  0.139713  0.860287  0.997731  1
  O  O18  1  0.208066  0.196825  0.161152  1
  O  O19  1  0.623672  0.376328  0.030818  1
  O  O20  1  0.708066  0.696825  0.338848  1
  O  O21  1  0.803175  0.791934  0.161152  1
  O  O22  1  0.471600  0.935110  0.343387  1
  O  O23  1  0.791934  0.803175  0.838848  1
  O  O24  1  0.971600  0.435110  0.156613  1
  O  O25  1  0.303175  0.291934  0.338848  1
  O  O26  1  0.123333  0.876667  0.718489  1
  O  O27  1  0.360287  0.639713  0.497731  1
  O  O28  1  0.876667  0.123333  0.281511  1
  O  O29  1  0.376328  0.623672  0.969182  1
  O  O30  1  0.623333  0.376667  0.781511  1
  O  O31  1  0.860287  0.139713  0.002269  1
  O  O32  1  0.064890  0.528400  0.343387  1
  O  O33  1  0.564890  0.028400  0.156613  1
  O  O34  1  0.935110  0.471600  0.656613  1
  O  O35  1  0.639713  0.360287  0.502269  1
  O  O36  1  0.376667  0.623333  0.218489  1
  O  O37  1  0.528400  0.064890  0.656613  1
  O  O38  1  0.196825  0.208066  0.838848  1
  O  O39  1  0.435110  0.971600  0.843387  1
  O  O40  1  0.028400  0.564890  0.843387  1
  O  O41  1  0.291934  0.303175  0.661152  1
  O  O42  1  0.123672  0.876328  0.469182  1
  O  O43  1  0.696825  0.708066  0.661152  1
