# generated using pymatgen
data_ZnH6(CO3)2
_symmetry_space_group_name_H-M   'P 1'
_cell_length_a   8.81754931
_cell_length_b   7.24041796
_cell_length_c   9.37525076
_cell_angle_alpha   90.00000000
_cell_angle_beta   97.50046931
_cell_angle_gamma   90.00000000
_symmetry_Int_Tables_number   1
_chemical_formula_structural   ZnH6(CO3)2
_chemical_formula_sum   'Zn4 H24 C8 O24'
_cell_volume   593.42047172
_cell_formula_units_Z   4
loop_
 _symmetry_equiv_pos_site_id
 _symmetry_equiv_pos_as_xyz
  1  'x, y, z'
loop_
 _atom_site_type_symbol
 _atom_site_label
 _atom_site_symmetry_multiplicity
 _atom_site_fract_x
 _atom_site_fract_y
 _atom_site_fract_z
 _atom_site_occupancy
  Zn  Zn0  1  0.500000  0.000000  0.500000  1
  Zn  Zn1  1  0.500000  0.500000  0.000000  1
  Zn  Zn2  1  0.000000  0.500000  0.500000  1
  Zn  Zn3  1  0.000000  0.000000  0.000000  1
  H  H4  1  0.304551  0.098747  0.264630  1
  H  H5  1  0.695449  0.598747  0.235370  1
  H  H6  1  0.695449  0.901253  0.735370  1
  H  H7  1  0.304551  0.401253  0.764630  1
  H  H8  1  0.470489  0.151076  0.222876  1
  H  H9  1  0.529511  0.651076  0.277124  1
  H  H10  1  0.529511  0.848924  0.777124  1
  H  H11  1  0.470489  0.348924  0.722876  1
  H  H12  1  0.762513  0.102721  0.451872  1
  H  H13  1  0.237487  0.602721  0.048128  1
  H  H14  1  0.237487  0.897279  0.548128  1
  H  H15  1  0.762513  0.397279  0.951872  1
  H  H16  1  0.784487  0.887622  0.489532  1
  H  H17  1  0.215513  0.387622  0.010468  1
  H  H18  1  0.215513  0.112378  0.510468  1
  H  H19  1  0.784487  0.612378  0.989532  1
  H  H20  1  0.942567  0.199409  0.720658  1
  H  H21  1  0.057433  0.699409  0.779342  1
  H  H22  1  0.057433  0.800591  0.279342  1
  H  H23  1  0.942567  0.300591  0.220658  1
  H  H24  1  0.320118  0.475801  0.389922  1
  H  H25  1  0.679882  0.975801  0.110078  1
  H  H26  1  0.679882  0.524199  0.610078  1
  H  H27  1  0.320118  0.024199  0.889922  1
  C  C28  1  0.043502  0.273355  0.774340  1
  C  C29  1  0.956498  0.773355  0.725660  1
  C  C30  1  0.956498  0.726645  0.225660  1
  C  C31  1  0.043502  0.226645  0.274340  1
  C  C32  1  0.320184  0.882258  0.933406  1
  C  C33  1  0.679816  0.382258  0.566594  1
  C  C34  1  0.679816  0.117742  0.066594  1
  C  C35  1  0.320184  0.617742  0.433406  1
  O  O36  1  0.412635  0.120110  0.304323  1
  O  O37  1  0.587365  0.620110  0.195677  1
  O  O38  1  0.587365  0.879890  0.695677  1
  O  O39  1  0.412635  0.379890  0.804323  1
  O  O40  1  0.718724  0.977100  0.429423  1
  O  O41  1  0.281276  0.477100  0.070577  1
  O  O42  1  0.281276  0.022900  0.570577  1
  O  O43  1  0.718724  0.522900  0.929423  1
  O  O44  1  0.094447  0.227371  0.902839  1
  O  O45  1  0.905553  0.727371  0.597161  1
  O  O46  1  0.905553  0.772629  0.097161  1
  O  O47  1  0.094447  0.272629  0.402839  1
  O  O48  1  0.103145  0.399075  0.705248  1
  O  O49  1  0.896855  0.899075  0.794752  1
  O  O50  1  0.896855  0.600925  0.294752  1
  O  O51  1  0.103145  0.100925  0.205248  1
  O  O52  1  0.432989  0.720065  0.415790  1
  O  O53  1  0.567011  0.220065  0.084210  1
  O  O54  1  0.567011  0.279935  0.584210  1
  O  O55  1  0.432989  0.779935  0.915790  1
  O  O56  1  0.206375  0.666988  0.496473  1
  O  O57  1  0.793625  0.166988  0.003527  1
  O  O58  1  0.793625  0.333012  0.503527  1
  O  O59  1  0.206375  0.833012  0.996473  1
