# generated using pymatgen
data_Tl3CoCl5
_symmetry_space_group_name_H-M   'P 1'
_cell_length_a   9.48574794
_cell_length_b   9.48574794
_cell_length_c   9.48574794
_cell_angle_alpha   126.15703313
_cell_angle_beta   126.15703313
_cell_angle_gamma   79.63019927
_symmetry_Int_Tables_number   1
_chemical_formula_structural   Tl3CoCl5
_chemical_formula_sum   'Tl6 Co2 Cl10'
_cell_volume   537.59393007
_cell_formula_units_Z   2
loop_
 _symmetry_equiv_pos_site_id
 _symmetry_equiv_pos_as_xyz
  1  'x, y, z'
loop_
 _atom_site_type_symbol
 _atom_site_label
 _atom_site_symmetry_multiplicity
 _atom_site_fract_x
 _atom_site_fract_y
 _atom_site_fract_z
 _atom_site_occupancy
  Tl  Tl0  1  0.750000  0.750000  0.000000  1
  Tl  Tl1  1  0.250000  0.250000  0.000000  1
  Tl  Tl2  1  0.835511  0.335511  0.171023  1
  Tl  Tl3  1  0.335511  0.164489  0.500000  1
  Tl  Tl4  1  0.664489  0.835511  0.500000  1
  Tl  Tl5  1  0.164489  0.664489  0.828977  1
  Co  Co6  1  0.250000  0.750000  0.500000  1
  Co  Co7  1  0.750000  0.250000  0.500000  1
  Cl  Cl8  1  0.500000  0.500000  0.000000  1
  Cl  Cl9  1  0.000000  0.000000  0.000000  1
  Cl  Cl10  1  0.508742  0.008742  0.205649  1
  Cl  Cl11  1  0.196906  0.696906  0.205649  1
  Cl  Cl12  1  0.491258  0.991258  0.794351  1
  Cl  Cl13  1  0.991258  0.196906  0.500000  1
  Cl  Cl14  1  0.696906  0.491258  0.500000  1
  Cl  Cl15  1  0.008742  0.803094  0.500000  1
  Cl  Cl16  1  0.803094  0.303094  0.794351  1
  Cl  Cl17  1  0.303094  0.508742  0.500000  1
