# generated using pymatgen
data_Si3Ru2
_symmetry_space_group_name_H-M   'P 1'
_cell_length_a   5.60730399
_cell_length_b   5.60730399
_cell_length_c   8.93669836
_cell_angle_alpha   90.00000000
_cell_angle_beta   90.00000000
_cell_angle_gamma   90.00000000
_symmetry_Int_Tables_number   1
_chemical_formula_structural   Si3Ru2
_chemical_formula_sum   'Si12 Ru8'
_cell_volume   280.98640115
_cell_formula_units_Z   4
loop_
 _symmetry_equiv_pos_site_id
 _symmetry_equiv_pos_as_xyz
  1  'x, y, z'
loop_
 _atom_site_type_symbol
 _atom_site_label
 _atom_site_symmetry_multiplicity
 _atom_site_fract_x
 _atom_site_fract_y
 _atom_site_fract_z
 _atom_site_occupancy
  Si  Si0  1  0.170205  0.829795  0.750000  1
  Si  Si1  1  0.829795  0.829795  0.250000  1
  Si  Si2  1  0.170205  0.170205  0.250000  1
  Si  Si3  1  0.829795  0.170205  0.750000  1
  Si  Si4  1  0.355621  0.207395  0.590372  1
  Si  Si5  1  0.644379  0.792605  0.590372  1
  Si  Si6  1  0.207395  0.644379  0.409628  1
  Si  Si7  1  0.792605  0.355621  0.409628  1
  Si  Si8  1  0.644379  0.207395  0.090372  1
  Si  Si9  1  0.207395  0.355621  0.909628  1
  Si  Si10  1  0.792605  0.644379  0.909628  1
  Si  Si11  1  0.355621  0.792605  0.090372  1
  Ru  Ru12  1  0.000000  0.000000  0.500000  1
  Ru  Ru13  1  0.000000  0.000000  0.000000  1
  Ru  Ru14  1  0.500000  0.500000  0.750000  1
  Ru  Ru15  1  0.500000  0.500000  0.250000  1
  Ru  Ru16  1  0.500000  0.000000  0.872349  1
  Ru  Ru17  1  0.000000  0.500000  0.127651  1
  Ru  Ru18  1  0.000000  0.500000  0.627651  1
  Ru  Ru19  1  0.500000  0.000000  0.372349  1
