# generated using pymatgen
data_ZrIn2
_symmetry_space_group_name_H-M   'P 1'
_cell_length_a   14.14489193
_cell_length_b   14.14489193
_cell_length_c   14.14489193
_cell_angle_alpha   161.93087146
_cell_angle_beta   161.93087146
_cell_angle_gamma   25.66179613
_symmetry_Int_Tables_number   1
_chemical_formula_structural   ZrIn2
_chemical_formula_sum   'Zr4 In8'
_cell_volume   272.17203897
_cell_formula_units_Z   4
loop_
 _symmetry_equiv_pos_site_id
 _symmetry_equiv_pos_as_xyz
  1  'x, y, z'
loop_
 _atom_site_type_symbol
 _atom_site_label
 _atom_site_symmetry_multiplicity
 _atom_site_fract_x
 _atom_site_fract_y
 _atom_site_fract_z
 _atom_site_occupancy
  Zr  Zr0  1  0.827377  0.327377  0.500000  1
  Zr  Zr1  1  0.077377  0.077377  0.000000  1
  Zr  Zr2  1  0.922623  0.922623  0.000000  1
  Zr  Zr3  1  0.672623  0.172623  0.500000  1
  In  In4  1  0.000509  0.500509  0.500000  1
  In  In5  1  0.250509  0.250509  0.000000  1
  In  In6  1  0.749491  0.749491  0.000000  1
  In  In7  1  0.499491  0.999491  0.500000  1
  In  In8  1  0.162120  0.662120  0.500000  1
  In  In9  1  0.412120  0.412120  0.000000  1
  In  In10  1  0.587880  0.587880  0.000000  1
  In  In11  1  0.337880  0.837880  0.500000  1
