# generated using pymatgen
data_Li2Cu(PO3)4
_symmetry_space_group_name_H-M   'P 1'
_cell_length_a   9.43126344
_cell_length_b   9.43413303
_cell_length_c   10.13378849
_cell_angle_alpha   90.00000000
_cell_angle_beta   90.00000000
_cell_angle_gamma   90.00000000
_symmetry_Int_Tables_number   1
_chemical_formula_structural   Li2Cu(PO3)4
_chemical_formula_sum   'Li8 Cu4 P16 O48'
_cell_volume   901.66187646
_cell_formula_units_Z   4
loop_
 _symmetry_equiv_pos_site_id
 _symmetry_equiv_pos_as_xyz
  1  'x, y, z'
loop_
 _atom_site_type_symbol
 _atom_site_label
 _atom_site_symmetry_multiplicity
 _atom_site_fract_x
 _atom_site_fract_y
 _atom_site_fract_z
 _atom_site_occupancy
  Li  Li0  1  0.904209  0.991094  0.179367  1
  Li  Li1  1  0.095791  0.008906  0.820633  1
  Li  Li2  1  0.404209  0.008906  0.820633  1
  Li  Li3  1  0.595791  0.491094  0.320633  1
  Li  Li4  1  0.904209  0.491094  0.320633  1
  Li  Li5  1  0.595791  0.991094  0.179367  1
  Li  Li6  1  0.404209  0.508906  0.679367  1
  Li  Li7  1  0.095791  0.508906  0.679367  1
  Cu  Cu8  1  0.250000  0.997622  0.206487  1
  Cu  Cu9  1  0.750000  0.502378  0.706487  1
  Cu  Cu10  1  0.250000  0.497622  0.293513  1
  Cu  Cu11  1  0.750000  0.002378  0.793513  1
  P  P12  1  0.250000  0.223424  0.465970  1
  P  P13  1  0.750000  0.276576  0.965970  1
  P  P14  1  0.965649  0.212947  0.604622  1
  P  P15  1  0.534351  0.212947  0.604622  1
  P  P16  1  0.250000  0.801780  0.610750  1
  P  P17  1  0.465649  0.787053  0.395378  1
  P  P18  1  0.034351  0.787053  0.395378  1
  P  P19  1  0.750000  0.776576  0.534030  1
  P  P20  1  0.250000  0.723424  0.034030  1
  P  P21  1  0.965649  0.712947  0.895378  1
  P  P22  1  0.534351  0.712947  0.895378  1
  P  P23  1  0.750000  0.698220  0.110750  1
  P  P24  1  0.250000  0.301780  0.889250  1
  P  P25  1  0.465649  0.287053  0.104622  1
  P  P26  1  0.034351  0.287053  0.104622  1
  P  P27  1  0.750000  0.198220  0.389250  1
  O  O28  1  0.882806  0.649912  0.021024  1
  O  O29  1  0.937610  0.118008  0.721770  1
  O  O30  1  0.750000  0.116473  0.950471  1
  O  O31  1  0.750000  0.101878  0.272017  1
  O  O32  1  0.250000  0.898122  0.727983  1
  O  O33  1  0.250000  0.883527  0.049529  1
  O  O34  1  0.437610  0.881992  0.278230  1
  O  O35  1  0.062390  0.881992  0.278230  1
  O  O36  1  0.945591  0.870493  0.883717  1
  O  O37  1  0.554409  0.870493  0.883717  1
  O  O38  1  0.750000  0.864483  0.655886  1
  O  O39  1  0.382806  0.850088  0.521024  1
  O  O40  1  0.117194  0.850088  0.521024  1
  O  O41  1  0.750000  0.855414  0.129222  1
  O  O42  1  0.874954  0.823913  0.437665  1
  O  O43  1  0.625046  0.823913  0.437665  1
  O  O44  1  0.374954  0.676087  0.937665  1
  O  O45  1  0.125046  0.676087  0.937665  1
  O  O46  1  0.250000  0.644586  0.629222  1
  O  O47  1  0.562390  0.118008  0.721770  1
  O  O48  1  0.617194  0.649912  0.021024  1
  O  O49  1  0.250000  0.635517  0.155886  1
  O  O50  1  0.445591  0.629507  0.383717  1
  O  O51  1  0.054409  0.629507  0.383717  1
  O  O52  1  0.937610  0.618008  0.778230  1
  O  O53  1  0.562390  0.618008  0.778230  1
  O  O54  1  0.750000  0.616473  0.549529  1
  O  O55  1  0.750000  0.601878  0.227983  1
  O  O56  1  0.250000  0.398122  0.772017  1
  O  O57  1  0.250000  0.383527  0.450471  1
  O  O58  1  0.437610  0.381992  0.221770  1
  O  O59  1  0.062390  0.381992  0.221770  1
  O  O60  1  0.945591  0.370493  0.616283  1
  O  O61  1  0.554409  0.370493  0.616283  1
  O  O62  1  0.750000  0.364483  0.844114  1
  O  O63  1  0.382806  0.350088  0.978976  1
  O  O64  1  0.117194  0.350088  0.978976  1
  O  O65  1  0.750000  0.355414  0.370778  1
  O  O66  1  0.874954  0.323913  0.062335  1
  O  O67  1  0.625046  0.323913  0.062335  1
  O  O68  1  0.374954  0.176087  0.562335  1
  O  O69  1  0.125046  0.176087  0.562335  1
  O  O70  1  0.250000  0.144586  0.870778  1
  O  O71  1  0.882806  0.149912  0.478976  1
  O  O72  1  0.054409  0.129507  0.116283  1
  O  O73  1  0.250000  0.135517  0.344114  1
  O  O74  1  0.445591  0.129507  0.116283  1
  O  O75  1  0.617194  0.149912  0.478976  1
