# generated using pymatgen
data_K2CeTa5O15
_symmetry_space_group_name_H-M   'P 1'
_cell_length_a   12.70427981
_cell_length_b   12.70427981
_cell_length_c   3.95227584
_cell_angle_alpha   90.00000000
_cell_angle_beta   90.00000000
_cell_angle_gamma   90.00000000
_symmetry_Int_Tables_number   1
_chemical_formula_structural   K2CeTa5O15
_chemical_formula_sum   'K4 Ce2 Ta10 O30'
_cell_volume   637.89228336
_cell_formula_units_Z   2
loop_
 _symmetry_equiv_pos_site_id
 _symmetry_equiv_pos_as_xyz
  1  'x, y, z'
loop_
 _atom_site_type_symbol
 _atom_site_label
 _atom_site_symmetry_multiplicity
 _atom_site_fract_x
 _atom_site_fract_y
 _atom_site_fract_z
 _atom_site_occupancy
  K  K0  1  0.669094  0.169094  0.000000  1
  K  K1  1  0.169094  0.330906  0.000000  1
  K  K2  1  0.830906  0.669094  0.000000  1
  K  K3  1  0.330906  0.830906  0.000000  1
  Ce  Ce4  1  0.000000  0.000000  0.000000  1
  Ce  Ce5  1  0.500000  0.500000  0.000000  1
  Ta  Ta6  1  0.213417  0.076449  0.500000  1
  Ta  Ta7  1  0.576449  0.713417  0.500000  1
  Ta  Ta8  1  0.923551  0.213417  0.500000  1
  Ta  Ta9  1  0.286583  0.576449  0.500000  1
  Ta  Ta10  1  0.076449  0.786583  0.500000  1
  Ta  Ta11  1  0.713417  0.423551  0.500000  1
  Ta  Ta12  1  0.423551  0.286583  0.500000  1
  Ta  Ta13  1  0.000000  0.500000  0.500000  1
  Ta  Ta14  1  0.786583  0.923551  0.500000  1
  Ta  Ta15  1  0.500000  0.000000  0.500000  1
  O  O16  1  0.806947  0.923831  0.000000  1
  O  O17  1  0.498570  0.842661  0.500000  1
  O  O18  1  0.132017  0.938859  0.500000  1
  O  O19  1  0.061141  0.132017  0.500000  1
  O  O20  1  0.783965  0.283965  0.500000  1
  O  O21  1  0.076169  0.806947  0.000000  1
  O  O22  1  0.867983  0.061141  0.500000  1
  O  O23  1  0.561141  0.367983  0.500000  1
  O  O24  1  0.193053  0.076169  0.000000  1
  O  O25  1  0.438859  0.632017  0.500000  1
  O  O26  1  0.423831  0.306947  0.000000  1
  O  O27  1  0.576169  0.693053  0.000000  1
  O  O28  1  0.501430  0.157339  0.500000  1
  O  O29  1  0.842661  0.501430  0.500000  1
  O  O30  1  0.157339  0.498570  0.500000  1
  O  O31  1  0.632017  0.561141  0.500000  1
  O  O32  1  0.001430  0.342661  0.500000  1
  O  O33  1  0.283965  0.216035  0.500000  1
  O  O34  1  0.716035  0.783965  0.500000  1
  O  O35  1  0.342661  0.998570  0.500000  1
  O  O36  1  0.500000  0.000000  0.000000  1
  O  O37  1  0.367983  0.438859  0.500000  1
  O  O38  1  0.657339  0.001430  0.500000  1
  O  O39  1  0.306947  0.576169  0.000000  1
  O  O40  1  0.216035  0.716035  0.500000  1
  O  O41  1  0.938859  0.867983  0.500000  1
  O  O42  1  0.000000  0.500000  0.000000  1
  O  O43  1  0.923831  0.193053  0.000000  1
  O  O44  1  0.998570  0.657339  0.500000  1
  O  O45  1  0.693053  0.423831  0.000000  1
