# generated using pymatgen
data_Sr2In4Pt3
_symmetry_space_group_name_H-M   'P 1'
_cell_length_a   14.93718104
_cell_length_b   14.93718104
_cell_length_c   4.54894904
_cell_angle_alpha   90.00000000
_cell_angle_beta   90.00000000
_cell_angle_gamma   120.00000000
_symmetry_Int_Tables_number   1
_chemical_formula_structural   Sr2In4Pt3
_chemical_formula_sum   'Sr8 In16 Pt12'
_cell_volume   878.97999862
_cell_formula_units_Z   4
loop_
 _symmetry_equiv_pos_site_id
 _symmetry_equiv_pos_as_xyz
  1  'x, y, z'
loop_
 _atom_site_type_symbol
 _atom_site_label
 _atom_site_symmetry_multiplicity
 _atom_site_fract_x
 _atom_site_fract_y
 _atom_site_fract_z
 _atom_site_occupancy
  Sr  Sr0  1  0.186349  0.000000  0.500000  1
  Sr  Sr1  1  0.813651  0.813651  0.500000  1
  Sr  Sr2  1  0.000000  0.186349  0.500000  1
  Sr  Sr3  1  0.666667  0.333333  0.000000  1
  Sr  Sr4  1  0.333333  0.666667  0.000000  1
  Sr  Sr5  1  0.551144  0.000000  0.000000  1
  Sr  Sr6  1  0.448856  0.448856  0.000000  1
  Sr  Sr7  1  0.000000  0.551144  0.000000  1
  In  In8  1  0.479892  0.125557  0.500000  1
  In  In9  1  0.874443  0.354335  0.500000  1
  In  In10  1  0.645665  0.520108  0.500000  1
  In  In11  1  0.520108  0.645665  0.500000  1
  In  In12  1  0.354335  0.874443  0.500000  1
  In  In13  1  0.125557  0.479892  0.500000  1
  In  In14  1  0.378022  0.195259  0.000000  1
  In  In15  1  0.804741  0.182764  0.000000  1
  In  In16  1  0.817236  0.621978  0.000000  1
  In  In17  1  0.621978  0.817236  0.000000  1
  In  In18  1  0.000000  0.000000  0.000000  1
  In  In19  1  0.182764  0.804741  0.000000  1
  In  In20  1  0.722021  0.000000  0.500000  1
  In  In21  1  0.277979  0.277979  0.500000  1
  In  In22  1  0.000000  0.722021  0.500000  1
  In  In23  1  0.195259  0.378022  0.000000  1
  Pt  Pt24  1  0.000000  0.350985  0.000000  1
  Pt  Pt25  1  0.350985  0.000000  0.000000  1
  Pt  Pt26  1  0.483254  0.313926  0.500000  1
  Pt  Pt27  1  0.686074  0.169328  0.500000  1
  Pt  Pt28  1  0.830672  0.516746  0.500000  1
  Pt  Pt29  1  0.516746  0.830672  0.500000  1
  Pt  Pt30  1  0.169328  0.686074  0.500000  1
  Pt  Pt31  1  0.313926  0.483254  0.500000  1
  Pt  Pt32  1  0.000000  0.819773  0.000000  1
  Pt  Pt33  1  0.180227  0.180227  0.000000  1
  Pt  Pt34  1  0.819773  0.000000  0.000000  1
  Pt  Pt35  1  0.649015  0.649015  0.000000  1
