# generated using pymatgen
data_Sn2BF7
_symmetry_space_group_name_H-M   'P 1'
_cell_length_a   5.45837017
_cell_length_b   9.01523059
_cell_length_c   14.31778337
_cell_angle_alpha   90.00000000
_cell_angle_beta   90.00000000
_cell_angle_gamma   90.00000000
_symmetry_Int_Tables_number   1
_chemical_formula_structural   Sn2BF7
_chemical_formula_sum   'Sn8 B4 F28'
_cell_volume   704.55615220
_cell_formula_units_Z   4
loop_
 _symmetry_equiv_pos_site_id
 _symmetry_equiv_pos_as_xyz
  1  'x, y, z'
loop_
 _atom_site_type_symbol
 _atom_site_label
 _atom_site_symmetry_multiplicity
 _atom_site_fract_x
 _atom_site_fract_y
 _atom_site_fract_z
 _atom_site_occupancy
  Sn  Sn0  1  0.250000  0.774521  0.444752  1
  Sn  Sn1  1  0.250000  0.274521  0.055248  1
  Sn  Sn2  1  0.750000  0.225479  0.555248  1
  Sn  Sn3  1  0.750000  0.725479  0.944752  1
  Sn  Sn4  1  0.750000  0.481541  0.310724  1
  Sn  Sn5  1  0.750000  0.981541  0.189276  1
  Sn  Sn6  1  0.250000  0.518459  0.689276  1
  Sn  Sn7  1  0.250000  0.018459  0.810724  1
  B  B8  1  0.750000  0.815363  0.628361  1
  B  B9  1  0.750000  0.315363  0.871639  1
  B  B10  1  0.250000  0.184637  0.371639  1
  B  B11  1  0.250000  0.684637  0.128361  1
  F  F12  1  0.750000  0.790151  0.529808  1
  F  F13  1  0.750000  0.290151  0.970192  1
  F  F14  1  0.250000  0.209849  0.470192  1
  F  F15  1  0.250000  0.709849  0.029808  1
  F  F16  1  0.000229  0.352574  0.638818  1
  F  F17  1  0.499771  0.852574  0.861182  1
  F  F18  1  0.999771  0.647426  0.361182  1
  F  F19  1  0.500229  0.147426  0.138818  1
  F  F20  1  0.750000  0.398291  0.453662  1
  F  F21  1  0.750000  0.898291  0.046338  1
  F  F22  1  0.250000  0.601709  0.546338  1
  F  F23  1  0.250000  0.101709  0.953662  1
  F  F24  1  0.500229  0.647426  0.361182  1
  F  F25  1  0.999771  0.147426  0.138818  1
  F  F26  1  0.499771  0.352574  0.638818  1
  F  F27  1  0.000229  0.852574  0.861182  1
  F  F28  1  0.962611  0.396540  0.848576  1
  F  F29  1  0.537389  0.896540  0.651424  1
  F  F30  1  0.037389  0.603460  0.151424  1
  F  F31  1  0.462611  0.103460  0.348576  1
  F  F32  1  0.750000  0.677234  0.676098  1
  F  F33  1  0.750000  0.177234  0.823902  1
  F  F34  1  0.250000  0.322766  0.323902  1
  F  F35  1  0.250000  0.822766  0.176098  1
  F  F36  1  0.462611  0.603460  0.151424  1
  F  F37  1  0.037389  0.103460  0.348576  1
  F  F38  1  0.537389  0.396540  0.848576  1
  F  F39  1  0.962611  0.896540  0.651424  1
