# generated using pymatgen
data_BaPPt
_symmetry_space_group_name_H-M   'P 1'
_cell_length_a   6.62389717
_cell_length_b   6.62389717
_cell_length_c   6.62389717
_cell_angle_alpha   90.00000000
_cell_angle_beta   90.00000000
_cell_angle_gamma   90.00000000
_symmetry_Int_Tables_number   1
_chemical_formula_structural   BaPPt
_chemical_formula_sum   'Ba4 P4 Pt4'
_cell_volume   290.63020310
_cell_formula_units_Z   4
loop_
 _symmetry_equiv_pos_site_id
 _symmetry_equiv_pos_as_xyz
  1  'x, y, z'
loop_
 _atom_site_type_symbol
 _atom_site_label
 _atom_site_symmetry_multiplicity
 _atom_site_fract_x
 _atom_site_fract_y
 _atom_site_fract_z
 _atom_site_occupancy
  Ba  Ba0  1  0.640251  0.359749  0.859749  1
  Ba  Ba1  1  0.359749  0.859749  0.640251  1
  Ba  Ba2  1  0.140251  0.140251  0.140251  1
  Ba  Ba3  1  0.859749  0.640251  0.359749  1
  P  P4  1  0.583710  0.916290  0.083710  1
  P  P5  1  0.083710  0.583710  0.916290  1
  P  P6  1  0.916290  0.083710  0.583710  1
  P  P7  1  0.416290  0.416290  0.416290  1
  Pt  Pt8  1  0.150859  0.349141  0.650859  1
  Pt  Pt9  1  0.650859  0.150859  0.349141  1
  Pt  Pt10  1  0.849141  0.849141  0.849141  1
  Pt  Pt11  1  0.349141  0.650859  0.150859  1
