# generated using pymatgen
data_HoZn2
_symmetry_space_group_name_H-M   'P 1'
_cell_length_a   5.64511174
_cell_length_b   5.64511174
_cell_length_c   5.64511174
_cell_angle_alpha   133.48623507
_cell_angle_beta   102.47721603
_cell_angle_gamma   95.49554426
_symmetry_Int_Tables_number   1
_chemical_formula_structural   HoZn2
_chemical_formula_sum   'Ho2 Zn4'
_cell_volume   119.61015813
_cell_formula_units_Z   2
loop_
 _symmetry_equiv_pos_site_id
 _symmetry_equiv_pos_as_xyz
  1  'x, y, z'
loop_
 _atom_site_type_symbol
 _atom_site_label
 _atom_site_symmetry_multiplicity
 _atom_site_fract_x
 _atom_site_fract_y
 _atom_site_fract_z
 _atom_site_occupancy
  Ho  Ho0  1  0.777918  0.527918  0.750000  1
  Ho  Ho1  1  0.222082  0.472082  0.250000  1
  Zn  Zn2  1  0.374777  0.834079  0.040698  1
  Zn  Zn3  1  0.625223  0.165921  0.959302  1
  Zn  Zn4  1  0.793381  0.834079  0.459302  1
  Zn  Zn5  1  0.206619  0.165921  0.540698  1
