# generated using pymatgen
data_La2O3
_symmetry_space_group_name_H-M   'P 1'
_cell_length_a   9.87429901
_cell_length_b   9.87429901
_cell_length_c   9.87429901
_cell_angle_alpha   109.47122063
_cell_angle_beta   109.47122063
_cell_angle_gamma   109.47122063
_symmetry_Int_Tables_number   1
_chemical_formula_structural   La2O3
_chemical_formula_sum   'La16 O24'
_cell_volume   741.13433249
_cell_formula_units_Z   8
loop_
 _symmetry_equiv_pos_site_id
 _symmetry_equiv_pos_as_xyz
  1  'x, y, z'
loop_
 _atom_site_type_symbol
 _atom_site_label
 _atom_site_symmetry_multiplicity
 _atom_site_fract_x
 _atom_site_fract_y
 _atom_site_fract_z
 _atom_site_occupancy
  La  La0  1  0.250000  0.720958  0.470958  1
  La  La1  1  0.029042  0.750000  0.779042  1
  La  La2  1  0.779042  0.029042  0.750000  1
  La  La3  1  0.470958  0.250000  0.720958  1
  La  La4  1  0.720958  0.470958  0.250000  1
  La  La5  1  0.750000  0.779042  0.029042  1
  La  La6  1  0.750000  0.279042  0.529042  1
  La  La7  1  0.970958  0.250000  0.220958  1
  La  La8  1  0.220958  0.970958  0.250000  1
  La  La9  1  0.529042  0.750000  0.279042  1
  La  La10  1  0.279042  0.529042  0.750000  1
  La  La11  1  0.250000  0.220958  0.970958  1
  La  La12  1  1.000000  0.500000  0.000000  1
  La  La13  1  0.500000  1.000000  0.000000  1
  La  La14  1  1.000000  1.000000  0.500000  1
  La  La15  1  0.500000  0.500000  0.500000  1
  O  O16  1  0.026684  0.489462  0.758888  1
  O  O17  1  0.230574  0.267796  0.741112  1
  O  O18  1  0.269426  0.010538  0.037222  1
  O  O19  1  0.232204  0.462778  0.473316  1
  O  O20  1  0.462778  0.473316  0.232204  1
  O  O21  1  0.758888  0.026684  0.489462  1
  O  O22  1  0.267796  0.741112  0.230574  1
  O  O23  1  0.037222  0.269426  0.010538  1
  O  O24  1  0.489462  0.758888  0.026684  1
  O  O25  1  0.741112  0.230574  0.267796  1
  O  O26  1  0.010538  0.037222  0.269426  1
  O  O27  1  0.473316  0.232204  0.462778  1
  O  O28  1  0.973316  0.510538  0.241112  1
  O  O29  1  0.769426  0.732204  0.258888  1
  O  O30  1  0.730574  0.989462  0.962778  1
  O  O31  1  0.767796  0.537222  0.526684  1
  O  O32  1  0.526684  0.767796  0.537222  1
  O  O33  1  0.989462  0.962778  0.730574  1
  O  O34  1  0.258888  0.769426  0.732204  1
  O  O35  1  0.510538  0.241112  0.973316  1
  O  O36  1  0.962778  0.730574  0.989462  1
  O  O37  1  0.732204  0.258888  0.769426  1
  O  O38  1  0.241112  0.973316  0.510538  1
  O  O39  1  0.537222  0.526684  0.767796  1
