# generated using pymatgen
data_Be(B3H7)2
_symmetry_space_group_name_H-M   'P 1'
_cell_length_a   8.73668010
_cell_length_b   8.64038542
_cell_length_c   13.08332542
_cell_angle_alpha   90.00000000
_cell_angle_beta   123.99795140
_cell_angle_gamma   90.00000000
_symmetry_Int_Tables_number   1
_chemical_formula_structural   Be(B3H7)2
_chemical_formula_sum   'Be4 B24 H56'
_cell_volume   818.80857034
_cell_formula_units_Z   4
loop_
 _symmetry_equiv_pos_site_id
 _symmetry_equiv_pos_as_xyz
  1  'x, y, z'
loop_
 _atom_site_type_symbol
 _atom_site_label
 _atom_site_symmetry_multiplicity
 _atom_site_fract_x
 _atom_site_fract_y
 _atom_site_fract_z
 _atom_site_occupancy
  Be  Be0  1  0.520661  0.167827  0.176683  1
  Be  Be1  1  0.479339  0.667827  0.323317  1
  Be  Be2  1  0.479339  0.832173  0.823317  1
  Be  Be3  1  0.520661  0.332173  0.676683  1
  B  B4  1  0.600987  0.247958  0.573526  1
  B  B5  1  0.399013  0.747958  0.926474  1
  B  B6  1  0.399013  0.752042  0.426474  1
  B  B7  1  0.600987  0.252042  0.073526  1
  B  B8  1  0.844209  0.236213  0.655872  1
  B  B9  1  0.155791  0.736213  0.844128  1
  B  B10  1  0.155791  0.763787  0.344128  1
  B  B11  1  0.844209  0.263787  0.155872  1
  B  B12  1  0.943322  0.310255  0.802991  1
  B  B13  1  0.056678  0.810255  0.697009  1
  B  B14  1  0.056678  0.689745  0.197009  1
  B  B15  1  0.943322  0.189745  0.302991  1
  B  B16  1  0.769519  0.373040  0.822707  1
  B  B17  1  0.230481  0.873040  0.677293  1
  B  B18  1  0.230481  0.626960  0.177293  1
  B  B19  1  0.769519  0.126960  0.322707  1
  B  B20  1  0.746338  0.395772  0.679029  1
  B  B21  1  0.253662  0.895772  0.820971  1
  B  B22  1  0.253662  0.604228  0.320971  1
  B  B23  1  0.746338  0.104228  0.179029  1
  B  B24  1  0.291115  0.097448  0.145309  1
  B  B25  1  0.708885  0.597448  0.354691  1
  B  B26  1  0.708885  0.902552  0.854691  1
  B  B27  1  0.291115  0.402552  0.645309  1
  H  H28  1  0.291131  0.457293  0.730105  1
  H  H29  1  0.708869  0.957293  0.769895  1
  H  H30  1  0.708869  0.542707  0.269895  1
  H  H31  1  0.291131  0.042707  0.230105  1
  H  H32  1  0.146714  0.399276  0.546132  1
  H  H33  1  0.853286  0.899276  0.953868  1
  H  H34  1  0.853286  0.600724  0.453868  1
  H  H35  1  0.146714  0.100724  0.046132  1
  H  H36  1  0.351192  0.266040  0.674715  1
  H  H37  1  0.648808  0.766040  0.825285  1
  H  H38  1  0.648808  0.733960  0.325285  1
  H  H39  1  0.351192  0.233960  0.174715  1
  H  H40  1  0.402517  0.479221  0.632580  1
  H  H41  1  0.597483  0.979221  0.867420  1
  H  H42  1  0.597483  0.520779  0.367420  1
  H  H43  1  0.402517  0.020779  0.132580  1
  H  H44  1  0.504635  0.179933  0.602532  1
  H  H45  1  0.495365  0.679933  0.897468  1
  H  H46  1  0.495365  0.820067  0.397468  1
  H  H47  1  0.504635  0.320067  0.102532  1
  H  H48  1  0.902560  0.267317  0.883903  1
  H  H49  1  0.713204  0.126212  0.604196  1
  H  H50  1  0.286796  0.873788  0.395804  1
  H  H51  1  0.713204  0.373788  0.104196  1
  H  H52  1  0.944545  0.164946  0.766320  1
  H  H53  1  0.055455  0.664946  0.733680  1
  H  H54  1  0.055455  0.835054  0.233680  1
  H  H55  1  0.944545  0.335054  0.266320  1
  H  H56  1  0.756188  0.979810  0.143253  1
  H  H57  1  0.243812  0.479810  0.356747  1
  H  H58  1  0.243812  0.020190  0.856747  1
  H  H59  1  0.756188  0.520190  0.643253  1
  H  H60  1  0.808024  0.021984  0.392680  1
  H  H61  1  0.191976  0.521984  0.107320  1
  H  H62  1  0.191976  0.978016  0.607320  1
  H  H63  1  0.808024  0.478016  0.892680  1
  H  H64  1  0.097796  0.142658  0.361530  1
  H  H65  1  0.902204  0.642658  0.138470  1
  H  H66  1  0.902204  0.857342  0.638470  1
  H  H67  1  0.097796  0.357342  0.861530  1
  H  H68  1  0.927253  0.270035  0.108579  1
  H  H69  1  0.072747  0.770035  0.391421  1
  H  H70  1  0.072747  0.729965  0.891421  1
  H  H71  1  0.927253  0.229965  0.608579  1
  H  H72  1  0.519516  0.238760  0.964130  1
  H  H73  1  0.480484  0.738760  0.535870  1
  H  H74  1  0.480484  0.761240  0.035870  1
  H  H75  1  0.519516  0.261240  0.464130  1
  H  H76  1  0.650544  0.212978  0.317450  1
  H  H77  1  0.349456  0.712978  0.182550  1
  H  H78  1  0.349456  0.787022  0.682550  1
  H  H79  1  0.650544  0.287022  0.817450  1
  H  H80  1  0.902560  0.232683  0.383903  1
  H  H81  1  0.097440  0.732683  0.116097  1
  H  H82  1  0.097440  0.767317  0.616097  1
  H  H83  1  0.286796  0.626212  0.895804  1
