# generated using pymatgen
data_Nb3Te3As
_symmetry_space_group_name_H-M   'P 1'
_cell_length_a   10.53071895
_cell_length_b   10.53071895
_cell_length_c   3.58312764
_cell_angle_alpha   90.00000000
_cell_angle_beta   90.00000000
_cell_angle_gamma   120.00000000
_symmetry_Int_Tables_number   1
_chemical_formula_structural   Nb3Te3As
_chemical_formula_sum   'Nb6 Te6 As2'
_cell_volume   344.11924036
_cell_formula_units_Z   2
loop_
 _symmetry_equiv_pos_site_id
 _symmetry_equiv_pos_as_xyz
  1  'x, y, z'
loop_
 _atom_site_type_symbol
 _atom_site_label
 _atom_site_symmetry_multiplicity
 _atom_site_fract_x
 _atom_site_fract_y
 _atom_site_fract_z
 _atom_site_occupancy
  Nb  Nb0  1  0.621688  0.125749  0.750000  1
  Nb  Nb1  1  0.504060  0.378312  0.750000  1
  Nb  Nb2  1  0.378312  0.874251  0.250000  1
  Nb  Nb3  1  0.874251  0.495940  0.750000  1
  Nb  Nb4  1  0.495940  0.621688  0.250000  1
  Nb  Nb5  1  0.125749  0.504060  0.250000  1
  Te  Te6  1  0.722665  0.669809  0.750000  1
  Te  Te7  1  0.277335  0.330191  0.250000  1
  Te  Te8  1  0.669809  0.947144  0.250000  1
  Te  Te9  1  0.947144  0.277335  0.750000  1
  Te  Te10  1  0.052856  0.722665  0.250000  1
  Te  Te11  1  0.330191  0.052856  0.750000  1
  As  As12  1  0.333333  0.666667  0.750000  1
  As  As13  1  0.666667  0.333333  0.250000  1
