# generated using pymatgen
data_Cr2FeO4
_symmetry_space_group_name_H-M   'P 1'
_cell_length_a   6.05401306
_cell_length_b   6.05401306
_cell_length_c   6.05401306
_cell_angle_alpha   60.00000000
_cell_angle_beta   60.00000000
_cell_angle_gamma   60.00000000
_symmetry_Int_Tables_number   1
_chemical_formula_structural   Cr2FeO4
_chemical_formula_sum   'Cr4 Fe2 O8'
_cell_volume   156.89715252
_cell_formula_units_Z   2
loop_
 _symmetry_equiv_pos_site_id
 _symmetry_equiv_pos_as_xyz
  1  'x, y, z'
loop_
 _atom_site_type_symbol
 _atom_site_label
 _atom_site_symmetry_multiplicity
 _atom_site_fract_x
 _atom_site_fract_y
 _atom_site_fract_z
 _atom_site_occupancy
  Cr  Cr0  1  0.125000  0.125000  0.125000  1
  Cr  Cr1  1  0.125000  0.125000  0.625000  1
  Cr  Cr2  1  0.125000  0.625000  0.125000  1
  Cr  Cr3  1  0.625000  0.125000  0.125000  1
  Fe  Fe4  1  0.750000  0.750000  0.750000  1
  Fe  Fe5  1  0.500000  0.500000  0.500000  1
  O  O6  1  0.887778  0.887778  0.887778  1
  O  O7  1  0.362222  0.362222  0.913334  1
  O  O8  1  0.362222  0.913334  0.362222  1
  O  O9  1  0.336666  0.887778  0.887778  1
  O  O10  1  0.362222  0.362222  0.362222  1
  O  O11  1  0.887778  0.887778  0.336666  1
  O  O12  1  0.887778  0.336666  0.887778  1
  O  O13  1  0.913334  0.362222  0.362222  1
