# generated using pymatgen
data_Ba2Cu5F14
_symmetry_space_group_name_H-M   'P 1'
_cell_length_a   9.83189211
_cell_length_b   9.83189211
_cell_length_c   10.49201754
_cell_angle_alpha   65.20036035
_cell_angle_beta   114.79963965
_cell_angle_gamma   140.06891205
_symmetry_Int_Tables_number   1
_chemical_formula_structural   Ba2Cu5F14
_chemical_formula_sum   'Ba4 Cu10 F28'
_cell_volume   582.57476424
_cell_formula_units_Z   2
loop_
 _symmetry_equiv_pos_site_id
 _symmetry_equiv_pos_as_xyz
  1  'x, y, z'
loop_
 _atom_site_type_symbol
 _atom_site_label
 _atom_site_symmetry_multiplicity
 _atom_site_fract_x
 _atom_site_fract_y
 _atom_site_fract_z
 _atom_site_occupancy
  Ba  Ba0  1  0.779908  0.454582  0.629938  1
  Ba  Ba1  1  0.454582  0.779908  0.870062  1
  Ba  Ba2  1  0.220092  0.545418  0.370062  1
  Ba  Ba3  1  0.545418  0.220092  0.129938  1
  Cu  Cu4  1  0.645738  0.645738  0.750000  1
  Cu  Cu5  1  0.354262  0.354262  0.250000  1
  Cu  Cu6  1  0.176586  0.106734  0.640258  1
  Cu  Cu7  1  0.106734  0.176586  0.859742  1
  Cu  Cu8  1  0.823414  0.893266  0.359742  1
  Cu  Cu9  1  0.893266  0.823414  0.140258  1
  Cu  Cu10  1  0.295049  0.944321  0.492542  1
  Cu  Cu11  1  0.944321  0.295049  0.007458  1
  Cu  Cu12  1  0.704951  0.055679  0.507458  1
  Cu  Cu13  1  0.055679  0.704951  0.992542  1
  F  F14  1  0.017122  0.296118  0.860932  1
  F  F15  1  0.296118  0.017122  0.639068  1
  F  F16  1  0.982878  0.703882  0.139068  1
  F  F17  1  0.703882  0.982878  0.360932  1
  F  F18  1  0.113722  0.184250  0.367134  1
  F  F19  1  0.184250  0.113722  0.132866  1
  F  F20  1  0.886278  0.815750  0.632866  1
  F  F21  1  0.815750  0.886278  0.867134  1
  F  F22  1  0.829387  0.328526  0.394784  1
  F  F23  1  0.328526  0.829387  0.105216  1
  F  F24  1  0.170613  0.671474  0.605216  1
  F  F25  1  0.671474  0.170613  0.894784  1
  F  F26  1  0.058963  0.212383  0.611063  1
  F  F27  1  0.212383  0.058964  0.888937  1
  F  F28  1  0.536947  0.604340  0.355506  1
  F  F29  1  0.604340  0.536947  0.144494  1
  F  F30  1  0.463053  0.395660  0.644494  1
  F  F31  1  0.395660  0.463053  0.855506  1
  F  F32  1  0.541272  0.760468  0.602860  1
  F  F33  1  0.760468  0.541272  0.897140  1
  F  F34  1  0.458728  0.239532  0.397140  1
  F  F35  1  0.239532  0.458728  0.102860  1
  F  F36  1  0.644074  0.088863  0.637238  1
  F  F37  1  0.088863  0.644074  0.862762  1
  F  F38  1  0.355926  0.911137  0.362762  1
  F  F39  1  0.911137  0.355926  0.137238  1
  F  F40  1  0.787617  0.941036  0.111063  1
  F  F41  1  0.941037  0.787617  0.388937  1
