# generated using pymatgen
data_Co2P
_symmetry_space_group_name_H-M   'P 1'
_cell_length_a   3.50953084
_cell_length_b   5.51907747
_cell_length_c   6.59120449
_cell_angle_alpha   90.00000000
_cell_angle_beta   90.00000000
_cell_angle_gamma   90.00000000
_symmetry_Int_Tables_number   1
_chemical_formula_structural   Co2P
_chemical_formula_sum   'Co8 P4'
_cell_volume   127.66749558
_cell_formula_units_Z   4
loop_
 _symmetry_equiv_pos_site_id
 _symmetry_equiv_pos_as_xyz
  1  'x, y, z'
loop_
 _atom_site_type_symbol
 _atom_site_label
 _atom_site_symmetry_multiplicity
 _atom_site_fract_x
 _atom_site_fract_y
 _atom_site_fract_z
 _atom_site_occupancy
  Co  Co0  1  0.750000  0.032102  0.667519  1
  Co  Co1  1  0.250000  0.967898  0.332481  1
  Co  Co2  1  0.750000  0.532102  0.832481  1
  Co  Co3  1  0.250000  0.467898  0.167519  1
  Co  Co4  1  0.250000  0.355569  0.565169  1
  Co  Co5  1  0.750000  0.644431  0.434831  1
  Co  Co6  1  0.250000  0.855569  0.934831  1
  Co  Co7  1  0.750000  0.144431  0.065169  1
  P  P8  1  0.250000  0.748750  0.621352  1
  P  P9  1  0.750000  0.251250  0.378648  1
  P  P10  1  0.250000  0.248750  0.878648  1
  P  P11  1  0.750000  0.751250  0.121352  1
