# generated using pymatgen
data_VPO5
_symmetry_space_group_name_H-M   'P 1'
_cell_length_a   7.01504578
_cell_length_b   7.42846524
_cell_length_c   7.57874842
_cell_angle_alpha   90.96434912
_cell_angle_beta   89.87936543
_cell_angle_gamma   115.38783627
_symmetry_Int_Tables_number   1
_chemical_formula_structural   VPO5
_chemical_formula_sum   'V4 P4 O20'
_cell_volume   356.73964292
_cell_formula_units_Z   4
loop_
 _symmetry_equiv_pos_site_id
 _symmetry_equiv_pos_as_xyz
  1  'x, y, z'
loop_
 _atom_site_type_symbol
 _atom_site_label
 _atom_site_symmetry_multiplicity
 _atom_site_fract_x
 _atom_site_fract_y
 _atom_site_fract_z
 _atom_site_occupancy
  V  V0  1  0.704325  0.461652  0.269729  1
  V  V1  1  0.206069  0.956590  0.229565  1
  V  V2  1  0.793931  0.043410  0.770435  1
  V  V3  1  0.295675  0.538348  0.730271  1
  P  P4  1  0.483087  0.242622  0.909186  1
  P  P5  1  0.012053  0.755194  0.591592  1
  P  P6  1  0.987947  0.244806  0.408408  1
  P  P7  1  0.516913  0.757378  0.090814  1
  O  O8  1  0.290350  0.118146  0.022828  1
  O  O9  1  0.420326  0.356277  0.770996  1
  O  O10  1  0.502103  0.273950  0.344845  1
  O  O11  1  0.666945  0.391866  0.026596  1
  O  O12  1  0.820250  0.608334  0.483985  1
  O  O13  1  0.559165  0.102854  0.808290  1
  O  O14  1  0.949956  0.896055  0.702527  1
  O  O15  1  0.014907  0.756167  0.153385  1
  O  O16  1  0.801943  0.120677  0.532114  1
  O  O17  1  0.086314  0.638476  0.720067  1
  O  O18  1  0.913686  0.361524  0.279933  1
  O  O19  1  0.198057  0.879323  0.467886  1
  O  O20  1  0.985093  0.243833  0.846615  1
  O  O21  1  0.050044  0.103945  0.297473  1
  O  O22  1  0.709650  0.881854  0.977172  1
  O  O23  1  0.179750  0.391666  0.516015  1
  O  O24  1  0.333055  0.608134  0.973404  1
  O  O25  1  0.497897  0.726050  0.655155  1
  O  O26  1  0.579674  0.643723  0.229004  1
  O  O27  1  0.440835  0.897146  0.191710  1
