# generated using pymatgen
data_Y2ReC2
_symmetry_space_group_name_H-M   'P 1'
_cell_length_a   5.12989981
_cell_length_b   6.59519756
_cell_length_c   9.90978189
_cell_angle_alpha   90.00000000
_cell_angle_beta   90.00000000
_cell_angle_gamma   90.00000000
_symmetry_Int_Tables_number   1
_chemical_formula_structural   Y2ReC2
_chemical_formula_sum   'Y8 Re4 C8'
_cell_volume   335.27470460
_cell_formula_units_Z   4
loop_
 _symmetry_equiv_pos_site_id
 _symmetry_equiv_pos_as_xyz
  1  'x, y, z'
loop_
 _atom_site_type_symbol
 _atom_site_label
 _atom_site_symmetry_multiplicity
 _atom_site_fract_x
 _atom_site_fract_y
 _atom_site_fract_z
 _atom_site_occupancy
  Y  Y0  1  0.750000  0.032051  0.716998  1
  Y  Y1  1  0.250000  0.467949  0.216998  1
  Y  Y2  1  0.750000  0.180639  0.055691  1
  Y  Y3  1  0.250000  0.319361  0.555691  1
  Y  Y4  1  0.750000  0.680639  0.444309  1
  Y  Y5  1  0.250000  0.819361  0.944309  1
  Y  Y6  1  0.250000  0.967949  0.283002  1
  Y  Y7  1  0.750000  0.532051  0.783002  1
  Re  Re8  1  0.250000  0.778115  0.635075  1
  Re  Re9  1  0.250000  0.278115  0.864925  1
  Re  Re10  1  0.750000  0.721885  0.135075  1
  Re  Re11  1  0.750000  0.221885  0.364925  1
  C  C12  1  0.250000  0.178712  0.048064  1
  C  C13  1  0.250000  0.044887  0.740671  1
  C  C14  1  0.750000  0.955113  0.259329  1
  C  C15  1  0.750000  0.321288  0.548064  1
  C  C16  1  0.250000  0.544887  0.759329  1
  C  C17  1  0.250000  0.678712  0.451936  1
  C  C18  1  0.750000  0.821288  0.951936  1
  C  C19  1  0.750000  0.455113  0.240671  1
