# generated using pymatgen
data_HgI
_symmetry_space_group_name_H-M   'P 1'
_cell_length_a   6.95197778
_cell_length_b   6.95197778
_cell_length_c   6.95197778
_cell_angle_alpha   136.15979876
_cell_angle_beta   136.15979876
_cell_angle_gamma   63.73338038
_symmetry_Int_Tables_number   1
_chemical_formula_structural   HgI
_chemical_formula_sum   'Hg2 I2'
_cell_volume   159.06778147
_cell_formula_units_Z   2
loop_
 _symmetry_equiv_pos_site_id
 _symmetry_equiv_pos_as_xyz
  1  'x, y, z'
loop_
 _atom_site_type_symbol
 _atom_site_label
 _atom_site_symmetry_multiplicity
 _atom_site_fract_x
 _atom_site_fract_y
 _atom_site_fract_z
 _atom_site_occupancy
  Hg  Hg0  1  0.887046  0.887046  0.000000  1
  Hg  Hg1  1  0.112954  0.112954  0.000000  1
  I  I2  1  0.652519  0.652519  0.000000  1
  I  I3  1  0.347481  0.347481  0.000000  1
