# generated using pymatgen
data_CuSe2Br
_symmetry_space_group_name_H-M   'P 1'
_cell_length_a   7.88665334
_cell_length_b   4.99502986
_cell_length_c   12.61394122
_cell_angle_alpha   90.00000000
_cell_angle_beta   113.14689720
_cell_angle_gamma   90.00000000
_symmetry_Int_Tables_number   1
_chemical_formula_structural   CuSe2Br
_chemical_formula_sum   'Cu4 Se8 Br4'
_cell_volume   456.91288361
_cell_formula_units_Z   4
loop_
 _symmetry_equiv_pos_site_id
 _symmetry_equiv_pos_as_xyz
  1  'x, y, z'
loop_
 _atom_site_type_symbol
 _atom_site_label
 _atom_site_symmetry_multiplicity
 _atom_site_fract_x
 _atom_site_fract_y
 _atom_site_fract_z
 _atom_site_occupancy
  Cu  Cu0  1  0.681128  0.362550  0.748356  1
  Cu  Cu1  1  0.318872  0.862550  0.751644  1
  Cu  Cu2  1  0.318872  0.637450  0.251644  1
  Cu  Cu3  1  0.681128  0.137450  0.248356  1
  Se  Se4  1  0.189491  0.965078  0.336553  1
  Se  Se5  1  0.810509  0.465078  0.163447  1
  Se  Se6  1  0.810509  0.034922  0.663447  1
  Se  Se7  1  0.189491  0.534922  0.836553  1
  Se  Se8  1  0.087573  0.195094  0.667648  1
  Se  Se9  1  0.912427  0.695094  0.832352  1
  Se  Se10  1  0.912427  0.804906  0.332352  1
  Se  Se11  1  0.087573  0.304906  0.167648  1
  Br  Br12  1  0.587650  0.388749  0.383145  1
  Br  Br13  1  0.412350  0.888749  0.116855  1
  Br  Br14  1  0.412350  0.611251  0.616855  1
  Br  Br15  1  0.587650  0.111251  0.883145  1
