# generated using pymatgen
data_DyGe
_symmetry_space_group_name_H-M   'P 1'
_cell_length_a   5.79186882
_cell_length_b   5.79186882
_cell_length_c   3.96400459
_cell_angle_alpha   90.00000000
_cell_angle_beta   90.00000000
_cell_angle_gamma   136.35551732
_symmetry_Int_Tables_number   1
_chemical_formula_structural   DyGe
_chemical_formula_sum   'Dy2 Ge2'
_cell_volume   91.77722755
_cell_formula_units_Z   2
loop_
 _symmetry_equiv_pos_site_id
 _symmetry_equiv_pos_as_xyz
  1  'x, y, z'
loop_
 _atom_site_type_symbol
 _atom_site_label
 _atom_site_symmetry_multiplicity
 _atom_site_fract_x
 _atom_site_fract_y
 _atom_site_fract_z
 _atom_site_occupancy
  Dy  Dy0  1  0.138305  0.861695  0.250000  1
  Dy  Dy1  1  0.861695  0.138305  0.750000  1
  Ge  Ge2  1  0.414721  0.585279  0.250000  1
  Ge  Ge3  1  0.585279  0.414721  0.750000  1
