# generated using pymatgen
data_Co(WO4)2
_symmetry_space_group_name_H-M   'P 1'
_cell_length_a   5.09084300
_cell_length_b   5.53445579
_cell_length_c   5.80003218
_cell_angle_alpha   107.81189588
_cell_angle_beta   90.41029959
_cell_angle_gamma   116.98645950
_symmetry_Int_Tables_number   1
_chemical_formula_structural   Co(WO4)2
_chemical_formula_sum   'Co1 W2 O8'
_cell_volume   136.57466503
_cell_formula_units_Z   1
loop_
 _symmetry_equiv_pos_site_id
 _symmetry_equiv_pos_as_xyz
  1  'x, y, z'
loop_
 _atom_site_type_symbol
 _atom_site_label
 _atom_site_symmetry_multiplicity
 _atom_site_fract_x
 _atom_site_fract_y
 _atom_site_fract_z
 _atom_site_occupancy
  Co  Co0  1  0.500000  0.000000  0.000000  1
  W  W1  1  0.246464  0.508691  0.334375  1
  W  W2  1  0.753536  0.491309  0.665625  1
  O  O3  1  0.043952  0.723937  0.461046  1
  O  O4  1  0.527596  0.710767  0.676174  1
  O  O5  1  0.480851  0.753881  0.176564  1
  O  O6  1  0.945640  0.227387  0.075307  1
  O  O7  1  0.956048  0.276063  0.538954  1
  O  O8  1  0.472404  0.289233  0.323826  1
  O  O9  1  0.054360  0.772613  0.924693  1
  O  O10  1  0.519149  0.246119  0.823436  1
