# generated using pymatgen
data_PbSeO3
_symmetry_space_group_name_H-M   'P 1'
_cell_length_a   4.59801691
_cell_length_b   5.61486651
_cell_length_c   6.75887154
_cell_angle_alpha   90.00000000
_cell_angle_beta   106.85881173
_cell_angle_gamma   90.00000000
_symmetry_Int_Tables_number   1
_chemical_formula_structural   PbSeO3
_chemical_formula_sum   'Pb2 Se2 O6'
_cell_volume   166.99607190
_cell_formula_units_Z   2
loop_
 _symmetry_equiv_pos_site_id
 _symmetry_equiv_pos_as_xyz
  1  'x, y, z'
loop_
 _atom_site_type_symbol
 _atom_site_label
 _atom_site_symmetry_multiplicity
 _atom_site_fract_x
 _atom_site_fract_y
 _atom_site_fract_z
 _atom_site_occupancy
  Pb  Pb0  1  0.634169  0.250000  0.304977  1
  Pb  Pb1  1  0.365831  0.750000  0.695023  1
  Se  Se2  1  0.086599  0.750000  0.163869  1
  Se  Se3  1  0.913401  0.250000  0.836131  1
  O  O4  1  0.799692  0.013687  0.663199  1
  O  O5  1  0.200308  0.513687  0.336801  1
  O  O6  1  0.200308  0.986313  0.336801  1
  O  O7  1  0.799692  0.486313  0.663199  1
  O  O8  1  0.299735  0.250000  0.880492  1
  O  O9  1  0.700265  0.750000  0.119508  1
