# generated using pymatgen
data_Nb3Au
_symmetry_space_group_name_H-M   'P 1'
_cell_length_a   5.25633590
_cell_length_b   5.25633590
_cell_length_c   5.25633590
_cell_angle_alpha   90.00000000
_cell_angle_beta   90.00000000
_cell_angle_gamma   90.00000000
_symmetry_Int_Tables_number   1
_chemical_formula_structural   Nb3Au
_chemical_formula_sum   'Nb6 Au2'
_cell_volume   145.22765725
_cell_formula_units_Z   2
loop_
 _symmetry_equiv_pos_site_id
 _symmetry_equiv_pos_as_xyz
  1  'x, y, z'
loop_
 _atom_site_type_symbol
 _atom_site_label
 _atom_site_symmetry_multiplicity
 _atom_site_fract_x
 _atom_site_fract_y
 _atom_site_fract_z
 _atom_site_occupancy
  Nb  Nb0  1  0.500000  0.250000  0.000000  1
  Nb  Nb1  1  0.500000  0.750000  0.000000  1
  Nb  Nb2  1  0.250000  0.000000  0.500000  1
  Nb  Nb3  1  0.750000  0.000000  0.500000  1
  Nb  Nb4  1  0.000000  0.500000  0.250000  1
  Nb  Nb5  1  0.000000  0.500000  0.750000  1
  Au  Au6  1  0.500000  0.500000  0.500000  1
  Au  Au7  1  0.000000  0.000000  0.000000  1
