# generated using pymatgen
data_YCu2
_symmetry_space_group_name_H-M   'P 1'
_cell_length_a   5.44497937
_cell_length_b   5.44497937
_cell_length_c   5.44497937
_cell_angle_alpha   133.84464697
_cell_angle_beta   101.41148368
_cell_angle_gamma   96.28308138
_symmetry_Int_Tables_number   1
_chemical_formula_structural   YCu2
_chemical_formula_sum   'Y2 Cu4'
_cell_volume   106.96442142
_cell_formula_units_Z   2
loop_
 _symmetry_equiv_pos_site_id
 _symmetry_equiv_pos_as_xyz
  1  'x, y, z'
loop_
 _atom_site_type_symbol
 _atom_site_label
 _atom_site_symmetry_multiplicity
 _atom_site_fract_x
 _atom_site_fract_y
 _atom_site_fract_z
 _atom_site_occupancy
  Y  Y0  1  0.789783  0.539783  0.750000  1
  Y  Y1  1  0.210217  0.460217  0.250000  1
  Cu  Cu2  1  0.614735  0.164540  0.950195  1
  Cu  Cu3  1  0.385265  0.835460  0.049805  1
  Cu  Cu4  1  0.785656  0.835460  0.450195  1
  Cu  Cu5  1  0.214344  0.164540  0.549805  1
