# generated using pymatgen
data_AsRh
_symmetry_space_group_name_H-M   'P 1'
_cell_length_a   3.64253121
_cell_length_b   5.72422798
_cell_length_c   6.15977420
_cell_angle_alpha   90.00000000
_cell_angle_beta   90.00000000
_cell_angle_gamma   90.00000000
_symmetry_Int_Tables_number   1
_chemical_formula_structural   AsRh
_chemical_formula_sum   'As4 Rh4'
_cell_volume   128.43547499
_cell_formula_units_Z   4
loop_
 _symmetry_equiv_pos_site_id
 _symmetry_equiv_pos_as_xyz
  1  'x, y, z'
loop_
 _atom_site_type_symbol
 _atom_site_label
 _atom_site_symmetry_multiplicity
 _atom_site_fract_x
 _atom_site_fract_y
 _atom_site_fract_z
 _atom_site_occupancy
  As  As0  1  0.250000  0.695347  0.085146  1
  As  As1  1  0.750000  0.304653  0.914854  1
  As  As2  1  0.250000  0.195347  0.414854  1
  As  As3  1  0.750000  0.804653  0.585146  1
  Rh  Rh4  1  0.250000  0.502927  0.694382  1
  Rh  Rh5  1  0.750000  0.497073  0.305618  1
  Rh  Rh6  1  0.250000  0.002927  0.805618  1
  Rh  Rh7  1  0.750000  0.997073  0.194382  1
