# generated using pymatgen
data_KC8
_symmetry_space_group_name_H-M   'P 1'
_cell_length_a   11.55664991
_cell_length_b   11.00547667
_cell_length_c   4.98163669
_cell_angle_alpha   83.51668866
_cell_angle_beta   71.12323307
_cell_angle_gamma   25.36007828
_symmetry_Int_Tables_number   1
_chemical_formula_structural   KC8
_chemical_formula_sum   'K2 C16'
_cell_volume   230.23559188
_cell_formula_units_Z   2
loop_
 _symmetry_equiv_pos_site_id
 _symmetry_equiv_pos_as_xyz
  1  'x, y, z'
loop_
 _atom_site_type_symbol
 _atom_site_label
 _atom_site_symmetry_multiplicity
 _atom_site_fract_x
 _atom_site_fract_y
 _atom_site_fract_z
 _atom_site_occupancy
  K  K0  1  0.500000  0.500000  0.500000  1
  K  K1  1  0.750000  0.750000  0.750000  1
  C  C2  1  0.041265  0.708836  0.791367  1
  C  C3  1  0.458532  0.791367  0.708836  1
  C  C4  1  0.791367  0.458532  0.041265  1
  C  C5  1  0.708836  0.041265  0.458532  1
  C  C6  1  0.208735  0.541164  0.458633  1
  C  C7  1  0.791468  0.458633  0.541164  1
  C  C8  1  0.458633  0.791468  0.208735  1
  C  C9  1  0.541164  0.208735  0.791468  1
  C  C10  1  0.540495  0.207765  0.292103  1
  C  C11  1  0.959637  0.292103  0.207765  1
  C  C12  1  0.292103  0.959637  0.540495  1
  C  C13  1  0.207765  0.540495  0.959637  1
  C  C14  1  0.709505  0.042235  0.957897  1
  C  C15  1  0.290363  0.957897  0.042235  1
  C  C16  1  0.957897  0.290363  0.709505  1
  C  C17  1  0.042235  0.709505  0.290363  1
