# generated using pymatgen
data_K2In3AgSe6
_symmetry_space_group_name_H-M   'P 1'
_cell_length_a   8.41586180
_cell_length_b   8.41586180
_cell_length_c   21.80884707
_cell_angle_alpha   84.33077245
_cell_angle_beta   95.66922755
_cell_angle_gamma   90.13158036
_symmetry_Int_Tables_number   1
_chemical_formula_structural   K2In3AgSe6
_chemical_formula_sum   'K8 In12 Ag4 Se24'
_cell_volume   1529.53237415
_cell_formula_units_Z   4
loop_
 _symmetry_equiv_pos_site_id
 _symmetry_equiv_pos_as_xyz
  1  'x, y, z'
loop_
 _atom_site_type_symbol
 _atom_site_label
 _atom_site_symmetry_multiplicity
 _atom_site_fract_x
 _atom_site_fract_y
 _atom_site_fract_z
 _atom_site_occupancy
  K  K0  1  0.104755  0.792592  0.917194  1
  K  K1  1  0.792592  0.104755  0.582806  1
  K  K2  1  0.895245  0.207408  0.082806  1
  K  K3  1  0.207408  0.895245  0.417194  1
  K  K4  1  0.607265  0.749648  0.917266  1
  K  K5  1  0.749648  0.607265  0.582734  1
  K  K6  1  0.392735  0.250352  0.082734  1
  K  K7  1  0.250352  0.392735  0.417266  1
  In  In8  1  0.722555  0.150802  0.387618  1
  In  In9  1  0.150802  0.722555  0.112382  1
  In  In10  1  0.277445  0.849198  0.612382  1
  In  In11  1  0.849198  0.277445  0.887618  1
  In  In12  1  0.720271  0.650117  0.388106  1
  In  In13  1  0.650117  0.720271  0.111894  1
  In  In14  1  0.279729  0.349883  0.611894  1
  In  In15  1  0.349883  0.279729  0.888106  1
  In  In16  1  0.933044  0.440075  0.249994  1
  In  In17  1  0.440075  0.933044  0.250006  1
  In  In18  1  0.066956  0.559925  0.750006  1
  In  In19  1  0.559925  0.066956  0.749994  1
  Ag  Ag20  1  0.437408  0.437408  0.250000  1
  Ag  Ag21  1  0.562592  0.562592  0.750000  1
  Ag  Ag22  1  0.935240  0.935240  0.250000  1
  Ag  Ag23  1  0.064760  0.064760  0.750000  1
  Se  Se24  1  0.695388  0.381707  0.459877  1
  Se  Se25  1  0.381707  0.695388  0.040123  1
  Se  Se26  1  0.304612  0.618293  0.540123  1
  Se  Se27  1  0.618293  0.304612  0.959877  1
  Se  Se28  1  0.784092  0.882203  0.459650  1
  Se  Se29  1  0.882203  0.784092  0.040350  1
  Se  Se30  1  0.215908  0.117797  0.540350  1
  Se  Se31  1  0.117797  0.215908  0.959650  1
  Se  Se32  1  0.825322  0.026803  0.824637  1
  Se  Se33  1  0.026803  0.825322  0.675363  1
  Se  Se34  1  0.174678  0.973197  0.175363  1
  Se  Se35  1  0.973197  0.174678  0.324637  1
  Se  Se36  1  0.560582  0.840007  0.675198  1
  Se  Se37  1  0.840007  0.560582  0.824802  1
  Se  Se38  1  0.439418  0.159993  0.324802  1
  Se  Se39  1  0.159993  0.439418  0.175198  1
  Se  Se40  1  0.337060  0.027928  0.825431  1
  Se  Se41  1  0.027928  0.337060  0.674569  1
  Se  Se42  1  0.662940  0.972072  0.174569  1
  Se  Se43  1  0.972072  0.662940  0.325431  1
  Se  Se44  1  0.563042  0.328702  0.674782  1
  Se  Se45  1  0.328702  0.563042  0.825218  1
  Se  Se46  1  0.436958  0.671298  0.325218  1
  Se  Se47  1  0.671298  0.436958  0.174782  1
