# generated using pymatgen
data_YbIn2Au
_symmetry_space_group_name_H-M   'P 1'
_cell_length_a   5.87744683
_cell_length_b   5.87744683
_cell_length_c   7.72224948
_cell_angle_alpha   90.00000000
_cell_angle_beta   90.00000000
_cell_angle_gamma   134.04353907
_symmetry_Int_Tables_number   1
_chemical_formula_structural   YbIn2Au
_chemical_formula_sum   'Yb2 In4 Au2'
_cell_volume   191.75045228
_cell_formula_units_Z   2
loop_
 _symmetry_equiv_pos_site_id
 _symmetry_equiv_pos_as_xyz
  1  'x, y, z'
loop_
 _atom_site_type_symbol
 _atom_site_label
 _atom_site_symmetry_multiplicity
 _atom_site_fract_x
 _atom_site_fract_y
 _atom_site_fract_z
 _atom_site_occupancy
  Yb  Yb0  1  0.075850  0.924150  0.250000  1
  Yb  Yb1  1  0.924150  0.075850  0.750000  1
  In  In2  1  0.634128  0.365872  0.549980  1
  In  In3  1  0.365872  0.634128  0.450020  1
  In  In4  1  0.634128  0.365872  0.950020  1
  In  In5  1  0.365872  0.634128  0.049980  1
  Au  Au6  1  0.211065  0.788935  0.750000  1
  Au  Au7  1  0.788935  0.211065  0.250000  1
