# generated using pymatgen
data_KCuCl3
_symmetry_space_group_name_H-M   'P 1'
_cell_length_a   4.27680597
_cell_length_b   13.88051056
_cell_length_c   8.96519415
_cell_angle_alpha   90.00000000
_cell_angle_beta   100.14528772
_cell_angle_gamma   90.00000000
_symmetry_Int_Tables_number   1
_chemical_formula_structural   KCuCl3
_chemical_formula_sum   'K4 Cu4 Cl12'
_cell_volume   523.89050203
_cell_formula_units_Z   4
loop_
 _symmetry_equiv_pos_site_id
 _symmetry_equiv_pos_as_xyz
  1  'x, y, z'
loop_
 _atom_site_type_symbol
 _atom_site_label
 _atom_site_symmetry_multiplicity
 _atom_site_fract_x
 _atom_site_fract_y
 _atom_site_fract_z
 _atom_site_occupancy
  K  K0  1  0.279312  0.832480  0.558715  1
  K  K1  1  0.720688  0.332480  0.941285  1
  K  K2  1  0.720688  0.167520  0.441285  1
  K  K3  1  0.279312  0.667520  0.058715  1
  Cu  Cu4  1  0.742364  0.549767  0.654904  1
  Cu  Cu5  1  0.257636  0.049767  0.845096  1
  Cu  Cu6  1  0.257636  0.450233  0.345096  1
  Cu  Cu7  1  0.742364  0.950233  0.154904  1
  Cl  Cl8  1  0.837646  0.991020  0.678189  1
  Cl  Cl9  1  0.667497  0.098245  0.035345  1
  Cl  Cl10  1  0.667497  0.401755  0.535345  1
  Cl  Cl11  1  0.332503  0.901755  0.964655  1
  Cl  Cl12  1  0.777693  0.801528  0.260150  1
  Cl  Cl13  1  0.222307  0.301528  0.239850  1
  Cl  Cl14  1  0.222307  0.198472  0.739850  1
  Cl  Cl15  1  0.162354  0.491020  0.821811  1
  Cl  Cl16  1  0.162354  0.008980  0.321811  1
  Cl  Cl17  1  0.837646  0.508980  0.178189  1
  Cl  Cl18  1  0.777693  0.698472  0.760150  1
  Cl  Cl19  1  0.332503  0.598245  0.464655  1
