# generated using pymatgen
data_Rh3S4
_symmetry_space_group_name_H-M   'P 1'
_cell_length_a   7.56293995
_cell_length_b   7.56293995
_cell_length_c   6.31925137
_cell_angle_alpha   77.69476914
_cell_angle_beta   102.30523086
_cell_angle_gamma   87.77187900
_symmetry_Int_Tables_number   1
_chemical_formula_structural   Rh3S4
_chemical_formula_sum   'Rh9 S12'
_cell_volume   343.68392691
_cell_formula_units_Z   3
loop_
 _symmetry_equiv_pos_site_id
 _symmetry_equiv_pos_as_xyz
  1  'x, y, z'
loop_
 _atom_site_type_symbol
 _atom_site_label
 _atom_site_symmetry_multiplicity
 _atom_site_fract_x
 _atom_site_fract_y
 _atom_site_fract_z
 _atom_site_occupancy
  Rh  Rh0  1  0.160852  0.160852  0.000000  1
  Rh  Rh1  1  0.839148  0.839148  0.000000  1
  Rh  Rh2  1  0.000000  0.000000  0.500000  1
  Rh  Rh3  1  0.349950  0.650050  0.052363  1
  Rh  Rh4  1  0.650050  0.349950  0.947637  1
  Rh  Rh5  1  0.784241  0.508450  0.549355  1
  Rh  Rh6  1  0.508450  0.784241  0.450645  1
  Rh  Rh7  1  0.215759  0.491550  0.450645  1
  Rh  Rh8  1  0.491550  0.215759  0.549355  1
  S  S9  1  0.858830  0.559395  0.899238  1
  S  S10  1  0.559395  0.858830  0.100762  1
  S  S11  1  0.141170  0.440605  0.100762  1
  S  S12  1  0.440605  0.141170  0.899238  1
  S  S13  1  0.117258  0.882742  0.888329  1
  S  S14  1  0.882742  0.117258  0.111671  1
  S  S15  1  0.032952  0.283835  0.614335  1
  S  S16  1  0.283835  0.032952  0.385665  1
  S  S17  1  0.967048  0.716165  0.385665  1
  S  S18  1  0.584128  0.415872  0.273547  1
  S  S19  1  0.415872  0.584128  0.726453  1
  S  S20  1  0.716165  0.967048  0.614335  1
