# generated using pymatgen
data_Na3NbO4
_symmetry_space_group_name_H-M   'P 1'
_cell_length_a   8.67095406
_cell_length_b   8.67095406
_cell_length_c   5.81892819
_cell_angle_alpha   77.56537170
_cell_angle_beta   102.43462830
_cell_angle_gamma   81.04113906
_symmetry_Int_Tables_number   1
_chemical_formula_structural   Na3NbO4
_chemical_formula_sum   'Na12 Nb4 O16'
_cell_volume   407.73823075
_cell_formula_units_Z   4
loop_
 _symmetry_equiv_pos_site_id
 _symmetry_equiv_pos_as_xyz
  1  'x, y, z'
loop_
 _atom_site_type_symbol
 _atom_site_label
 _atom_site_symmetry_multiplicity
 _atom_site_fract_x
 _atom_site_fract_y
 _atom_site_fract_z
 _atom_site_occupancy
  Na  Na0  1  0.000000  0.500000  0.000000  1
  Na  Na1  1  0.259074  0.259074  0.500000  1
  Na  Na2  1  0.740926  0.740926  0.500000  1
  Na  Na3  1  0.000000  0.000000  0.500000  1
  Na  Na4  1  0.881458  0.370463  0.478996  1
  Na  Na5  1  0.370463  0.881458  0.521004  1
  Na  Na6  1  0.118542  0.629537  0.521004  1
  Na  Na7  1  0.629537  0.118542  0.478996  1
  Na  Na8  1  0.623895  0.623895  0.000000  1
  Na  Na9  1  0.500000  0.000000  0.000000  1
  Na  Na10  1  0.376105  0.376105  0.000000  1
  Na  Na11  1  0.500000  0.500000  0.500000  1
  Nb  Nb12  1  0.260739  0.739261  0.032747  1
  Nb  Nb13  1  0.739261  0.260739  0.967253  1
  Nb  Nb14  1  0.133656  0.133656  0.000000  1
  Nb  Nb15  1  0.866344  0.866344  0.000000  1
  O  O16  1  0.246237  0.537452  0.234002  1
  O  O17  1  0.537452  0.246237  0.765998  1
  O  O18  1  0.753763  0.462548  0.765998  1
  O  O19  1  0.462548  0.753763  0.234002  1
  O  O20  1  0.991697  0.231832  0.189650  1
  O  O21  1  0.231832  0.991697  0.810350  1
  O  O22  1  0.008303  0.768168  0.810350  1
  O  O23  1  0.768168  0.008303  0.189650  1
  O  O24  1  0.655687  0.344313  0.205349  1
  O  O25  1  0.344313  0.655687  0.794651  1
  O  O26  1  0.125141  0.332422  0.773164  1
  O  O27  1  0.332422  0.125141  0.226836  1
  O  O28  1  0.874859  0.667578  0.226836  1
  O  O29  1  0.887231  0.112769  0.801451  1
  O  O30  1  0.112769  0.887231  0.198549  1
  O  O31  1  0.667578  0.874859  0.773164  1
