# generated using pymatgen
data_La(AuF4)3
_symmetry_space_group_name_H-M   'P 1'
_cell_length_a   8.35897343
_cell_length_b   8.35897343
_cell_length_c   8.35897343
_cell_angle_alpha   80.15867343
_cell_angle_beta   80.15867343
_cell_angle_gamma   80.15867343
_symmetry_Int_Tables_number   1
_chemical_formula_structural   La(AuF4)3
_chemical_formula_sum   'La2 Au6 F24'
_cell_volume   560.92603320
_cell_formula_units_Z   2
loop_
 _symmetry_equiv_pos_site_id
 _symmetry_equiv_pos_as_xyz
  1  'x, y, z'
loop_
 _atom_site_type_symbol
 _atom_site_label
 _atom_site_symmetry_multiplicity
 _atom_site_fract_x
 _atom_site_fract_y
 _atom_site_fract_z
 _atom_site_occupancy
  La  La0  1  0.750000  0.750000  0.750000  1
  La  La1  1  0.250000  0.250000  0.250000  1
  Au  Au2  1  0.250000  0.660949  0.839051  1
  Au  Au3  1  0.339051  0.160949  0.750000  1
  Au  Au4  1  0.160949  0.750000  0.339051  1
  Au  Au5  1  0.750000  0.339051  0.160949  1
  Au  Au6  1  0.839051  0.250000  0.660949  1
  Au  Au7  1  0.660949  0.839051  0.250000  1
  F  F8  1  0.627530  0.804748  0.491263  1
  F  F9  1  0.804748  0.491263  0.627530  1
  F  F10  1  0.491263  0.627530  0.804748  1
  F  F11  1  0.695252  0.872470  0.008737  1
  F  F12  1  0.872470  0.008737  0.695252  1
  F  F13  1  0.008737  0.695252  0.872470  1
  F  F14  1  0.372470  0.195252  0.508737  1
  F  F15  1  0.195252  0.508737  0.372470  1
  F  F16  1  0.750000  0.523835  0.976165  1
  F  F17  1  0.976165  0.750000  0.523835  1
  F  F18  1  0.523835  0.976165  0.750000  1
  F  F19  1  0.250000  0.476165  0.023835  1
  F  F20  1  0.023835  0.250000  0.476165  1
  F  F21  1  0.476165  0.023835  0.250000  1
  F  F22  1  0.750000  0.159183  0.340817  1
  F  F23  1  0.340817  0.750000  0.159183  1
  F  F24  1  0.159183  0.340817  0.750000  1
  F  F25  1  0.250000  0.840817  0.659183  1
  F  F26  1  0.659183  0.250000  0.840817  1
  F  F27  1  0.840817  0.659183  0.250000  1
  F  F28  1  0.991263  0.304748  0.127530  1
  F  F29  1  0.127530  0.991263  0.304748  1
  F  F30  1  0.304748  0.127530  0.991263  1
  F  F31  1  0.508737  0.372470  0.195252  1
