# generated using pymatgen
data_TbMn2O5
_symmetry_space_group_name_H-M   'P 1'
_cell_length_a   5.79328048
_cell_length_b   7.38493114
_cell_length_c   8.59228551
_cell_angle_alpha   90.00000000
_cell_angle_beta   90.00000000
_cell_angle_gamma   90.00000000
_symmetry_Int_Tables_number   1
_chemical_formula_structural   TbMn2O5
_chemical_formula_sum   'Tb4 Mn8 O20'
_cell_volume   367.60355696
_cell_formula_units_Z   4
loop_
 _symmetry_equiv_pos_site_id
 _symmetry_equiv_pos_as_xyz
  1  'x, y, z'
loop_
 _atom_site_type_symbol
 _atom_site_label
 _atom_site_symmetry_multiplicity
 _atom_site_fract_x
 _atom_site_fract_y
 _atom_site_fract_z
 _atom_site_occupancy
  Tb  Tb0  1  0.000000  0.361971  0.670808  1
  Tb  Tb1  1  0.000000  0.638029  0.329192  1
  Tb  Tb2  1  0.000000  0.861971  0.829192  1
  Tb  Tb3  1  0.000000  0.138029  0.170808  1
  Mn  Mn4  1  0.500000  0.088778  0.848782  1
  Mn  Mn5  1  0.500000  0.911222  0.151218  1
  Mn  Mn6  1  0.500000  0.588778  0.651218  1
  Mn  Mn7  1  0.500000  0.411222  0.348782  1
  Mn  Mn8  1  0.253998  0.500000  0.000000  1
  Mn  Mn9  1  0.746002  0.000000  0.500000  1
  Mn  Mn10  1  0.746002  0.500000  0.000000  1
  Mn  Mn11  1  0.253998  0.000000  0.500000  1
  O  O12  1  0.241102  0.894144  0.293072  1
  O  O13  1  0.241102  0.105856  0.706928  1
  O  O14  1  0.758898  0.394144  0.206928  1
  O  O15  1  0.758898  0.605856  0.793072  1
  O  O16  1  0.758898  0.105856  0.706928  1
  O  O17  1  0.758898  0.894144  0.293072  1
  O  O18  1  0.241102  0.605856  0.793072  1
  O  O19  1  0.241102  0.394144  0.206928  1
  O  O20  1  0.500000  0.348911  0.930988  1
  O  O21  1  0.500000  0.651089  0.069012  1
  O  O22  1  0.500000  0.848911  0.569012  1
  O  O23  1  0.500000  0.151089  0.430988  1
  O  O24  1  0.271058  0.000000  0.000000  1
  O  O25  1  0.728942  0.500000  0.500000  1
  O  O26  1  0.728942  0.000000  0.000000  1
  O  O27  1  0.271058  0.500000  0.500000  1
  O  O28  1  0.000000  0.163070  0.443314  1
  O  O29  1  0.000000  0.836930  0.556686  1
  O  O30  1  0.000000  0.663070  0.056686  1
  O  O31  1  0.000000  0.336930  0.943314  1
