# generated using pymatgen
data_MoCl3O
_symmetry_space_group_name_H-M   'P 1'
_cell_length_a   6.22247826
_cell_length_b   14.27481625
_cell_length_c   6.25415925
_cell_angle_alpha   90.00000000
_cell_angle_beta   92.30271454
_cell_angle_gamma   90.00000000
_symmetry_Int_Tables_number   1
_chemical_formula_structural   MoCl3O
_chemical_formula_sum   'Mo4 Cl12 O4'
_cell_volume   555.07544037
_cell_formula_units_Z   4
loop_
 _symmetry_equiv_pos_site_id
 _symmetry_equiv_pos_as_xyz
  1  'x, y, z'
loop_
 _atom_site_type_symbol
 _atom_site_label
 _atom_site_symmetry_multiplicity
 _atom_site_fract_x
 _atom_site_fract_y
 _atom_site_fract_z
 _atom_site_occupancy
  Mo  Mo0  1  0.303405  0.664707  0.031167  1
  Mo  Mo1  1  0.196595  0.164707  0.968833  1
  Mo  Mo2  1  0.696595  0.335293  0.968833  1
  Mo  Mo3  1  0.803405  0.835293  0.031167  1
  Cl  Cl4  1  0.647198  0.928449  0.284031  1
  Cl  Cl5  1  0.852802  0.428449  0.715969  1
  Cl  Cl6  1  0.352802  0.071551  0.715969  1
  Cl  Cl7  1  0.147198  0.571551  0.284031  1
  Cl  Cl8  1  0.611340  0.687508  0.264152  1
  Cl  Cl9  1  0.888660  0.187508  0.735848  1
  Cl  Cl10  1  0.388660  0.312492  0.735848  1
  Cl  Cl11  1  0.111340  0.812492  0.264152  1
  Cl  Cl12  1  0.446306  0.806113  0.841166  1
  Cl  Cl13  1  0.053694  0.306113  0.158834  1
  Cl  Cl14  1  0.553694  0.193887  0.158834  1
  Cl  Cl15  1  0.946306  0.693887  0.841166  1
  O  O16  1  0.384110  0.585963  0.849567  1
  O  O17  1  0.115890  0.085963  0.150433  1
  O  O18  1  0.615890  0.414037  0.150433  1
  O  O19  1  0.884110  0.914037  0.849567  1
