# generated using pymatgen
data_CdP2H6O7
_symmetry_space_group_name_H-M   'P 1'
_cell_length_a   6.82948256
_cell_length_b   7.67521655
_cell_length_c   8.05211981
_cell_angle_alpha   113.61142847
_cell_angle_beta   110.09863739
_cell_angle_gamma   95.20606702
_symmetry_Int_Tables_number   1
_chemical_formula_structural   CdP2H6O7
_chemical_formula_sum   'Cd2 P4 H12 O14'
_cell_volume   350.16285406
_cell_formula_units_Z   2
loop_
 _symmetry_equiv_pos_site_id
 _symmetry_equiv_pos_as_xyz
  1  'x, y, z'
loop_
 _atom_site_type_symbol
 _atom_site_label
 _atom_site_symmetry_multiplicity
 _atom_site_fract_x
 _atom_site_fract_y
 _atom_site_fract_z
 _atom_site_occupancy
  Cd  Cd0  1  0.572346  0.764163  0.874659  1
  Cd  Cd1  1  0.427654  0.235837  0.125341  1
  P  P2  1  0.110911  0.759455  0.967431  1
  P  P3  1  0.889089  0.240545  0.032569  1
  P  P4  1  0.691505  0.747815  0.339226  1
  P  P5  1  0.308495  0.252185  0.660774  1
  H  H6  1  0.132284  0.565428  0.903557  1
  H  H7  1  0.867716  0.434572  0.096443  1
  H  H8  1  0.640028  0.923558  0.434294  1
  H  H9  1  0.359972  0.076442  0.565706  1
  H  H10  1  0.896042  0.753296  0.624584  1
  H  H11  1  0.103958  0.246704  0.375416  1
  H  H12  1  0.380023  0.660052  0.447454  1
  H  H13  1  0.619977  0.339948  0.552546  1
  H  H14  1  0.201052  0.728663  0.529531  1
  H  H15  1  0.798948  0.271337  0.470469  1
  H  H16  1  0.979258  0.804712  0.192242  1
  H  H17  1  0.020742  0.195288  0.807758  1
  O  O18  1  0.750622  0.753154  0.174232  1
  O  O19  1  0.307513  0.882638  0.976416  1
  O  O20  1  0.109192  0.245278  0.175986  1
  O  O21  1  0.890808  0.754722  0.824014  1
  O  O22  1  0.874361  0.168567  0.815243  1
  O  O23  1  0.125639  0.831433  0.184757  1
  O  O24  1  0.644630  0.265680  0.431663  1
  O  O25  1  0.355370  0.734320  0.568337  1
  O  O26  1  0.504548  0.577604  0.277002  1
  O  O27  1  0.495452  0.422396  0.722998  1
  O  O28  1  0.910147  0.751562  0.501621  1
  O  O29  1  0.089853  0.248438  0.498379  1
  O  O30  1  0.692487  0.117362  0.023584  1
  O  O31  1  0.249378  0.246846  0.825768  1
