# generated using pymatgen
data_Eu(BO2)3
_symmetry_space_group_name_H-M   'P 1'
_cell_length_a   6.43237898
_cell_length_b   6.43237898
_cell_length_c   6.45811833
_cell_angle_alpha   62.23768203
_cell_angle_beta   117.76231797
_cell_angle_gamma   100.80433237
_symmetry_Int_Tables_number   1
_chemical_formula_structural   Eu(BO2)3
_chemical_formula_sum   'Eu2 B6 O12'
_cell_volume   209.08196121
_cell_formula_units_Z   2
loop_
 _symmetry_equiv_pos_site_id
 _symmetry_equiv_pos_as_xyz
  1  'x, y, z'
loop_
 _atom_site_type_symbol
 _atom_site_label
 _atom_site_symmetry_multiplicity
 _atom_site_fract_x
 _atom_site_fract_y
 _atom_site_fract_z
 _atom_site_occupancy
  Eu  Eu0  1  0.794838  0.794838  0.750000  1
  Eu  Eu1  1  0.205162  0.205162  0.250000  1
  B  B2  1  0.777634  0.777634  0.250000  1
  B  B3  1  0.222366  0.222366  0.750000  1
  B  B4  1  0.794646  0.340351  0.584705  1
  B  B5  1  0.340351  0.794646  0.915295  1
  B  B6  1  0.205354  0.659649  0.415295  1
  B  B7  1  0.659649  0.205354  0.084705  1
  O  O8  1  0.990179  0.780268  0.212658  1
  O  O9  1  0.616059  0.209420  0.503412  1
  O  O10  1  0.209420  0.616059  0.996588  1
  O  O11  1  0.383941  0.790580  0.496588  1
  O  O12  1  0.416710  0.214245  0.991035  1
  O  O13  1  0.214245  0.416710  0.508965  1
  O  O14  1  0.583290  0.785755  0.008965  1
  O  O15  1  0.785755  0.583290  0.491035  1
  O  O16  1  0.009821  0.219732  0.787342  1
  O  O17  1  0.219732  0.009821  0.712658  1
  O  O18  1  0.790580  0.383941  0.003412  1
  O  O19  1  0.780268  0.990179  0.287342  1
