# generated using pymatgen
data_Tl3(MoO4)2
_symmetry_space_group_name_H-M   'P 1'
_cell_length_a   6.14560361
_cell_length_b   6.14560361
_cell_length_c   16.16780500
_cell_angle_alpha   90.00000000
_cell_angle_beta   90.00000000
_cell_angle_gamma   120.00000000
_symmetry_Int_Tables_number   1
_chemical_formula_structural   Tl3(MoO4)2
_chemical_formula_sum   'Tl6 Mo4 O16'
_cell_volume   528.82354596
_cell_formula_units_Z   2
loop_
 _symmetry_equiv_pos_site_id
 _symmetry_equiv_pos_as_xyz
  1  'x, y, z'
loop_
 _atom_site_type_symbol
 _atom_site_label
 _atom_site_symmetry_multiplicity
 _atom_site_fract_x
 _atom_site_fract_y
 _atom_site_fract_z
 _atom_site_occupancy
  Tl  Tl0  1  0.333333  0.666667  0.044974  1
  Tl  Tl1  1  0.000000  0.000000  0.017832  1
  Tl  Tl2  1  0.000000  0.000000  0.254941  1
  Tl  Tl3  1  0.000000  0.000000  0.517832  1
  Tl  Tl4  1  0.000000  0.000000  0.754941  1
  Tl  Tl5  1  0.666667  0.333333  0.544974  1
  Mo  Mo6  1  0.333333  0.666667  0.412866  1
  Mo  Mo7  1  0.666667  0.333333  0.912866  1
  Mo  Mo8  1  0.666667  0.333333  0.165536  1
  Mo  Mo9  1  0.333333  0.666667  0.665536  1
  O  O10  1  0.506275  0.493725  0.950472  1
  O  O11  1  0.829969  0.170031  0.130678  1
  O  O12  1  0.987449  0.493725  0.950472  1
  O  O13  1  0.829969  0.659939  0.130678  1
  O  O14  1  0.170031  0.829969  0.630678  1
  O  O15  1  0.012551  0.506275  0.450472  1
  O  O16  1  0.333333  0.666667  0.304223  1
  O  O17  1  0.333333  0.666667  0.772976  1
  O  O18  1  0.170031  0.340061  0.630678  1
  O  O19  1  0.493725  0.987449  0.450472  1
  O  O20  1  0.493725  0.506275  0.450472  1
  O  O21  1  0.659939  0.829969  0.630678  1
  O  O22  1  0.340061  0.170031  0.130678  1
  O  O23  1  0.666667  0.333333  0.272976  1
  O  O24  1  0.506275  0.012551  0.950472  1
  O  O25  1  0.666667  0.333333  0.804223  1
