# generated using pymatgen
data_Bi(PO3)4
_symmetry_space_group_name_H-M   'P 1'
_cell_length_a   7.32085037
_cell_length_b   13.36923172
_cell_length_c   12.12169652
_cell_angle_alpha   90.00000000
_cell_angle_beta   125.69024542
_cell_angle_gamma   90.00000000
_symmetry_Int_Tables_number   1
_chemical_formula_structural   Bi(PO3)4
_chemical_formula_sum   'Bi4 P16 O48'
_cell_volume   963.57430248
_cell_formula_units_Z   4
loop_
 _symmetry_equiv_pos_site_id
 _symmetry_equiv_pos_as_xyz
  1  'x, y, z'
loop_
 _atom_site_type_symbol
 _atom_site_label
 _atom_site_symmetry_multiplicity
 _atom_site_fract_x
 _atom_site_fract_y
 _atom_site_fract_z
 _atom_site_occupancy
  Bi  Bi0  1  0.961076  0.223745  0.978092  1
  Bi  Bi1  1  0.038924  0.723745  0.521908  1
  Bi  Bi2  1  0.961076  0.276255  0.478092  1
  Bi  Bi3  1  0.038924  0.776255  0.021908  1
  P  P4  1  0.506063  0.897567  0.755449  1
  P  P5  1  0.391637  0.113107  0.769149  1
  P  P6  1  0.059502  0.591662  0.794927  1
  P  P7  1  0.493937  0.397567  0.744551  1
  P  P8  1  0.841783  0.626004  0.197370  1
  P  P9  1  0.940498  0.408338  0.205073  1
  P  P10  1  0.608363  0.886893  0.230851  1
  P  P11  1  0.493937  0.102433  0.244551  1
  P  P12  1  0.506063  0.602433  0.255449  1
  P  P13  1  0.391637  0.386893  0.269149  1
  P  P14  1  0.158217  0.373996  0.802630  1
  P  P15  1  0.158217  0.126004  0.302630  1
  P  P16  1  0.841783  0.873996  0.697370  1
  P  P17  1  0.940498  0.091662  0.705073  1
  P  P18  1  0.608363  0.613107  0.730851  1
  P  P19  1  0.059502  0.908338  0.294927  1
  O  O20  1  0.144011  0.658299  0.914811  1
  O  O21  1  0.691912  0.890201  0.905595  1
  O  O22  1  0.603806  0.144566  0.901442  1
  O  O23  1  0.161293  0.293708  0.889457  1
  O  O24  1  0.855989  0.341701  0.085189  1
  O  O25  1  0.308088  0.109799  0.094405  1
  O  O26  1  0.396194  0.855434  0.098558  1
  O  O27  1  0.838707  0.706292  0.110543  1
  O  O28  1  0.857814  0.519485  0.141724  1
  O  O29  1  0.291951  0.311425  0.155951  1
  O  O30  1  0.983504  0.130011  0.150919  1
  O  O31  1  0.593379  0.623286  0.163244  1
  O  O32  1  0.299927  0.665717  0.203115  1
  O  O33  1  0.788263  0.919512  0.202135  1
  O  O34  1  0.427275  0.488126  0.212937  1
  O  O35  1  0.127052  0.889997  0.200570  1
  O  O36  1  0.572725  0.988126  0.287063  1
  O  O37  1  0.708049  0.688575  0.844049  1
  O  O38  1  0.872948  0.389997  0.299430  1
  O  O39  1  0.211737  0.419512  0.297865  1
  O  O40  1  0.406621  0.123286  0.336756  1
  O  O41  1  0.708049  0.811425  0.344049  1
  O  O42  1  0.016496  0.630011  0.349081  1
  O  O43  1  0.142186  0.019485  0.358276  1
  O  O44  1  0.603806  0.355434  0.401442  1
  O  O45  1  0.161293  0.206292  0.389457  1
  O  O46  1  0.691912  0.609799  0.405595  1
  O  O47  1  0.144011  0.841701  0.414811  1
  O  O48  1  0.855989  0.158299  0.585189  1
  O  O49  1  0.308088  0.390201  0.594405  1
  O  O50  1  0.838707  0.793708  0.610543  1
  O  O51  1  0.396194  0.644566  0.598558  1
  O  O52  1  0.857814  0.980515  0.641724  1
  O  O53  1  0.983504  0.369989  0.650919  1
  O  O54  1  0.291951  0.188575  0.655951  1
  O  O55  1  0.593379  0.876714  0.663244  1
  O  O56  1  0.788263  0.580488  0.702135  1
  O  O57  1  0.127052  0.610003  0.700570  1
  O  O58  1  0.299927  0.834283  0.703115  1
  O  O59  1  0.427275  0.011874  0.712937  1
  O  O60  1  0.872948  0.110003  0.799430  1
  O  O61  1  0.572725  0.511874  0.787063  1
  O  O62  1  0.211737  0.080488  0.797865  1
  O  O63  1  0.700073  0.334283  0.796885  1
  O  O64  1  0.406621  0.376714  0.836756  1
  O  O65  1  0.016496  0.869989  0.849081  1
  O  O66  1  0.142186  0.480515  0.858276  1
  O  O67  1  0.700073  0.165717  0.296885  1
