# generated using pymatgen
data_TbFeO3
_symmetry_space_group_name_H-M   'P 1'
_cell_length_a   5.35451045
_cell_length_b   5.66560434
_cell_length_c   7.73239610
_cell_angle_alpha   90.00000000
_cell_angle_beta   90.00000000
_cell_angle_gamma   90.00000000
_symmetry_Int_Tables_number   1
_chemical_formula_structural   TbFeO3
_chemical_formula_sum   'Tb4 Fe4 O12'
_cell_volume   234.57412537
_cell_formula_units_Z   4
loop_
 _symmetry_equiv_pos_site_id
 _symmetry_equiv_pos_as_xyz
  1  'x, y, z'
loop_
 _atom_site_type_symbol
 _atom_site_label
 _atom_site_symmetry_multiplicity
 _atom_site_fract_x
 _atom_site_fract_y
 _atom_site_fract_z
 _atom_site_occupancy
  Tb  Tb0  1  0.018571  0.931719  0.750000  1
  Tb  Tb1  1  0.518571  0.568281  0.250000  1
  Tb  Tb2  1  0.481429  0.431719  0.750000  1
  Tb  Tb3  1  0.981429  0.068281  0.250000  1
  Fe  Fe4  1  0.500000  0.000000  0.500000  1
  Fe  Fe5  1  0.000000  0.500000  0.500000  1
  Fe  Fe6  1  0.000000  0.500000  0.000000  1
  Fe  Fe7  1  0.500000  0.000000  0.000000  1
  O  O8  1  0.692446  0.305336  0.441635  1
  O  O9  1  0.192446  0.194664  0.558365  1
  O  O10  1  0.807554  0.805336  0.058365  1
  O  O11  1  0.307554  0.694664  0.941635  1
  O  O12  1  0.307554  0.694664  0.558365  1
  O  O13  1  0.807554  0.805336  0.441635  1
  O  O14  1  0.192446  0.194664  0.941635  1
  O  O15  1  0.692446  0.305336  0.058365  1
  O  O16  1  0.113655  0.459055  0.250000  1
  O  O17  1  0.613655  0.040945  0.750000  1
  O  O18  1  0.386345  0.959055  0.250000  1
  O  O19  1  0.886345  0.540945  0.750000  1
