# generated using pymatgen
data_BaNb2O6
_symmetry_space_group_name_H-M   'P 1'
_cell_length_a   4.01042916
_cell_length_b   6.14093136
_cell_length_c   10.67622784
_cell_angle_alpha   90.00000000
_cell_angle_beta   90.34433529
_cell_angle_gamma   90.00000000
_symmetry_Int_Tables_number   1
_chemical_formula_structural   BaNb2O6
_chemical_formula_sum   'Ba2 Nb4 O12'
_cell_volume   262.92693771
_cell_formula_units_Z   2
loop_
 _symmetry_equiv_pos_site_id
 _symmetry_equiv_pos_as_xyz
  1  'x, y, z'
loop_
 _atom_site_type_symbol
 _atom_site_label
 _atom_site_symmetry_multiplicity
 _atom_site_fract_x
 _atom_site_fract_y
 _atom_site_fract_z
 _atom_site_occupancy
  Ba  Ba0  1  0.000000  0.000000  0.000000  1
  Ba  Ba1  1  0.000000  0.500000  0.500000  1
  Nb  Nb2  1  0.466956  0.544865  0.849839  1
  Nb  Nb3  1  0.533044  0.044865  0.650161  1
  Nb  Nb4  1  0.533044  0.455135  0.150161  1
  Nb  Nb5  1  0.466956  0.955135  0.349839  1
  O  O6  1  0.997881  0.585161  0.849671  1
  O  O7  1  0.002119  0.085161  0.650329  1
  O  O8  1  0.002119  0.414839  0.150329  1
  O  O9  1  0.997881  0.914839  0.349671  1
  O  O10  1  0.502193  0.883079  0.802816  1
  O  O11  1  0.497807  0.383079  0.697184  1
  O  O12  1  0.503520  0.800773  0.537189  1
  O  O13  1  0.496480  0.300773  0.962811  1
  O  O14  1  0.496480  0.199227  0.462811  1
  O  O15  1  0.503520  0.699227  0.037189  1
  O  O16  1  0.502193  0.616921  0.302816  1
  O  O17  1  0.497807  0.116921  0.197184  1
