# generated using pymatgen
data_Nb(PO3)4
_symmetry_space_group_name_H-M   'P 1'
_cell_length_a   8.44621631
_cell_length_b   9.75165732
_cell_length_c   13.02629500
_cell_angle_alpha   90.00000000
_cell_angle_beta   90.00000000
_cell_angle_gamma   90.00000000
_symmetry_Int_Tables_number   1
_chemical_formula_structural   Nb(PO3)4
_chemical_formula_sum   'Nb4 P16 O48'
_cell_volume   1072.90566972
_cell_formula_units_Z   4
loop_
 _symmetry_equiv_pos_site_id
 _symmetry_equiv_pos_as_xyz
  1  'x, y, z'
loop_
 _atom_site_type_symbol
 _atom_site_label
 _atom_site_symmetry_multiplicity
 _atom_site_fract_x
 _atom_site_fract_y
 _atom_site_fract_z
 _atom_site_occupancy
  Nb  Nb0  1  0.355694  0.750000  0.000000  1
  Nb  Nb1  1  0.144306  0.250000  0.500000  1
  Nb  Nb2  1  0.644306  0.250000  0.000000  1
  Nb  Nb3  1  0.855694  0.750000  0.500000  1
  P  P4  1  0.469911  0.488809  0.847068  1
  P  P5  1  0.030089  0.511191  0.347068  1
  P  P6  1  0.969911  0.488809  0.652932  1
  P  P7  1  0.322342  0.499422  0.640805  1
  P  P8  1  0.677658  0.999422  0.640805  1
  P  P9  1  0.822342  0.499422  0.859195  1
  P  P10  1  0.177658  0.500578  0.140805  1
  P  P11  1  0.030089  0.988809  0.652932  1
  P  P12  1  0.530089  0.988809  0.847068  1
  P  P13  1  0.177658  0.999422  0.859195  1
  P  P14  1  0.822342  0.000578  0.140805  1
  P  P15  1  0.469911  0.011191  0.152932  1
  P  P16  1  0.677658  0.500578  0.359195  1
  P  P17  1  0.530089  0.511191  0.152932  1
  P  P18  1  0.322342  0.000578  0.359195  1
  P  P19  1  0.969911  0.011191  0.347068  1
  O  O20  1  0.142982  0.963536  0.317879  1
  O  O21  1  0.471398  0.374239  0.925205  1
  O  O22  1  0.606527  0.569919  0.254128  1
  O  O23  1  0.407859  0.622935  0.609766  1
  O  O24  1  0.305009  0.375308  0.569692  1
  O  O25  1  0.194991  0.875308  0.930308  1
  O  O26  1  0.805009  0.124692  0.069692  1
  O  O27  1  0.028602  0.874239  0.574795  1
  O  O28  1  0.357018  0.463536  0.182121  1
  O  O29  1  0.407859  0.877065  0.390234  1
  O  O30  1  0.893473  0.430081  0.754128  1
  O  O31  1  0.592141  0.377065  0.390234  1
  O  O32  1  0.857018  0.463536  0.317879  1
  O  O33  1  0.377999  0.616448  0.880683  1
  O  O34  1  0.092141  0.122935  0.890234  1
  O  O35  1  0.642982  0.536464  0.817879  1
  O  O36  1  0.694991  0.624692  0.430308  1
  O  O37  1  0.393473  0.069919  0.254128  1
  O  O38  1  0.142982  0.536464  0.682121  1
  O  O39  1  0.471398  0.125761  0.074795  1
  O  O40  1  0.877999  0.616448  0.619317  1
  O  O41  1  0.694991  0.875308  0.569692  1
  O  O42  1  0.642982  0.963536  0.182121  1
  O  O43  1  0.857018  0.036464  0.682121  1
  O  O44  1  0.971398  0.125761  0.425205  1
  O  O45  1  0.028602  0.625761  0.425205  1
  O  O46  1  0.528602  0.874239  0.925205  1
  O  O47  1  0.194991  0.624692  0.069692  1
  O  O48  1  0.893473  0.069919  0.245872  1
  O  O49  1  0.907859  0.877065  0.109766  1
  O  O50  1  0.377999  0.883552  0.119317  1
  O  O51  1  0.122001  0.383552  0.380683  1
  O  O52  1  0.907859  0.622935  0.890234  1
  O  O53  1  0.106527  0.930081  0.754128  1
  O  O54  1  0.393473  0.430081  0.745872  1
  O  O55  1  0.357018  0.036464  0.817879  1
  O  O56  1  0.622001  0.383552  0.119317  1
  O  O57  1  0.805009  0.375308  0.930308  1
  O  O58  1  0.122001  0.116448  0.619317  1
  O  O59  1  0.592141  0.122935  0.609766  1
  O  O60  1  0.106527  0.569919  0.245872  1
  O  O61  1  0.305009  0.124692  0.430308  1
  O  O62  1  0.606527  0.930081  0.745872  1
  O  O63  1  0.622001  0.116448  0.880683  1
  O  O64  1  0.528602  0.625761  0.074795  1
  O  O65  1  0.971398  0.374239  0.574795  1
  O  O66  1  0.092141  0.377065  0.109766  1
  O  O67  1  0.877999  0.883552  0.380683  1
