# generated using pymatgen
data_Ba7(ClF6)2
_symmetry_space_group_name_H-M   'P 1'
_cell_length_a   10.79947698
_cell_length_b   10.79947698
_cell_length_c   4.23552361
_cell_angle_alpha   90.00000000
_cell_angle_beta   90.00000000
_cell_angle_gamma   120.00000000
_symmetry_Int_Tables_number   1
_chemical_formula_structural   Ba7(ClF6)2
_chemical_formula_sum   'Ba7 Cl2 F12'
_cell_volume   427.80236863
_cell_formula_units_Z   1
loop_
 _symmetry_equiv_pos_site_id
 _symmetry_equiv_pos_as_xyz
  1  'x, y, z'
loop_
 _atom_site_type_symbol
 _atom_site_label
 _atom_site_symmetry_multiplicity
 _atom_site_fract_x
 _atom_site_fract_y
 _atom_site_fract_z
 _atom_site_occupancy
  Ba  Ba0  1  0.887631  0.600109  0.500000  1
  Ba  Ba1  1  0.399891  0.287522  0.500000  1
  Ba  Ba2  1  0.712478  0.112369  0.500000  1
  Ba  Ba3  1  0.302228  0.891367  0.000000  1
  Ba  Ba4  1  0.108633  0.410861  0.000000  1
  Ba  Ba5  1  0.589139  0.697772  0.000000  1
  Ba  Ba6  1  0.000000  0.000000  0.000000  1
  Cl  Cl7  1  0.333333  0.666667  0.500000  1
  Cl  Cl8  1  0.666667  0.333333  0.000000  1
  F  F9  1  0.611401  0.563116  0.500000  1
  F  F10  1  0.436884  0.048286  0.500000  1
  F  F11  1  0.951714  0.388599  0.500000  1
  F  F12  1  0.095672  0.880915  0.500000  1
  F  F13  1  0.119085  0.214756  0.500000  1
  F  F14  1  0.785244  0.904328  0.500000  1
  F  F15  1  0.063735  0.633590  0.000000  1
  F  F16  1  0.366410  0.430145  0.000000  1
  F  F17  1  0.569855  0.936265  0.000000  1
  F  F18  1  0.844654  0.723573  0.000000  1
  F  F19  1  0.276427  0.121081  0.000000  1
  F  F20  1  0.878919  0.155346  0.000000  1
