# generated using pymatgen
data_NaNd2OsO6
_symmetry_space_group_name_H-M   'P 1'
_cell_length_a   5.57089924
_cell_length_b   5.98701323
_cell_length_c   9.70572461
_cell_angle_alpha   90.00000000
_cell_angle_beta   123.98795716
_cell_angle_gamma   90.00000000
_symmetry_Int_Tables_number   1
_chemical_formula_structural   NaNd2OsO6
_chemical_formula_sum   'Na2 Nd4 Os2 O12'
_cell_volume   268.41034916
_cell_formula_units_Z   2
loop_
 _symmetry_equiv_pos_site_id
 _symmetry_equiv_pos_as_xyz
  1  'x, y, z'
loop_
 _atom_site_type_symbol
 _atom_site_label
 _atom_site_symmetry_multiplicity
 _atom_site_fract_x
 _atom_site_fract_y
 _atom_site_fract_z
 _atom_site_occupancy
  Na  Na0  1  0.000000  0.500000  0.500000  1
  Na  Na1  1  0.000000  0.000000  0.000000  1
  Nd  Nd2  1  0.775611  0.071689  0.253823  1
  Nd  Nd3  1  0.224389  0.571689  0.246177  1
  Nd  Nd4  1  0.775611  0.428311  0.753823  1
  Nd  Nd5  1  0.224389  0.928311  0.746177  1
  Os  Os6  1  0.500000  0.500000  0.000000  1
  Os  Os7  1  0.500000  0.000000  0.500000  1
  O  O8  1  0.734075  0.718399  0.571332  1
  O  O9  1  0.265925  0.218399  0.928668  1
  O  O10  1  0.265925  0.281601  0.428668  1
  O  O11  1  0.734075  0.781601  0.071332  1
  O  O12  1  0.606200  0.052946  0.729987  1
  O  O13  1  0.393800  0.552946  0.770013  1
  O  O14  1  0.393800  0.947054  0.270013  1
  O  O15  1  0.606200  0.447054  0.229987  1
  O  O16  1  0.846405  0.327072  0.053090  1
  O  O17  1  0.153595  0.827072  0.446910  1
  O  O18  1  0.153595  0.672928  0.946910  1
  O  O19  1  0.846405  0.172928  0.553090  1
