# generated using pymatgen
data_Pr2MgGe2
_symmetry_space_group_name_H-M   'P 1'
_cell_length_a   7.53225970
_cell_length_b   7.53225970
_cell_length_c   4.43967450
_cell_angle_alpha   90.00000000
_cell_angle_beta   90.00000000
_cell_angle_gamma   90.00000000
_symmetry_Int_Tables_number   1
_chemical_formula_structural   Pr2MgGe2
_chemical_formula_sum   'Pr4 Mg2 Ge4'
_cell_volume   251.88464945
_cell_formula_units_Z   2
loop_
 _symmetry_equiv_pos_site_id
 _symmetry_equiv_pos_as_xyz
  1  'x, y, z'
loop_
 _atom_site_type_symbol
 _atom_site_label
 _atom_site_symmetry_multiplicity
 _atom_site_fract_x
 _atom_site_fract_y
 _atom_site_fract_z
 _atom_site_occupancy
  Pr  Pr0  1  0.321203  0.821203  0.500000  1
  Pr  Pr1  1  0.821203  0.678797  0.500000  1
  Pr  Pr2  1  0.178797  0.321203  0.500000  1
  Pr  Pr3  1  0.678797  0.178797  0.500000  1
  Mg  Mg4  1  0.500000  0.500000  0.000000  1
  Mg  Mg5  1  0.000000  0.000000  0.000000  1
  Ge  Ge6  1  0.120530  0.620530  0.000000  1
  Ge  Ge7  1  0.620530  0.879470  0.000000  1
  Ge  Ge8  1  0.879470  0.379470  0.000000  1
  Ge  Ge9  1  0.379470  0.120530  0.000000  1
