# generated using pymatgen
data_Ge3Cl8
_symmetry_space_group_name_H-M   'P 1'
_cell_length_a   13.07925672
_cell_length_b   13.07925672
_cell_length_c   13.07925672
_cell_angle_alpha   60.00000000
_cell_angle_beta   60.00000000
_cell_angle_gamma   60.00000000
_symmetry_Int_Tables_number   1
_chemical_formula_structural   Ge3Cl8
_chemical_formula_sum   'Ge12 Cl32'
_cell_volume   1582.10096188
_cell_formula_units_Z   4
loop_
 _symmetry_equiv_pos_site_id
 _symmetry_equiv_pos_as_xyz
  1  'x, y, z'
loop_
 _atom_site_type_symbol
 _atom_site_label
 _atom_site_symmetry_multiplicity
 _atom_site_fract_x
 _atom_site_fract_y
 _atom_site_fract_z
 _atom_site_occupancy
  Ge  Ge0  1  0.767480  0.077507  0.077507  1
  Ge  Ge1  1  0.577507  0.267480  0.577507  1
  Ge  Ge2  1  0.577507  0.577507  0.267480  1
  Ge  Ge3  1  0.577507  0.577507  0.577507  1
  Ge  Ge4  1  0.077507  0.767480  0.077507  1
  Ge  Ge5  1  0.077507  0.077507  0.077507  1
  Ge  Ge6  1  0.077507  0.077507  0.767480  1
  Ge  Ge7  1  0.267480  0.577507  0.577507  1
  Ge  Ge8  1  1.000000  1.000000  1.000000  1
  Ge  Ge9  1  0.500000  0.500000  0.500000  1
  Ge  Ge10  1  0.750000  0.750000  0.750000  1
  Ge  Ge11  1  0.250000  0.250000  0.250000  1
  Cl  Cl12  1  0.267167  0.073267  0.962894  1
  Cl  Cl13  1  0.696673  0.073267  0.267167  1
  Cl  Cl14  1  0.962894  0.073267  0.696673  1
  Cl  Cl15  1  0.696673  0.267167  0.962894  1
  Cl  Cl16  1  0.073267  0.696673  0.962894  1
  Cl  Cl17  1  0.696673  0.962894  0.073267  1
  Cl  Cl18  1  0.462894  0.767167  0.196673  1
  Cl  Cl19  1  0.767167  0.462894  0.573267  1
  Cl  Cl20  1  0.573267  0.196673  0.767167  1
  Cl  Cl21  1  0.573267  0.767167  0.462894  1
  Cl  Cl22  1  0.767167  0.196673  0.462894  1
  Cl  Cl23  1  0.196673  0.462894  0.767167  1
  Cl  Cl24  1  0.316618  0.316618  0.316618  1
  Cl  Cl25  1  0.550147  0.816618  0.816618  1
  Cl  Cl26  1  0.816618  0.550147  0.816618  1
  Cl  Cl27  1  0.816618  0.816618  0.550147  1
  Cl  Cl28  1  0.316618  0.316618  0.050147  1
  Cl  Cl29  1  0.050147  0.316618  0.316618  1
  Cl  Cl30  1  0.316618  0.050147  0.316618  1
  Cl  Cl31  1  0.816618  0.816618  0.816618  1
  Cl  Cl32  1  0.196673  0.573267  0.462894  1
  Cl  Cl33  1  0.267167  0.962894  0.696673  1
  Cl  Cl34  1  0.962894  0.267167  0.073267  1
  Cl  Cl35  1  0.073267  0.267167  0.696673  1
  Cl  Cl36  1  0.962894  0.696673  0.267167  1
  Cl  Cl37  1  0.073267  0.962894  0.267167  1
  Cl  Cl38  1  0.267167  0.696673  0.073267  1
  Cl  Cl39  1  0.462894  0.573267  0.767167  1
  Cl  Cl40  1  0.767167  0.573267  0.196673  1
  Cl  Cl41  1  0.462894  0.196673  0.573267  1
  Cl  Cl42  1  0.573267  0.462894  0.196673  1
  Cl  Cl43  1  0.196673  0.767167  0.573267  1
