# generated using pymatgen
data_FeMoClO4
_symmetry_space_group_name_H-M   'P 1'
_cell_length_a   6.78433464
_cell_length_b   6.78433464
_cell_length_c   5.62605890
_cell_angle_alpha   90.00000000
_cell_angle_beta   90.00000000
_cell_angle_gamma   90.00000000
_symmetry_Int_Tables_number   1
_chemical_formula_structural   FeMoClO4
_chemical_formula_sum   'Fe2 Mo2 Cl2 O8'
_cell_volume   258.95171855
_cell_formula_units_Z   2
loop_
 _symmetry_equiv_pos_site_id
 _symmetry_equiv_pos_as_xyz
  1  'x, y, z'
loop_
 _atom_site_type_symbol
 _atom_site_label
 _atom_site_symmetry_multiplicity
 _atom_site_fract_x
 _atom_site_fract_y
 _atom_site_fract_z
 _atom_site_occupancy
  Fe  Fe0  1  0.000000  0.500000  0.267539  1
  Fe  Fe1  1  0.500000  0.000000  0.732461  1
  Mo  Mo2  1  0.500000  0.500000  0.000000  1
  Mo  Mo3  1  0.000000  0.000000  0.000000  1
  Cl  Cl4  1  0.000000  0.500000  0.664488  1
  Cl  Cl5  1  0.500000  0.000000  0.335512  1
  O  O6  1  0.000000  0.215123  0.185155  1
  O  O7  1  0.000000  0.784877  0.185155  1
  O  O8  1  0.284877  0.500000  0.185155  1
  O  O9  1  0.715123  0.500000  0.185155  1
  O  O10  1  0.215123  0.000000  0.814845  1
  O  O11  1  0.500000  0.284877  0.814845  1
  O  O12  1  0.784877  0.000000  0.814845  1
  O  O13  1  0.500000  0.715123  0.814845  1
