# generated using pymatgen
data_KCrP2O7
_symmetry_space_group_name_H-M   'P 1'
_cell_length_a   7.47541092
_cell_length_b   10.08805386
_cell_length_c   8.31650673
_cell_angle_alpha   90.00000000
_cell_angle_beta   106.99123990
_cell_angle_gamma   90.00000000
_symmetry_Int_Tables_number   1
_chemical_formula_structural   KCrP2O7
_chemical_formula_sum   'K4 Cr4 P8 O28'
_cell_volume   599.79110012
_cell_formula_units_Z   4
loop_
 _symmetry_equiv_pos_site_id
 _symmetry_equiv_pos_as_xyz
  1  'x, y, z'
loop_
 _atom_site_type_symbol
 _atom_site_label
 _atom_site_symmetry_multiplicity
 _atom_site_fract_x
 _atom_site_fract_y
 _atom_site_fract_z
 _atom_site_occupancy
  K  K0  1  0.322658  0.677754  0.442800  1
  K  K1  1  0.677342  0.177754  0.057200  1
  K  K2  1  0.677342  0.322246  0.557200  1
  K  K3  1  0.322658  0.822246  0.942800  1
  Cr  Cr4  1  0.736706  0.898906  0.760750  1
  Cr  Cr5  1  0.263294  0.398906  0.739250  1
  Cr  Cr6  1  0.263294  0.101094  0.239250  1
  Cr  Cr7  1  0.736706  0.601094  0.260750  1
  P  P8  1  0.938551  0.635109  0.692221  1
  P  P9  1  0.061449  0.135109  0.807779  1
  P  P10  1  0.061449  0.364891  0.307779  1
  P  P11  1  0.938551  0.864891  0.192221  1
  P  P12  1  0.630366  0.597654  0.830416  1
  P  P13  1  0.369634  0.097654  0.669584  1
  P  P14  1  0.369634  0.402346  0.169584  1
  P  P15  1  0.630366  0.902346  0.330416  1
  O  O16  1  0.641065  0.593219  0.013518  1
  O  O17  1  0.358935  0.093219  0.486482  1
  O  O18  1  0.358935  0.406781  0.986482  1
  O  O19  1  0.641065  0.906781  0.513518  1
  O  O20  1  0.580143  0.763933  0.251476  1
  O  O21  1  0.419857  0.263933  0.248524  1
  O  O22  1  0.419857  0.236067  0.748524  1
  O  O23  1  0.580143  0.736067  0.751476  1
  O  O24  1  0.505941  0.502980  0.278921  1
  O  O25  1  0.494059  0.002980  0.221079  1
  O  O26  1  0.494059  0.497020  0.721079  1
  O  O27  1  0.505941  0.997020  0.778921  1
  O  O28  1  0.834826  0.557801  0.813432  1
  O  O29  1  0.165174  0.057801  0.686568  1
  O  O30  1  0.165174  0.442199  0.186568  1
  O  O31  1  0.834826  0.942199  0.313432  1
  O  O32  1  0.951508  0.717661  0.244539  1
  O  O33  1  0.048492  0.217661  0.255461  1
  O  O34  1  0.048492  0.282339  0.755461  1
  O  O35  1  0.951508  0.782339  0.744539  1
  O  O36  1  0.136341  0.922140  0.237492  1
  O  O37  1  0.863659  0.422140  0.262508  1
  O  O38  1  0.863659  0.077860  0.762508  1
  O  O39  1  0.136341  0.577860  0.737492  1
  O  O40  1  0.818966  0.894937  0.013974  1
  O  O41  1  0.181034  0.394937  0.486026  1
  O  O42  1  0.181034  0.105063  0.986026  1
  O  O43  1  0.818966  0.605063  0.513974  1
