# generated using pymatgen
data_K4HgAs2
_symmetry_space_group_name_H-M   'P 1'
_cell_length_a   10.00616680
_cell_length_b   10.00616680
_cell_length_c   10.00616680
_cell_angle_alpha   33.76526965
_cell_angle_beta   33.76526965
_cell_angle_gamma   33.76526965
_symmetry_Int_Tables_number   1
_chemical_formula_structural   K4HgAs2
_chemical_formula_sum   'K4 Hg1 As2'
_cell_volume   275.75244199
_cell_formula_units_Z   1
loop_
 _symmetry_equiv_pos_site_id
 _symmetry_equiv_pos_as_xyz
  1  'x, y, z'
loop_
 _atom_site_type_symbol
 _atom_site_label
 _atom_site_symmetry_multiplicity
 _atom_site_fract_x
 _atom_site_fract_y
 _atom_site_fract_z
 _atom_site_occupancy
  K  K0  1  0.792145  0.792145  0.792145  1
  K  K1  1  0.207855  0.207855  0.207855  1
  K  K2  1  0.611112  0.611112  0.611112  1
  K  K3  1  0.388888  0.388888  0.388888  1
  Hg  Hg4  1  0.000000  0.000000  0.000000  1
  As  As5  1  0.089369  0.089369  0.089369  1
  As  As6  1  0.910631  0.910631  0.910631  1
