# generated using pymatgen
data_CsBiO2
_symmetry_space_group_name_H-M   'P 1'
_cell_length_a   6.42141401
_cell_length_b   6.42141401
_cell_length_c   6.09595932
_cell_angle_alpha   68.77118544
_cell_angle_beta   111.22881456
_cell_angle_gamma   82.64303288
_symmetry_Int_Tables_number   1
_chemical_formula_structural   CsBiO2
_chemical_formula_sum   'Cs2 Bi2 O4'
_cell_volume   208.46592433
_cell_formula_units_Z   2
loop_
 _symmetry_equiv_pos_site_id
 _symmetry_equiv_pos_as_xyz
  1  'x, y, z'
loop_
 _atom_site_type_symbol
 _atom_site_label
 _atom_site_symmetry_multiplicity
 _atom_site_fract_x
 _atom_site_fract_y
 _atom_site_fract_z
 _atom_site_occupancy
  Cs  Cs0  1  0.358963  0.358963  0.750000  1
  Cs  Cs1  1  0.641037  0.641037  0.250000  1
  Bi  Bi2  1  0.082211  0.082211  0.250000  1
  Bi  Bi3  1  0.917789  0.917789  0.750000  1
  O  O4  1  0.122149  0.767622  0.209483  1
  O  O5  1  0.767622  0.122149  0.290517  1
  O  O6  1  0.232378  0.877851  0.709483  1
  O  O7  1  0.877851  0.232378  0.790517  1
