# generated using pymatgen
data_HN
_symmetry_space_group_name_H-M   'P 1'
_cell_length_a   3.82821170
_cell_length_b   8.65792811
_cell_length_c   9.00334686
_cell_angle_alpha   90.00000000
_cell_angle_beta   90.00000000
_cell_angle_gamma   90.00000000
_symmetry_Int_Tables_number   1
_chemical_formula_structural   HN
_chemical_formula_sum   'H16 N16'
_cell_volume   298.41036480
_cell_formula_units_Z   16
loop_
 _symmetry_equiv_pos_site_id
 _symmetry_equiv_pos_as_xyz
  1  'x, y, z'
loop_
 _atom_site_type_symbol
 _atom_site_label
 _atom_site_symmetry_multiplicity
 _atom_site_fract_x
 _atom_site_fract_y
 _atom_site_fract_z
 _atom_site_occupancy
  H  H0  1  0.391754  0.206202  0.664924  1
  H  H1  1  0.391754  0.293798  0.835076  1
  H  H2  1  0.608246  0.706202  0.835076  1
  H  H3  1  0.608246  0.793798  0.664924  1
  H  H4  1  0.608246  0.793798  0.335076  1
  H  H5  1  0.608246  0.706202  0.164924  1
  H  H6  1  0.391754  0.293798  0.164924  1
  H  H7  1  0.391754  0.206202  0.335076  1
  H  H8  1  0.706583  0.338387  0.708478  1
  H  H9  1  0.706583  0.161613  0.791522  1
  H  H10  1  0.293417  0.838387  0.791522  1
  H  H11  1  0.293417  0.661613  0.708478  1
  H  H12  1  0.293417  0.661613  0.291522  1
  H  H13  1  0.293417  0.838387  0.208478  1
  H  H14  1  0.706583  0.161613  0.208478  1
  H  H15  1  0.706583  0.338387  0.291522  1
  N  N16  1  0.548579  0.250000  0.750000  1
  N  N17  1  0.451421  0.750000  0.750000  1
  N  N18  1  0.451421  0.750000  0.250000  1
  N  N19  1  0.548579  0.250000  0.250000  1
  N  N20  1  0.875194  0.874560  0.500000  1
  N  N21  1  0.875194  0.625440  0.000000  1
  N  N22  1  0.124806  0.374560  0.000000  1
  N  N23  1  0.124806  0.125440  0.500000  1
  N  N24  1  0.000000  0.500000  0.000000  1
  N  N25  1  0.000000  0.000000  0.500000  1
  N  N26  1  0.000000  0.500000  0.631823  1
  N  N27  1  0.000000  0.000000  0.868177  1
  N  N28  1  0.000000  0.500000  0.368177  1
  N  N29  1  0.000000  0.000000  0.131823  1
  N  N30  1  0.000000  0.500000  0.500000  1
  N  N31  1  0.000000  0.000000  0.000000  1
