# generated using pymatgen
data_Ba2PdO3
_symmetry_space_group_name_H-M   'P 1'
_cell_length_a   7.31590046
_cell_length_b   7.31590046
_cell_length_c   7.31590046
_cell_angle_alpha   149.04661664
_cell_angle_beta   146.98772528
_cell_angle_gamma   45.88187557
_symmetry_Int_Tables_number   1
_chemical_formula_structural   Ba2PdO3
_chemical_formula_sum   'Ba2 Pd1 O3'
_cell_volume   109.35515860
_cell_formula_units_Z   1
loop_
 _symmetry_equiv_pos_site_id
 _symmetry_equiv_pos_as_xyz
  1  'x, y, z'
loop_
 _atom_site_type_symbol
 _atom_site_label
 _atom_site_symmetry_multiplicity
 _atom_site_fract_x
 _atom_site_fract_y
 _atom_site_fract_z
 _atom_site_occupancy
  Ba  Ba0  1  0.645206  0.645206  0.000000  1
  Ba  Ba1  1  0.354794  0.354794  0.000000  1
  Pd  Pd2  1  0.000000  0.000000  0.000000  1
  O  O3  1  0.845045  0.845045  0.000000  1
  O  O4  1  0.154955  0.154955  0.000000  1
  O  O5  1  0.500000  1.000000  0.500000  1
