# generated using pymatgen
data_DyCuSn
_symmetry_space_group_name_H-M   'P 1'
_cell_length_a   4.54227941
_cell_length_b   4.54227941
_cell_length_c   7.28498839
_cell_angle_alpha   90.00000000
_cell_angle_beta   90.00000000
_cell_angle_gamma   120.00000000
_symmetry_Int_Tables_number   1
_chemical_formula_structural   DyCuSn
_chemical_formula_sum   'Dy2 Cu2 Sn2'
_cell_volume   130.16888551
_cell_formula_units_Z   2
loop_
 _symmetry_equiv_pos_site_id
 _symmetry_equiv_pos_as_xyz
  1  'x, y, z'
loop_
 _atom_site_type_symbol
 _atom_site_label
 _atom_site_symmetry_multiplicity
 _atom_site_fract_x
 _atom_site_fract_y
 _atom_site_fract_z
 _atom_site_occupancy
  Dy  Dy0  1  0.000000  0.000000  0.498045  1
  Dy  Dy1  1  0.000000  0.000000  0.998045  1
  Cu  Cu2  1  0.666667  0.333333  0.816296  1
  Cu  Cu3  1  0.333333  0.666667  0.316296  1
  Sn  Sn4  1  0.333333  0.666667  0.728260  1
  Sn  Sn5  1  0.666667  0.333333  0.228260  1
