# generated using pymatgen
data_BaV2CdO7
_symmetry_space_group_name_H-M   'P 1'
_cell_length_a   5.79913152
_cell_length_b   7.64168086
_cell_length_c   15.66156866
_cell_angle_alpha   90.00000000
_cell_angle_beta   90.00000000
_cell_angle_gamma   90.00000000
_symmetry_Int_Tables_number   1
_chemical_formula_structural   BaV2CdO7
_chemical_formula_sum   'Ba4 V8 Cd4 O28'
_cell_volume   694.04417460
_cell_formula_units_Z   4
loop_
 _symmetry_equiv_pos_site_id
 _symmetry_equiv_pos_as_xyz
  1  'x, y, z'
loop_
 _atom_site_type_symbol
 _atom_site_label
 _atom_site_symmetry_multiplicity
 _atom_site_fract_x
 _atom_site_fract_y
 _atom_site_fract_z
 _atom_site_occupancy
  Ba  Ba0  1  0.250000  0.859708  0.785321  1
  Ba  Ba1  1  0.750000  0.140292  0.214679  1
  Ba  Ba2  1  0.750000  0.359708  0.714679  1
  Ba  Ba3  1  0.250000  0.640292  0.285321  1
  V  V4  1  0.250000  0.297442  0.061274  1
  V  V5  1  0.750000  0.702558  0.938726  1
  V  V6  1  0.750000  0.797442  0.438726  1
  V  V7  1  0.250000  0.202558  0.561274  1
  V  V8  1  0.250000  0.333840  0.859721  1
  V  V9  1  0.750000  0.666160  0.140279  1
  V  V10  1  0.750000  0.833840  0.640279  1
  V  V11  1  0.250000  0.166160  0.359721  1
  Cd  Cd12  1  0.250000  0.617501  0.550921  1
  Cd  Cd13  1  0.750000  0.382499  0.449079  1
  Cd  Cd14  1  0.750000  0.117501  0.949079  1
  Cd  Cd15  1  0.250000  0.882499  0.050921  1
  O  O16  1  0.250000  0.413159  0.152131  1
  O  O17  1  0.750000  0.586841  0.847869  1
  O  O18  1  0.750000  0.913159  0.347869  1
  O  O19  1  0.250000  0.086841  0.652131  1
  O  O20  1  0.990952  0.841513  0.940915  1
  O  O21  1  0.490952  0.158487  0.059085  1
  O  O22  1  0.009048  0.341513  0.559085  1
  O  O23  1  0.509048  0.658487  0.440915  1
  O  O24  1  0.009048  0.158487  0.059085  1
  O  O25  1  0.509048  0.841513  0.940915  1
  O  O26  1  0.990952  0.658487  0.440915  1
  O  O27  1  0.490952  0.341513  0.559085  1
  O  O28  1  0.250000  0.433361  0.966158  1
  O  O29  1  0.750000  0.566639  0.033842  1
  O  O30  1  0.750000  0.933361  0.533842  1
  O  O31  1  0.250000  0.066639  0.466158  1
  O  O32  1  0.490616  0.299207  0.348811  1
  O  O33  1  0.990616  0.700793  0.651189  1
  O  O34  1  0.509384  0.799207  0.151189  1
  O  O35  1  0.009384  0.200793  0.848811  1
  O  O36  1  0.509384  0.700793  0.651189  1
  O  O37  1  0.009384  0.299207  0.348811  1
  O  O38  1  0.490616  0.200793  0.848811  1
  O  O39  1  0.990616  0.799207  0.151189  1
  O  O40  1  0.250000  0.018030  0.279600  1
  O  O41  1  0.750000  0.981970  0.720400  1
  O  O42  1  0.750000  0.518030  0.220400  1
  O  O43  1  0.250000  0.481970  0.779600  1
