# generated using pymatgen
data_Sn2SI2
_symmetry_space_group_name_H-M   'P 1'
_cell_length_a   4.42992570
_cell_length_b   18.45662881
_cell_length_c   26.53676444
_cell_angle_alpha   90.00000000
_cell_angle_beta   90.00000000
_cell_angle_gamma   90.00000000
_symmetry_Int_Tables_number   1
_chemical_formula_structural   Sn2SI2
_chemical_formula_sum   'Sn24 S12 I24'
_cell_volume   2169.68551452
_cell_formula_units_Z   12
loop_
 _symmetry_equiv_pos_site_id
 _symmetry_equiv_pos_as_xyz
  1  'x, y, z'
loop_
 _atom_site_type_symbol
 _atom_site_label
 _atom_site_symmetry_multiplicity
 _atom_site_fract_x
 _atom_site_fract_y
 _atom_site_fract_z
 _atom_site_occupancy
  Sn  Sn0  1  0.750000  0.486329  0.064218  1
  Sn  Sn1  1  0.250000  0.513671  0.935782  1
  Sn  Sn2  1  0.750000  0.986329  0.435782  1
  Sn  Sn3  1  0.250000  0.013671  0.564218  1
  Sn  Sn4  1  0.750000  0.663420  0.159740  1
  Sn  Sn5  1  0.250000  0.336580  0.840260  1
  Sn  Sn6  1  0.750000  0.163420  0.340260  1
  Sn  Sn7  1  0.250000  0.836580  0.659740  1
  Sn  Sn8  1  0.750000  0.809082  0.050014  1
  Sn  Sn9  1  0.250000  0.190918  0.949986  1
  Sn  Sn10  1  0.750000  0.309082  0.449986  1
  Sn  Sn11  1  0.250000  0.690918  0.550014  1
  Sn  Sn12  1  0.750000  0.964551  0.938866  1
  Sn  Sn13  1  0.250000  0.535449  0.438866  1
  Sn  Sn14  1  0.750000  0.464551  0.561134  1
  Sn  Sn15  1  0.250000  0.181065  0.184588  1
  Sn  Sn16  1  0.750000  0.818935  0.815412  1
  Sn  Sn17  1  0.250000  0.681065  0.315412  1
  Sn  Sn18  1  0.750000  0.318935  0.684588  1
  Sn  Sn19  1  0.250000  0.496879  0.223326  1
  Sn  Sn20  1  0.750000  0.503121  0.776674  1
  Sn  Sn21  1  0.250000  0.996879  0.276674  1
  Sn  Sn22  1  0.750000  0.003121  0.723326  1
  Sn  Sn23  1  0.250000  0.035449  0.061134  1
  S  S24  1  0.750000  0.449911  0.461962  1
  S  S25  1  0.250000  0.050089  0.961962  1
  S  S26  1  0.750000  0.949911  0.038038  1
  S  S27  1  0.250000  0.981280  0.660767  1
  S  S28  1  0.750000  0.018720  0.339233  1
  S  S29  1  0.250000  0.481280  0.839233  1
  S  S30  1  0.750000  0.518720  0.160767  1
  S  S31  1  0.250000  0.138929  0.278983  1
  S  S32  1  0.750000  0.861071  0.721017  1
  S  S33  1  0.250000  0.638929  0.221017  1
  S  S34  1  0.750000  0.361071  0.778983  1
  S  S35  1  0.250000  0.550089  0.538038  1
  I  I36  1  0.750000  0.042674  0.181966  1
  I  I37  1  0.250000  0.957326  0.818034  1
  I  I38  1  0.750000  0.542674  0.318034  1
  I  I39  1  0.250000  0.457326  0.681966  1
  I  I40  1  0.750000  0.124692  0.584655  1
  I  I41  1  0.250000  0.875308  0.415345  1
  I  I42  1  0.750000  0.624692  0.915345  1
  I  I43  1  0.250000  0.375308  0.084655  1
  I  I44  1  0.750000  0.176979  0.043982  1
  I  I45  1  0.250000  0.823021  0.956018  1
  I  I46  1  0.750000  0.676979  0.456018  1
  I  I47  1  0.250000  0.323021  0.543982  1
  I  I48  1  0.750000  0.288888  0.217780  1
  I  I49  1  0.250000  0.711112  0.782220  1
  I  I50  1  0.750000  0.788888  0.282220  1
  I  I51  1  0.250000  0.211112  0.717780  1
  I  I52  1  0.750000  0.663017  0.631555  1
  I  I53  1  0.250000  0.336983  0.368445  1
  I  I54  1  0.750000  0.163017  0.868445  1
  I  I55  1  0.250000  0.836983  0.131555  1
  I  I56  1  0.750000  0.874644  0.564225  1
  I  I57  1  0.250000  0.125356  0.435775  1
  I  I58  1  0.750000  0.374644  0.935775  1
  I  I59  1  0.250000  0.625356  0.064225  1
