# generated using pymatgen
data_Ba5CrN5
_symmetry_space_group_name_H-M   'P 1'
_cell_length_a   7.98798077
_cell_length_b   7.98798077
_cell_length_c   9.51192386
_cell_angle_alpha   76.20520357
_cell_angle_beta   103.79479643
_cell_angle_gamma   83.81987281
_symmetry_Int_Tables_number   1
_chemical_formula_structural   Ba5CrN5
_chemical_formula_sum   'Ba10 Cr2 N10'
_cell_volume   563.65193866
_cell_formula_units_Z   2
loop_
 _symmetry_equiv_pos_site_id
 _symmetry_equiv_pos_as_xyz
  1  'x, y, z'
loop_
 _atom_site_type_symbol
 _atom_site_label
 _atom_site_symmetry_multiplicity
 _atom_site_fract_x
 _atom_site_fract_y
 _atom_site_fract_z
 _atom_site_occupancy
  Ba  Ba0  1  0.388670  0.611330  0.616625  1
  Ba  Ba1  1  0.611330  0.388670  0.383375  1
  Ba  Ba2  1  0.664179  0.335821  0.992739  1
  Ba  Ba3  1  0.335821  0.664179  0.007261  1
  Ba  Ba4  1  0.925165  0.074835  0.799148  1
  Ba  Ba5  1  0.074835  0.925165  0.200852  1
  Ba  Ba6  1  0.563281  0.907532  0.241703  1
  Ba  Ba7  1  0.907532  0.563281  0.758297  1
  Ba  Ba8  1  0.436719  0.092468  0.758297  1
  Ba  Ba9  1  0.092468  0.436719  0.241703  1
  Cr  Cr10  1  0.757407  0.757407  0.000000  1
  Cr  Cr11  1  0.242593  0.242593  0.000000  1
  N  N12  1  0.651865  0.348135  0.688136  1
  N  N13  1  0.348135  0.651865  0.311864  1
  N  N14  1  0.716637  0.976072  0.007783  1
  N  N15  1  0.976072  0.716637  0.992217  1
  N  N16  1  0.283363  0.023928  0.992217  1
  N  N17  1  0.023928  0.283363  0.007783  1
  N  N18  1  0.386481  0.269698  0.161351  1
  N  N19  1  0.269698  0.386481  0.838648  1
  N  N20  1  0.613519  0.730302  0.838648  1
  N  N21  1  0.730302  0.613519  0.161351  1
