# generated using pymatgen
data_NaSi
_symmetry_space_group_name_H-M   'P 1'
_cell_length_a   6.89982372
_cell_length_b   6.89982372
_cell_length_c   11.06455730
_cell_angle_alpha   65.01975318
_cell_angle_beta   114.98024682
_cell_angle_gamma   123.04289644
_symmetry_Int_Tables_number   1
_chemical_formula_structural   NaSi
_chemical_formula_sum   'Na8 Si8'
_cell_volume   387.26034456
_cell_formula_units_Z   8
loop_
 _symmetry_equiv_pos_site_id
 _symmetry_equiv_pos_as_xyz
  1  'x, y, z'
loop_
 _atom_site_type_symbol
 _atom_site_label
 _atom_site_symmetry_multiplicity
 _atom_site_fract_x
 _atom_site_fract_y
 _atom_site_fract_z
 _atom_site_occupancy
  Na  Na0  1  0.463152  0.724985  0.547960  1
  Na  Na1  1  0.724985  0.463152  0.952040  1
  Na  Na2  1  0.536848  0.275015  0.452040  1
  Na  Na3  1  0.275015  0.536848  0.047960  1
  Na  Na4  1  0.689886  0.987845  0.858166  1
  Na  Na5  1  0.987845  0.689886  0.641834  1
  Na  Na6  1  0.310114  0.012155  0.141834  1
  Na  Na7  1  0.012155  0.310114  0.358166  1
  Si  Si8  1  0.135982  0.939861  0.857714  1
  Si  Si9  1  0.939861  0.135982  0.642286  1
  Si  Si10  1  0.864018  0.060139  0.142286  1
  Si  Si11  1  0.060139  0.864018  0.357714  1
  Si  Si12  1  0.354151  0.231029  0.687163  1
  Si  Si13  1  0.231029  0.354151  0.812837  1
  Si  Si14  1  0.645849  0.768971  0.312837  1
  Si  Si15  1  0.768971  0.645849  0.187163  1
