# generated using pymatgen
data_Li2Bi(PO4)2
_symmetry_space_group_name_H-M   'P 1'
_cell_length_a   8.59460057
_cell_length_b   8.59460057
_cell_length_c   7.87490371
_cell_angle_alpha   90.00000000
_cell_angle_beta   90.00000000
_cell_angle_gamma   120.00000000
_symmetry_Int_Tables_number   1
_chemical_formula_structural   Li2Bi(PO4)2
_chemical_formula_sum   'Li6 Bi3 P6 O24'
_cell_volume   503.76417466
_cell_formula_units_Z   3
loop_
 _symmetry_equiv_pos_site_id
 _symmetry_equiv_pos_as_xyz
  1  'x, y, z'
loop_
 _atom_site_type_symbol
 _atom_site_label
 _atom_site_symmetry_multiplicity
 _atom_site_fract_x
 _atom_site_fract_y
 _atom_site_fract_z
 _atom_site_occupancy
  Li  Li0  1  0.666912  0.688731  0.634620  1
  Li  Li1  1  0.666667  0.333333  0.497528  1
  Li  Li2  1  0.333333  0.666667  0.383355  1
  Li  Li3  1  0.311269  0.978180  0.634620  1
  Li  Li4  1  0.021820  0.333088  0.634620  1
  Li  Li5  1  0.000000  0.000000  0.463426  1
  Bi  Bi6  1  0.333333  0.666667  0.999439  1
  Bi  Bi7  1  0.666667  0.333333  0.063213  1
  Bi  Bi8  1  0.000000  0.000000  0.938570  1
  P  P9  1  0.378019  0.352379  0.757154  1
  P  P10  1  0.301897  0.986294  0.247462  1
  P  P11  1  0.647621  0.025640  0.757154  1
  P  P12  1  0.684397  0.698103  0.247462  1
  P  P13  1  0.974360  0.621981  0.757154  1
  P  P14  1  0.013706  0.315603  0.247462  1
  O  O15  1  0.200716  0.960766  0.413420  1
  O  O16  1  0.808892  0.257883  0.244013  1
  O  O17  1  0.131345  0.521508  0.236065  1
  O  O18  1  0.556674  0.816706  0.771287  1
  O  O19  1  0.856322  0.102692  0.747057  1
  O  O20  1  0.756402  0.822723  0.088048  1
  O  O21  1  0.760050  0.799284  0.413420  1
  O  O22  1  0.039234  0.239950  0.413420  1
  O  O23  1  0.066320  0.243598  0.088048  1
  O  O24  1  0.897308  0.753631  0.747057  1
  O  O25  1  0.260031  0.443326  0.771287  1
  O  O26  1  0.910367  0.489166  0.610367  1
  O  O27  1  0.478492  0.609837  0.236065  1
  O  O28  1  0.246369  0.143678  0.747057  1
  O  O29  1  0.177277  0.933680  0.088048  1
  O  O30  1  0.485053  0.403252  0.932284  1
  O  O31  1  0.510834  0.421202  0.610367  1
  O  O32  1  0.183294  0.739969  0.771287  1
  O  O33  1  0.448991  0.191108  0.244013  1
  O  O34  1  0.390163  0.868655  0.236065  1
  O  O35  1  0.742117  0.551009  0.244013  1
  O  O36  1  0.578798  0.089633  0.610367  1
  O  O37  1  0.596748  0.081802  0.932284  1
  O  O38  1  0.918198  0.514947  0.932284  1
