# generated using pymatgen
data_V3B2
_symmetry_space_group_name_H-M   'P 1'
_cell_length_a   5.73047418
_cell_length_b   5.73047418
_cell_length_c   3.01784298
_cell_angle_alpha   90.00000000
_cell_angle_beta   90.00000000
_cell_angle_gamma   90.00000000
_symmetry_Int_Tables_number   1
_chemical_formula_structural   V3B2
_chemical_formula_sum   'V6 B4'
_cell_volume   99.10093673
_cell_formula_units_Z   2
loop_
 _symmetry_equiv_pos_site_id
 _symmetry_equiv_pos_as_xyz
  1  'x, y, z'
loop_
 _atom_site_type_symbol
 _atom_site_label
 _atom_site_symmetry_multiplicity
 _atom_site_fract_x
 _atom_site_fract_y
 _atom_site_fract_z
 _atom_site_occupancy
  V  V0  1  0.000000  0.000000  0.000000  1
  V  V1  1  0.500000  0.500000  0.000000  1
  V  V2  1  0.321678  0.821678  0.500000  1
  V  V3  1  0.821678  0.678322  0.500000  1
  V  V4  1  0.178322  0.321678  0.500000  1
  V  V5  1  0.678322  0.178322  0.500000  1
  B  B6  1  0.110579  0.610579  0.000000  1
  B  B7  1  0.610579  0.889421  0.000000  1
  B  B8  1  0.389421  0.110579  0.000000  1
  B  B9  1  0.889421  0.389421  0.000000  1
