# generated using pymatgen
data_In7Cl9
_symmetry_space_group_name_H-M   'P 1'
_cell_length_a   12.42853489
_cell_length_b   12.42853489
_cell_length_c   12.42853489
_cell_angle_alpha   90.00000000
_cell_angle_beta   90.00000000
_cell_angle_gamma   90.00000000
_symmetry_Int_Tables_number   1
_chemical_formula_structural   In7Cl9
_chemical_formula_sum   'In28 Cl36'
_cell_volume   1919.81688702
_cell_formula_units_Z   4
loop_
 _symmetry_equiv_pos_site_id
 _symmetry_equiv_pos_as_xyz
  1  'x, y, z'
loop_
 _atom_site_type_symbol
 _atom_site_label
 _atom_site_symmetry_multiplicity
 _atom_site_fract_x
 _atom_site_fract_y
 _atom_site_fract_z
 _atom_site_occupancy
  In  In0  1  0.817801  0.433053  0.328856  1
  In  In1  1  0.317801  0.066947  0.671144  1
  In  In2  1  0.182199  0.933053  0.171144  1
  In  In3  1  0.066947  0.671144  0.317801  1
  In  In4  1  0.171144  0.182199  0.933053  1
  In  In5  1  0.671144  0.317801  0.066947  1
  In  In6  1  0.433053  0.328856  0.817801  1
  In  In7  1  0.328856  0.817801  0.433053  1
  In  In8  1  0.933053  0.171144  0.182199  1
  In  In9  1  0.566947  0.828856  0.682199  1
  In  In10  1  0.828856  0.682199  0.566947  1
  In  In11  1  0.682199  0.566947  0.828856  1
  In  In12  1  0.182199  0.566947  0.671144  1
  In  In13  1  0.682199  0.933053  0.328856  1
  In  In14  1  0.817801  0.066947  0.828856  1
  In  In15  1  0.933053  0.328856  0.682199  1
  In  In16  1  0.828856  0.817801  0.066947  1
  In  In17  1  0.328856  0.682199  0.933053  1
  In  In18  1  0.566947  0.671144  0.182199  1
  In  In19  1  0.671144  0.182199  0.566947  1
  In  In20  1  0.066947  0.828856  0.817801  1
  In  In21  1  0.433053  0.171144  0.317801  1
  In  In22  1  0.171144  0.317801  0.433053  1
  In  In23  1  0.317801  0.433053  0.171144  1
  In  In24  1  0.500000  0.500000  0.500000  1
  In  In25  1  0.500000  0.000000  0.000000  1
  In  In26  1  0.000000  0.000000  0.500000  1
  In  In27  1  0.000000  0.500000  0.000000  1
  Cl  Cl28  1  0.950096  0.195577  0.456870  1
  Cl  Cl29  1  0.450096  0.304423  0.543130  1
  Cl  Cl30  1  0.049904  0.695577  0.043130  1
  Cl  Cl31  1  0.304423  0.543130  0.450096  1
  Cl  Cl32  1  0.043130  0.049904  0.695577  1
  Cl  Cl33  1  0.543130  0.450096  0.304423  1
  Cl  Cl34  1  0.195577  0.456870  0.950096  1
  Cl  Cl35  1  0.456870  0.950096  0.195577  1
  Cl  Cl36  1  0.695577  0.043130  0.049904  1
  Cl  Cl37  1  0.804423  0.956870  0.549904  1
  Cl  Cl38  1  0.956870  0.549904  0.804423  1
  Cl  Cl39  1  0.549904  0.804423  0.956870  1
  Cl  Cl40  1  0.049904  0.804423  0.543130  1
  Cl  Cl41  1  0.549904  0.695577  0.456870  1
  Cl  Cl42  1  0.950096  0.304423  0.956870  1
  Cl  Cl43  1  0.832962  0.667038  0.332962  1
  Cl  Cl44  1  0.695577  0.456870  0.549904  1
  Cl  Cl45  1  0.456870  0.549904  0.695577  1
  Cl  Cl46  1  0.804423  0.543130  0.049904  1
  Cl  Cl47  1  0.543130  0.049904  0.804423  1
  Cl  Cl48  1  0.304423  0.956870  0.950096  1
  Cl  Cl49  1  0.195577  0.043130  0.450096  1
  Cl  Cl50  1  0.043130  0.450096  0.195577  1
  Cl  Cl51  1  0.450096  0.195577  0.043130  1
  Cl  Cl52  1  0.167038  0.332962  0.667038  1
  Cl  Cl53  1  0.332962  0.667038  0.167038  1
  Cl  Cl54  1  0.667038  0.167038  0.332962  1
  Cl  Cl55  1  0.832962  0.832962  0.832962  1
  Cl  Cl56  1  0.000000  0.000000  0.000000  1
  Cl  Cl57  1  0.500000  0.000000  0.500000  1
  Cl  Cl58  1  0.500000  0.500000  0.000000  1
  Cl  Cl59  1  0.000000  0.500000  0.500000  1
  Cl  Cl60  1  0.167038  0.167038  0.167038  1
  Cl  Cl61  1  0.332962  0.832962  0.667038  1
  Cl  Cl62  1  0.667038  0.332962  0.832962  1
  Cl  Cl63  1  0.956870  0.950096  0.304423  1
