# generated using pymatgen
data_Ta2P
_symmetry_space_group_name_H-M   'P 1'
_cell_length_a   3.41690289
_cell_length_b   11.63507126
_cell_length_c   14.53000307
_cell_angle_alpha   90.00000000
_cell_angle_beta   90.00000000
_cell_angle_gamma   90.00000000
_symmetry_Int_Tables_number   1
_chemical_formula_structural   Ta2P
_chemical_formula_sum   'Ta24 P12'
_cell_volume   577.65347421
_cell_formula_units_Z   12
loop_
 _symmetry_equiv_pos_site_id
 _symmetry_equiv_pos_as_xyz
  1  'x, y, z'
loop_
 _atom_site_type_symbol
 _atom_site_label
 _atom_site_symmetry_multiplicity
 _atom_site_fract_x
 _atom_site_fract_y
 _atom_site_fract_z
 _atom_site_occupancy
  Ta  Ta0  1  0.500000  0.470104  0.390646  1
  Ta  Ta1  1  0.500000  0.529896  0.609354  1
  Ta  Ta2  1  0.000000  0.970104  0.109354  1
  Ta  Ta3  1  0.000000  0.029896  0.890646  1
  Ta  Ta4  1  0.500000  0.803398  0.204903  1
  Ta  Ta5  1  0.500000  0.196602  0.795097  1
  Ta  Ta6  1  0.000000  0.303398  0.295097  1
  Ta  Ta7  1  0.000000  0.696602  0.704903  1
  Ta  Ta8  1  0.500000  0.877198  0.422377  1
  Ta  Ta9  1  0.500000  0.122802  0.577623  1
  Ta  Ta10  1  0.000000  0.377198  0.077623  1
  Ta  Ta11  1  0.000000  0.622802  0.922377  1
  Ta  Ta12  1  0.000000  0.913221  0.579872  1
  Ta  Ta13  1  0.000000  0.086779  0.420128  1
  Ta  Ta14  1  0.500000  0.413221  0.920128  1
  Ta  Ta15  1  0.500000  0.586779  0.079872  1
  Ta  Ta16  1  0.000000  0.421927  0.754566  1
  Ta  Ta17  1  0.000000  0.578073  0.245434  1
  Ta  Ta18  1  0.500000  0.921927  0.745434  1
  Ta  Ta19  1  0.500000  0.078073  0.254566  1
  Ta  Ta20  1  0.000000  0.347958  0.522840  1
  Ta  Ta21  1  0.000000  0.652042  0.477160  1
  Ta  Ta22  1  0.500000  0.847958  0.977160  1
  Ta  Ta23  1  0.500000  0.152042  0.022840  1
  P  P24  1  0.000000  0.815834  0.848069  1
  P  P25  1  0.000000  0.184166  0.151931  1
  P  P26  1  0.500000  0.315834  0.651931  1
  P  P27  1  0.500000  0.684166  0.348069  1
  P  P28  1  0.000000  0.255645  0.916743  1
  P  P29  1  0.000000  0.744355  0.083257  1
  P  P30  1  0.500000  0.755645  0.583257  1
  P  P31  1  0.500000  0.244355  0.416743  1
  P  P32  1  0.000000  0.077819  0.705301  1
  P  P33  1  0.000000  0.922180  0.294699  1
  P  P34  1  0.500000  0.577820  0.794699  1
  P  P35  1  0.500000  0.422181  0.205301  1
