# generated using pymatgen
data_Ta4SiTe4
_symmetry_space_group_name_H-M   'P 1'
_cell_length_a   4.83555041
_cell_length_b   11.15757167
_cell_length_c   19.28082943
_cell_angle_alpha   90.00000000
_cell_angle_beta   90.00000000
_cell_angle_gamma   90.00000000
_symmetry_Int_Tables_number   1
_chemical_formula_structural   Ta4SiTe4
_chemical_formula_sum   'Ta16 Si4 Te16'
_cell_volume   1040.25859532
_cell_formula_units_Z   4
loop_
 _symmetry_equiv_pos_site_id
 _symmetry_equiv_pos_as_xyz
  1  'x, y, z'
loop_
 _atom_site_type_symbol
 _atom_site_label
 _atom_site_symmetry_multiplicity
 _atom_site_fract_x
 _atom_site_fract_y
 _atom_site_fract_z
 _atom_site_occupancy
  Ta  Ta0  1  0.000000  0.596193  0.605893  1
  Ta  Ta1  1  0.000000  0.403807  0.394107  1
  Ta  Ta2  1  0.000000  0.096193  0.894107  1
  Ta  Ta3  1  0.000000  0.903807  0.105893  1
  Ta  Ta4  1  0.000000  0.316546  0.555651  1
  Ta  Ta5  1  0.000000  0.683454  0.444349  1
  Ta  Ta6  1  0.000000  0.816546  0.944349  1
  Ta  Ta7  1  0.000000  0.183454  0.055651  1
  Ta  Ta8  1  0.500000  0.302231  0.464450  1
  Ta  Ta9  1  0.500000  0.697769  0.535550  1
  Ta  Ta10  1  0.500000  0.802231  0.035550  1
  Ta  Ta11  1  0.500000  0.197769  0.964450  1
  Ta  Ta12  1  0.500000  0.438247  0.614178  1
  Ta  Ta13  1  0.500000  0.561753  0.385822  1
  Ta  Ta14  1  0.500000  0.938247  0.885822  1
  Ta  Ta15  1  0.500000  0.061753  0.114178  1
  Si  Si16  1  0.250008  0.500000  0.500000  1
  Si  Si17  1  0.749992  0.000000  0.000000  1
  Si  Si18  1  0.749992  0.500000  0.500000  1
  Si  Si19  1  0.250008  0.000000  0.000000  1
  Te  Te20  1  0.000000  0.393919  0.697086  1
  Te  Te21  1  0.000000  0.606081  0.302914  1
  Te  Te22  1  0.000000  0.893919  0.802914  1
  Te  Te23  1  0.000000  0.106081  0.197086  1
  Te  Te24  1  0.500000  0.183536  0.596217  1
  Te  Te25  1  0.500000  0.816464  0.403783  1
  Te  Te26  1  0.500000  0.683536  0.903783  1
  Te  Te27  1  0.500000  0.316464  0.096217  1
  Te  Te28  1  0.500000  0.665357  0.682737  1
  Te  Te29  1  0.500000  0.334643  0.317263  1
  Te  Te30  1  0.500000  0.165357  0.817263  1
  Te  Te31  1  0.500000  0.834643  0.182737  1
  Te  Te32  1  0.000000  0.341176  0.938395  1
  Te  Te33  1  0.000000  0.658824  0.061605  1
  Te  Te34  1  0.000000  0.841176  0.561605  1
  Te  Te35  1  0.000000  0.158824  0.438395  1
