# generated using pymatgen
data_Ni(H2N)2
_symmetry_space_group_name_H-M   'P 1'
_cell_length_a   10.83044645
_cell_length_b   10.83044645
_cell_length_c   10.83044645
_cell_angle_alpha   90.00000000
_cell_angle_beta   90.00000000
_cell_angle_gamma   90.00000000
_symmetry_Int_Tables_number   1
_chemical_formula_structural   Ni(H2N)2
_chemical_formula_sum   'Ni18 H72 N36'
_cell_volume   1270.39588436
_cell_formula_units_Z   18
loop_
 _symmetry_equiv_pos_site_id
 _symmetry_equiv_pos_as_xyz
  1  'x, y, z'
loop_
 _atom_site_type_symbol
 _atom_site_label
 _atom_site_symmetry_multiplicity
 _atom_site_fract_x
 _atom_site_fract_y
 _atom_site_fract_z
 _atom_site_occupancy
  Ni  Ni0  1  0.814865  0.500000  0.000000  1
  Ni  Ni1  1  0.500000  0.000000  0.814865  1
  Ni  Ni2  1  0.000000  0.814865  0.500000  1
  Ni  Ni3  1  0.500000  0.000000  0.185135  1
  Ni  Ni4  1  0.000000  0.185135  0.500000  1
  Ni  Ni5  1  0.185135  0.500000  0.000000  1
  Ni  Ni6  1  0.000000  0.632108  0.131930  1
  Ni  Ni7  1  0.000000  0.367892  0.868070  1
  Ni  Ni8  1  0.000000  0.632108  0.868070  1
  Ni  Ni9  1  0.367892  0.868070  0.000000  1
  Ni  Ni10  1  0.868070  0.000000  0.632108  1
  Ni  Ni11  1  0.868070  0.000000  0.367892  1
  Ni  Ni12  1  0.632108  0.131930  0.000000  1
  Ni  Ni13  1  0.131930  0.000000  0.632108  1
  Ni  Ni14  1  0.632108  0.868070  0.000000  1
  Ni  Ni15  1  0.367892  0.131930  0.000000  1
  Ni  Ni16  1  0.131930  0.000000  0.367892  1
  Ni  Ni17  1  0.000000  0.367892  0.131930  1
  H  H18  1  0.000000  0.923818  0.193433  1
  H  H19  1  0.000000  0.076182  0.806567  1
  H  H20  1  0.000000  0.923818  0.806567  1
  H  H21  1  0.076182  0.806567  0.000000  1
  H  H22  1  0.806567  0.000000  0.923818  1
  H  H23  1  0.806567  0.000000  0.076182  1
  H  H24  1  0.923818  0.193433  0.000000  1
  H  H25  1  0.193433  0.000000  0.923818  1
  H  H26  1  0.923818  0.806567  0.000000  1
  H  H27  1  0.076182  0.193433  0.000000  1
  H  H28  1  0.193433  0.000000  0.076182  1
  H  H29  1  0.000000  0.076182  0.193433  1
  H  H30  1  0.500000  0.691864  0.074598  1
  H  H31  1  0.500000  0.308136  0.925402  1
  H  H32  1  0.500000  0.691864  0.925402  1
  H  H33  1  0.308136  0.925402  0.500000  1
  H  H34  1  0.925402  0.500000  0.691864  1
  H  H35  1  0.925402  0.500000  0.308136  1
  H  H36  1  0.691864  0.074598  0.500000  1
  H  H37  1  0.074598  0.500000  0.691864  1
  H  H38  1  0.691864  0.925402  0.500000  1
  H  H39  1  0.308136  0.074598  0.500000  1
  H  H40  1  0.074598  0.500000  0.308136  1
  H  H41  1  0.500000  0.308136  0.074598  1
  H  H42  1  0.206139  0.216846  0.598118  1
  H  H43  1  0.206139  0.783154  0.401882  1
  H  H44  1  0.793861  0.216846  0.401882  1
  H  H45  1  0.783154  0.401882  0.206139  1
  H  H46  1  0.401882  0.793861  0.216846  1
  H  H47  1  0.401882  0.206139  0.783154  1
  H  H48  1  0.216846  0.598118  0.206139  1
  H  H49  1  0.598118  0.206139  0.216846  1
  H  H50  1  0.216846  0.401882  0.793861  1
  H  H51  1  0.783154  0.598118  0.793861  1
  H  H52  1  0.598118  0.793861  0.783154  1
  H  H53  1  0.793861  0.783154  0.598118  1
  H  H54  1  0.793861  0.783154  0.401882  1
  H  H55  1  0.793861  0.216846  0.598118  1
  H  H56  1  0.206139  0.783154  0.598118  1
  H  H57  1  0.216846  0.598118  0.793861  1
  H  H58  1  0.598118  0.206139  0.783154  1
  H  H59  1  0.598118  0.793861  0.216846  1
  H  H60  1  0.783154  0.401882  0.793861  1
  H  H61  1  0.401882  0.793861  0.783154  1
  H  H62  1  0.783154  0.598118  0.206139  1
  H  H63  1  0.216846  0.401882  0.206139  1
  H  H64  1  0.401882  0.206139  0.216846  1
  H  H65  1  0.206139  0.216846  0.401882  1
  H  H66  1  0.099114  0.221405  0.704586  1
  H  H67  1  0.099114  0.778595  0.295414  1
  H  H68  1  0.900886  0.221405  0.295414  1
  H  H69  1  0.778595  0.295414  0.099114  1
  H  H70  1  0.295414  0.900886  0.221405  1
  H  H71  1  0.295414  0.099114  0.778595  1
  H  H72  1  0.099114  0.221405  0.295414  1
  H  H73  1  0.295414  0.099114  0.221405  1
  H  H74  1  0.221405  0.295414  0.099114  1
  H  H75  1  0.778595  0.704586  0.099114  1
  H  H76  1  0.295414  0.900886  0.778595  1
  H  H77  1  0.778595  0.295414  0.900886  1
  H  H78  1  0.704586  0.900886  0.221405  1
  H  H79  1  0.704586  0.099114  0.778595  1
  H  H80  1  0.221405  0.704586  0.900886  1
  H  H81  1  0.099114  0.778595  0.704586  1
  H  H82  1  0.900886  0.221405  0.704586  1
  H  H83  1  0.900886  0.778595  0.295414  1
  H  H84  1  0.900886  0.778595  0.704586  1
  H  H85  1  0.704586  0.900886  0.778595  1
  H  H86  1  0.778595  0.704586  0.900886  1
  H  H87  1  0.221405  0.295414  0.900886  1
  H  H88  1  0.704586  0.099114  0.221405  1
  H  H89  1  0.221405  0.704586  0.099114  1
  N  N90  1  0.750416  0.000000  0.000000  1
  N  N91  1  0.000000  0.000000  0.750416  1
  N  N92  1  0.000000  0.750416  0.000000  1
  N  N93  1  0.000000  0.000000  0.249584  1
  N  N94  1  0.000000  0.249584  0.000000  1
  N  N95  1  0.249584  0.000000  0.000000  1
  N  N96  1  0.750037  0.000000  0.500000  1
  N  N97  1  0.000000  0.500000  0.750037  1
  N  N98  1  0.500000  0.750037  0.000000  1
  N  N99  1  0.000000  0.500000  0.249963  1
  N  N100  1  0.500000  0.249963  0.000000  1
  N  N101  1  0.249963  0.000000  0.500000  1
  N  N102  1  0.124592  0.176745  0.624528  1
  N  N103  1  0.124592  0.823255  0.375472  1
  N  N104  1  0.875408  0.176745  0.375472  1
  N  N105  1  0.823255  0.375472  0.124592  1
  N  N106  1  0.375472  0.875408  0.176745  1
  N  N107  1  0.375472  0.124592  0.823255  1
  N  N108  1  0.176745  0.624528  0.124592  1
  N  N109  1  0.624528  0.124592  0.176745  1
  N  N110  1  0.176745  0.375472  0.875408  1
  N  N111  1  0.823255  0.624528  0.875408  1
  N  N112  1  0.624528  0.875408  0.823255  1
  N  N113  1  0.875408  0.823255  0.624528  1
  N  N114  1  0.875408  0.823255  0.375472  1
  N  N115  1  0.875408  0.176745  0.624528  1
  N  N116  1  0.124592  0.823255  0.624528  1
  N  N117  1  0.176745  0.624528  0.875408  1
  N  N118  1  0.624528  0.124592  0.823255  1
  N  N119  1  0.624528  0.875408  0.176745  1
  N  N120  1  0.823255  0.375472  0.875408  1
  N  N121  1  0.375472  0.875408  0.823255  1
  N  N122  1  0.823255  0.624528  0.124592  1
  N  N123  1  0.176745  0.375472  0.124592  1
  N  N124  1  0.375472  0.124592  0.176745  1
  N  N125  1  0.124592  0.176745  0.375472  1
