# generated using pymatgen
data_CuO
_symmetry_space_group_name_H-M   'P 1'
_cell_length_a   6.47320593
_cell_length_b   6.47320593
_cell_length_c   6.47320593
_cell_angle_alpha   94.62169472
_cell_angle_beta   94.62169472
_cell_angle_gamma   147.01859821
_symmetry_Int_Tables_number   1
_chemical_formula_structural   CuO
_chemical_formula_sum   'Cu4 O4'
_cell_volume   141.58189382
_cell_formula_units_Z   4
loop_
 _symmetry_equiv_pos_site_id
 _symmetry_equiv_pos_as_xyz
  1  'x, y, z'
loop_
 _atom_site_type_symbol
 _atom_site_label
 _atom_site_symmetry_multiplicity
 _atom_site_fract_x
 _atom_site_fract_y
 _atom_site_fract_z
 _atom_site_occupancy
  Cu  Cu0  1  0.667374  0.332626  0.000000  1
  Cu  Cu1  1  0.667374  0.667374  0.334748  1
  Cu  Cu2  1  0.332626  0.332626  0.665252  1
  Cu  Cu3  1  0.332626  0.667374  1.000000  1
  O  O4  1  0.500000  0.226594  0.726594  1
  O  O5  1  0.773406  0.500000  0.273406  1
  O  O6  1  0.226594  0.500000  0.726594  1
  O  O7  1  0.500000  0.773406  0.273406  1
