# generated using pymatgen
data_Sc2Te
_symmetry_space_group_name_H-M   'P 1'
_cell_length_a   3.94211456
_cell_length_b   10.74381436
_cell_length_c   20.27756052
_cell_angle_alpha   90.00000000
_cell_angle_beta   90.00000000
_cell_angle_gamma   90.00000000
_symmetry_Int_Tables_number   1
_chemical_formula_structural   Sc2Te
_chemical_formula_sum   'Sc24 Te12'
_cell_volume   858.82255739
_cell_formula_units_Z   12
loop_
 _symmetry_equiv_pos_site_id
 _symmetry_equiv_pos_as_xyz
  1  'x, y, z'
loop_
 _atom_site_type_symbol
 _atom_site_label
 _atom_site_symmetry_multiplicity
 _atom_site_fract_x
 _atom_site_fract_y
 _atom_site_fract_z
 _atom_site_occupancy
  Sc  Sc0  1  0.250000  0.893387  0.490052  1
  Sc  Sc1  1  0.750000  0.106613  0.509948  1
  Sc  Sc2  1  0.750000  0.393387  0.009948  1
  Sc  Sc3  1  0.250000  0.606613  0.990052  1
  Sc  Sc4  1  0.250000  0.069257  0.636917  1
  Sc  Sc5  1  0.750000  0.930743  0.363083  1
  Sc  Sc6  1  0.750000  0.569257  0.863083  1
  Sc  Sc7  1  0.250000  0.430743  0.136917  1
  Sc  Sc8  1  0.250000  0.380444  0.532462  1
  Sc  Sc9  1  0.750000  0.619556  0.467538  1
  Sc  Sc10  1  0.750000  0.880444  0.967538  1
  Sc  Sc11  1  0.250000  0.119556  0.032462  1
  Sc  Sc12  1  0.750000  0.657644  0.106891  1
  Sc  Sc13  1  0.250000  0.342356  0.893109  1
  Sc  Sc14  1  0.250000  0.157644  0.393109  1
  Sc  Sc15  1  0.750000  0.842356  0.606891  1
  Sc  Sc16  1  0.750000  0.965167  0.163224  1
  Sc  Sc17  1  0.250000  0.034833  0.836776  1
  Sc  Sc18  1  0.250000  0.465167  0.336776  1
  Sc  Sc19  1  0.750000  0.534833  0.663224  1
  Sc  Sc20  1  0.250000  0.746555  0.227905  1
  Sc  Sc21  1  0.750000  0.253445  0.772095  1
  Sc  Sc22  1  0.750000  0.246555  0.272095  1
  Sc  Sc23  1  0.250000  0.753445  0.727905  1
  Te  Te24  1  0.750000  0.968471  0.735573  1
  Te  Te25  1  0.250000  0.031529  0.264427  1
  Te  Te26  1  0.250000  0.468471  0.764427  1
  Te  Te27  1  0.750000  0.531529  0.235573  1
  Te  Te28  1  0.750000  0.276964  0.626145  1
  Te  Te29  1  0.250000  0.723036  0.373855  1
  Te  Te30  1  0.250000  0.776964  0.873855  1
  Te  Te31  1  0.750000  0.223036  0.126145  1
  Te  Te32  1  0.250000  0.645939  0.574294  1
  Te  Te33  1  0.750000  0.354061  0.425706  1
  Te  Te34  1  0.750000  0.145939  0.925706  1
  Te  Te35  1  0.250000  0.854061  0.074294  1
