# generated using pymatgen
data_Cd2P3Br
_symmetry_space_group_name_H-M   'P 1'
_cell_length_a   6.17823179
_cell_length_b   6.17823179
_cell_length_c   7.65239349
_cell_angle_alpha   83.30916620
_cell_angle_beta   96.69083380
_cell_angle_gamma   83.41123091
_symmetry_Int_Tables_number   1
_chemical_formula_structural   Cd2P3Br
_chemical_formula_sum   'Cd4 P6 Br2'
_cell_volume   285.68261755
_cell_formula_units_Z   2
loop_
 _symmetry_equiv_pos_site_id
 _symmetry_equiv_pos_as_xyz
  1  'x, y, z'
loop_
 _atom_site_type_symbol
 _atom_site_label
 _atom_site_symmetry_multiplicity
 _atom_site_fract_x
 _atom_site_fract_y
 _atom_site_fract_z
 _atom_site_occupancy
  Cd  Cd0  1  0.894499  0.401824  0.779338  1
  Cd  Cd1  1  0.598176  0.105501  0.279338  1
  Cd  Cd2  1  0.401824  0.894499  0.720663  1
  Cd  Cd3  1  0.105501  0.598176  0.220663  1
  P  P4  1  0.694984  0.694984  0.250000  1
  P  P5  1  0.305016  0.305016  0.750000  1
  P  P6  1  0.658524  0.432797  0.459886  1
  P  P7  1  0.567203  0.341476  0.959886  1
  P  P8  1  0.341476  0.567203  0.540114  1
  P  P9  1  0.432797  0.658524  0.040114  1
  Br  Br10  1  0.874188  0.874188  0.750000  1
  Br  Br11  1  0.125812  0.125812  0.250000  1
