# generated using pymatgen
data_Na6Zn3P4H6O19
_symmetry_space_group_name_H-M   'P 1'
_cell_length_a   12.08143664
_cell_length_b   12.08143664
_cell_length_c   12.08143664
_cell_angle_alpha   90.00000000
_cell_angle_beta   90.00000000
_cell_angle_gamma   90.00000000
_symmetry_Int_Tables_number   1
_chemical_formula_structural   Na6Zn3P4H6O19
_chemical_formula_sum   'Na24 Zn12 P16 H24 O76'
_cell_volume   1763.41991791
_cell_formula_units_Z   4
loop_
 _symmetry_equiv_pos_site_id
 _symmetry_equiv_pos_as_xyz
  1  'x, y, z'
loop_
 _atom_site_type_symbol
 _atom_site_label
 _atom_site_symmetry_multiplicity
 _atom_site_fract_x
 _atom_site_fract_y
 _atom_site_fract_z
 _atom_site_occupancy
  Na  Na0  1  0.327552  0.506040  0.248102  1
  Na  Na1  1  0.248102  0.327552  0.506040  1
  Na  Na2  1  0.506040  0.248102  0.327552  1
  Na  Na3  1  0.993960  0.751898  0.827552  1
  Na  Na4  1  0.748102  0.172448  0.493960  1
  Na  Na5  1  0.493960  0.748102  0.172448  1
  Na  Na6  1  0.251898  0.672448  0.006040  1
  Na  Na7  1  0.751898  0.827552  0.993960  1
  Na  Na8  1  0.006040  0.251898  0.672448  1
  Na  Na9  1  0.827552  0.993960  0.751898  1
  Na  Na10  1  0.672448  0.006040  0.251898  1
  Na  Na11  1  0.172448  0.493960  0.748102  1
  Na  Na12  1  0.423712  0.009791  0.740412  1
  Na  Na13  1  0.740412  0.423712  0.009791  1
  Na  Na14  1  0.009791  0.740412  0.423712  1
  Na  Na15  1  0.490209  0.259588  0.923712  1
  Na  Na16  1  0.240412  0.076288  0.990209  1
  Na  Na17  1  0.990209  0.240412  0.076288  1
  Na  Na18  1  0.759588  0.576288  0.509791  1
  Na  Na19  1  0.259588  0.923712  0.490209  1
  Na  Na20  1  0.509791  0.759588  0.576288  1
  Na  Na21  1  0.923712  0.490209  0.259588  1
  Na  Na22  1  0.576288  0.509791  0.759588  1
  Na  Na23  1  0.076288  0.990209  0.240412  1
  Zn  Zn24  1  0.375032  0.002399  0.242528  1
  Zn  Zn25  1  0.242528  0.375032  0.002399  1
  Zn  Zn26  1  0.002399  0.242528  0.375032  1
  Zn  Zn27  1  0.497601  0.757472  0.875032  1
  Zn  Zn28  1  0.742528  0.124968  0.997601  1
  Zn  Zn29  1  0.997601  0.742528  0.124968  1
  Zn  Zn30  1  0.257472  0.624968  0.502399  1
  Zn  Zn31  1  0.757472  0.875032  0.497601  1
  Zn  Zn32  1  0.502399  0.257472  0.624968  1
  Zn  Zn33  1  0.875032  0.497601  0.757472  1
  Zn  Zn34  1  0.624968  0.502399  0.257472  1
  Zn  Zn35  1  0.124968  0.997601  0.742528  1
  P  P36  1  0.518261  0.981739  0.018261  1
  P  P37  1  0.018261  0.518261  0.981739  1
  P  P38  1  0.981739  0.018261  0.518261  1
  P  P39  1  0.481739  0.481739  0.481739  1
  P  P40  1  0.531023  0.031023  0.468977  1
  P  P41  1  0.468977  0.531023  0.031023  1
  P  P42  1  0.031023  0.468977  0.531023  1
  P  P43  1  0.968977  0.968977  0.968977  1
  P  P44  1  0.218585  0.781415  0.281415  1
  P  P45  1  0.281415  0.218585  0.781415  1
  P  P46  1  0.781415  0.281415  0.218585  1
  P  P47  1  0.718585  0.718585  0.718585  1
  P  P48  1  0.231195  0.231195  0.231195  1
  P  P49  1  0.268805  0.768805  0.731195  1
  P  P50  1  0.731195  0.268805  0.768805  1
  P  P51  1  0.768805  0.731195  0.268805  1
  H  H52  1  0.548452  0.176248  0.115965  1
  H  H53  1  0.115965  0.548452  0.176248  1
  H  H54  1  0.176248  0.115965  0.548452  1
  H  H55  1  0.323752  0.884035  0.048452  1
  H  H56  1  0.615965  0.951548  0.823752  1
  H  H57  1  0.823752  0.615965  0.951548  1
  H  H58  1  0.384035  0.451548  0.676248  1
  H  H59  1  0.884035  0.048452  0.323752  1
  H  H60  1  0.676248  0.384035  0.451548  1
  H  H61  1  0.048452  0.323752  0.884035  1
  H  H62  1  0.451548  0.676248  0.384035  1
  H  H63  1  0.951548  0.823752  0.615965  1
  H  H64  1  0.424103  0.204840  0.133260  1
  H  H65  1  0.133260  0.424103  0.204840  1
  H  H66  1  0.204840  0.133260  0.424103  1
  H  H67  1  0.295160  0.866740  0.924103  1
  H  H68  1  0.633260  0.075897  0.795160  1
  H  H69  1  0.795160  0.633260  0.075897  1
  H  H70  1  0.366740  0.575897  0.704840  1
  H  H71  1  0.866740  0.924103  0.295160  1
  H  H72  1  0.704840  0.366740  0.575897  1
  H  H73  1  0.924103  0.295160  0.866740  1
  H  H74  1  0.575897  0.704840  0.366740  1
  H  H75  1  0.075897  0.795160  0.633260  1
  O  O76  1  0.445798  0.054202  0.945798  1
  O  O77  1  0.945798  0.445798  0.054202  1
  O  O78  1  0.054202  0.945798  0.445798  1
  O  O79  1  0.554202  0.554202  0.554202  1
  O  O80  1  0.458158  0.958158  0.541842  1
  O  O81  1  0.541842  0.458158  0.958158  1
  O  O82  1  0.958158  0.541842  0.458158  1
  O  O83  1  0.041842  0.041842  0.041842  1
  O  O84  1  0.291291  0.708709  0.208709  1
  O  O85  1  0.208709  0.291291  0.708709  1
  O  O86  1  0.708709  0.208709  0.291291  1
  O  O87  1  0.791291  0.791291  0.791291  1
  O  O88  1  0.304070  0.304070  0.304070  1
  O  O89  1  0.195930  0.695930  0.804070  1
  O  O90  1  0.804070  0.195930  0.695930  1
  O  O91  1  0.695930  0.804070  0.195930  1
  O  O92  1  0.451392  0.928521  0.116492  1
  O  O93  1  0.116492  0.451392  0.928521  1
  O  O94  1  0.928521  0.116492  0.451392  1
  O  O95  1  0.571479  0.883508  0.951392  1
  O  O96  1  0.616492  0.048608  0.071479  1
  O  O97  1  0.071479  0.616492  0.048608  1
  O  O98  1  0.383508  0.548608  0.428521  1
  O  O99  1  0.883508  0.951392  0.571479  1
  O  O100  1  0.428521  0.383508  0.548608  1
  O  O101  1  0.951392  0.571479  0.883508  1
  O  O102  1  0.548608  0.428521  0.383508  1
  O  O103  1  0.048608  0.071479  0.616492  1
  O  O104  1  0.299055  0.135260  0.174710  1
  O  O105  1  0.174710  0.299055  0.135260  1
  O  O106  1  0.135260  0.174710  0.299055  1
  O  O107  1  0.364740  0.825290  0.799055  1
  O  O108  1  0.674710  0.200945  0.864740  1
  O  O109  1  0.864740  0.674710  0.200945  1
  O  O110  1  0.325290  0.700945  0.635260  1
  O  O111  1  0.825290  0.799055  0.364740  1
  O  O112  1  0.635260  0.325290  0.700945  1
  O  O113  1  0.799055  0.364740  0.825290  1
  O  O114  1  0.700945  0.635260  0.325290  1
  O  O115  1  0.200945  0.864740  0.674710  1
  O  O116  1  0.256331  0.905608  0.286844  1
  O  O117  1  0.286844  0.256331  0.905608  1
  O  O118  1  0.905608  0.286844  0.256331  1
  O  O119  1  0.594392  0.713156  0.756331  1
  O  O120  1  0.786844  0.243669  0.094392  1
  O  O121  1  0.094392  0.786844  0.243669  1
  O  O122  1  0.213156  0.743669  0.405608  1
  O  O123  1  0.713156  0.756331  0.594392  1
  O  O124  1  0.405608  0.213156  0.743669  1
  O  O125  1  0.756331  0.594392  0.713156  1
  O  O126  1  0.743669  0.405608  0.213156  1
  O  O127  1  0.243669  0.094392  0.786844  1
  O  O128  1  0.484435  0.050343  0.348992  1
  O  O129  1  0.348992  0.484435  0.050343  1
  O  O130  1  0.050343  0.348992  0.484435  1
  O  O131  1  0.449657  0.651008  0.984435  1
  O  O132  1  0.848992  0.015565  0.949657  1
  O  O133  1  0.949657  0.848992  0.015565  1
  O  O134  1  0.151008  0.515565  0.550343  1
  O  O135  1  0.651008  0.984435  0.449657  1
  O  O136  1  0.550343  0.151008  0.515565  1
  O  O137  1  0.984435  0.449657  0.651008  1
  O  O138  1  0.515565  0.550343  0.151008  1
  O  O139  1  0.015565  0.949657  0.848992  1
  O  O140  1  0.498076  0.240004  0.126763  1
  O  O141  1  0.126763  0.498076  0.240004  1
  O  O142  1  0.240004  0.126763  0.498076  1
  O  O143  1  0.259996  0.873237  0.998076  1
  O  O144  1  0.626763  0.001924  0.759996  1
  O  O145  1  0.759996  0.626763  0.001924  1
  O  O146  1  0.373237  0.501924  0.740004  1
  O  O147  1  0.873237  0.998076  0.259996  1
  O  O148  1  0.740004  0.373237  0.501924  1
  O  O149  1  0.998076  0.259996  0.873237  1
  O  O150  1  0.501924  0.740004  0.373237  1
  O  O151  1  0.001924  0.759996  0.626763  1
