# generated using pymatgen
data_SmNiO3
_symmetry_space_group_name_H-M   'P 1'
_cell_length_a   5.34675394
_cell_length_b   5.54790228
_cell_length_c   7.63106642
_cell_angle_alpha   90.00000000
_cell_angle_beta   90.00000000
_cell_angle_gamma   90.00000000
_symmetry_Int_Tables_number   1
_chemical_formula_structural   SmNiO3
_chemical_formula_sum   'Sm4 Ni4 O12'
_cell_volume   226.36237120
_cell_formula_units_Z   4
loop_
 _symmetry_equiv_pos_site_id
 _symmetry_equiv_pos_as_xyz
  1  'x, y, z'
loop_
 _atom_site_type_symbol
 _atom_site_label
 _atom_site_symmetry_multiplicity
 _atom_site_fract_x
 _atom_site_fract_y
 _atom_site_fract_z
 _atom_site_occupancy
  Sm  Sm0  1  0.014851  0.939016  0.750000  1
  Sm  Sm1  1  0.514851  0.560984  0.250000  1
  Sm  Sm2  1  0.485149  0.439016  0.750000  1
  Sm  Sm3  1  0.985149  0.060984  0.250000  1
  Ni  Ni4  1  0.500000  0.000000  0.500000  1
  Ni  Ni5  1  0.000000  0.500000  0.500000  1
  Ni  Ni6  1  0.000000  0.500000  0.000000  1
  Ni  Ni7  1  0.500000  0.000000  0.000000  1
  O  O8  1  0.705468  0.295890  0.453664  1
  O  O9  1  0.205468  0.204110  0.546336  1
  O  O10  1  0.794532  0.795890  0.046336  1
  O  O11  1  0.294532  0.704110  0.953664  1
  O  O12  1  0.294532  0.704110  0.546336  1
  O  O13  1  0.794532  0.795890  0.453664  1
  O  O14  1  0.205468  0.204110  0.953664  1
  O  O15  1  0.705468  0.295890  0.046336  1
  O  O16  1  0.087720  0.479346  0.250000  1
  O  O17  1  0.587720  0.020654  0.750000  1
  O  O18  1  0.412280  0.979346  0.250000  1
  O  O19  1  0.912280  0.520654  0.750000  1
