# generated using pymatgen
data_TbInRh
_symmetry_space_group_name_H-M   'P 1'
_cell_length_a   7.54497443
_cell_length_b   7.54497443
_cell_length_c   3.96125882
_cell_angle_alpha   90.00000000
_cell_angle_beta   90.00000000
_cell_angle_gamma   120.00000000
_symmetry_Int_Tables_number   1
_chemical_formula_structural   TbInRh
_chemical_formula_sum   'Tb3 In3 Rh3'
_cell_volume   195.28972584
_cell_formula_units_Z   3
loop_
 _symmetry_equiv_pos_site_id
 _symmetry_equiv_pos_as_xyz
  1  'x, y, z'
loop_
 _atom_site_type_symbol
 _atom_site_label
 _atom_site_symmetry_multiplicity
 _atom_site_fract_x
 _atom_site_fract_y
 _atom_site_fract_z
 _atom_site_occupancy
  Tb  Tb0  1  0.000000  0.592765  0.500000  1
  Tb  Tb1  1  0.407235  0.407235  0.500000  1
  Tb  Tb2  1  0.592765  0.000000  0.500000  1
  In  In3  1  0.744069  0.744069  0.000000  1
  In  In4  1  0.000000  0.255931  0.000000  1
  In  In5  1  0.255931  0.000000  0.000000  1
  Rh  Rh6  1  0.333333  0.666667  0.000000  1
  Rh  Rh7  1  0.000000  0.000000  0.500000  1
  Rh  Rh8  1  0.666667  0.333333  0.000000  1
