# generated using pymatgen
data_Sn4Pd
_symmetry_space_group_name_H-M   'P 1'
_cell_length_a   6.68663383
_cell_length_b   6.68663383
_cell_length_c   6.52988390
_cell_angle_alpha   90.00000000
_cell_angle_beta   90.00000000
_cell_angle_gamma   121.23283979
_symmetry_Int_Tables_number   1
_chemical_formula_structural   Sn4Pd
_chemical_formula_sum   'Sn8 Pd2'
_cell_volume   249.64380479
_cell_formula_units_Z   2
loop_
 _symmetry_equiv_pos_site_id
 _symmetry_equiv_pos_as_xyz
  1  'x, y, z'
loop_
 _atom_site_type_symbol
 _atom_site_label
 _atom_site_symmetry_multiplicity
 _atom_site_fract_x
 _atom_site_fract_y
 _atom_site_fract_z
 _atom_site_occupancy
  Sn  Sn0  1  0.202836  0.456139  0.328929  1
  Sn  Sn1  1  0.543861  0.797164  0.671071  1
  Sn  Sn2  1  0.456139  0.202836  0.671071  1
  Sn  Sn3  1  0.797164  0.543861  0.328929  1
  Sn  Sn4  1  0.956139  0.702836  0.828929  1
  Sn  Sn5  1  0.297164  0.043861  0.171071  1
  Sn  Sn6  1  0.702836  0.956139  0.171071  1
  Sn  Sn7  1  0.043861  0.297164  0.828929  1
  Pd  Pd8  1  0.500000  0.500000  0.000000  1
  Pd  Pd9  1  0.000000  0.000000  0.500000  1
