# generated using pymatgen
data_BaU2O7
_symmetry_space_group_name_H-M   'P 1'
_cell_length_a   7.96600141
_cell_length_b   7.96600141
_cell_length_c   7.96600141
_cell_angle_alpha   126.24097221
_cell_angle_beta   126.24097221
_cell_angle_gamma   79.49244661
_symmetry_Int_Tables_number   1
_chemical_formula_structural   BaU2O7
_chemical_formula_sum   'Ba2 U4 O14'
_cell_volume   317.79081772
_cell_formula_units_Z   2
loop_
 _symmetry_equiv_pos_site_id
 _symmetry_equiv_pos_as_xyz
  1  'x, y, z'
loop_
 _atom_site_type_symbol
 _atom_site_label
 _atom_site_symmetry_multiplicity
 _atom_site_fract_x
 _atom_site_fract_y
 _atom_site_fract_z
 _atom_site_occupancy
  Ba  Ba0  1  0.000000  0.000000  0.000000  1
  Ba  Ba1  1  0.750000  0.250000  0.500000  1
  U  U2  1  0.875000  0.625000  0.250000  1
  U  U3  1  0.375000  0.625000  0.250000  1
  U  U4  1  0.375000  0.125000  0.750000  1
  U  U5  1  0.375000  0.625000  0.750000  1
  O  O6  1  0.250000  0.750000  0.500000  1
  O  O7  1  0.500000  0.500000  0.000000  1
  O  O8  1  0.717905  0.717905  0.000000  1
  O  O9  1  0.467905  0.967905  0.500000  1
  O  O10  1  0.032095  0.532095  0.500000  1
  O  O11  1  0.282095  0.282095  0.000000  1
  O  O12  1  0.875000  0.361415  0.986415  1
  O  O13  1  0.111415  0.625000  0.986415  1
  O  O14  1  0.638585  0.125000  0.013585  1
  O  O15  1  0.375000  0.888585  0.013585  1
  O  O16  1  0.875000  0.888585  0.513585  1
  O  O17  1  0.638585  0.625000  0.513585  1
  O  O18  1  0.111415  0.125000  0.486415  1
  O  O19  1  0.375000  0.361415  0.486415  1
