# generated using pymatgen
data_Sc2SiB2Ir5
_symmetry_space_group_name_H-M   'P 1'
_cell_length_a   9.24687714
_cell_length_b   9.24687714
_cell_length_c   3.13392934
_cell_angle_alpha   90.00000000
_cell_angle_beta   90.00000000
_cell_angle_gamma   90.00000000
_symmetry_Int_Tables_number   1
_chemical_formula_structural   Sc2SiB2Ir5
_chemical_formula_sum   'Sc4 Si2 B4 Ir10'
_cell_volume   267.96580350
_cell_formula_units_Z   2
loop_
 _symmetry_equiv_pos_site_id
 _symmetry_equiv_pos_as_xyz
  1  'x, y, z'
loop_
 _atom_site_type_symbol
 _atom_site_label
 _atom_site_symmetry_multiplicity
 _atom_site_fract_x
 _atom_site_fract_y
 _atom_site_fract_z
 _atom_site_occupancy
  Sc  Sc0  1  0.175360  0.675360  0.000000  1
  Sc  Sc1  1  0.675360  0.824640  0.000000  1
  Sc  Sc2  1  0.324640  0.175360  0.000000  1
  Sc  Sc3  1  0.824640  0.324640  0.000000  1
  Si  Si4  1  0.000000  0.000000  0.000000  1
  Si  Si5  1  0.500000  0.500000  0.000000  1
  B  B6  1  0.376487  0.876487  0.000000  1
  B  B7  1  0.876487  0.623513  0.000000  1
  B  B8  1  0.123513  0.376487  0.000000  1
  B  B9  1  0.623513  0.123513  0.000000  1
  Ir  Ir10  1  0.000000  0.500000  0.500000  1
  Ir  Ir11  1  0.500000  0.000000  0.500000  1
  Ir  Ir12  1  0.287722  0.429846  0.500000  1
  Ir  Ir13  1  0.712279  0.570154  0.500000  1
  Ir  Ir14  1  0.570154  0.287722  0.500000  1
  Ir  Ir15  1  0.429846  0.712279  0.500000  1
  Ir  Ir16  1  0.929846  0.787721  0.500000  1
  Ir  Ir17  1  0.787721  0.070154  0.500000  1
  Ir  Ir18  1  0.212278  0.929846  0.500000  1
  Ir  Ir19  1  0.070154  0.212278  0.500000  1
