# generated using pymatgen
data_Pr5C2Br9
_symmetry_space_group_name_H-M   'P 1'
_cell_length_a   10.36139046
_cell_length_b   19.46911481
_cell_length_c   12.20761858
_cell_angle_alpha   90.00000000
_cell_angle_beta   124.32906005
_cell_angle_gamma   90.00000000
_symmetry_Int_Tables_number   1
_chemical_formula_structural   Pr5C2Br9
_chemical_formula_sum   'Pr20 C8 Br36'
_cell_volume   2033.65173952
_cell_formula_units_Z   4
loop_
 _symmetry_equiv_pos_site_id
 _symmetry_equiv_pos_as_xyz
  1  'x, y, z'
loop_
 _atom_site_type_symbol
 _atom_site_label
 _atom_site_symmetry_multiplicity
 _atom_site_fract_x
 _atom_site_fract_y
 _atom_site_fract_z
 _atom_site_occupancy
  Pr  Pr0  1  0.177402  0.416176  0.480234  1
  Pr  Pr1  1  0.822598  0.916176  0.019766  1
  Pr  Pr2  1  0.822598  0.583824  0.519766  1
  Pr  Pr3  1  0.177402  0.083824  0.980234  1
  Pr  Pr4  1  0.163405  0.232653  0.592273  1
  Pr  Pr5  1  0.836595  0.732653  0.907727  1
  Pr  Pr6  1  0.836595  0.767347  0.407727  1
  Pr  Pr7  1  0.163405  0.267347  0.092273  1
  Pr  Pr8  1  0.594307  0.277011  0.726958  1
  Pr  Pr9  1  0.405693  0.777011  0.773042  1
  Pr  Pr10  1  0.405693  0.722989  0.273042  1
  Pr  Pr11  1  0.594307  0.222989  0.226958  1
  Pr  Pr12  1  0.610785  0.474103  0.735296  1
  Pr  Pr13  1  0.389215  0.974103  0.764704  1
  Pr  Pr14  1  0.389215  0.525897  0.264704  1
  Pr  Pr15  1  0.610785  0.025897  0.235296  1
  Pr  Pr16  1  0.382912  0.382240  0.860337  1
  Pr  Pr17  1  0.617088  0.882240  0.639663  1
  Pr  Pr18  1  0.617088  0.617760  0.139663  1
  Pr  Pr19  1  0.382912  0.117760  0.360337  1
  C  C20  1  0.437380  0.382314  0.683084  1
  C  C21  1  0.562620  0.882314  0.816916  1
  C  C22  1  0.562620  0.617686  0.316916  1
  C  C23  1  0.437380  0.117686  0.183084  1
  C  C24  1  0.331964  0.325544  0.650506  1
  C  C25  1  0.668036  0.825544  0.849494  1
  C  C26  1  0.668036  0.674456  0.349494  1
  C  C27  1  0.331964  0.174456  0.150506  1
  Br  Br28  1  0.105672  0.469336  0.668990  1
  Br  Br29  1  0.894328  0.969336  0.831010  1
  Br  Br30  1  0.894328  0.530664  0.331010  1
  Br  Br31  1  0.105672  0.030664  0.168990  1
  Br  Br32  1  0.668190  0.027288  0.500406  1
  Br  Br33  1  0.331810  0.527288  0.999594  1
  Br  Br34  1  0.331810  0.972712  0.499594  1
  Br  Br35  1  0.668190  0.472712  0.000406  1
  Br  Br36  1  0.345784  0.549421  0.501272  1
  Br  Br37  1  0.654216  0.049421  0.998728  1
  Br  Br38  1  0.654216  0.450579  0.498728  1
  Br  Br39  1  0.345784  0.950579  0.001272  1
  Br  Br40  1  0.866300  0.372105  0.845539  1
  Br  Br41  1  0.133700  0.872105  0.654461  1
  Br  Br42  1  0.133700  0.627895  0.154461  1
  Br  Br43  1  0.866300  0.127895  0.345539  1
  Br  Br44  1  0.141270  0.410847  0.219604  1
  Br  Br45  1  0.858730  0.910847  0.280396  1
  Br  Br46  1  0.858730  0.589153  0.780396  1
  Br  Br47  1  0.141270  0.089153  0.719604  1
  Br  Br48  1  0.432761  0.139938  0.649842  1
  Br  Br49  1  0.567239  0.639938  0.850158  1
  Br  Br50  1  0.567239  0.860062  0.350158  1
  Br  Br51  1  0.432761  0.360062  0.149842  1
  Br  Br52  1  0.898501  0.177517  0.901637  1
  Br  Br53  1  0.101499  0.677517  0.598363  1
  Br  Br54  1  0.101499  0.822483  0.098363  1
  Br  Br55  1  0.898501  0.322483  0.401637  1
  Br  Br56  1  0.153417  0.226724  0.322390  1
  Br  Br57  1  0.846583  0.726724  0.177610  1
  Br  Br58  1  0.846583  0.773276  0.677610  1
  Br  Br59  1  0.153417  0.273276  0.822390  1
  Br  Br60  1  0.623860  0.234995  0.494015  1
  Br  Br61  1  0.376140  0.734995  0.005985  1
  Br  Br62  1  0.376140  0.765005  0.505985  1
  Br  Br63  1  0.623860  0.265005  0.994015  1
