# generated using pymatgen
data_Li2Sn3(P2O7)2
_symmetry_space_group_name_H-M   'P 1'
_cell_length_a   6.31813420
_cell_length_b   7.57583929
_cell_length_c   8.02219373
_cell_angle_alpha   103.50948487
_cell_angle_beta   97.92917241
_cell_angle_gamma   113.56436674
_symmetry_Int_Tables_number   1
_chemical_formula_structural   Li2Sn3(P2O7)2
_chemical_formula_sum   'Li2 Sn3 P4 O14'
_cell_volume   330.49564627
_cell_formula_units_Z   1
loop_
 _symmetry_equiv_pos_site_id
 _symmetry_equiv_pos_as_xyz
  1  'x, y, z'
loop_
 _atom_site_type_symbol
 _atom_site_label
 _atom_site_symmetry_multiplicity
 _atom_site_fract_x
 _atom_site_fract_y
 _atom_site_fract_z
 _atom_site_occupancy
  Li  Li0  1  0.284841  0.961889  0.695210  1
  Li  Li1  1  0.715159  0.038111  0.304790  1
  Sn  Sn2  1  0.000000  0.000000  0.000000  1
  Sn  Sn3  1  0.308791  0.525326  0.299008  1
  Sn  Sn4  1  0.691209  0.474674  0.700992  1
  P  P5  1  0.090857  0.265569  0.665431  1
  P  P6  1  0.352101  0.693755  0.931782  1
  P  P7  1  0.647899  0.306245  0.068218  1
  P  P8  1  0.909143  0.734431  0.334569  1
  O  O9  1  0.575183  0.719465  0.862841  1
  O  O10  1  0.302472  0.331735  0.578596  1
  O  O11  1  0.404273  0.738326  0.134851  1
  O  O12  1  0.065191  0.085414  0.729534  1
  O  O13  1  0.160977  0.453319  0.850258  1
  O  O14  1  0.140953  0.762363  0.450013  1
  O  O15  1  0.231036  0.814609  0.869761  1
  O  O16  1  0.768964  0.185391  0.130239  1
  O  O17  1  0.859047  0.237637  0.549987  1
  O  O18  1  0.839023  0.546681  0.149742  1
  O  O19  1  0.934809  0.914586  0.270466  1
  O  O20  1  0.595727  0.261674  0.865149  1
  O  O21  1  0.697528  0.668265  0.421404  1
  O  O22  1  0.424817  0.280535  0.137159  1
