# generated using pymatgen
data_ZnH12SeO10
_symmetry_space_group_name_H-M   'P 1'
_cell_length_a   6.98999654
_cell_length_b   6.98999654
_cell_length_c   18.90028895
_cell_angle_alpha   90.00000000
_cell_angle_beta   90.00000000
_cell_angle_gamma   90.00000000
_symmetry_Int_Tables_number   1
_chemical_formula_structural   ZnH12SeO10
_chemical_formula_sum   'Zn4 H48 Se4 O40'
_cell_volume   923.46909390
_cell_formula_units_Z   4
loop_
 _symmetry_equiv_pos_site_id
 _symmetry_equiv_pos_as_xyz
  1  'x, y, z'
loop_
 _atom_site_type_symbol
 _atom_site_label
 _atom_site_symmetry_multiplicity
 _atom_site_fract_x
 _atom_site_fract_y
 _atom_site_fract_z
 _atom_site_occupancy
  Zn  Zn0  1  0.216261  0.216261  0.000000  1
  Zn  Zn1  1  0.283739  0.716261  0.250000  1
  Zn  Zn2  1  0.716261  0.283739  0.750000  1
  Zn  Zn3  1  0.783739  0.783739  0.500000  1
  H  H4  1  0.719032  0.005360  0.382680  1
  H  H5  1  0.280968  0.994640  0.882680  1
  H  H6  1  0.005360  0.719032  0.617320  1
  H  H7  1  0.505360  0.780968  0.132680  1
  H  H8  1  0.494640  0.219032  0.632680  1
  H  H9  1  0.780968  0.505360  0.867320  1
  H  H10  1  0.219032  0.494640  0.367320  1
  H  H11  1  0.994640  0.280968  0.117320  1
  H  H12  1  0.525354  0.993678  0.430458  1
  H  H13  1  0.474646  0.006322  0.930458  1
  H  H14  1  0.993678  0.525354  0.569542  1
  H  H15  1  0.493678  0.974646  0.180458  1
  H  H16  1  0.506322  0.025354  0.680458  1
  H  H17  1  0.974646  0.493678  0.819542  1
  H  H18  1  0.025354  0.506322  0.319542  1
  H  H19  1  0.006322  0.474646  0.069542  1
  H  H20  1  0.621869  0.465552  0.439651  1
  H  H21  1  0.378131  0.534448  0.939651  1
  H  H22  1  0.465552  0.621869  0.560349  1
  H  H23  1  0.965552  0.878131  0.189651  1
  H  H24  1  0.034448  0.121869  0.689651  1
  H  H25  1  0.878131  0.965552  0.810349  1
  H  H26  1  0.121869  0.034448  0.310349  1
  H  H27  1  0.089503  0.857083  0.040135  1
  H  H28  1  0.845739  0.426404  0.457093  1
  H  H29  1  0.154261  0.573596  0.957093  1
  H  H30  1  0.426404  0.845739  0.542907  1
  H  H31  1  0.926404  0.654261  0.207093  1
  H  H32  1  0.073596  0.345739  0.707093  1
  H  H33  1  0.654261  0.926404  0.792907  1
  H  H34  1  0.345739  0.073596  0.292907  1
  H  H35  1  0.573596  0.154261  0.042907  1
  H  H36  1  0.075067  0.741891  0.405678  1
  H  H37  1  0.924933  0.258109  0.905678  1
  H  H38  1  0.741891  0.075067  0.594322  1
  H  H39  1  0.241891  0.424933  0.155678  1
  H  H40  1  0.758109  0.575067  0.655678  1
  H  H41  1  0.424933  0.241891  0.844322  1
  H  H42  1  0.575067  0.758109  0.344322  1
  H  H43  1  0.258109  0.924933  0.094322  1
  H  H44  1  0.142917  0.910497  0.459865  1
  H  H45  1  0.857083  0.089503  0.959865  1
  H  H46  1  0.910497  0.142917  0.540135  1
  H  H47  1  0.410497  0.357083  0.209865  1
  H  H48  1  0.589503  0.642917  0.709865  1
  H  H49  1  0.357083  0.410497  0.790135  1
  H  H50  1  0.642917  0.589503  0.290135  1
  H  H51  1  0.534448  0.378131  0.060349  1
  Se  Se52  1  0.712706  0.712706  0.000000  1
  Se  Se53  1  0.787294  0.212706  0.250000  1
  Se  Se54  1  0.212706  0.787294  0.750000  1
  Se  Se55  1  0.287294  0.287294  0.500000  1
  O  O56  1  0.326487  0.050439  0.492244  1
  O  O57  1  0.673513  0.949561  0.992244  1
  O  O58  1  0.050439  0.326487  0.507756  1
  O  O59  1  0.550439  0.173513  0.242244  1
  O  O60  1  0.449561  0.826487  0.742244  1
  O  O61  1  0.173513  0.550439  0.757756  1
  O  O62  1  0.826487  0.449561  0.257756  1
  O  O63  1  0.949561  0.673513  0.007756  1
  O  O64  1  0.375579  0.395026  0.427868  1
  O  O65  1  0.624421  0.604974  0.927868  1
  O  O66  1  0.395026  0.375579  0.572132  1
  O  O67  1  0.895026  0.124421  0.177868  1
  O  O68  1  0.104974  0.875579  0.677868  1
  O  O69  1  0.124421  0.895026  0.822132  1
  O  O70  1  0.875579  0.104974  0.322132  1
  O  O71  1  0.604974  0.624421  0.072132  1
  O  O72  1  0.634719  0.919381  0.411418  1
  O  O73  1  0.365281  0.080619  0.911418  1
  O  O74  1  0.919381  0.634719  0.588582  1
  O  O75  1  0.419381  0.865281  0.161418  1
  O  O76  1  0.580619  0.134719  0.661418  1
  O  O77  1  0.865281  0.419381  0.838582  1
  O  O78  1  0.134719  0.580619  0.338582  1
  O  O79  1  0.080619  0.365281  0.088582  1
  O  O80  1  0.183526  0.958932  0.051478  1
  O  O81  1  0.248874  0.475913  0.943373  1
  O  O82  1  0.524087  0.751126  0.556627  1
  O  O83  1  0.024087  0.748874  0.193373  1
  O  O84  1  0.975913  0.251126  0.693373  1
  O  O85  1  0.748874  0.024087  0.806627  1
  O  O86  1  0.251126  0.975913  0.306627  1
  O  O87  1  0.475913  0.248874  0.056627  1
  O  O88  1  0.041068  0.816474  0.448522  1
  O  O89  1  0.958932  0.183526  0.948522  1
  O  O90  1  0.816474  0.041068  0.551478  1
  O  O91  1  0.316474  0.458932  0.198522  1
  O  O92  1  0.683526  0.541068  0.698522  1
  O  O93  1  0.458932  0.316474  0.801478  1
  O  O94  1  0.541068  0.683526  0.301478  1
  O  O95  1  0.751126  0.524087  0.443373  1
