# generated using pymatgen
data_U(SiPt)2
_symmetry_space_group_name_H-M   'P 1'
_cell_length_a   4.18801060
_cell_length_b   4.18801060
_cell_length_c   9.91845566
_cell_angle_alpha   90.00000000
_cell_angle_beta   90.00000000
_cell_angle_gamma   90.00000000
_symmetry_Int_Tables_number   1
_chemical_formula_structural   U(SiPt)2
_chemical_formula_sum   'U2 Si4 Pt4'
_cell_volume   173.96408639
_cell_formula_units_Z   2
loop_
 _symmetry_equiv_pos_site_id
 _symmetry_equiv_pos_as_xyz
  1  'x, y, z'
loop_
 _atom_site_type_symbol
 _atom_site_label
 _atom_site_symmetry_multiplicity
 _atom_site_fract_x
 _atom_site_fract_y
 _atom_site_fract_z
 _atom_site_occupancy
  U  U0  1  0.000000  0.500000  0.253666  1
  U  U1  1  0.500000  0.000000  0.746334  1
  Si  Si2  1  0.000000  0.000000  0.500000  1
  Si  Si3  1  0.500000  0.500000  0.500000  1
  Si  Si4  1  0.000000  0.500000  0.864561  1
  Si  Si5  1  0.500000  0.000000  0.135439  1
  Pt  Pt6  1  0.000000  0.500000  0.623096  1
  Pt  Pt7  1  0.500000  0.000000  0.376904  1
  Pt  Pt8  1  0.000000  0.000000  0.000000  1
  Pt  Pt9  1  0.500000  0.500000  0.000000  1
