# generated using pymatgen
data_In5Cl9
_symmetry_space_group_name_H-M   'P 1'
_cell_length_a   9.47732264
_cell_length_b   9.47732264
_cell_length_c   9.47732264
_cell_angle_alpha   82.57390435
_cell_angle_beta   82.57390435
_cell_angle_gamma   82.57390435
_symmetry_Int_Tables_number   1
_chemical_formula_structural   In5Cl9
_chemical_formula_sum   'In10 Cl18'
_cell_volume   831.52921759
_cell_formula_units_Z   2
loop_
 _symmetry_equiv_pos_site_id
 _symmetry_equiv_pos_as_xyz
  1  'x, y, z'
loop_
 _atom_site_type_symbol
 _atom_site_label
 _atom_site_symmetry_multiplicity
 _atom_site_fract_x
 _atom_site_fract_y
 _atom_site_fract_z
 _atom_site_occupancy
  In  In0  1  0.848272  0.848272  0.848272  1
  In  In1  1  0.651728  0.651728  0.651728  1
  In  In2  1  0.151728  0.151728  0.151728  1
  In  In3  1  0.348272  0.348272  0.348272  1
  In  In4  1  0.080111  0.419889  0.750000  1
  In  In5  1  0.419889  0.750000  0.080111  1
  In  In6  1  0.750000  0.080111  0.419889  1
  In  In7  1  0.919889  0.580111  0.250000  1
  In  In8  1  0.580111  0.250000  0.919889  1
  In  In9  1  0.250000  0.919889  0.580111  1
  Cl  Cl10  1  0.228723  0.579860  0.415939  1
  Cl  Cl11  1  0.579860  0.415939  0.228723  1
  Cl  Cl12  1  0.415939  0.228723  0.579860  1
  Cl  Cl13  1  0.920140  0.271277  0.084061  1
  Cl  Cl14  1  0.271277  0.084061  0.920140  1
  Cl  Cl15  1  0.084061  0.920140  0.271277  1
  Cl  Cl16  1  0.771277  0.420140  0.584061  1
  Cl  Cl17  1  0.420140  0.584061  0.771277  1
  Cl  Cl18  1  0.584061  0.771277  0.420140  1
  Cl  Cl19  1  0.079860  0.728723  0.915939  1
  Cl  Cl20  1  0.906931  0.750000  0.593069  1
  Cl  Cl21  1  0.593069  0.906931  0.750000  1
  Cl  Cl22  1  0.750000  0.593069  0.906931  1
  Cl  Cl23  1  0.093069  0.250000  0.406931  1
  Cl  Cl24  1  0.406931  0.093069  0.250000  1
  Cl  Cl25  1  0.250000  0.406931  0.093069  1
  Cl  Cl26  1  0.915939  0.079860  0.728723  1
  Cl  Cl27  1  0.728723  0.915939  0.079860  1
