# generated using pymatgen
data_KMoPO6
_symmetry_space_group_name_H-M   'P 1'
_cell_length_a   10.05813342
_cell_length_b   9.67728878
_cell_length_c   8.49597489
_cell_angle_alpha   66.84274515
_cell_angle_beta   62.20422995
_cell_angle_gamma   50.95302489
_symmetry_Int_Tables_number   1
_chemical_formula_structural   KMoPO6
_chemical_formula_sum   'K4 Mo4 P4 O24'
_cell_volume   562.14745250
_cell_formula_units_Z   4
loop_
 _symmetry_equiv_pos_site_id
 _symmetry_equiv_pos_as_xyz
  1  'x, y, z'
loop_
 _atom_site_type_symbol
 _atom_site_label
 _atom_site_symmetry_multiplicity
 _atom_site_fract_x
 _atom_site_fract_y
 _atom_site_fract_z
 _atom_site_occupancy
  K  K0  1  0.279891  0.720109  0.720109  1
  K  K1  1  0.720109  0.279891  0.279891  1
  K  K2  1  0.970109  0.529891  0.529891  1
  K  K3  1  0.529891  0.970109  0.970109  1
  Mo  Mo4  1  0.220771  0.779229  0.220771  1
  Mo  Mo5  1  0.779229  0.220771  0.779229  1
  Mo  Mo6  1  0.029229  0.470771  0.029229  1
  Mo  Mo7  1  0.470771  0.029229  0.470771  1
  P  P8  1  0.115144  0.115144  0.384856  1
  P  P9  1  0.384856  0.384856  0.115144  1
  P  P10  1  0.134856  0.134856  0.865144  1
  P  P11  1  0.865144  0.865144  0.134856  1
  O  O12  1  0.182606  0.661102  0.433545  1
  O  O13  1  0.722747  0.433545  0.661102  1
  O  O14  1  0.433545  0.722747  0.182606  1
  O  O15  1  0.661102  0.182606  0.722747  1
  O  O16  1  0.067394  0.588898  0.816455  1
  O  O17  1  0.527253  0.816455  0.588898  1
  O  O18  1  0.816455  0.527253  0.067394  1
  O  O19  1  0.588898  0.067394  0.527253  1
  O  O20  1  0.299580  0.592227  0.090018  1
  O  O21  1  0.018175  0.090018  0.592227  1
  O  O22  1  0.090018  0.018175  0.299580  1
  O  O23  1  0.592227  0.299580  0.018175  1
  O  O24  1  0.357865  0.305925  0.314523  1
  O  O25  1  0.021688  0.314523  0.305925  1
  O  O26  1  0.314523  0.021688  0.357865  1
  O  O27  1  0.305925  0.357865  0.021688  1
  O  O28  1  0.892135  0.944075  0.935477  1
  O  O29  1  0.228312  0.935477  0.944075  1
  O  O30  1  0.935477  0.228312  0.892135  1
  O  O31  1  0.944075  0.892135  0.228312  1
  O  O32  1  0.657773  0.950420  0.231825  1
  O  O33  1  0.159982  0.231825  0.950420  1
  O  O34  1  0.231825  0.159982  0.657773  1
  O  O35  1  0.950420  0.657773  0.159982  1
