# generated using pymatgen
data_Cu5(PO5)2
_symmetry_space_group_name_H-M   'P 1'
_cell_length_a   5.34238652
_cell_length_b   5.36416275
_cell_length_c   7.72993994
_cell_angle_alpha   97.65132182
_cell_angle_beta   89.19620693
_cell_angle_gamma   112.43178174
_symmetry_Int_Tables_number   1
_chemical_formula_structural   Cu5(PO5)2
_chemical_formula_sum   'Cu5 P2 O10'
_cell_volume   202.77215444
_cell_formula_units_Z   1
loop_
 _symmetry_equiv_pos_site_id
 _symmetry_equiv_pos_as_xyz
  1  'x, y, z'
loop_
 _atom_site_type_symbol
 _atom_site_label
 _atom_site_symmetry_multiplicity
 _atom_site_fract_x
 _atom_site_fract_y
 _atom_site_fract_z
 _atom_site_occupancy
  Cu  Cu0  1  0.285397  0.622608  0.051813  1
  Cu  Cu1  1  0.714603  0.377392  0.948187  1
  Cu  Cu2  1  0.884205  0.749564  0.361197  1
  Cu  Cu3  1  0.115795  0.250436  0.638803  1
  Cu  Cu4  1  0.000000  0.000000  0.000000  1
  P  P5  1  0.551749  0.842296  0.713399  1
  P  P6  1  0.448251  0.157704  0.286601  1
  O  O7  1  0.953469  0.681943  0.115225  1
  O  O8  1  0.046531  0.318057  0.884775  1
  O  O9  1  0.492501  0.102839  0.763449  1
  O  O10  1  0.507499  0.897161  0.236551  1
  O  O11  1  0.625662  0.750688  0.886798  1
  O  O12  1  0.374338  0.249312  0.113202  1
  O  O13  1  0.306543  0.620124  0.614560  1
  O  O14  1  0.190620  0.098423  0.399105  1
  O  O15  1  0.809380  0.901577  0.600895  1
  O  O16  1  0.693457  0.379876  0.385440  1
