# generated using pymatgen
data_TcOF4
_symmetry_space_group_name_H-M   'P 1'
_cell_length_a   9.30694461
_cell_length_b   9.30694461
_cell_length_c   8.28903682
_cell_angle_alpha   90.00000000
_cell_angle_beta   90.00000000
_cell_angle_gamma   120.00000000
_symmetry_Int_Tables_number   1
_chemical_formula_structural   TcOF4
_chemical_formula_sum   'Tc6 O6 F24'
_cell_volume   621.79748221
_cell_formula_units_Z   6
loop_
 _symmetry_equiv_pos_site_id
 _symmetry_equiv_pos_as_xyz
  1  'x, y, z'
loop_
 _atom_site_type_symbol
 _atom_site_label
 _atom_site_symmetry_multiplicity
 _atom_site_fract_x
 _atom_site_fract_y
 _atom_site_fract_z
 _atom_site_occupancy
  Tc  Tc0  1  0.933750  0.603886  0.750000  1
  Tc  Tc1  1  0.329864  0.933750  0.250000  1
  Tc  Tc2  1  0.603886  0.670136  0.250000  1
  Tc  Tc3  1  0.396114  0.329864  0.750000  1
  Tc  Tc4  1  0.670136  0.066250  0.750000  1
  Tc  Tc5  1  0.066250  0.396114  0.250000  1
  O  O6  1  0.862678  0.317390  0.250000  1
  O  O7  1  0.137322  0.682610  0.750000  1
  O  O8  1  0.454712  0.137322  0.250000  1
  O  O9  1  0.682610  0.545288  0.250000  1
  O  O10  1  0.317390  0.454712  0.750000  1
  O  O11  1  0.545288  0.862678  0.750000  1
  F  F12  1  0.122282  0.421168  0.469719  1
  F  F13  1  0.877718  0.578832  0.969719  1
  F  F14  1  0.298886  0.877718  0.469719  1
  F  F15  1  0.578832  0.701114  0.469719  1
  F  F16  1  0.421168  0.298886  0.969719  1
  F  F17  1  0.701114  0.122282  0.969719  1
  F  F18  1  0.093988  0.211658  0.250000  1
  F  F19  1  0.882331  0.093988  0.750000  1
  F  F20  1  0.211658  0.117669  0.750000  1
  F  F21  1  0.788342  0.882331  0.250000  1
  F  F22  1  0.117669  0.906012  0.250000  1
  F  F23  1  0.906012  0.788342  0.750000  1
  F  F24  1  0.369028  0.515852  0.250000  1
  F  F25  1  0.853176  0.369028  0.750000  1
  F  F26  1  0.515852  0.146824  0.750000  1
  F  F27  1  0.484148  0.853176  0.250000  1
  F  F28  1  0.146824  0.630972  0.250000  1
  F  F29  1  0.630972  0.484148  0.750000  1
  F  F30  1  0.122282  0.421168  0.030281  1
  F  F31  1  0.701114  0.122282  0.530281  1
  F  F32  1  0.421168  0.298886  0.530281  1
  F  F33  1  0.578832  0.701114  0.030281  1
  F  F34  1  0.298886  0.877718  0.030281  1
  F  F35  1  0.877718  0.578832  0.530281  1
