# generated using pymatgen
data_La3ReO8
_symmetry_space_group_name_H-M   'P 1'
_cell_length_a   7.62210341
_cell_length_b   7.62210341
_cell_length_c   6.31916924
_cell_angle_alpha   90.00000000
_cell_angle_beta   90.00000000
_cell_angle_gamma   110.34427256
_symmetry_Int_Tables_number   1
_chemical_formula_structural   La3ReO8
_chemical_formula_sum   'La6 Re2 O16'
_cell_volume   344.22054646
_cell_formula_units_Z   2
loop_
 _symmetry_equiv_pos_site_id
 _symmetry_equiv_pos_as_xyz
  1  'x, y, z'
loop_
 _atom_site_type_symbol
 _atom_site_label
 _atom_site_symmetry_multiplicity
 _atom_site_fract_x
 _atom_site_fract_y
 _atom_site_fract_z
 _atom_site_occupancy
  La  La0  1  0.664186  0.888154  0.750000  1
  La  La1  1  0.335814  0.111846  0.250000  1
  La  La2  1  0.603213  0.396787  0.750000  1
  La  La3  1  0.396787  0.603213  0.250000  1
  La  La4  1  0.888154  0.664186  0.250000  1
  La  La5  1  0.111846  0.335814  0.750000  1
  Re  Re6  1  0.182512  0.817488  0.750000  1
  Re  Re7  1  0.817488  0.182512  0.250000  1
  O  O8  1  0.968213  0.031787  0.250000  1
  O  O9  1  0.031787  0.968213  0.750000  1
  O  O10  1  0.589671  0.965260  0.250000  1
  O  O11  1  0.410329  0.034740  0.750000  1
  O  O12  1  0.663891  0.336109  0.250000  1
  O  O13  1  0.336109  0.663891  0.750000  1
  O  O14  1  0.034740  0.410329  0.250000  1
  O  O15  1  0.965260  0.589671  0.750000  1
  O  O16  1  0.333845  0.333845  0.000000  1
  O  O17  1  0.666155  0.666155  0.500000  1
  O  O18  1  0.666155  0.666155  0.000000  1
  O  O19  1  0.333845  0.333845  0.500000  1
  O  O20  1  0.807038  0.192962  0.951749  1
  O  O21  1  0.192962  0.807038  0.451749  1
  O  O22  1  0.192962  0.807038  0.048251  1
  O  O23  1  0.807038  0.192962  0.548251  1
