# generated using pymatgen
data_GeP2O7
_symmetry_space_group_name_H-M   'P 1'
_cell_length_a   4.72744257
_cell_length_b   6.81507082
_cell_length_c   7.88031324
_cell_angle_alpha   91.59908140
_cell_angle_beta   92.84719863
_cell_angle_gamma   105.30202846
_symmetry_Int_Tables_number   1
_chemical_formula_structural   GeP2O7
_chemical_formula_sum   'Ge2 P4 O14'
_cell_volume   244.36195689
_cell_formula_units_Z   2
loop_
 _symmetry_equiv_pos_site_id
 _symmetry_equiv_pos_as_xyz
  1  'x, y, z'
loop_
 _atom_site_type_symbol
 _atom_site_label
 _atom_site_symmetry_multiplicity
 _atom_site_fract_x
 _atom_site_fract_y
 _atom_site_fract_z
 _atom_site_occupancy
  Ge  Ge0  1  0.500000  0.500000  0.500000  1
  Ge  Ge1  1  0.000000  0.000000  0.000000  1
  P  P2  1  0.888161  0.254222  0.310287  1
  P  P3  1  0.111839  0.745778  0.689713  1
  P  P4  1  0.480837  0.860842  0.236422  1
  P  P5  1  0.519163  0.139158  0.763578  1
  O  O6  1  0.207474  0.933188  0.191752  1
  O  O7  1  0.792526  0.066812  0.808248  1
  O  O8  1  0.153337  0.294956  0.437792  1
  O  O9  1  0.846663  0.705044  0.562208  1
  O  O10  1  0.695615  0.033415  0.361801  1
  O  O11  1  0.304385  0.966585  0.638199  1
  O  O12  1  0.300481  0.595733  0.675042  1
  O  O13  1  0.699519  0.404267  0.324958  1
  O  O14  1  0.612858  0.327953  0.659575  1
  O  O15  1  0.387142  0.672047  0.340425  1
  O  O16  1  0.041161  0.765256  0.876601  1
  O  O17  1  0.958839  0.234744  0.123399  1
  O  O18  1  0.350786  0.168271  0.919522  1
  O  O19  1  0.649214  0.831729  0.080478  1
