# generated using pymatgen
data_LiSnP2O7
_symmetry_space_group_name_H-M   'P 1'
_cell_length_a   5.12009578
_cell_length_b   6.66481328
_cell_length_c   9.67812782
_cell_angle_alpha   109.67932082
_cell_angle_beta   91.52698338
_cell_angle_gamma   109.33056570
_symmetry_Int_Tables_number   1
_chemical_formula_structural   LiSnP2O7
_chemical_formula_sum   'Li2 Sn2 P4 O14'
_cell_volume   289.87291957
_cell_formula_units_Z   2
loop_
 _symmetry_equiv_pos_site_id
 _symmetry_equiv_pos_as_xyz
  1  'x, y, z'
loop_
 _atom_site_type_symbol
 _atom_site_label
 _atom_site_symmetry_multiplicity
 _atom_site_fract_x
 _atom_site_fract_y
 _atom_site_fract_z
 _atom_site_occupancy
  Li  Li0  1  0.059685  0.288432  0.040903  1
  Li  Li1  1  0.940315  0.711568  0.959097  1
  Sn  Sn2  1  0.147521  0.784854  0.336302  1
  Sn  Sn3  1  0.852479  0.215146  0.663698  1
  P  P4  1  0.289410  0.292895  0.378690  1
  P  P5  1  0.502576  0.695823  0.140571  1
  P  P6  1  0.497424  0.304177  0.859429  1
  P  P7  1  0.710590  0.707105  0.621310  1
  O  O8  1  0.084277  0.398920  0.405724  1
  O  O9  1  0.146681  0.141802  0.275311  1
  O  O10  1  0.291079  0.602267  0.024172  1
  O  O11  1  0.439901  0.174535  0.525366  1
  O  O12  1  0.187573  0.214720  0.882398  1
  O  O13  1  0.591003  0.133593  0.822235  1
  O  O14  1  0.525304  0.493457  0.295814  1
  O  O15  1  0.474696  0.506543  0.704186  1
  O  O16  1  0.408997  0.866407  0.177765  1
  O  O17  1  0.812427  0.785280  0.117602  1
  O  O18  1  0.560099  0.825465  0.474634  1
  O  O19  1  0.708921  0.397733  0.975828  1
  O  O20  1  0.853319  0.858198  0.724689  1
  O  O21  1  0.915723  0.601080  0.594276  1
