# generated using pymatgen
data_TaClF8
_symmetry_space_group_name_H-M   'P 1'
_cell_length_a   5.99590671
_cell_length_b   10.10596645
_cell_length_c   11.00480165
_cell_angle_alpha   90.00000000
_cell_angle_beta   90.00000000
_cell_angle_gamma   90.00000000
_symmetry_Int_Tables_number   1
_chemical_formula_structural   TaClF8
_chemical_formula_sum   'Ta4 Cl4 F32'
_cell_volume   666.82970579
_cell_formula_units_Z   4
loop_
 _symmetry_equiv_pos_site_id
 _symmetry_equiv_pos_as_xyz
  1  'x, y, z'
loop_
 _atom_site_type_symbol
 _atom_site_label
 _atom_site_symmetry_multiplicity
 _atom_site_fract_x
 _atom_site_fract_y
 _atom_site_fract_z
 _atom_site_occupancy
  Ta  Ta0  1  0.383782  0.500000  0.750000  1
  Ta  Ta1  1  0.616218  0.000000  0.750000  1
  Ta  Ta2  1  0.616218  0.500000  0.250000  1
  Ta  Ta3  1  0.383782  0.000000  0.250000  1
  Cl  Cl4  1  0.000000  0.750000  0.548677  1
  Cl  Cl5  1  0.000000  0.250000  0.951323  1
  Cl  Cl6  1  0.000000  0.250000  0.451323  1
  Cl  Cl7  1  0.000000  0.750000  0.048677  1
  F  F8  1  0.111239  0.348078  0.051435  1
  F  F9  1  0.111239  0.651922  0.448565  1
  F  F10  1  0.888761  0.848078  0.448565  1
  F  F11  1  0.888761  0.151922  0.051435  1
  F  F12  1  0.888761  0.651922  0.948565  1
  F  F13  1  0.888761  0.348078  0.551435  1
  F  F14  1  0.111239  0.151922  0.551435  1
  F  F15  1  0.111239  0.848078  0.948565  1
  F  F16  1  0.601355  0.886447  0.184291  1
  F  F17  1  0.601355  0.113553  0.315709  1
  F  F18  1  0.398645  0.386447  0.315709  1
  F  F19  1  0.398645  0.613553  0.184291  1
  F  F20  1  0.398645  0.113553  0.815709  1
  F  F21  1  0.398645  0.886447  0.684291  1
  F  F22  1  0.601355  0.613553  0.684291  1
  F  F23  1  0.601355  0.386447  0.815709  1
  F  F24  1  0.139754  0.883053  0.184764  1
  F  F25  1  0.139754  0.116947  0.315236  1
  F  F26  1  0.860246  0.383053  0.315236  1
  F  F27  1  0.860246  0.616947  0.184764  1
  F  F28  1  0.860246  0.116947  0.815236  1
  F  F29  1  0.860246  0.883053  0.684764  1
  F  F30  1  0.139754  0.616947  0.684764  1
  F  F31  1  0.139754  0.383053  0.815236  1
  F  F32  1  0.356609  0.099088  0.103440  1
  F  F33  1  0.356609  0.900912  0.396560  1
  F  F34  1  0.643391  0.599088  0.396560  1
  F  F35  1  0.643391  0.400912  0.103440  1
  F  F36  1  0.643391  0.900912  0.896560  1
  F  F37  1  0.643391  0.099088  0.603440  1
  F  F38  1  0.356609  0.400912  0.603440  1
  F  F39  1  0.356609  0.599088  0.896560  1
