# generated using pymatgen
data_Ba3(GeN)2
_symmetry_space_group_name_H-M   'P 1'
_cell_length_a   9.72566641
_cell_length_b   4.10656791
_cell_length_c   10.23605915
_cell_angle_alpha   90.00000000
_cell_angle_beta   113.65574717
_cell_angle_gamma   90.00000000
_symmetry_Int_Tables_number   1
_chemical_formula_structural   Ba3(GeN)2
_chemical_formula_sum   'Ba6 Ge4 N4'
_cell_volume   374.46715162
_cell_formula_units_Z   2
loop_
 _symmetry_equiv_pos_site_id
 _symmetry_equiv_pos_as_xyz
  1  'x, y, z'
loop_
 _atom_site_type_symbol
 _atom_site_label
 _atom_site_symmetry_multiplicity
 _atom_site_fract_x
 _atom_site_fract_y
 _atom_site_fract_z
 _atom_site_occupancy
  Ba  Ba0  1  0.027195  0.750000  0.173231  1
  Ba  Ba1  1  0.972805  0.250000  0.826769  1
  Ba  Ba2  1  0.614200  0.750000  0.856419  1
  Ba  Ba3  1  0.385800  0.250000  0.143581  1
  Ba  Ba4  1  0.812659  0.750000  0.440934  1
  Ba  Ba5  1  0.187341  0.250000  0.559066  1
  Ge  Ge6  1  0.752792  0.250000  0.152689  1
  Ge  Ge7  1  0.578880  0.250000  0.555055  1
  Ge  Ge8  1  0.247208  0.750000  0.847311  1
  Ge  Ge9  1  0.421120  0.750000  0.444945  1
  N  N10  1  0.182007  0.750000  0.999209  1
  N  N11  1  0.817993  0.250000  0.000791  1
  N  N12  1  0.071014  0.750000  0.676033  1
  N  N13  1  0.928986  0.250000  0.323967  1
