# generated using pymatgen
data_CrP
_symmetry_space_group_name_H-M   'P 1'
_cell_length_a   3.06317917
_cell_length_b   5.33456390
_cell_length_c   5.94818906
_cell_angle_alpha   90.00000000
_cell_angle_beta   90.00000000
_cell_angle_gamma   90.00000000
_symmetry_Int_Tables_number   1
_chemical_formula_structural   CrP
_chemical_formula_sum   'Cr4 P4'
_cell_volume   97.19772179
_cell_formula_units_Z   4
loop_
 _symmetry_equiv_pos_site_id
 _symmetry_equiv_pos_as_xyz
  1  'x, y, z'
loop_
 _atom_site_type_symbol
 _atom_site_label
 _atom_site_symmetry_multiplicity
 _atom_site_fract_x
 _atom_site_fract_y
 _atom_site_fract_z
 _atom_site_occupancy
  Cr  Cr0  1  0.250000  0.508853  0.690077  1
  Cr  Cr1  1  0.750000  0.491147  0.309923  1
  Cr  Cr2  1  0.250000  0.008853  0.809923  1
  Cr  Cr3  1  0.750000  0.991147  0.190077  1
  P  P4  1  0.250000  0.682683  0.064446  1
  P  P5  1  0.750000  0.317317  0.935554  1
  P  P6  1  0.250000  0.182683  0.435554  1
  P  P7  1  0.750000  0.817317  0.564446  1
