# generated using pymatgen
data_Sr2InPt2
_symmetry_space_group_name_H-M   'P 1'
_cell_length_a   6.05844483
_cell_length_b   6.05844483
_cell_length_c   8.35545541
_cell_angle_alpha   78.52788888
_cell_angle_beta   101.47211112
_cell_angle_gamma   119.99964168
_symmetry_Int_Tables_number   1
_chemical_formula_structural   Sr2InPt2
_chemical_formula_sum   'Sr4 In2 Pt4'
_cell_volume   258.49872236
_cell_formula_units_Z   2
loop_
 _symmetry_equiv_pos_site_id
 _symmetry_equiv_pos_as_xyz
  1  'x, y, z'
loop_
 _atom_site_type_symbol
 _atom_site_label
 _atom_site_symmetry_multiplicity
 _atom_site_fract_x
 _atom_site_fract_y
 _atom_site_fract_z
 _atom_site_occupancy
  Sr  Sr0  1  0.210111  0.505941  0.352911  1
  Sr  Sr1  1  0.505941  0.210111  0.147089  1
  Sr  Sr2  1  0.789889  0.494059  0.647089  1
  Sr  Sr3  1  0.494059  0.789889  0.852911  1
  In  In4  1  0.867289  0.867289  0.250000  1
  In  In5  1  0.132711  0.132711  0.750000  1
  Pt  Pt6  1  0.000684  0.277837  0.997529  1
  Pt  Pt7  1  0.277837  0.000684  0.502471  1
  Pt  Pt8  1  0.999316  0.722163  0.002471  1
  Pt  Pt9  1  0.722163  0.999316  0.497529  1
