# generated using pymatgen
data_IrS3Cl11
_symmetry_space_group_name_H-M   'P 1'
_cell_length_a   8.54377447
_cell_length_b   13.90680415
_cell_length_c   15.95361438
_cell_angle_alpha   90.00000000
_cell_angle_beta   106.21818029
_cell_angle_gamma   90.00000000
_symmetry_Int_Tables_number   1
_chemical_formula_structural   IrS3Cl11
_chemical_formula_sum   'Ir4 S12 Cl44'
_cell_volume   1820.12082412
_cell_formula_units_Z   4
loop_
 _symmetry_equiv_pos_site_id
 _symmetry_equiv_pos_as_xyz
  1  'x, y, z'
loop_
 _atom_site_type_symbol
 _atom_site_label
 _atom_site_symmetry_multiplicity
 _atom_site_fract_x
 _atom_site_fract_y
 _atom_site_fract_z
 _atom_site_occupancy
  Ir  Ir0  1  0.102349  0.591848  0.804038  1
  Ir  Ir1  1  0.897651  0.091848  0.695962  1
  Ir  Ir2  1  0.897651  0.408152  0.195962  1
  Ir  Ir3  1  0.102349  0.908152  0.304038  1
  S  S4  1  0.374038  0.761542  0.935985  1
  S  S5  1  0.625962  0.261542  0.564015  1
  S  S6  1  0.625962  0.238458  0.064015  1
  S  S7  1  0.374038  0.738458  0.435985  1
  S  S8  1  0.062907  0.477456  0.124921  1
  S  S9  1  0.937093  0.977456  0.375079  1
  S  S10  1  0.127410  0.458370  0.731308  1
  S  S11  1  0.872590  0.958370  0.768692  1
  S  S12  1  0.872590  0.541630  0.268692  1
  S  S13  1  0.127410  0.041630  0.231308  1
  S  S14  1  0.937093  0.522544  0.875079  1
  S  S15  1  0.062907  0.022544  0.624921  1
  Cl  Cl16  1  0.898251  0.637780  0.676990  1
  Cl  Cl17  1  0.686458  0.438827  0.063984  1
  Cl  Cl18  1  0.686458  0.061173  0.563984  1
  Cl  Cl19  1  0.313542  0.561173  0.936016  1
  Cl  Cl20  1  0.302917  0.816183  0.261520  1
  Cl  Cl21  1  0.697083  0.316183  0.238480  1
  Cl  Cl22  1  0.697083  0.183817  0.738480  1
  Cl  Cl23  1  0.302917  0.683817  0.761520  1
  Cl  Cl24  1  0.335878  0.116433  0.291136  1
  Cl  Cl25  1  0.664122  0.616433  0.208864  1
  Cl  Cl26  1  0.664122  0.883567  0.708864  1
  Cl  Cl27  1  0.335878  0.383567  0.791136  1
  Cl  Cl28  1  0.175964  0.008375  0.115553  1
  Cl  Cl29  1  0.824036  0.508375  0.384447  1
  Cl  Cl30  1  0.824036  0.991625  0.884447  1
  Cl  Cl31  1  0.313542  0.938827  0.436016  1
  Cl  Cl32  1  0.693931  0.954303  0.316033  1
  Cl  Cl33  1  0.306069  0.454303  0.183967  1
  Cl  Cl34  1  0.306069  0.045697  0.683967  1
  Cl  Cl35  1  0.693931  0.545697  0.816033  1
  Cl  Cl36  1  0.949563  0.124822  0.366124  1
  Cl  Cl37  1  0.050437  0.624822  0.133876  1
  Cl  Cl38  1  0.050437  0.875178  0.633876  1
  Cl  Cl39  1  0.949563  0.375178  0.866124  1
  Cl  Cl40  1  0.346823  0.596370  0.394472  1
  Cl  Cl41  1  0.653177  0.096370  0.105528  1
  Cl  Cl42  1  0.653177  0.403630  0.605528  1
  Cl  Cl43  1  0.346823  0.903630  0.894472  1
  Cl  Cl44  1  0.364087  0.718751  0.562468  1
  Cl  Cl45  1  0.635913  0.218751  0.937532  1
  Cl  Cl46  1  0.635913  0.281249  0.437532  1
  Cl  Cl47  1  0.364087  0.781249  0.062468  1
  Cl  Cl48  1  0.622720  0.751082  0.458789  1
  Cl  Cl49  1  0.377280  0.251082  0.041211  1
  Cl  Cl50  1  0.377280  0.248918  0.541211  1
  Cl  Cl51  1  0.622720  0.748918  0.958789  1
  Cl  Cl52  1  0.101749  0.362220  0.323010  1
  Cl  Cl53  1  0.898251  0.862220  0.176990  1
  Cl  Cl54  1  0.037997  0.732339  0.877501  1
  Cl  Cl55  1  0.962003  0.232339  0.622499  1
  Cl  Cl56  1  0.962003  0.267661  0.122499  1
  Cl  Cl57  1  0.037997  0.767661  0.377501  1
  Cl  Cl58  1  0.175964  0.491625  0.615553  1
  Cl  Cl59  1  0.101749  0.137780  0.823010  1
