# generated using pymatgen
data_FeCoH18(NCl)6
_symmetry_space_group_name_H-M   'P 1'
_cell_length_a   11.39968289
_cell_length_b   11.39968289
_cell_length_c   11.39968289
_cell_angle_alpha   90.00000000
_cell_angle_beta   90.00000000
_cell_angle_gamma   90.00000000
_symmetry_Int_Tables_number   1
_chemical_formula_structural   FeCoH18(NCl)6
_chemical_formula_sum   'Fe4 Co4 H72 N24 Cl24'
_cell_volume   1481.42036859
_cell_formula_units_Z   4
loop_
 _symmetry_equiv_pos_site_id
 _symmetry_equiv_pos_as_xyz
  1  'x, y, z'
loop_
 _atom_site_type_symbol
 _atom_site_label
 _atom_site_symmetry_multiplicity
 _atom_site_fract_x
 _atom_site_fract_y
 _atom_site_fract_z
 _atom_site_occupancy
  Fe  Fe0  1  0.000000  0.000000  0.000000  1
  Fe  Fe1  1  0.500000  0.000000  0.500000  1
  Fe  Fe2  1  0.500000  0.500000  0.000000  1
  Fe  Fe3  1  0.000000  0.500000  0.500000  1
  Co  Co4  1  0.500000  0.500000  0.500000  1
  Co  Co5  1  0.000000  0.500000  0.000000  1
  Co  Co6  1  0.000000  0.000000  0.500000  1
  Co  Co7  1  0.500000  0.000000  0.000000  1
  H  H8  1  0.099284  0.633059  0.148952  1
  H  H9  1  0.599284  0.866941  0.851048  1
  H  H10  1  0.900716  0.133059  0.351048  1
  H  H11  1  0.866941  0.851048  0.599284  1
  H  H12  1  0.351048  0.900716  0.133059  1
  H  H13  1  0.851048  0.599284  0.866941  1
  H  H14  1  0.633059  0.148952  0.099284  1
  H  H15  1  0.148952  0.099284  0.633059  1
  H  H16  1  0.133059  0.351048  0.900716  1
  H  H17  1  0.366941  0.648952  0.400716  1
  H  H18  1  0.648952  0.400716  0.366941  1
  H  H19  1  0.400716  0.366941  0.648952  1
  H  H20  1  0.900716  0.366941  0.851048  1
  H  H21  1  0.400716  0.133059  0.148952  1
  H  H22  1  0.099284  0.866941  0.648952  1
  H  H23  1  0.133059  0.148952  0.400716  1
  H  H24  1  0.648952  0.099284  0.866941  1
  H  H25  1  0.148952  0.400716  0.133059  1
  H  H26  1  0.366941  0.851048  0.900716  1
  H  H27  1  0.851048  0.900716  0.366941  1
  H  H28  1  0.866941  0.648952  0.099284  1
  H  H29  1  0.633059  0.351048  0.599284  1
  H  H30  1  0.351048  0.599284  0.633059  1
  H  H31  1  0.599284  0.633059  0.351048  1
  H  H32  1  0.184784  0.625644  0.031195  1
  H  H33  1  0.684784  0.874356  0.968805  1
  H  H34  1  0.815216  0.125644  0.468805  1
  H  H35  1  0.874356  0.968805  0.684784  1
  H  H36  1  0.468805  0.815216  0.125644  1
  H  H37  1  0.968805  0.684784  0.874356  1
  H  H38  1  0.625644  0.031195  0.184784  1
  H  H39  1  0.211736  0.468290  0.930277  1
  H  H40  1  0.031195  0.184784  0.625644  1
  H  H41  1  0.374356  0.531195  0.315216  1
  H  H42  1  0.531195  0.315216  0.374356  1
  H  H43  1  0.315216  0.374356  0.531195  1
  H  H44  1  0.815216  0.374356  0.968805  1
  H  H45  1  0.315216  0.125644  0.031195  1
  H  H46  1  0.184784  0.874356  0.531195  1
  H  H47  1  0.125644  0.031195  0.315216  1
  H  H48  1  0.531195  0.184784  0.874356  1
  H  H49  1  0.031195  0.315216  0.125644  1
  H  H50  1  0.374356  0.968805  0.815216  1
  H  H51  1  0.968805  0.815216  0.374356  1
  H  H52  1  0.874356  0.531195  0.184784  1
  H  H53  1  0.625644  0.468805  0.684784  1
  H  H54  1  0.468805  0.684784  0.625644  1
  H  H55  1  0.684784  0.625644  0.468805  1
  H  H56  1  0.069723  0.711736  0.031710  1
  H  H57  1  0.569723  0.788264  0.968290  1
  H  H58  1  0.930277  0.211736  0.468290  1
  H  H59  1  0.788264  0.968290  0.569723  1
  H  H60  1  0.468290  0.930277  0.211736  1
  H  H61  1  0.968290  0.569723  0.788264  1
  H  H62  1  0.711736  0.031710  0.069723  1
  H  H63  1  0.031710  0.069723  0.711736  1
  H  H64  1  0.569723  0.711736  0.468290  1
  H  H65  1  0.468290  0.569723  0.711736  1
  H  H66  1  0.711736  0.468290  0.569723  1
  H  H67  1  0.788264  0.531710  0.069723  1
  H  H68  1  0.968290  0.930277  0.288264  1
  H  H69  1  0.288264  0.968290  0.930277  1
  H  H70  1  0.031710  0.430277  0.211736  1
  H  H71  1  0.531710  0.069723  0.788264  1
  H  H72  1  0.211736  0.031710  0.430277  1
  H  H73  1  0.069723  0.788264  0.531710  1
  H  H74  1  0.430277  0.211736  0.031710  1
  H  H75  1  0.930277  0.288264  0.968290  1
  H  H76  1  0.430277  0.288264  0.531710  1
  H  H77  1  0.531710  0.430277  0.288264  1
  H  H78  1  0.288264  0.531710  0.430277  1
  H  H79  1  0.125644  0.468805  0.815216  1
  N  N80  1  0.098540  0.630493  0.058467  1
  N  N81  1  0.598540  0.869507  0.941533  1
  N  N82  1  0.901460  0.130493  0.441533  1
  N  N83  1  0.869507  0.941533  0.598540  1
  N  N84  1  0.441533  0.901460  0.130493  1
  N  N85  1  0.941533  0.598540  0.869507  1
  N  N86  1  0.630493  0.058467  0.098540  1
  N  N87  1  0.058467  0.098540  0.630493  1
  N  N88  1  0.130493  0.441533  0.901460  1
  N  N89  1  0.369507  0.558467  0.401460  1
  N  N90  1  0.558467  0.401460  0.369507  1
  N  N91  1  0.401460  0.369507  0.558467  1
  N  N92  1  0.901460  0.369507  0.941533  1
  N  N93  1  0.401460  0.130493  0.058467  1
  N  N94  1  0.098540  0.869507  0.558467  1
  N  N95  1  0.130493  0.058467  0.401460  1
  N  N96  1  0.558467  0.098540  0.869507  1
  N  N97  1  0.058467  0.401460  0.130493  1
  N  N98  1  0.369507  0.941533  0.901460  1
  N  N99  1  0.941533  0.901460  0.369507  1
  N  N100  1  0.869507  0.558467  0.098540  1
  N  N101  1  0.630493  0.441533  0.598540  1
  N  N102  1  0.441533  0.598540  0.630493  1
  N  N103  1  0.598540  0.630493  0.441533  1
  Cl  Cl104  1  0.429283  0.134428  0.352192  1
  Cl  Cl105  1  0.929283  0.365572  0.647808  1
  Cl  Cl106  1  0.570717  0.634428  0.147808  1
  Cl  Cl107  1  0.365572  0.647808  0.929283  1
  Cl  Cl108  1  0.929283  0.134428  0.147808  1
  Cl  Cl109  1  0.647808  0.929283  0.365572  1
  Cl  Cl110  1  0.134428  0.352192  0.429283  1
  Cl  Cl111  1  0.352192  0.429283  0.134428  1
  Cl  Cl112  1  0.634428  0.147808  0.570717  1
  Cl  Cl113  1  0.865572  0.852192  0.070717  1
  Cl  Cl114  1  0.852192  0.070717  0.865572  1
  Cl  Cl115  1  0.070717  0.865572  0.852192  1
  Cl  Cl116  1  0.570717  0.865572  0.647808  1
  Cl  Cl117  1  0.070717  0.634428  0.352192  1
  Cl  Cl118  1  0.429283  0.365572  0.852192  1
  Cl  Cl119  1  0.634428  0.352192  0.070717  1
  Cl  Cl120  1  0.852192  0.429283  0.365572  1
  Cl  Cl121  1  0.352192  0.070717  0.634428  1
  Cl  Cl122  1  0.865572  0.647808  0.570717  1
  Cl  Cl123  1  0.647808  0.570717  0.865572  1
  Cl  Cl124  1  0.365572  0.852192  0.429283  1
  Cl  Cl125  1  0.134428  0.147808  0.929283  1
  Cl  Cl126  1  0.147808  0.929283  0.134428  1
  Cl  Cl127  1  0.147808  0.570717  0.634428  1
