# generated using pymatgen
data_Sc5Re2C7
_symmetry_space_group_name_H-M   'P 1'
_cell_length_a   7.89308406
_cell_length_b   7.89308406
_cell_length_c   3.21922331
_cell_angle_alpha   90.00000000
_cell_angle_beta   90.00000000
_cell_angle_gamma   120.67495011
_symmetry_Int_Tables_number   1
_chemical_formula_structural   Sc5Re2C7
_chemical_formula_sum   'Sc5 Re2 C7'
_cell_volume   172.49681700
_cell_formula_units_Z   1
loop_
 _symmetry_equiv_pos_site_id
 _symmetry_equiv_pos_as_xyz
  1  'x, y, z'
loop_
 _atom_site_type_symbol
 _atom_site_label
 _atom_site_symmetry_multiplicity
 _atom_site_fract_x
 _atom_site_fract_y
 _atom_site_fract_z
 _atom_site_occupancy
  Sc  Sc0  1  0.083292  0.338603  0.500000  1
  Sc  Sc1  1  0.338603  0.083292  0.500000  1
  Sc  Sc2  1  0.500000  0.500000  1.000000  1
  Sc  Sc3  1  0.916708  0.661397  0.500000  1
  Sc  Sc4  1  0.661397  0.916708  0.500000  1
  Re  Re5  1  0.715318  0.284682  0.000000  1
  Re  Re6  1  0.284682  0.715318  0.000000  1
  C  C7  1  0.000000  0.000000  0.000000  1
  C  C8  1  0.000000  0.500000  0.000000  1
  C  C9  1  0.500000  0.000000  1.000000  1
  C  C10  1  0.173490  0.173490  1.000000  1
  C  C11  1  0.826510  0.826510  0.000000  1
  C  C12  1  0.618773  0.381227  0.500000  1
  C  C13  1  0.381227  0.618773  0.500000  1
