# generated using pymatgen
data_TiFeO3
_symmetry_space_group_name_H-M   'P 1'
_cell_length_a   5.23280171
_cell_length_b   5.29105917
_cell_length_c   7.54040129
_cell_angle_alpha   90.00000000
_cell_angle_beta   90.00000000
_cell_angle_gamma   90.00000000
_symmetry_Int_Tables_number   1
_chemical_formula_structural   TiFeO3
_chemical_formula_sum   'Ti4 Fe4 O12'
_cell_volume   208.77156912
_cell_formula_units_Z   4
loop_
 _symmetry_equiv_pos_site_id
 _symmetry_equiv_pos_as_xyz
  1  'x, y, z'
loop_
 _atom_site_type_symbol
 _atom_site_label
 _atom_site_symmetry_multiplicity
 _atom_site_fract_x
 _atom_site_fract_y
 _atom_site_fract_z
 _atom_site_occupancy
  Ti  Ti0  1  0.500000  0.000000  0.000000  1
  Ti  Ti1  1  0.000000  0.500000  0.000000  1
  Ti  Ti2  1  0.000000  0.500000  0.500000  1
  Ti  Ti3  1  0.500000  0.000000  0.500000  1
  Fe  Fe4  1  0.992010  0.960447  0.750000  1
  Fe  Fe5  1  0.492010  0.539553  0.250000  1
  Fe  Fe6  1  0.507990  0.460447  0.750000  1
  Fe  Fe7  1  0.007990  0.039553  0.250000  1
  O  O8  1  0.823190  0.818097  0.443283  1
  O  O9  1  0.176810  0.181903  0.556717  1
  O  O10  1  0.823190  0.818097  0.056717  1
  O  O11  1  0.323190  0.681903  0.943283  1
  O  O12  1  0.105246  0.443235  0.250000  1
  O  O13  1  0.605246  0.056765  0.750000  1
  O  O14  1  0.394754  0.943235  0.250000  1
  O  O15  1  0.323190  0.681903  0.556717  1
  O  O16  1  0.676810  0.318097  0.056717  1
  O  O17  1  0.176810  0.181903  0.943283  1
  O  O18  1  0.894754  0.556765  0.750000  1
  O  O19  1  0.676810  0.318097  0.443283  1
