# generated using pymatgen
data_NdSnPd
_symmetry_space_group_name_H-M   'P 1'
_cell_length_a   4.71775664
_cell_length_b   7.52856631
_cell_length_c   8.06184590
_cell_angle_alpha   90.00000000
_cell_angle_beta   90.00000000
_cell_angle_gamma   90.00000000
_symmetry_Int_Tables_number   1
_chemical_formula_structural   NdSnPd
_chemical_formula_sum   'Nd4 Sn4 Pd4'
_cell_volume   286.34018878
_cell_formula_units_Z   4
loop_
 _symmetry_equiv_pos_site_id
 _symmetry_equiv_pos_as_xyz
  1  'x, y, z'
loop_
 _atom_site_type_symbol
 _atom_site_label
 _atom_site_symmetry_multiplicity
 _atom_site_fract_x
 _atom_site_fract_y
 _atom_site_fract_z
 _atom_site_occupancy
  Nd  Nd0  1  0.250000  0.487851  0.701653  1
  Nd  Nd1  1  0.750000  0.512149  0.298347  1
  Nd  Nd2  1  0.250000  0.987851  0.798347  1
  Nd  Nd3  1  0.750000  0.012149  0.201653  1
  Sn  Sn4  1  0.250000  0.811601  0.412385  1
  Sn  Sn5  1  0.750000  0.688399  0.912385  1
  Sn  Sn6  1  0.250000  0.311601  0.087615  1
  Sn  Sn7  1  0.750000  0.188399  0.587615  1
  Pd  Pd8  1  0.750000  0.299458  0.914766  1
  Pd  Pd9  1  0.250000  0.200542  0.414766  1
  Pd  Pd10  1  0.750000  0.799458  0.585234  1
  Pd  Pd11  1  0.250000  0.700542  0.085234  1
