# generated using pymatgen
data_FeGe
_symmetry_space_group_name_H-M   'P 1'
_cell_length_a   4.67061574
_cell_length_b   4.67061574
_cell_length_c   4.67061574
_cell_angle_alpha   90.00000000
_cell_angle_beta   90.00000000
_cell_angle_gamma   90.00000000
_symmetry_Int_Tables_number   1
_chemical_formula_structural   FeGe
_chemical_formula_sum   'Fe4 Ge4'
_cell_volume   101.88785415
_cell_formula_units_Z   4
loop_
 _symmetry_equiv_pos_site_id
 _symmetry_equiv_pos_as_xyz
  1  'x, y, z'
loop_
 _atom_site_type_symbol
 _atom_site_label
 _atom_site_symmetry_multiplicity
 _atom_site_fract_x
 _atom_site_fract_y
 _atom_site_fract_z
 _atom_site_occupancy
  Fe  Fe0  1  0.135712  0.135712  0.135712  1
  Fe  Fe1  1  0.364288  0.864288  0.635712  1
  Fe  Fe2  1  0.635712  0.364288  0.864288  1
  Fe  Fe3  1  0.864288  0.635712  0.364288  1
  Ge  Ge4  1  0.842084  0.842084  0.842084  1
  Ge  Ge5  1  0.657916  0.157916  0.342084  1
  Ge  Ge6  1  0.342084  0.657916  0.157916  1
  Ge  Ge7  1  0.157916  0.342084  0.657916  1
