# generated using pymatgen
data_Sr2Co(BrO)2
_symmetry_space_group_name_H-M   'P 1'
_cell_length_a   9.12533353
_cell_length_b   9.12533353
_cell_length_c   9.12533353
_cell_angle_alpha   154.18974011
_cell_angle_beta   154.18974011
_cell_angle_gamma   36.82387964
_symmetry_Int_Tables_number   1
_chemical_formula_structural   Sr2Co(BrO)2
_chemical_formula_sum   'Sr2 Co1 Br2 O2'
_cell_volume   143.84953247
_cell_formula_units_Z   1
loop_
 _symmetry_equiv_pos_site_id
 _symmetry_equiv_pos_as_xyz
  1  'x, y, z'
loop_
 _atom_site_type_symbol
 _atom_site_label
 _atom_site_symmetry_multiplicity
 _atom_site_fract_x
 _atom_site_fract_y
 _atom_site_fract_z
 _atom_site_occupancy
  Sr  Sr0  1  0.405442  0.405442  0.000000  1
  Sr  Sr1  1  0.594558  0.594558  0.000000  1
  Co  Co2  1  0.000000  0.000000  0.000000  1
  Br  Br3  1  0.173457  0.173457  0.000000  1
  Br  Br4  1  0.826543  0.826543  0.000000  1
  O  O5  1  0.500000  1.000000  0.500000  1
  O  O6  1  0.000000  0.500000  0.500000  1
