# generated using pymatgen
data_Co3B
_symmetry_space_group_name_H-M   'P 1'
_cell_length_a   4.40802746
_cell_length_b   5.15088882
_cell_length_c   6.61887176
_cell_angle_alpha   90.00000000
_cell_angle_beta   90.00000000
_cell_angle_gamma   90.00000000
_symmetry_Int_Tables_number   1
_chemical_formula_structural   Co3B
_chemical_formula_sum   'Co12 B4'
_cell_volume   150.28319999
_cell_formula_units_Z   4
loop_
 _symmetry_equiv_pos_site_id
 _symmetry_equiv_pos_as_xyz
  1  'x, y, z'
loop_
 _atom_site_type_symbol
 _atom_site_label
 _atom_site_symmetry_multiplicity
 _atom_site_fract_x
 _atom_site_fract_y
 _atom_site_fract_z
 _atom_site_occupancy
  Co  Co0  1  0.650208  0.815819  0.940703  1
  Co  Co1  1  0.150208  0.684181  0.059297  1
  Co  Co2  1  0.849792  0.315819  0.559297  1
  Co  Co3  1  0.349792  0.184181  0.440703  1
  Co  Co4  1  0.865927  0.024247  0.250000  1
  Co  Co5  1  0.365927  0.475753  0.750000  1
  Co  Co6  1  0.634073  0.524247  0.250000  1
  Co  Co7  1  0.134073  0.975753  0.750000  1
  Co  Co8  1  0.650208  0.815819  0.559297  1
  Co  Co9  1  0.150208  0.684181  0.440703  1
  Co  Co10  1  0.849792  0.315819  0.940703  1
  Co  Co11  1  0.349792  0.184181  0.059297  1
  B  B12  1  0.561711  0.120352  0.750000  1
  B  B13  1  0.061711  0.379648  0.250000  1
  B  B14  1  0.938289  0.620352  0.750000  1
  B  B15  1  0.438289  0.879648  0.250000  1
