# generated using pymatgen
data_Na2Si(H4O3)3
_symmetry_space_group_name_H-M   'P 1'
_cell_length_a   6.35528039
_cell_length_b   5.94910337
_cell_length_c   11.44933919
_cell_angle_alpha   90.00000000
_cell_angle_beta   101.87906038
_cell_angle_gamma   90.00000000
_symmetry_Int_Tables_number   1
_chemical_formula_structural   Na2Si(H4O3)3
_chemical_formula_sum   'Na4 Si2 H24 O18'
_cell_volume   423.60871650
_cell_formula_units_Z   2
loop_
 _symmetry_equiv_pos_site_id
 _symmetry_equiv_pos_as_xyz
  1  'x, y, z'
loop_
 _atom_site_type_symbol
 _atom_site_label
 _atom_site_symmetry_multiplicity
 _atom_site_fract_x
 _atom_site_fract_y
 _atom_site_fract_z
 _atom_site_occupancy
  Na  Na0  1  0.568899  0.997282  0.136373  1
  Na  Na1  1  0.431101  0.497282  0.863627  1
  Na  Na2  1  0.931156  0.968953  0.384871  1
  Na  Na3  1  0.068844  0.468953  0.615129  1
  Si  Si4  1  0.207865  0.514383  0.126707  1
  Si  Si5  1  0.792135  0.014383  0.873293  1
  H  H6  1  0.955015  0.216513  0.159912  1
  H  H7  1  0.044985  0.716513  0.840088  1
  H  H8  1  0.057357  0.973511  0.154756  1
  H  H9  1  0.942643  0.473511  0.845244  1
  H  H10  1  0.161933  0.384700  0.367995  1
  H  H11  1  0.838067  0.884700  0.632005  1
  H  H12  1  0.929431  0.452888  0.372404  1
  H  H13  1  0.070569  0.952888  0.627596  1
  H  H14  1  0.469989  0.262129  0.315226  1
  H  H15  1  0.530011  0.762129  0.684774  1
  H  H16  1  0.462011  0.017185  0.374795  1
  H  H17  1  0.537989  0.517185  0.625205  1
  H  H18  1  0.349392  0.758961  0.497043  1
  H  H19  1  0.650608  0.258961  0.502957  1
  H  H20  1  0.315775  0.695018  0.359061  1
  H  H21  1  0.684225  0.195018  0.640939  1
  H  H22  1  0.600778  0.577216  0.269709  1
  H  H23  1  0.399222  0.077216  0.730291  1
  H  H24  1  0.808596  0.577526  0.206742  1
  H  H25  1  0.191404  0.077526  0.793258  1
  H  H26  1  0.793694  0.722330  0.006872  1
  H  H27  1  0.823086  0.340457  0.993256  1
  H  H28  1  0.206306  0.222330  0.993128  1
  H  H29  1  0.176914  0.840457  0.006744  1
  O  O30  1  0.311956  0.320474  0.045498  1
  O  O31  1  0.054708  0.555639  0.815476  1
  O  O32  1  0.050144  0.358081  0.415156  1
  O  O33  1  0.949856  0.858081  0.584844  1
  O  O34  1  0.561666  0.128255  0.348041  1
  O  O35  1  0.438334  0.628255  0.651959  1
  O  O36  1  0.301931  0.821958  0.415858  1
  O  O37  1  0.698069  0.321958  0.584142  1
  O  O38  1  0.749373  0.638432  0.275251  1
  O  O39  1  0.250627  0.138432  0.724749  1
  O  O40  1  0.263869  0.772767  0.083951  1
  O  O41  1  0.736131  0.272767  0.916049  1
  O  O42  1  0.662361  0.989964  0.735844  1
  O  O43  1  0.688044  0.820474  0.954502  1
  O  O44  1  0.947054  0.480979  0.102978  1
  O  O45  1  0.052946  0.980979  0.897022  1
  O  O46  1  0.337639  0.489964  0.264156  1
  O  O47  1  0.945292  0.055639  0.184524  1
