# generated using pymatgen
data_H4I3N
_symmetry_space_group_name_H-M   'P 1'
_cell_length_a   6.83542551
_cell_length_b   9.89663719
_cell_length_c   10.88486710
_cell_angle_alpha   90.00000000
_cell_angle_beta   90.00000000
_cell_angle_gamma   90.00000000
_symmetry_Int_Tables_number   1
_chemical_formula_structural   H4I3N
_chemical_formula_sum   'H16 I12 N4'
_cell_volume   736.33651052
_cell_formula_units_Z   4
loop_
 _symmetry_equiv_pos_site_id
 _symmetry_equiv_pos_as_xyz
  1  'x, y, z'
loop_
 _atom_site_type_symbol
 _atom_site_label
 _atom_site_symmetry_multiplicity
 _atom_site_fract_x
 _atom_site_fract_y
 _atom_site_fract_z
 _atom_site_occupancy
  H  H0  1  0.625942  0.467752  0.173379  1
  H  H1  1  0.125942  0.532248  0.826621  1
  H  H2  1  0.374058  0.967752  0.326621  1
  H  H3  1  0.874058  0.032248  0.673379  1
  H  H4  1  0.374058  0.532248  0.826621  1
  H  H5  1  0.874058  0.467752  0.173379  1
  H  H6  1  0.625942  0.032248  0.673379  1
  H  H7  1  0.125942  0.967752  0.326621  1
  H  H8  1  0.250000  0.394419  0.775267  1
  H  H9  1  0.250000  0.066292  0.426993  1
  H  H10  1  0.750000  0.894419  0.724733  1
  H  H11  1  0.250000  0.105581  0.275267  1
  H  H12  1  0.250000  0.433708  0.926993  1
  H  H13  1  0.750000  0.566292  0.073007  1
  H  H14  1  0.750000  0.933708  0.573007  1
  H  H15  1  0.750000  0.605581  0.224733  1
  I  I16  1  0.250000  0.946552  0.874794  1
  I  I17  1  0.750000  0.234053  0.921822  1
  I  I18  1  0.750000  0.265947  0.421822  1
  I  I19  1  0.250000  0.734053  0.578178  1
  I  I20  1  0.250000  0.765947  0.078178  1
  I  I21  1  0.750000  0.053448  0.125206  1
  I  I22  1  0.750000  0.446552  0.625206  1
  I  I23  1  0.250000  0.553448  0.374794  1
  I  I24  1  0.250000  0.151250  0.658490  1
  I  I25  1  0.750000  0.848750  0.341510  1
  I  I26  1  0.750000  0.651250  0.841510  1
  I  I27  1  0.250000  0.348750  0.158490  1
  N  N28  1  0.250000  0.026686  0.338356  1
  N  N29  1  0.750000  0.526686  0.161644  1
  N  N30  1  0.750000  0.973314  0.661644  1
  N  N31  1  0.250000  0.473314  0.838356  1
