# generated using pymatgen
data_PrSi2
_symmetry_space_group_name_H-M   'P 1'
_cell_length_a   7.68751156
_cell_length_b   7.68751156
_cell_length_c   7.68751156
_cell_angle_alpha   148.06208427
_cell_angle_beta   148.06208427
_cell_angle_gamma   45.79372528
_symmetry_Int_Tables_number   1
_chemical_formula_structural   PrSi2
_chemical_formula_sum   'Pr2 Si4'
_cell_volume   126.70908515
_cell_formula_units_Z   2
loop_
 _symmetry_equiv_pos_site_id
 _symmetry_equiv_pos_as_xyz
  1  'x, y, z'
loop_
 _atom_site_type_symbol
 _atom_site_label
 _atom_site_symmetry_multiplicity
 _atom_site_fract_x
 _atom_site_fract_y
 _atom_site_fract_z
 _atom_site_occupancy
  Pr  Pr0  1  0.750000  0.250000  0.500000  1
  Pr  Pr1  1  0.000000  0.000000  0.000000  1
  Si  Si2  1  0.166184  0.666184  0.500000  1
  Si  Si3  1  0.583816  0.583816  0.000000  1
  Si  Si4  1  0.333816  0.833816  0.500000  1
  Si  Si5  1  0.416184  0.416184  0.000000  1
