# generated using pymatgen
data_MgH12(BrO6)2
_symmetry_space_group_name_H-M   'P 1'
_cell_length_a   10.59594224
_cell_length_b   10.59594224
_cell_length_c   10.59594224
_cell_angle_alpha   90.00000000
_cell_angle_beta   90.00000000
_cell_angle_gamma   90.00000000
_symmetry_Int_Tables_number   1
_chemical_formula_structural   MgH12(BrO6)2
_chemical_formula_sum   'Mg4 H48 Br8 O48'
_cell_volume   1189.64873379
_cell_formula_units_Z   4
loop_
 _symmetry_equiv_pos_site_id
 _symmetry_equiv_pos_as_xyz
  1  'x, y, z'
loop_
 _atom_site_type_symbol
 _atom_site_label
 _atom_site_symmetry_multiplicity
 _atom_site_fract_x
 _atom_site_fract_y
 _atom_site_fract_z
 _atom_site_occupancy
  Mg  Mg0  1  0.000000  0.000000  0.000000  1
  Mg  Mg1  1  0.500000  0.000000  0.500000  1
  Mg  Mg2  1  0.500000  0.500000  0.000000  1
  Mg  Mg3  1  0.000000  0.500000  0.500000  1
  H  H4  1  0.259413  0.030415  0.426356  1
  H  H5  1  0.759413  0.469585  0.573644  1
  H  H6  1  0.740587  0.530415  0.073644  1
  H  H7  1  0.469585  0.573644  0.759413  1
  H  H8  1  0.073644  0.740587  0.530415  1
  H  H9  1  0.573644  0.759413  0.469585  1
  H  H10  1  0.030415  0.426356  0.259413  1
  H  H11  1  0.426356  0.259413  0.030415  1
  H  H12  1  0.530415  0.073644  0.740587  1
  H  H13  1  0.969585  0.926356  0.240587  1
  H  H14  1  0.926356  0.240587  0.969585  1
  H  H15  1  0.240587  0.969585  0.926356  1
  H  H16  1  0.259413  0.469585  0.926356  1
  H  H17  1  0.530415  0.426356  0.240587  1
  H  H18  1  0.926356  0.259413  0.469585  1
  H  H19  1  0.426356  0.240587  0.530415  1
  H  H20  1  0.969585  0.573644  0.740587  1
  H  H21  1  0.573644  0.740587  0.969585  1
  H  H22  1  0.469585  0.926356  0.259413  1
  H  H23  1  0.030415  0.073644  0.759413  1
  H  H24  1  0.073644  0.759413  0.030415  1
  H  H25  1  0.759413  0.030415  0.073644  1
  H  H26  1  0.578671  0.031402  0.255688  1
  H  H27  1  0.078671  0.468598  0.744312  1
  H  H28  1  0.421329  0.531402  0.244312  1
  H  H29  1  0.468598  0.744312  0.078671  1
  H  H30  1  0.244312  0.421329  0.531402  1
  H  H31  1  0.744312  0.078671  0.468598  1
  H  H32  1  0.031402  0.255688  0.578671  1
  H  H33  1  0.255688  0.578671  0.031402  1
  H  H34  1  0.531402  0.244312  0.421329  1
  H  H35  1  0.968598  0.755688  0.921329  1
  H  H36  1  0.755688  0.921329  0.968598  1
  H  H37  1  0.921329  0.968598  0.755688  1
  H  H38  1  0.421329  0.968598  0.744312  1
  H  H39  1  0.921329  0.531402  0.255688  1
  H  H40  1  0.578671  0.468598  0.755688  1
  H  H41  1  0.531402  0.255688  0.921329  1
  H  H42  1  0.755688  0.578671  0.468598  1
  H  H43  1  0.255688  0.921329  0.531402  1
  H  H44  1  0.968598  0.744312  0.421329  1
  H  H45  1  0.744312  0.421329  0.968598  1
  H  H46  1  0.468598  0.755688  0.578671  1
  H  H47  1  0.031402  0.244312  0.078671  1
  H  H48  1  0.244312  0.078671  0.031402  1
  H  H49  1  0.078671  0.031402  0.244312  1
  H  H50  1  0.740587  0.969585  0.573644  1
  H  H51  1  0.240587  0.530415  0.426356  1
  Br  Br52  1  0.248420  0.748420  0.751580  1
  Br  Br53  1  0.751580  0.248420  0.748420  1
  Br  Br54  1  0.748420  0.751580  0.248420  1
  Br  Br55  1  0.251580  0.251580  0.251580  1
  Br  Br56  1  0.748420  0.748420  0.748420  1
  Br  Br57  1  0.751580  0.251580  0.248420  1
  Br  Br58  1  0.248420  0.751580  0.251580  1
  Br  Br59  1  0.251580  0.248420  0.751580  1
  O  O60  1  0.960912  0.034957  0.808798  1
  O  O61  1  0.808798  0.960912  0.034957  1
  O  O62  1  0.034957  0.808798  0.960912  1
  O  O63  1  0.465043  0.191202  0.460912  1
  O  O64  1  0.308798  0.539088  0.965043  1
  O  O65  1  0.965043  0.308798  0.539088  1
  O  O66  1  0.960912  0.465043  0.308798  1
  O  O67  1  0.191202  0.460912  0.465043  1
  O  O68  1  0.534957  0.691202  0.039088  1
  O  O69  1  0.460912  0.465043  0.191202  1
  O  O70  1  0.039088  0.534957  0.691202  1
  O  O71  1  0.539088  0.965043  0.308798  1
  O  O72  1  0.539088  0.534957  0.808798  1
  O  O73  1  0.465043  0.308798  0.960912  1
  O  O74  1  0.808798  0.539088  0.534957  1
  O  O75  1  0.308798  0.960912  0.465043  1
  O  O76  1  0.034957  0.691202  0.460912  1
  O  O77  1  0.691202  0.460912  0.034957  1
  O  O78  1  0.534957  0.808798  0.539088  1
  O  O79  1  0.965043  0.191202  0.039088  1
  O  O80  1  0.191202  0.039088  0.965043  1
  O  O81  1  0.039088  0.965043  0.191202  1
  O  O82  1  0.671511  0.138810  0.168431  1
  O  O83  1  0.171511  0.361190  0.831569  1
  O  O84  1  0.328489  0.638810  0.331569  1
  O  O85  1  0.361190  0.831569  0.171511  1
  O  O86  1  0.331569  0.328489  0.638810  1
  O  O87  1  0.831569  0.171511  0.361190  1
  O  O88  1  0.138810  0.168431  0.671511  1
  O  O89  1  0.168431  0.671511  0.138810  1
  O  O90  1  0.638810  0.331569  0.328489  1
  O  O91  1  0.861190  0.668431  0.828489  1
  O  O92  1  0.668431  0.828489  0.861190  1
  O  O93  1  0.828489  0.861190  0.668431  1
  O  O94  1  0.328489  0.861190  0.831569  1
  O  O95  1  0.828489  0.638810  0.168431  1
  O  O96  1  0.671511  0.361190  0.668431  1
  O  O97  1  0.638810  0.168431  0.828489  1
  O  O98  1  0.668431  0.671511  0.361190  1
  O  O99  1  0.168431  0.828489  0.638810  1
  O  O100  1  0.861190  0.831569  0.328489  1
  O  O101  1  0.831569  0.328489  0.861190  1
  O  O102  1  0.361190  0.668431  0.671511  1
  O  O103  1  0.138810  0.331569  0.171511  1
  O  O104  1  0.331569  0.171511  0.138810  1
  O  O105  1  0.171511  0.138810  0.331569  1
  O  O106  1  0.460912  0.034957  0.691202  1
  O  O107  1  0.691202  0.039088  0.534957  1
