# generated using pymatgen
data_CePRuO
_symmetry_space_group_name_H-M   'P 1'
_cell_length_a   4.02086838
_cell_length_b   4.02086838
_cell_length_c   8.01921156
_cell_angle_alpha   90.00000000
_cell_angle_beta   90.00000000
_cell_angle_gamma   90.00000000
_symmetry_Int_Tables_number   1
_chemical_formula_structural   CePRuO
_chemical_formula_sum   'Ce2 P2 Ru2 O2'
_cell_volume   129.64966087
_cell_formula_units_Z   2
loop_
 _symmetry_equiv_pos_site_id
 _symmetry_equiv_pos_as_xyz
  1  'x, y, z'
loop_
 _atom_site_type_symbol
 _atom_site_label
 _atom_site_symmetry_multiplicity
 _atom_site_fract_x
 _atom_site_fract_y
 _atom_site_fract_z
 _atom_site_occupancy
  Ce  Ce0  1  0.000000  0.500000  0.849063  1
  Ce  Ce1  1  0.500000  0.000000  0.150937  1
  P  P2  1  0.500000  0.000000  0.647050  1
  P  P3  1  0.000000  0.500000  0.352950  1
  Ru  Ru4  1  0.000000  0.000000  0.500000  1
  Ru  Ru5  1  0.500000  0.500000  0.500000  1
  O  O6  1  0.500000  0.500000  0.000000  1
  O  O7  1  0.000000  0.000000  0.000000  1
