# generated using pymatgen
data_TbGaPt
_symmetry_space_group_name_H-M   'P 1'
_cell_length_a   4.45971909
_cell_length_b   6.95998713
_cell_length_c   7.69265093
_cell_angle_alpha   90.00000000
_cell_angle_beta   90.00000000
_cell_angle_gamma   90.00000000
_symmetry_Int_Tables_number   1
_chemical_formula_structural   TbGaPt
_chemical_formula_sum   'Tb4 Ga4 Pt4'
_cell_volume   238.77671142
_cell_formula_units_Z   4
loop_
 _symmetry_equiv_pos_site_id
 _symmetry_equiv_pos_as_xyz
  1  'x, y, z'
loop_
 _atom_site_type_symbol
 _atom_site_label
 _atom_site_symmetry_multiplicity
 _atom_site_fract_x
 _atom_site_fract_y
 _atom_site_fract_z
 _atom_site_occupancy
  Tb  Tb0  1  0.750000  0.516366  0.803036  1
  Tb  Tb1  1  0.250000  0.983634  0.303036  1
  Tb  Tb2  1  0.250000  0.483634  0.196964  1
  Tb  Tb3  1  0.750000  0.016366  0.696964  1
  Ga  Ga4  1  0.750000  0.671424  0.424590  1
  Ga  Ga5  1  0.250000  0.328576  0.575410  1
  Ga  Ga6  1  0.750000  0.171424  0.075410  1
  Ga  Ga7  1  0.250000  0.828576  0.924590  1
  Pt  Pt8  1  0.250000  0.721532  0.598335  1
  Pt  Pt9  1  0.250000  0.221532  0.901665  1
  Pt  Pt10  1  0.750000  0.778468  0.098335  1
  Pt  Pt11  1  0.750000  0.278468  0.401665  1
