# generated using pymatgen
data_LiH2SO4
_symmetry_space_group_name_H-M   'P 1'
_cell_length_a   6.13530989
_cell_length_b   10.19366287
_cell_length_c   10.59534532
_cell_angle_alpha   90.00000000
_cell_angle_beta   90.00000000
_cell_angle_gamma   90.00000000
_symmetry_Int_Tables_number   1
_chemical_formula_structural   LiH2SO4
_chemical_formula_sum   'Li8 H16 S8 O32'
_cell_volume   662.64646494
_cell_formula_units_Z   8
loop_
 _symmetry_equiv_pos_site_id
 _symmetry_equiv_pos_as_xyz
  1  'x, y, z'
loop_
 _atom_site_type_symbol
 _atom_site_label
 _atom_site_symmetry_multiplicity
 _atom_site_fract_x
 _atom_site_fract_y
 _atom_site_fract_z
 _atom_site_occupancy
  Li  Li0  1  0.940603  0.164497  0.426558  1
  Li  Li1  1  0.440603  0.335503  0.073442  1
  Li  Li2  1  0.559397  0.664497  0.573442  1
  Li  Li3  1  0.059397  0.835503  0.926558  1
  Li  Li4  1  0.059397  0.835503  0.573442  1
  Li  Li5  1  0.559397  0.664497  0.926558  1
  Li  Li6  1  0.440603  0.335503  0.426558  1
  Li  Li7  1  0.940603  0.164497  0.073442  1
  H  H8  1  0.297142  0.748786  0.107198  1
  H  H9  1  0.797142  0.751214  0.392802  1
  H  H10  1  0.202858  0.248786  0.892802  1
  H  H11  1  0.702858  0.251214  0.607198  1
  H  H12  1  0.702858  0.251214  0.892802  1
  H  H13  1  0.202858  0.248786  0.607198  1
  H  H14  1  0.797142  0.751214  0.107198  1
  H  H15  1  0.297142  0.748786  0.392802  1
  H  H16  1  0.208488  0.619246  0.048356  1
  H  H17  1  0.708488  0.880754  0.451644  1
  H  H18  1  0.291512  0.119246  0.951644  1
  H  H19  1  0.791512  0.380754  0.548356  1
  H  H20  1  0.791512  0.380754  0.951644  1
  H  H21  1  0.291512  0.119246  0.548356  1
  H  H22  1  0.708488  0.880754  0.048356  1
  H  H23  1  0.208488  0.619246  0.451644  1
  S  S24  1  0.966515  0.591211  0.750000  1
  S  S25  1  0.466515  0.908789  0.750000  1
  S  S26  1  0.533485  0.091211  0.250000  1
  S  S27  1  0.033485  0.408789  0.250000  1
  S  S28  1  0.260693  0.466088  0.750000  1
  S  S29  1  0.760693  0.033912  0.750000  1
  S  S30  1  0.239307  0.966088  0.250000  1
  S  S31  1  0.739307  0.533912  0.250000  1
  O  O32  1  0.765920  0.794084  0.474799  1
  O  O33  1  0.265920  0.705916  0.025201  1
  O  O34  1  0.734080  0.294084  0.525201  1
  O  O35  1  0.234080  0.205916  0.974799  1
  O  O36  1  0.234080  0.205916  0.525201  1
  O  O37  1  0.734080  0.294084  0.974799  1
  O  O38  1  0.265920  0.705916  0.474799  1
  O  O39  1  0.765920  0.794084  0.025201  1
  O  O40  1  0.044679  0.728518  0.750000  1
  O  O41  1  0.544679  0.771482  0.750000  1
  O  O42  1  0.455321  0.228518  0.250000  1
  O  O43  1  0.955321  0.271482  0.250000  1
  O  O44  1  0.146783  0.444378  0.367160  1
  O  O45  1  0.646783  0.055622  0.132840  1
  O  O46  1  0.353217  0.944378  0.632840  1
  O  O47  1  0.853217  0.555622  0.867160  1
  O  O48  1  0.853217  0.555622  0.632840  1
  O  O49  1  0.353217  0.944378  0.867160  1
  O  O50  1  0.646783  0.055622  0.367160  1
  O  O51  1  0.146783  0.444378  0.132840  1
  O  O52  1  0.165884  0.332493  0.750000  1
  O  O53  1  0.665884  0.167507  0.750000  1
  O  O54  1  0.334116  0.832493  0.250000  1
  O  O55  1  0.834116  0.667507  0.250000  1
  O  O56  1  0.622948  0.503132  0.366758  1
  O  O57  1  0.122948  0.996868  0.133242  1
  O  O58  1  0.877052  0.003132  0.633242  1
  O  O59  1  0.377052  0.496868  0.866758  1
  O  O60  1  0.377052  0.496868  0.633242  1
  O  O61  1  0.877052  0.003132  0.866758  1
  O  O62  1  0.122948  0.996868  0.366758  1
  O  O63  1  0.622948  0.503132  0.133242  1
