# generated using pymatgen
data_U2F9
_symmetry_space_group_name_H-M   'P 1'
_cell_length_a   7.38829244
_cell_length_b   7.38829244
_cell_length_c   7.38829244
_cell_angle_alpha   109.47122063
_cell_angle_beta   109.47122063
_cell_angle_gamma   109.47122063
_symmetry_Int_Tables_number   1
_chemical_formula_structural   U2F9
_chemical_formula_sum   'U4 F18'
_cell_volume   310.46335046
_cell_formula_units_Z   2
loop_
 _symmetry_equiv_pos_site_id
 _symmetry_equiv_pos_as_xyz
  1  'x, y, z'
loop_
 _atom_site_type_symbol
 _atom_site_label
 _atom_site_symmetry_multiplicity
 _atom_site_fract_x
 _atom_site_fract_y
 _atom_site_fract_z
 _atom_site_occupancy
  U  U0  1  1.000000  1.000000  0.625686  1
  U  U1  1  0.000000  0.625686  0.000000  1
  U  U2  1  0.625686  0.000000  1.000000  1
  U  U3  1  0.374314  0.374314  0.374314  1
  F  F4  1  0.772307  1.000000  0.772307  1
  F  F5  1  0.227693  1.000000  0.227693  1
  F  F6  1  1.000000  0.227693  0.227693  1
  F  F7  1  1.000000  0.772307  0.772307  1
  F  F8  1  0.644480  0.644480  0.411300  1
  F  F9  1  0.355520  0.766820  0.000000  1
  F  F10  1  0.766820  0.355520  1.000000  1
  F  F11  1  1.000000  0.766820  0.355520  1
  F  F12  1  0.588700  0.233180  0.233180  1
  F  F13  1  0.233180  0.588700  0.233180  1
  F  F14  1  0.766820  1.000000  0.355520  1
  F  F15  1  0.355520  1.000000  0.766820  1
  F  F16  1  1.000000  0.355520  0.766820  1
  F  F17  1  0.411300  0.644480  0.644480  1
  F  F18  1  0.644480  0.411300  0.644480  1
  F  F19  1  0.233180  0.233180  0.588700  1
  F  F20  1  0.227693  0.227693  0.000000  1
  F  F21  1  0.772307  0.772307  0.000000  1
