# generated using pymatgen
data_TmMg2
_symmetry_space_group_name_H-M   'P 1'
_cell_length_a   6.00127033
_cell_length_b   6.00127033
_cell_length_c   9.75044166
_cell_angle_alpha   90.00000000
_cell_angle_beta   90.00000000
_cell_angle_gamma   120.00000000
_symmetry_Int_Tables_number   1
_chemical_formula_structural   TmMg2
_chemical_formula_sum   'Tm4 Mg8'
_cell_volume   304.11742203
_cell_formula_units_Z   4
loop_
 _symmetry_equiv_pos_site_id
 _symmetry_equiv_pos_as_xyz
  1  'x, y, z'
loop_
 _atom_site_type_symbol
 _atom_site_label
 _atom_site_symmetry_multiplicity
 _atom_site_fract_x
 _atom_site_fract_y
 _atom_site_fract_z
 _atom_site_occupancy
  Tm  Tm0  1  0.333333  0.666667  0.936422  1
  Tm  Tm1  1  0.666667  0.333333  0.436422  1
  Tm  Tm2  1  0.666667  0.333333  0.063578  1
  Tm  Tm3  1  0.333333  0.666667  0.563578  1
  Mg  Mg4  1  0.828986  0.657972  0.750000  1
  Mg  Mg5  1  0.171014  0.828986  0.250000  1
  Mg  Mg6  1  0.657972  0.828986  0.250000  1
  Mg  Mg7  1  0.342028  0.171014  0.750000  1
  Mg  Mg8  1  0.000000  0.000000  0.000000  1
  Mg  Mg9  1  0.000000  0.000000  0.500000  1
  Mg  Mg10  1  0.171014  0.342028  0.250000  1
  Mg  Mg11  1  0.828986  0.171014  0.750000  1
