# generated using pymatgen
data_Bi2TeO5
_symmetry_space_group_name_H-M   'P 1'
_cell_length_a   8.85540173
_cell_length_b   8.85540173
_cell_length_c   11.71846304
_cell_angle_alpha   90.00000000
_cell_angle_beta   90.00000000
_cell_angle_gamma   143.08131769
_symmetry_Int_Tables_number   1
_chemical_formula_structural   Bi2TeO5
_chemical_formula_sum   'Bi8 Te4 O20'
_cell_volume   551.98979180
_cell_formula_units_Z   4
loop_
 _symmetry_equiv_pos_site_id
 _symmetry_equiv_pos_as_xyz
  1  'x, y, z'
loop_
 _atom_site_type_symbol
 _atom_site_label
 _atom_site_symmetry_multiplicity
 _atom_site_fract_x
 _atom_site_fract_y
 _atom_site_fract_z
 _atom_site_occupancy
  Bi  Bi0  1  0.746493  0.246493  0.616998  1
  Bi  Bi1  1  0.246493  0.746493  0.383002  1
  Bi  Bi2  1  0.260797  0.760797  0.870189  1
  Bi  Bi3  1  0.760797  0.260797  0.129811  1
  Bi  Bi4  1  0.945477  0.114772  0.392498  1
  Bi  Bi5  1  0.114772  0.945477  0.607502  1
  Bi  Bi6  1  0.445477  0.614772  0.607502  1
  Bi  Bi7  1  0.614772  0.445477  0.392498  1
  Te  Te8  1  0.440346  0.607928  0.132541  1
  Te  Te9  1  0.607928  0.440346  0.867459  1
  Te  Te10  1  0.940346  0.107928  0.867459  1
  Te  Te11  1  0.107928  0.940346  0.132541  1
  O  O12  1  0.554856  0.872985  0.213061  1
  O  O13  1  0.872985  0.554856  0.786939  1
  O  O14  1  0.054856  0.372985  0.786939  1
  O  O15  1  0.372985  0.054856  0.213061  1
  O  O16  1  0.142675  0.463804  0.485258  1
  O  O17  1  0.463804  0.142675  0.514742  1
  O  O18  1  0.642675  0.963804  0.514742  1
  O  O19  1  0.963804  0.642675  0.485258  1
  O  O20  1  0.394254  0.894254  0.703728  1
  O  O21  1  0.894254  0.394254  0.296272  1
  O  O22  1  0.133399  0.435157  0.066998  1
  O  O23  1  0.435157  0.133399  0.933002  1
  O  O24  1  0.894896  0.810275  0.257548  1
  O  O25  1  0.810275  0.894896  0.742452  1
  O  O26  1  0.394896  0.310275  0.742452  1
  O  O27  1  0.310275  0.394896  0.257548  1
  O  O28  1  0.738987  0.738987  0.500000  1
  O  O29  1  0.238987  0.238987  0.500000  1
  O  O30  1  0.935157  0.633399  0.066998  1
  O  O31  1  0.633399  0.935157  0.933002  1
