# generated using pymatgen
data_LaSO
_symmetry_space_group_name_H-M   'P 1'
_cell_length_a   7.29578857
_cell_length_b   7.29578857
_cell_length_c   5.94540016
_cell_angle_alpha   90.00000000
_cell_angle_beta   90.00000000
_cell_angle_gamma   131.86648734
_symmetry_Int_Tables_number   1
_chemical_formula_structural   LaSO
_chemical_formula_sum   'La4 S4 O4'
_cell_volume   235.67206764
_cell_formula_units_Z   4
loop_
 _symmetry_equiv_pos_site_id
 _symmetry_equiv_pos_as_xyz
  1  'x, y, z'
loop_
 _atom_site_type_symbol
 _atom_site_label
 _atom_site_symmetry_multiplicity
 _atom_site_fract_x
 _atom_site_fract_y
 _atom_site_fract_z
 _atom_site_occupancy
  La  La0  1  0.161081  0.838919  0.500000  1
  La  La1  1  0.338919  0.661081  0.000000  1
  La  La2  1  0.838919  0.161081  0.500000  1
  La  La3  1  0.661081  0.338919  0.000000  1
  S  S4  1  0.625252  0.625252  0.625560  1
  S  S5  1  0.874748  0.874748  0.125560  1
  S  S6  1  0.125252  0.125252  0.874440  1
  S  S7  1  0.374748  0.374748  0.374440  1
  O  O8  1  0.005437  0.505437  0.750000  1
  O  O9  1  0.494563  0.994563  0.250000  1
  O  O10  1  0.994563  0.494563  0.250000  1
  O  O11  1  0.505437  0.005437  0.750000  1
