# generated using pymatgen
data_Ag3O
_symmetry_space_group_name_H-M   'P 1'
_cell_length_a   5.40980080
_cell_length_b   5.40980080
_cell_length_c   5.04335701
_cell_angle_alpha   90.00000000
_cell_angle_beta   90.00000000
_cell_angle_gamma   120.00000000
_symmetry_Int_Tables_number   1
_chemical_formula_structural   Ag3O
_chemical_formula_sum   'Ag6 O2'
_cell_volume   127.82414347
_cell_formula_units_Z   2
loop_
 _symmetry_equiv_pos_site_id
 _symmetry_equiv_pos_as_xyz
  1  'x, y, z'
loop_
 _atom_site_type_symbol
 _atom_site_label
 _atom_site_symmetry_multiplicity
 _atom_site_fract_x
 _atom_site_fract_y
 _atom_site_fract_z
 _atom_site_occupancy
  Ag  Ag0  1  0.689248  0.689248  0.221665  1
  Ag  Ag1  1  0.000000  0.689248  0.778335  1
  Ag  Ag2  1  0.689248  0.000000  0.778335  1
  Ag  Ag3  1  0.310752  0.310752  0.778335  1
  Ag  Ag4  1  0.000000  0.310752  0.221665  1
  Ag  Ag5  1  0.310752  0.000000  0.221665  1
  O  O6  1  0.666667  0.333333  0.500000  1
  O  O7  1  0.333333  0.666667  0.500000  1
