# generated using pymatgen
data_K3InP2
_symmetry_space_group_name_H-M   'P 1'
_cell_length_a   8.94718878
_cell_length_b   8.94718878
_cell_length_c   8.94718878
_cell_angle_alpha   134.74941080
_cell_angle_beta   128.96566321
_cell_angle_gamma   70.55742262
_symmetry_Int_Tables_number   1
_chemical_formula_structural   K3InP2
_chemical_formula_sum   'K6 In2 P4'
_cell_volume   387.59652388
_cell_formula_units_Z   2
loop_
 _symmetry_equiv_pos_site_id
 _symmetry_equiv_pos_as_xyz
  1  'x, y, z'
loop_
 _atom_site_type_symbol
 _atom_site_label
 _atom_site_symmetry_multiplicity
 _atom_site_fract_x
 _atom_site_fract_y
 _atom_site_fract_z
 _atom_site_occupancy
  K  K0  1  0.016560  0.815585  0.200975  1
  K  K1  1  0.500000  0.750000  0.250000  1
  K  K2  1  0.614610  0.315585  0.299025  1
  K  K3  1  0.385390  0.684415  0.700975  1
  K  K4  1  0.500000  0.250000  0.750000  1
  K  K5  1  0.983440  0.184415  0.799025  1
  In  In6  1  1.000000  0.250000  0.250000  1
  In  In7  1  1.000000  0.750000  0.750000  1
  P  P8  1  0.092702  0.402886  0.689817  1
  P  P9  1  0.907298  0.597114  0.310183  1
  P  P10  1  0.286931  0.097114  0.189817  1
  P  P11  1  0.713069  0.902886  0.810183  1
