# generated using pymatgen
data_KAuCl4
_symmetry_space_group_name_H-M   'P 1'
_cell_length_a   9.10042254
_cell_length_b   6.58688167
_cell_length_c   12.51330976
_cell_angle_alpha   90.00000000
_cell_angle_beta   96.56537606
_cell_angle_gamma   90.00000000
_symmetry_Int_Tables_number   1
_chemical_formula_structural   KAuCl4
_chemical_formula_sum   'K4 Au4 Cl16'
_cell_volume   745.17135062
_cell_formula_units_Z   4
loop_
 _symmetry_equiv_pos_site_id
 _symmetry_equiv_pos_as_xyz
  1  'x, y, z'
loop_
 _atom_site_type_symbol
 _atom_site_label
 _atom_site_symmetry_multiplicity
 _atom_site_fract_x
 _atom_site_fract_y
 _atom_site_fract_z
 _atom_site_occupancy
  K  K0  1  0.229117  0.698547  0.686729  1
  K  K1  1  0.229117  0.301453  0.186729  1
  K  K2  1  0.799189  0.199939  0.819201  1
  K  K3  1  0.799189  0.800061  0.319201  1
  Au  Au4  1  0.511865  0.248978  0.506354  1
  Au  Au5  1  0.511865  0.751022  0.006354  1
  Au  Au6  1  0.012716  0.247364  0.501462  1
  Au  Au7  1  0.012716  0.752636  0.001462  1
  Cl  Cl8  1  0.348373  0.499594  0.436602  1
  Cl  Cl9  1  0.348373  0.500406  0.936602  1
  Cl  Cl10  1  0.674601  0.997654  0.576125  1
  Cl  Cl11  1  0.674601  0.002346  0.076125  1
  Cl  Cl12  1  0.507171  0.101427  0.337518  1
  Cl  Cl13  1  0.507171  0.898573  0.837518  1
  Cl  Cl14  1  0.517224  0.397083  0.675215  1
  Cl  Cl15  1  0.517224  0.602917  0.175215  1
  Cl  Cl16  1  0.892262  0.460872  0.048837  1
  Cl  Cl17  1  0.892262  0.539128  0.548837  1
  Cl  Cl18  1  0.132603  0.045131  0.954398  1
  Cl  Cl19  1  0.132603  0.954869  0.454398  1
  Cl  Cl20  1  0.103869  0.802842  0.180806  1
  Cl  Cl21  1  0.103869  0.197158  0.680806  1
  Cl  Cl22  1  0.921710  0.702306  0.822053  1
  Cl  Cl23  1  0.921710  0.297694  0.322053  1
