# generated using pymatgen
data_Na2CrCl4
_symmetry_space_group_name_H-M   'P 1'
_cell_length_a   4.03848774
_cell_length_b   11.62827817
_cell_length_c   7.01662126
_cell_angle_alpha   90.00000000
_cell_angle_beta   93.81462372
_cell_angle_gamma   90.00000000
_symmetry_Int_Tables_number   1
_chemical_formula_structural   Na2CrCl4
_chemical_formula_sum   'Na4 Cr2 Cl8'
_cell_volume   328.77514523
_cell_formula_units_Z   2
loop_
 _symmetry_equiv_pos_site_id
 _symmetry_equiv_pos_as_xyz
  1  'x, y, z'
loop_
 _atom_site_type_symbol
 _atom_site_label
 _atom_site_symmetry_multiplicity
 _atom_site_fract_x
 _atom_site_fract_y
 _atom_site_fract_z
 _atom_site_occupancy
  Na  Na0  1  0.516761  0.680326  0.906061  1
  Na  Na1  1  0.483239  0.180326  0.593939  1
  Na  Na2  1  0.516761  0.819674  0.406061  1
  Na  Na3  1  0.483239  0.319674  0.093939  1
  Cr  Cr4  1  0.000000  0.500000  0.500000  1
  Cr  Cr5  1  0.000000  0.000000  0.000000  1
  Cl  Cl6  1  0.566807  0.953028  0.759783  1
  Cl  Cl7  1  0.433193  0.453028  0.740217  1
  Cl  Cl8  1  0.008080  0.806514  0.115367  1
  Cl  Cl9  1  0.991920  0.306514  0.384633  1
  Cl  Cl10  1  0.991920  0.193486  0.884633  1
  Cl  Cl11  1  0.008080  0.693486  0.615367  1
  Cl  Cl12  1  0.433193  0.046972  0.240217  1
  Cl  Cl13  1  0.566807  0.546972  0.259783  1
