# generated using pymatgen
data_Hf3B2Ir5
_symmetry_space_group_name_H-M   'P 1'
_cell_length_a   9.28296059
_cell_length_b   9.28296059
_cell_length_c   3.39401921
_cell_angle_alpha   90.00000000
_cell_angle_beta   90.00000000
_cell_angle_gamma   90.00000000
_symmetry_Int_Tables_number   1
_chemical_formula_structural   Hf3B2Ir5
_chemical_formula_sum   'Hf6 B4 Ir10'
_cell_volume   292.47403012
_cell_formula_units_Z   2
loop_
 _symmetry_equiv_pos_site_id
 _symmetry_equiv_pos_as_xyz
  1  'x, y, z'
loop_
 _atom_site_type_symbol
 _atom_site_label
 _atom_site_symmetry_multiplicity
 _atom_site_fract_x
 _atom_site_fract_y
 _atom_site_fract_z
 _atom_site_occupancy
  Hf  Hf0  1  0.175879  0.675879  0.000000  1
  Hf  Hf1  1  0.324121  0.175879  0.000000  1
  Hf  Hf2  1  0.824121  0.324121  0.000000  1
  Hf  Hf3  1  0.500000  0.500000  0.000000  1
  Hf  Hf4  1  0.675879  0.824121  0.000000  1
  Hf  Hf5  1  0.000000  0.000000  0.000000  1
  B  B6  1  0.380727  0.880727  0.000000  1
  B  B7  1  0.119273  0.380727  0.000000  1
  B  B8  1  0.880727  0.619273  0.000000  1
  B  B9  1  0.619273  0.119273  0.000000  1
  Ir  Ir10  1  0.220032  0.927370  0.500000  1
  Ir  Ir11  1  0.927370  0.779968  0.500000  1
  Ir  Ir12  1  0.427370  0.720032  0.500000  1
  Ir  Ir13  1  0.572630  0.279968  0.500000  1
  Ir  Ir14  1  0.720032  0.572630  0.500000  1
  Ir  Ir15  1  0.279968  0.427370  0.500000  1
  Ir  Ir16  1  0.072630  0.220032  0.500000  1
  Ir  Ir17  1  0.000000  0.500000  0.500000  1
  Ir  Ir18  1  0.500000  0.000000  0.500000  1
  Ir  Ir19  1  0.779968  0.072630  0.500000  1
