# generated using pymatgen
data_Ba3In2F12
_symmetry_space_group_name_H-M   'P 1'
_cell_length_a   9.73056016
_cell_length_b   9.73056016
_cell_length_c   5.72380232
_cell_angle_alpha   90.00000000
_cell_angle_beta   90.00000000
_cell_angle_gamma   90.00000000
_symmetry_Int_Tables_number   1
_chemical_formula_structural   Ba3In2F12
_chemical_formula_sum   'Ba6 In4 F24'
_cell_volume   541.95135999
_cell_formula_units_Z   2
loop_
 _symmetry_equiv_pos_site_id
 _symmetry_equiv_pos_as_xyz
  1  'x, y, z'
loop_
 _atom_site_type_symbol
 _atom_site_label
 _atom_site_symmetry_multiplicity
 _atom_site_fract_x
 _atom_site_fract_y
 _atom_site_fract_z
 _atom_site_occupancy
  Ba  Ba0  1  0.500000  0.500000  0.000000  1
  Ba  Ba1  1  0.000000  0.000000  0.000000  1
  Ba  Ba2  1  0.320547  0.820547  0.500000  1
  Ba  Ba3  1  0.820547  0.679453  0.500000  1
  Ba  Ba4  1  0.179453  0.320547  0.500000  1
  Ba  Ba5  1  0.679453  0.179453  0.500000  1
  In  In6  1  0.133135  0.633135  0.000000  1
  In  In7  1  0.633135  0.866865  0.000000  1
  In  In8  1  0.366865  0.133135  0.000000  1
  In  In9  1  0.866865  0.366865  0.000000  1
  F  F10  1  0.291760  0.791760  0.000000  1
  F  F11  1  0.791760  0.708240  0.000000  1
  F  F12  1  0.208240  0.291760  0.000000  1
  F  F13  1  0.708240  0.208240  0.000000  1
  F  F14  1  0.555382  0.726357  0.257404  1
  F  F15  1  0.444618  0.273643  0.257404  1
  F  F16  1  0.273643  0.555382  0.257404  1
  F  F17  1  0.726357  0.444618  0.257404  1
  F  F18  1  0.226357  0.055382  0.742596  1
  F  F19  1  0.055382  0.773643  0.742596  1
  F  F20  1  0.500000  0.000000  0.778163  1
  F  F21  1  0.000000  0.500000  0.778163  1
  F  F22  1  0.000000  0.500000  0.221837  1
  F  F23  1  0.500000  0.000000  0.221837  1
  F  F24  1  0.226357  0.055382  0.257404  1
  F  F25  1  0.055382  0.773643  0.257404  1
  F  F26  1  0.944618  0.226357  0.257404  1
  F  F27  1  0.773643  0.944618  0.257404  1
  F  F28  1  0.273643  0.555382  0.742596  1
  F  F29  1  0.726357  0.444618  0.742596  1
  F  F30  1  0.555382  0.726357  0.742596  1
  F  F31  1  0.444618  0.273643  0.742596  1
  F  F32  1  0.773643  0.944618  0.742596  1
  F  F33  1  0.944618  0.226357  0.742596  1
