# generated using pymatgen
data_TlVO3
_symmetry_space_group_name_H-M   'P 1'
_cell_length_a   5.30566850
_cell_length_b   5.92083627
_cell_length_c   11.35166193
_cell_angle_alpha   90.00000000
_cell_angle_beta   90.00000000
_cell_angle_gamma   90.00000000
_symmetry_Int_Tables_number   1
_chemical_formula_structural   TlVO3
_chemical_formula_sum   'Tl4 V4 O12'
_cell_volume   356.60104534
_cell_formula_units_Z   4
loop_
 _symmetry_equiv_pos_site_id
 _symmetry_equiv_pos_as_xyz
  1  'x, y, z'
loop_
 _atom_site_type_symbol
 _atom_site_label
 _atom_site_symmetry_multiplicity
 _atom_site_fract_x
 _atom_site_fract_y
 _atom_site_fract_z
 _atom_site_occupancy
  Tl  Tl0  1  0.079036  0.750000  0.904026  1
  Tl  Tl1  1  0.079036  0.250000  0.595974  1
  Tl  Tl2  1  0.920964  0.250000  0.095974  1
  Tl  Tl3  1  0.920964  0.750000  0.404026  1
  V  V4  1  0.541640  0.750000  0.668909  1
  V  V5  1  0.541640  0.250000  0.831091  1
  V  V6  1  0.458360  0.250000  0.331091  1
  V  V7  1  0.458360  0.750000  0.168909  1
  O  O8  1  0.570312  0.500000  0.250000  1
  O  O9  1  0.429688  0.000000  0.750000  1
  O  O10  1  0.429688  0.500000  0.750000  1
  O  O11  1  0.570312  0.000000  0.250000  1
  O  O12  1  0.427089  0.750000  0.531886  1
  O  O13  1  0.427089  0.250000  0.968114  1
  O  O14  1  0.572911  0.250000  0.468114  1
  O  O15  1  0.572911  0.750000  0.031886  1
  O  O16  1  0.141572  0.750000  0.162273  1
  O  O17  1  0.141572  0.250000  0.337727  1
  O  O18  1  0.858428  0.250000  0.837727  1
  O  O19  1  0.858428  0.750000  0.662273  1
