# generated using pymatgen
data_NaCrP2O7
_symmetry_space_group_name_H-M   'P 1'
_cell_length_a   7.36707934
_cell_length_b   7.98225755
_cell_length_c   9.62136642
_cell_angle_alpha   90.00000000
_cell_angle_beta   111.54189529
_cell_angle_gamma   90.00000000
_symmetry_Int_Tables_number   1
_chemical_formula_structural   NaCrP2O7
_chemical_formula_sum   'Na4 Cr4 P8 O28'
_cell_volume   526.27230422
_cell_formula_units_Z   4
loop_
 _symmetry_equiv_pos_site_id
 _symmetry_equiv_pos_as_xyz
  1  'x, y, z'
loop_
 _atom_site_type_symbol
 _atom_site_label
 _atom_site_symmetry_multiplicity
 _atom_site_fract_x
 _atom_site_fract_y
 _atom_site_fract_z
 _atom_site_occupancy
  Na  Na0  1  0.708593  0.478361  0.704137  1
  Na  Na1  1  0.291407  0.978361  0.795863  1
  Na  Na2  1  0.291407  0.521639  0.295863  1
  Na  Na3  1  0.708593  0.021639  0.204137  1
  Cr  Cr4  1  0.260117  0.993455  0.247046  1
  Cr  Cr5  1  0.739883  0.493455  0.252954  1
  Cr  Cr6  1  0.739883  0.006545  0.752954  1
  Cr  Cr7  1  0.260117  0.506545  0.747046  1
  P  P8  1  0.672868  0.710620  0.955754  1
  P  P9  1  0.327132  0.210620  0.544246  1
  P  P10  1  0.327132  0.289380  0.044246  1
  P  P11  1  0.672868  0.789380  0.455754  1
  P  P12  1  0.075683  0.755210  0.954261  1
  P  P13  1  0.924317  0.255210  0.545739  1
  P  P14  1  0.924317  0.244790  0.045739  1
  P  P15  1  0.075683  0.744790  0.454261  1
  O  O16  1  0.879699  0.653948  0.943828  1
  O  O17  1  0.120301  0.153948  0.556172  1
  O  O18  1  0.120301  0.346052  0.056172  1
  O  O19  1  0.879699  0.846052  0.443828  1
  O  O20  1  0.535114  0.586191  0.848704  1
  O  O21  1  0.464886  0.086191  0.651296  1
  O  O22  1  0.464886  0.413809  0.151296  1
  O  O23  1  0.535114  0.913809  0.348704  1
  O  O24  1  0.187261  0.637081  0.892339  1
  O  O25  1  0.812739  0.137081  0.607661  1
  O  O26  1  0.812739  0.362919  0.107661  1
  O  O27  1  0.187261  0.862919  0.392339  1
  O  O28  1  0.011560  0.915238  0.859023  1
  O  O29  1  0.988440  0.415238  0.640977  1
  O  O30  1  0.988440  0.084762  0.140977  1
  O  O31  1  0.011560  0.584762  0.359023  1
  O  O32  1  0.637988  0.894688  0.902270  1
  O  O33  1  0.362012  0.394688  0.597730  1
  O  O34  1  0.362012  0.105312  0.097730  1
  O  O35  1  0.637988  0.605312  0.402270  1
  O  O36  1  0.193472  0.786914  0.119856  1
  O  O37  1  0.806528  0.286914  0.380144  1
  O  O38  1  0.806528  0.213086  0.880144  1
  O  O39  1  0.193472  0.713086  0.619856  1
  O  O40  1  0.686473  0.701481  0.118151  1
  O  O41  1  0.313527  0.201481  0.381849  1
  O  O42  1  0.313527  0.298519  0.881849  1
  O  O43  1  0.686473  0.798519  0.618151  1
