# generated using pymatgen
data_Sr(In4Rh)2
_symmetry_space_group_name_H-M   'P 1'
_cell_length_a   4.44727610
_cell_length_b   14.12941116
_cell_length_c   16.43001388
_cell_angle_alpha   90.00000000
_cell_angle_beta   90.00000000
_cell_angle_gamma   90.00000000
_symmetry_Int_Tables_number   1
_chemical_formula_structural   Sr(In4Rh)2
_chemical_formula_sum   'Sr4 In32 Rh8'
_cell_volume   1032.41923193
_cell_formula_units_Z   4
loop_
 _symmetry_equiv_pos_site_id
 _symmetry_equiv_pos_as_xyz
  1  'x, y, z'
loop_
 _atom_site_type_symbol
 _atom_site_label
 _atom_site_symmetry_multiplicity
 _atom_site_fract_x
 _atom_site_fract_y
 _atom_site_fract_z
 _atom_site_occupancy
  Sr  Sr0  1  0.500000  0.842429  0.319328  1
  Sr  Sr1  1  0.500000  0.157571  0.680672  1
  Sr  Sr2  1  0.500000  0.342429  0.180672  1
  Sr  Sr3  1  0.500000  0.657571  0.819328  1
  In  In4  1  0.000000  0.833998  0.877956  1
  In  In5  1  0.000000  0.166002  0.122044  1
  In  In6  1  0.000000  0.333998  0.622044  1
  In  In7  1  0.000000  0.666002  0.377956  1
  In  In8  1  0.000000  0.550340  0.682828  1
  In  In9  1  0.000000  0.449660  0.317172  1
  In  In10  1  0.000000  0.050340  0.817172  1
  In  In11  1  0.000000  0.949660  0.182828  1
  In  In12  1  0.000000  0.000000  0.000000  1
  In  In13  1  0.000000  0.500000  0.500000  1
  In  In14  1  0.000000  0.760115  0.676784  1
  In  In15  1  0.000000  0.239885  0.323216  1
  In  In16  1  0.000000  0.260115  0.823216  1
  In  In17  1  0.000000  0.739885  0.176784  1
  In  In18  1  0.500000  0.840106  0.044434  1
  In  In19  1  0.500000  0.159894  0.955566  1
  In  In20  1  0.500000  0.340106  0.455566  1
  In  In21  1  0.500000  0.659894  0.544434  1
  In  In22  1  0.000000  0.669984  0.989041  1
  In  In23  1  0.000000  0.330016  0.010959  1
  In  In24  1  0.000000  0.169984  0.510959  1
  In  In25  1  0.000000  0.830016  0.489041  1
  In  In26  1  0.500000  0.600060  0.253582  1
  In  In27  1  0.500000  0.399940  0.746418  1
  In  In28  1  0.500000  0.100060  0.246418  1
  In  In29  1  0.500000  0.899940  0.753582  1
  In  In30  1  0.500000  0.500000  0.000000  1
  In  In31  1  0.500000  0.000000  0.500000  1
  In  In32  1  0.000000  0.979431  0.633437  1
  In  In33  1  0.000000  0.020569  0.366563  1
  In  In34  1  0.000000  0.479431  0.866563  1
  In  In35  1  0.000000  0.520569  0.133437  1
  Rh  Rh36  1  0.500000  0.653920  0.096511  1
  Rh  Rh37  1  0.500000  0.346080  0.903489  1
  Rh  Rh38  1  0.500000  0.153920  0.403489  1
  Rh  Rh39  1  0.500000  0.846080  0.596511  1
  Rh  Rh40  1  0.500000  0.534507  0.404940  1
  Rh  Rh41  1  0.500000  0.465493  0.595060  1
  Rh  Rh42  1  0.500000  0.034507  0.095060  1
  Rh  Rh43  1  0.500000  0.965493  0.904940  1
