# generated using pymatgen
data_RbInI4
_symmetry_space_group_name_H-M   'P 1'
_cell_length_a   15.12317435
_cell_length_b   15.12317435
_cell_length_c   15.12317435
_cell_angle_alpha   115.18210169
_cell_angle_beta   115.18210169
_cell_angle_gamma   115.18210169
_symmetry_Int_Tables_number   1
_chemical_formula_structural   RbInI4
_chemical_formula_sum   'Rb6 In6 I24'
_cell_volume   1903.25974967
_cell_formula_units_Z   6
loop_
 _symmetry_equiv_pos_site_id
 _symmetry_equiv_pos_as_xyz
  1  'x, y, z'
loop_
 _atom_site_type_symbol
 _atom_site_label
 _atom_site_symmetry_multiplicity
 _atom_site_fract_x
 _atom_site_fract_y
 _atom_site_fract_z
 _atom_site_occupancy
  Rb  Rb0  1  0.123578  0.907166  0.311384  1
  Rb  Rb1  1  0.907166  0.311384  0.123578  1
  Rb  Rb2  1  0.311384  0.123578  0.907166  1
  Rb  Rb3  1  0.811384  0.407166  0.623578  1
  Rb  Rb4  1  0.407166  0.623578  0.811384  1
  Rb  Rb5  1  0.623578  0.811384  0.407166  1
  In  In6  1  0.136672  0.318750  0.924837  1
  In  In7  1  0.318750  0.924837  0.136672  1
  In  In8  1  0.924837  0.136672  0.318750  1
  In  In9  1  0.424837  0.818750  0.636672  1
  In  In10  1  0.818750  0.636672  0.424837  1
  In  In11  1  0.636672  0.424837  0.818750  1
  I  I12  1  0.036873  0.090347  0.885016  1
  I  I13  1  0.090347  0.885016  0.036873  1
  I  I14  1  0.885016  0.036873  0.090347  1
  I  I15  1  0.385016  0.590347  0.536873  1
  I  I16  1  0.590347  0.536873  0.385016  1
  I  I17  1  0.536873  0.385016  0.590347  1
  I  I18  1  0.926253  0.217807  0.670647  1
  I  I19  1  0.217807  0.670647  0.926253  1
  I  I20  1  0.670647  0.926253  0.217807  1
  I  I21  1  0.170647  0.717807  0.426253  1
  I  I22  1  0.717807  0.426253  0.170647  1
  I  I23  1  0.426253  0.170647  0.717807  1
  I  I24  1  0.383528  0.449310  0.991900  1
  I  I25  1  0.449310  0.991900  0.383528  1
  I  I26  1  0.991900  0.383528  0.449310  1
  I  I27  1  0.491900  0.949310  0.883528  1
  I  I28  1  0.949310  0.883528  0.491900  1
  I  I29  1  0.883528  0.491900  0.949310  1
  I  I30  1  0.207436  0.524257  0.153840  1
  I  I31  1  0.524257  0.153840  0.207436  1
  I  I32  1  0.153840  0.207436  0.524257  1
  I  I33  1  0.653840  0.024257  0.707436  1
  I  I34  1  0.024257  0.707436  0.653840  1
  I  I35  1  0.707436  0.653840  0.024257  1
