# generated using pymatgen
data_Ca(Cu2P)2
_symmetry_space_group_name_H-M   'P 1'
_cell_length_a   7.27945831
_cell_length_b   7.27945831
_cell_length_c   3.79808547
_cell_angle_alpha   90.00000000
_cell_angle_beta   90.00000000
_cell_angle_gamma   90.00000000
_symmetry_Int_Tables_number   1
_chemical_formula_structural   Ca(Cu2P)2
_chemical_formula_sum   'Ca2 Cu8 P4'
_cell_volume   201.26249856
_cell_formula_units_Z   2
loop_
 _symmetry_equiv_pos_site_id
 _symmetry_equiv_pos_as_xyz
  1  'x, y, z'
loop_
 _atom_site_type_symbol
 _atom_site_label
 _atom_site_symmetry_multiplicity
 _atom_site_fract_x
 _atom_site_fract_y
 _atom_site_fract_z
 _atom_site_occupancy
  Ca  Ca0  1  0.000000  0.000000  0.000000  1
  Ca  Ca1  1  0.500000  0.500000  0.500000  1
  Cu  Cu2  1  0.663832  0.915017  0.500000  1
  Cu  Cu3  1  0.163832  0.584983  0.000000  1
  Cu  Cu4  1  0.415017  0.836168  0.000000  1
  Cu  Cu5  1  0.915017  0.663832  0.500000  1
  Cu  Cu6  1  0.836168  0.415017  0.000000  1
  Cu  Cu7  1  0.584983  0.163832  0.000000  1
  Cu  Cu8  1  0.084983  0.336168  0.500000  1
  Cu  Cu9  1  0.336168  0.084983  0.500000  1
  P  P10  1  0.281090  0.281090  0.000000  1
  P  P11  1  0.718910  0.718910  0.000000  1
  P  P12  1  0.781090  0.218910  0.500000  1
  P  P13  1  0.218910  0.781090  0.500000  1
