# generated using pymatgen
data_NaFeCl4
_symmetry_space_group_name_H-M   'P 1'
_cell_length_a   6.33539758
_cell_length_b   10.05616305
_cell_length_c   10.55877332
_cell_angle_alpha   90.00000000
_cell_angle_beta   90.00000000
_cell_angle_gamma   90.00000000
_symmetry_Int_Tables_number   1
_chemical_formula_structural   NaFeCl4
_chemical_formula_sum   'Na4 Fe4 Cl16'
_cell_volume   672.69724197
_cell_formula_units_Z   4
loop_
 _symmetry_equiv_pos_site_id
 _symmetry_equiv_pos_as_xyz
  1  'x, y, z'
loop_
 _atom_site_type_symbol
 _atom_site_label
 _atom_site_symmetry_multiplicity
 _atom_site_fract_x
 _atom_site_fract_y
 _atom_site_fract_z
 _atom_site_occupancy
  Na  Na0  1  0.061273  0.535406  0.633085  1
  Na  Na1  1  0.438727  0.464594  0.133085  1
  Na  Na2  1  0.938727  0.035406  0.866915  1
  Na  Na3  1  0.561273  0.964594  0.366915  1
  Fe  Fe4  1  0.958275  0.739669  0.211446  1
  Fe  Fe5  1  0.458275  0.760331  0.788554  1
  Fe  Fe6  1  0.041725  0.239669  0.288554  1
  Fe  Fe7  1  0.541725  0.260331  0.711446  1
  Cl  Cl8  1  0.326521  0.578276  0.877693  1
  Cl  Cl9  1  0.173479  0.421724  0.377693  1
  Cl  Cl10  1  0.673479  0.078276  0.622307  1
  Cl  Cl11  1  0.826521  0.921724  0.122307  1
  Cl  Cl12  1  0.191723  0.259075  0.716180  1
  Cl  Cl13  1  0.691723  0.240925  0.283820  1
  Cl  Cl14  1  0.808277  0.759075  0.783820  1
  Cl  Cl15  1  0.308277  0.740925  0.216180  1
  Cl  Cl16  1  0.647281  0.435515  0.602762  1
  Cl  Cl17  1  0.147281  0.064485  0.397238  1
  Cl  Cl18  1  0.352719  0.935515  0.897238  1
  Cl  Cl19  1  0.852719  0.564485  0.102762  1
  Cl  Cl20  1  0.824215  0.735575  0.405104  1
  Cl  Cl21  1  0.324215  0.764425  0.594896  1
  Cl  Cl22  1  0.175785  0.235575  0.094896  1
  Cl  Cl23  1  0.675785  0.264425  0.905104  1
