# generated using pymatgen
data_ErZn5
_symmetry_space_group_name_H-M   'P 1'
_cell_length_a   8.87613635
_cell_length_b   8.87613635
_cell_length_c   9.03351887
_cell_angle_alpha   90.00000000
_cell_angle_beta   90.00000000
_cell_angle_gamma   120.00000000
_symmetry_Int_Tables_number   1
_chemical_formula_structural   ErZn5
_chemical_formula_sum   'Er6 Zn30'
_cell_volume   616.36152075
_cell_formula_units_Z   6
loop_
 _symmetry_equiv_pos_site_id
 _symmetry_equiv_pos_as_xyz
  1  'x, y, z'
loop_
 _atom_site_type_symbol
 _atom_site_label
 _atom_site_symmetry_multiplicity
 _atom_site_fract_x
 _atom_site_fract_y
 _atom_site_fract_z
 _atom_site_occupancy
  Er  Er0  1  0.189448  0.378896  0.250000  1
  Er  Er1  1  0.810552  0.189448  0.750000  1
  Er  Er2  1  0.378896  0.189448  0.750000  1
  Er  Er3  1  0.621104  0.810552  0.250000  1
  Er  Er4  1  0.189448  0.810552  0.250000  1
  Er  Er5  1  0.810552  0.621104  0.750000  1
  Zn  Zn6  1  0.000000  0.000000  0.000000  1
  Zn  Zn7  1  0.000000  0.000000  0.500000  1
  Zn  Zn8  1  0.333333  0.666667  0.019295  1
  Zn  Zn9  1  0.666667  0.333333  0.519295  1
  Zn  Zn10  1  0.666667  0.333333  0.980705  1
  Zn  Zn11  1  0.333333  0.666667  0.480705  1
  Zn  Zn12  1  0.500000  0.000000  0.000000  1
  Zn  Zn13  1  0.500000  0.500000  0.500000  1
  Zn  Zn14  1  0.000000  0.500000  0.500000  1
  Zn  Zn15  1  0.000000  0.500000  0.000000  1
  Zn  Zn16  1  0.500000  0.500000  0.000000  1
  Zn  Zn17  1  0.500000  0.000000  0.500000  1
  Zn  Zn18  1  0.567716  0.135431  0.250000  1
  Zn  Zn19  1  0.432284  0.567716  0.750000  1
  Zn  Zn20  1  0.135431  0.567716  0.750000  1
  Zn  Zn21  1  0.864569  0.432284  0.250000  1
  Zn  Zn22  1  0.567716  0.432284  0.250000  1
  Zn  Zn23  1  0.432284  0.864569  0.750000  1
  Zn  Zn24  1  0.839547  0.679094  0.092825  1
  Zn  Zn25  1  0.160453  0.839547  0.592825  1
  Zn  Zn26  1  0.679094  0.839547  0.592825  1
  Zn  Zn27  1  0.320906  0.160453  0.092825  1
  Zn  Zn28  1  0.839547  0.160453  0.092825  1
  Zn  Zn29  1  0.160453  0.320906  0.907175  1
  Zn  Zn30  1  0.160453  0.839547  0.907175  1
  Zn  Zn31  1  0.160453  0.320906  0.592825  1
  Zn  Zn32  1  0.679094  0.839547  0.907175  1
  Zn  Zn33  1  0.320906  0.160453  0.407175  1
  Zn  Zn34  1  0.839547  0.679094  0.407175  1
  Zn  Zn35  1  0.839547  0.160453  0.407175  1
