# generated using pymatgen
data_Nd4Ge7
_symmetry_space_group_name_H-M   'P 1'
_cell_length_a   7.64747077
_cell_length_b   7.64747077
_cell_length_c   12.09327520
_cell_angle_alpha   90.00000000
_cell_angle_beta   90.00000000
_cell_angle_gamma   133.41119179
_symmetry_Int_Tables_number   1
_chemical_formula_structural   Nd4Ge7
_chemical_formula_sum   'Nd8 Ge14'
_cell_volume   513.78285080
_cell_formula_units_Z   2
loop_
 _symmetry_equiv_pos_site_id
 _symmetry_equiv_pos_as_xyz
  1  'x, y, z'
loop_
 _atom_site_type_symbol
 _atom_site_label
 _atom_site_symmetry_multiplicity
 _atom_site_fract_x
 _atom_site_fract_y
 _atom_site_fract_z
 _atom_site_occupancy
  Nd  Nd0  1  0.514378  0.514378  0.500000  1
  Nd  Nd1  1  0.485622  0.485622  0.000000  1
  Nd  Nd2  1  0.004879  0.995121  0.250000  1
  Nd  Nd3  1  0.995121  0.004879  0.750000  1
  Nd  Nd4  1  0.018114  0.508560  0.619679  1
  Nd  Nd5  1  0.508560  0.018114  0.380321  1
  Nd  Nd6  1  0.981886  0.491440  0.119679  1
  Nd  Nd7  1  0.491440  0.981886  0.880321  1
  Ge  Ge8  1  0.561034  0.438966  0.250000  1
  Ge  Ge9  1  0.438966  0.561034  0.750000  1
  Ge  Ge10  1  0.819991  0.525641  0.837095  1
  Ge  Ge11  1  0.525641  0.819991  0.162905  1
  Ge  Ge12  1  0.180008  0.474359  0.337095  1
  Ge  Ge13  1  0.474359  0.180009  0.662905  1
  Ge  Ge14  1  0.080916  0.426183  0.871290  1
  Ge  Ge15  1  0.426183  0.080916  0.128710  1
  Ge  Ge16  1  0.929663  0.106601  0.489676  1
  Ge  Ge17  1  0.106601  0.929663  0.510324  1
  Ge  Ge18  1  0.070337  0.893399  0.989676  1
  Ge  Ge19  1  0.893399  0.070337  0.010324  1
  Ge  Ge20  1  0.573817  0.919084  0.628710  1
  Ge  Ge21  1  0.919084  0.573817  0.371290  1
