# generated using pymatgen
data_Na2CoCl4
_symmetry_space_group_name_H-M   'P 1'
_cell_length_a   6.42878192
_cell_length_b   8.22964995
_cell_length_c   13.87019455
_cell_angle_alpha   90.00000000
_cell_angle_beta   90.00000000
_cell_angle_gamma   90.00000000
_symmetry_Int_Tables_number   1
_chemical_formula_structural   Na2CoCl4
_chemical_formula_sum   'Na8 Co4 Cl16'
_cell_volume   733.82517905
_cell_formula_units_Z   4
loop_
 _symmetry_equiv_pos_site_id
 _symmetry_equiv_pos_as_xyz
  1  'x, y, z'
loop_
 _atom_site_type_symbol
 _atom_site_label
 _atom_site_symmetry_multiplicity
 _atom_site_fract_x
 _atom_site_fract_y
 _atom_site_fract_z
 _atom_site_occupancy
  Na  Na0  1  0.000000  0.000000  0.000000  1
  Na  Na1  1  0.500000  0.000000  0.500000  1
  Na  Na2  1  0.000000  0.500000  0.000000  1
  Na  Na3  1  0.500000  0.500000  0.500000  1
  Na  Na4  1  0.017107  0.750000  0.271408  1
  Na  Na5  1  0.517107  0.250000  0.228592  1
  Na  Na6  1  0.982893  0.250000  0.728592  1
  Na  Na7  1  0.482893  0.750000  0.771408  1
  Co  Co8  1  0.596946  0.750000  0.090959  1
  Co  Co9  1  0.903054  0.750000  0.590959  1
  Co  Co10  1  0.403054  0.250000  0.909041  1
  Co  Co11  1  0.096946  0.250000  0.409041  1
  Cl  Cl12  1  0.756991  0.968421  0.665078  1
  Cl  Cl13  1  0.243009  0.468421  0.334922  1
  Cl  Cl14  1  0.743009  0.531579  0.165078  1
  Cl  Cl15  1  0.753086  0.250000  0.908487  1
  Cl  Cl16  1  0.246914  0.750000  0.091513  1
  Cl  Cl17  1  0.746914  0.250000  0.408487  1
  Cl  Cl18  1  0.233257  0.250000  0.560884  1
  Cl  Cl19  1  0.253086  0.750000  0.591513  1
  Cl  Cl20  1  0.766743  0.750000  0.439116  1
  Cl  Cl21  1  0.266743  0.250000  0.060884  1
  Cl  Cl22  1  0.756991  0.531579  0.665078  1
  Cl  Cl23  1  0.733257  0.750000  0.939116  1
  Cl  Cl24  1  0.743009  0.968421  0.165078  1
  Cl  Cl25  1  0.243009  0.031579  0.334922  1
  Cl  Cl26  1  0.256991  0.468421  0.834922  1
  Cl  Cl27  1  0.256991  0.031579  0.834922  1
