# generated using pymatgen
data_NaGe
_symmetry_space_group_name_H-M   'P 1'
_cell_length_a   11.44220660
_cell_length_b   6.67676903
_cell_length_c   11.91909528
_cell_angle_alpha   90.00000000
_cell_angle_beta   115.99942953
_cell_angle_gamma   90.00000000
_symmetry_Int_Tables_number   1
_chemical_formula_structural   NaGe
_chemical_formula_sum   'Na16 Ge16'
_cell_volume   818.43034859
_cell_formula_units_Z   16
loop_
 _symmetry_equiv_pos_site_id
 _symmetry_equiv_pos_as_xyz
  1  'x, y, z'
loop_
 _atom_site_type_symbol
 _atom_site_label
 _atom_site_symmetry_multiplicity
 _atom_site_fract_x
 _atom_site_fract_y
 _atom_site_fract_z
 _atom_site_occupancy
  Na  Na0  1  0.267459  0.064432  0.903124  1
  Na  Na1  1  0.232541  0.564432  0.096876  1
  Na  Na2  1  0.732541  0.935568  0.096876  1
  Na  Na3  1  0.767459  0.435568  0.903124  1
  Na  Na4  1  0.739676  0.146443  0.606666  1
  Na  Na5  1  0.760324  0.646443  0.393334  1
  Na  Na6  1  0.260324  0.853557  0.393334  1
  Na  Na7  1  0.239676  0.353557  0.606666  1
  Na  Na8  1  0.096946  0.819348  0.604040  1
  Na  Na9  1  0.403054  0.319348  0.395960  1
  Na  Na10  1  0.903054  0.180652  0.395960  1
  Na  Na11  1  0.596946  0.680652  0.604040  1
  Na  Na12  1  0.951569  0.863333  0.858975  1
  Na  Na13  1  0.548431  0.363333  0.141025  1
  Na  Na14  1  0.048431  0.136667  0.141025  1
  Na  Na15  1  0.451569  0.636667  0.858975  1
  Ge  Ge16  1  0.154984  0.526220  0.808450  1
  Ge  Ge17  1  0.345016  0.026220  0.191550  1
  Ge  Ge18  1  0.845016  0.473780  0.191550  1
  Ge  Ge19  1  0.654984  0.973780  0.808450  1
  Ge  Ge20  1  0.899676  0.539831  0.675566  1
  Ge  Ge21  1  0.600324  0.039831  0.324434  1
  Ge  Ge22  1  0.100324  0.460169  0.324434  1
  Ge  Ge23  1  0.399676  0.960169  0.675566  1
  Ge  Ge24  1  0.025288  0.218576  0.674249  1
  Ge  Ge25  1  0.474712  0.718576  0.325751  1
  Ge  Ge26  1  0.974712  0.781424  0.325751  1
  Ge  Ge27  1  0.525288  0.281424  0.674249  1
  Ge  Ge28  1  0.007337  0.316206  0.875610  1
  Ge  Ge29  1  0.492663  0.816206  0.124390  1
  Ge  Ge30  1  0.992663  0.683794  0.124390  1
  Ge  Ge31  1  0.507337  0.183794  0.875610  1
