# generated using pymatgen
data_EuSi
_symmetry_space_group_name_H-M   'P 1'
_cell_length_a   6.00538210
_cell_length_b   6.00538210
_cell_length_c   3.97353864
_cell_angle_alpha   90.00000000
_cell_angle_beta   90.00000000
_cell_angle_gamma   135.03205958
_symmetry_Int_Tables_number   1
_chemical_formula_structural   EuSi
_chemical_formula_sum   'Eu2 Si2'
_cell_volume   101.27461249
_cell_formula_units_Z   2
loop_
 _symmetry_equiv_pos_site_id
 _symmetry_equiv_pos_as_xyz
  1  'x, y, z'
loop_
 _atom_site_type_symbol
 _atom_site_label
 _atom_site_symmetry_multiplicity
 _atom_site_fract_x
 _atom_site_fract_y
 _atom_site_fract_z
 _atom_site_occupancy
  Eu  Eu0  1  0.140379  0.859621  0.250000  1
  Eu  Eu1  1  0.859621  0.140379  0.750000  1
  Si  Si2  1  0.434278  0.565722  0.250000  1
  Si  Si3  1  0.565722  0.434278  0.750000  1
