# generated using pymatgen
data_Na6CdCl8
_symmetry_space_group_name_H-M   'P 1'
_cell_length_a   8.05643695
_cell_length_b   8.05643695
_cell_length_c   8.05643695
_cell_angle_alpha   60.00000000
_cell_angle_beta   60.00000000
_cell_angle_gamma   60.00000000
_symmetry_Int_Tables_number   1
_chemical_formula_structural   Na6CdCl8
_chemical_formula_sum   'Na6 Cd1 Cl8'
_cell_volume   369.75498655
_cell_formula_units_Z   1
loop_
 _symmetry_equiv_pos_site_id
 _symmetry_equiv_pos_as_xyz
  1  'x, y, z'
loop_
 _atom_site_type_symbol
 _atom_site_label
 _atom_site_symmetry_multiplicity
 _atom_site_fract_x
 _atom_site_fract_y
 _atom_site_fract_z
 _atom_site_occupancy
  Na  Na0  1  1.000000  1.000000  0.500000  1
  Na  Na1  1  0.000000  0.500000  0.500000  1
  Na  Na2  1  1.000000  0.500000  1.000000  1
  Na  Na3  1  0.500000  0.000000  0.500000  1
  Na  Na4  1  0.500000  1.000000  0.000000  1
  Na  Na5  1  0.500000  0.500000  1.000000  1
  Cd  Cd6  1  0.000000  0.000000  0.000000  1
  Cl  Cl7  1  0.234685  0.765315  0.765315  1
  Cl  Cl8  1  0.750000  0.750000  0.750000  1
  Cl  Cl9  1  0.250000  0.250000  0.250000  1
  Cl  Cl10  1  0.765315  0.234685  0.234685  1
  Cl  Cl11  1  0.234685  0.765315  0.234685  1
  Cl  Cl12  1  0.765315  0.234685  0.765315  1
  Cl  Cl13  1  0.765315  0.765315  0.234685  1
  Cl  Cl14  1  0.234685  0.234685  0.765315  1
