# generated using pymatgen
data_Tb(FeSn)6
_symmetry_space_group_name_H-M   'P 1'
_cell_length_a   10.39696903
_cell_length_b   10.39696903
_cell_length_c   5.43278393
_cell_angle_alpha   90.00000000
_cell_angle_beta   90.00000000
_cell_angle_gamma   128.86162462
_symmetry_Int_Tables_number   1
_chemical_formula_structural   Tb(FeSn)6
_chemical_formula_sum   'Tb2 Fe12 Sn12'
_cell_volume   457.28377228
_cell_formula_units_Z   2
loop_
 _symmetry_equiv_pos_site_id
 _symmetry_equiv_pos_as_xyz
  1  'x, y, z'
loop_
 _atom_site_type_symbol
 _atom_site_label
 _atom_site_symmetry_multiplicity
 _atom_site_fract_x
 _atom_site_fract_y
 _atom_site_fract_z
 _atom_site_occupancy
  Tb  Tb0  1  0.872335  0.127665  0.750000  1
  Tb  Tb1  1  0.127665  0.872335  0.250000  1
  Fe  Fe2  1  0.500000  0.000000  0.000000  1
  Fe  Fe3  1  0.500000  0.000000  0.500000  1
  Fe  Fe4  1  0.000000  0.500000  0.000000  1
  Fe  Fe5  1  0.000000  0.500000  0.500000  1
  Fe  Fe6  1  0.753689  0.753689  0.000000  1
  Fe  Fe7  1  0.246311  0.246311  0.500000  1
  Fe  Fe8  1  0.246311  0.246311  1.000000  1
  Fe  Fe9  1  0.753689  0.753689  0.500000  1
  Fe  Fe10  1  0.627873  0.877846  0.250000  1
  Fe  Fe11  1  0.372127  0.122154  0.750000  1
  Fe  Fe12  1  0.877846  0.627873  0.750000  1
  Fe  Fe13  1  0.122154  0.372127  0.250000  1
  Sn  Sn14  1  0.957958  0.042042  0.250000  1
  Sn  Sn15  1  0.042042  0.957958  0.750000  1
  Sn  Sn16  1  0.459626  0.540374  0.250000  1
  Sn  Sn17  1  0.540374  0.459626  0.750000  1
  Sn  Sn18  1  0.789242  0.210758  0.250000  1
  Sn  Sn19  1  0.210758  0.789242  0.750000  1
  Sn  Sn20  1  0.295192  0.704808  0.250000  1
  Sn  Sn21  1  0.704808  0.295192  0.750000  1
  Sn  Sn22  1  0.538614  0.787394  0.750000  1
  Sn  Sn23  1  0.461386  0.212606  0.250000  1
  Sn  Sn24  1  0.787394  0.538614  0.250000  1
  Sn  Sn25  1  0.212606  0.461386  0.750000  1
