# generated using pymatgen
data_TmGeRu
_symmetry_space_group_name_H-M   'P 1'
_cell_length_a   4.37992481
_cell_length_b   6.96032455
_cell_length_c   7.25011385
_cell_angle_alpha   90.00000000
_cell_angle_beta   90.00000000
_cell_angle_gamma   90.00000000
_symmetry_Int_Tables_number   1
_chemical_formula_structural   TmGeRu
_chemical_formula_sum   'Tm4 Ge4 Ru4'
_cell_volume   221.02478262
_cell_formula_units_Z   4
loop_
 _symmetry_equiv_pos_site_id
 _symmetry_equiv_pos_as_xyz
  1  'x, y, z'
loop_
 _atom_site_type_symbol
 _atom_site_label
 _atom_site_symmetry_multiplicity
 _atom_site_fract_x
 _atom_site_fract_y
 _atom_site_fract_z
 _atom_site_occupancy
  Tm  Tm0  1  0.250000  0.989515  0.807562  1
  Tm  Tm1  1  0.750000  0.010485  0.192438  1
  Tm  Tm2  1  0.250000  0.489515  0.692438  1
  Tm  Tm3  1  0.750000  0.510485  0.307562  1
  Ge  Ge4  1  0.250000  0.294470  0.107497  1
  Ge  Ge5  1  0.750000  0.705530  0.892503  1
  Ge  Ge6  1  0.250000  0.794470  0.392503  1
  Ge  Ge7  1  0.750000  0.205530  0.607497  1
  Ru  Ru8  1  0.750000  0.843445  0.562209  1
  Ru  Ru9  1  0.250000  0.156555  0.437791  1
  Ru  Ru10  1  0.750000  0.343445  0.937791  1
  Ru  Ru11  1  0.250000  0.656555  0.062209  1
