# generated using pymatgen
data_Pt5Se4
_symmetry_space_group_name_H-M   'P 1'
_cell_length_a   6.67046474
_cell_length_b   4.69871443
_cell_length_c   11.27895222
_cell_angle_alpha   90.00000000
_cell_angle_beta   101.39663083
_cell_angle_gamma   90.00000000
_symmetry_Int_Tables_number   1
_chemical_formula_structural   Pt5Se4
_chemical_formula_sum   'Pt10 Se8'
_cell_volume   346.54152417
_cell_formula_units_Z   2
loop_
 _symmetry_equiv_pos_site_id
 _symmetry_equiv_pos_as_xyz
  1  'x, y, z'
loop_
 _atom_site_type_symbol
 _atom_site_label
 _atom_site_symmetry_multiplicity
 _atom_site_fract_x
 _atom_site_fract_y
 _atom_site_fract_z
 _atom_site_occupancy
  Pt  Pt0  1  0.331500  0.667915  0.002043  1
  Pt  Pt1  1  0.668500  0.167915  0.497957  1
  Pt  Pt2  1  0.668500  0.332085  0.997957  1
  Pt  Pt3  1  0.331500  0.832085  0.502043  1
  Pt  Pt4  1  0.223141  0.336436  0.173622  1
  Pt  Pt5  1  0.776859  0.836436  0.326378  1
  Pt  Pt6  1  0.776859  0.663564  0.826378  1
  Pt  Pt7  1  0.223141  0.163564  0.673622  1
  Pt  Pt8  1  0.000000  0.000000  0.000000  1
  Pt  Pt9  1  0.000000  0.500000  0.500000  1
  Se  Se10  1  0.911564  0.635018  0.137786  1
  Se  Se11  1  0.088436  0.135018  0.362214  1
  Se  Se12  1  0.088436  0.364982  0.862214  1
  Se  Se13  1  0.911564  0.864982  0.637786  1
  Se  Se14  1  0.514221  0.037529  0.144003  1
  Se  Se15  1  0.485779  0.537529  0.355997  1
  Se  Se16  1  0.485779  0.962471  0.855997  1
  Se  Se17  1  0.514221  0.462471  0.644003  1
