# generated using pymatgen
data_SrCo6O11
_symmetry_space_group_name_H-M   'P 1'
_cell_length_a   5.63919090
_cell_length_b   5.63919090
_cell_length_c   12.81793349
_cell_angle_alpha   90.00000000
_cell_angle_beta   90.00000000
_cell_angle_gamma   120.00000000
_symmetry_Int_Tables_number   1
_chemical_formula_structural   SrCo6O11
_chemical_formula_sum   'Sr2 Co12 O22'
_cell_volume   353.00612363
_cell_formula_units_Z   2
loop_
 _symmetry_equiv_pos_site_id
 _symmetry_equiv_pos_as_xyz
  1  'x, y, z'
loop_
 _atom_site_type_symbol
 _atom_site_label
 _atom_site_symmetry_multiplicity
 _atom_site_fract_x
 _atom_site_fract_y
 _atom_site_fract_z
 _atom_site_occupancy
  Sr  Sr0  1  0.666667  0.333333  0.750000  1
  Sr  Sr1  1  0.333333  0.666667  0.250000  1
  Co  Co2  1  0.333333  0.666667  0.750000  1
  Co  Co3  1  0.666667  0.333333  0.250000  1
  Co  Co4  1  0.000000  0.000000  0.350916  1
  Co  Co5  1  0.000000  0.000000  0.850916  1
  Co  Co6  1  0.000000  0.000000  0.649084  1
  Co  Co7  1  0.000000  0.000000  0.149084  1
  Co  Co8  1  0.500000  0.500000  0.500000  1
  Co  Co9  1  0.000000  0.500000  0.000000  1
  Co  Co10  1  0.500000  0.000000  0.000000  1
  Co  Co11  1  0.500000  0.000000  0.500000  1
  Co  Co12  1  0.000000  0.500000  0.500000  1
  Co  Co13  1  0.500000  0.500000  0.000000  1
  O  O14  1  0.666667  0.333333  0.078308  1
  O  O15  1  0.333333  0.666667  0.578308  1
  O  O16  1  0.333333  0.666667  0.921692  1
  O  O17  1  0.666667  0.333333  0.421692  1
  O  O18  1  0.856890  0.143110  0.250000  1
  O  O19  1  0.713781  0.856890  0.750000  1
  O  O20  1  0.143110  0.286219  0.750000  1
  O  O21  1  0.856890  0.713781  0.250000  1
  O  O22  1  0.286219  0.143110  0.250000  1
  O  O23  1  0.143110  0.856890  0.750000  1
  O  O24  1  0.175589  0.351178  0.421042  1
  O  O25  1  0.648822  0.824411  0.421042  1
  O  O26  1  0.175589  0.824411  0.421042  1
  O  O27  1  0.824411  0.175589  0.921042  1
  O  O28  1  0.175589  0.824411  0.078958  1
  O  O29  1  0.351178  0.175589  0.578958  1
  O  O30  1  0.824411  0.648822  0.578958  1
  O  O31  1  0.175589  0.351178  0.078958  1
  O  O32  1  0.648822  0.824411  0.078958  1
  O  O33  1  0.351178  0.175589  0.921042  1
  O  O34  1  0.824411  0.648822  0.921042  1
  O  O35  1  0.824411  0.175589  0.578958  1
