# generated using pymatgen
data_Sr4I6O
_symmetry_space_group_name_H-M   'P 1'
_cell_length_a   10.61946950
_cell_length_b   10.61946950
_cell_length_c   8.20692792
_cell_angle_alpha   90.00000000
_cell_angle_beta   90.00000000
_cell_angle_gamma   120.00000000
_symmetry_Int_Tables_number   1
_chemical_formula_structural   Sr4I6O
_chemical_formula_sum   'Sr8 I12 O2'
_cell_volume   801.52467114
_cell_formula_units_Z   2
loop_
 _symmetry_equiv_pos_site_id
 _symmetry_equiv_pos_as_xyz
  1  'x, y, z'
loop_
 _atom_site_type_symbol
 _atom_site_label
 _atom_site_symmetry_multiplicity
 _atom_site_fract_x
 _atom_site_fract_y
 _atom_site_fract_z
 _atom_site_occupancy
  Sr  Sr0  1  0.586164  0.793082  0.489100  1
  Sr  Sr1  1  0.793082  0.206918  0.989100  1
  Sr  Sr2  1  0.666667  0.333333  0.376216  1
  Sr  Sr3  1  0.206918  0.413836  0.489100  1
  Sr  Sr4  1  0.206918  0.793082  0.489100  1
  Sr  Sr5  1  0.793082  0.586164  0.989100  1
  Sr  Sr6  1  0.413836  0.206918  0.989100  1
  Sr  Sr7  1  0.333333  0.666667  0.876216  1
  I  I8  1  0.927732  0.463866  0.682190  1
  I  I9  1  0.536134  0.072268  0.682190  1
  I  I10  1  0.072268  0.536134  0.182190  1
  I  I11  1  0.536134  0.463866  0.682190  1
  I  I12  1  0.272615  0.136307  0.363674  1
  I  I13  1  0.136307  0.272615  0.863674  1
  I  I14  1  0.136307  0.863693  0.863674  1
  I  I15  1  0.863693  0.136307  0.363674  1
  I  I16  1  0.863693  0.727385  0.363674  1
  I  I17  1  0.727385  0.863693  0.863674  1
  I  I18  1  0.463866  0.536134  0.182190  1
  I  I19  1  0.463866  0.927732  0.182190  1
  O  O20  1  0.666667  0.333333  0.082214  1
  O  O21  1  0.333333  0.666667  0.582214  1
