# generated using pymatgen
data_SrCuN
_symmetry_space_group_name_H-M   'P 1'
_cell_length_a   5.39757069
_cell_length_b   9.07531703
_cell_length_c   13.26714759
_cell_angle_alpha   90.00000000
_cell_angle_beta   90.00000000
_cell_angle_gamma   90.00000000
_symmetry_Int_Tables_number   1
_chemical_formula_structural   SrCuN
_chemical_formula_sum   'Sr12 Cu12 N12'
_cell_volume   649.88678290
_cell_formula_units_Z   12
loop_
 _symmetry_equiv_pos_site_id
 _symmetry_equiv_pos_as_xyz
  1  'x, y, z'
loop_
 _atom_site_type_symbol
 _atom_site_label
 _atom_site_symmetry_multiplicity
 _atom_site_fract_x
 _atom_site_fract_y
 _atom_site_fract_z
 _atom_site_occupancy
  Sr  Sr0  1  0.002521  0.021611  0.250000  1
  Sr  Sr1  1  0.502521  0.478389  0.750000  1
  Sr  Sr2  1  0.497479  0.521611  0.250000  1
  Sr  Sr3  1  0.997479  0.978389  0.750000  1
  Sr  Sr4  1  0.015495  0.339578  0.086286  1
  Sr  Sr5  1  0.515495  0.160422  0.913714  1
  Sr  Sr6  1  0.984505  0.660422  0.913714  1
  Sr  Sr7  1  0.484505  0.839578  0.413714  1
  Sr  Sr8  1  0.984505  0.660422  0.586286  1
  Sr  Sr9  1  0.015495  0.339578  0.413714  1
  Sr  Sr10  1  0.515495  0.160422  0.586286  1
  Sr  Sr11  1  0.484505  0.839578  0.086286  1
  Cu  Cu12  1  0.513667  0.178629  0.156294  1
  Cu  Cu13  1  0.000000  0.000000  0.500000  1
  Cu  Cu14  1  0.500000  0.500000  0.500000  1
  Cu  Cu15  1  0.500000  0.500000  0.000000  1
  Cu  Cu16  1  0.000000  0.000000  0.000000  1
  Cu  Cu17  1  0.013667  0.321371  0.843706  1
  Cu  Cu18  1  0.986333  0.678629  0.156294  1
  Cu  Cu19  1  0.486333  0.821371  0.656294  1
  Cu  Cu20  1  0.486333  0.821371  0.843706  1
  Cu  Cu21  1  0.513667  0.178629  0.343706  1
  Cu  Cu22  1  0.013667  0.321371  0.656294  1
  Cu  Cu23  1  0.986333  0.678629  0.343706  1
  N  N24  1  0.740208  0.587330  0.419446  1
  N  N25  1  0.715398  0.741473  0.750000  1
  N  N26  1  0.215398  0.758527  0.250000  1
  N  N27  1  0.784602  0.241473  0.750000  1
  N  N28  1  0.284602  0.258527  0.250000  1
  N  N29  1  0.759792  0.087330  0.419446  1
  N  N30  1  0.259792  0.412670  0.580554  1
  N  N31  1  0.740208  0.587330  0.080554  1
  N  N32  1  0.240208  0.912670  0.919446  1
  N  N33  1  0.240208  0.912670  0.580554  1
  N  N34  1  0.259792  0.412670  0.919446  1
  N  N35  1  0.759792  0.087330  0.080554  1
