# generated using pymatgen
data_BaLa2In2O7
_symmetry_space_group_name_H-M   'P 1'
_cell_length_a   6.00390106
_cell_length_b   6.00390106
_cell_length_c   20.97179371
_cell_angle_alpha   90.00000000
_cell_angle_beta   90.00000000
_cell_angle_gamma   90.00000000
_symmetry_Int_Tables_number   1
_chemical_formula_structural   BaLa2In2O7
_chemical_formula_sum   'Ba4 La8 In8 O28'
_cell_volume   755.96663942
_cell_formula_units_Z   4
loop_
 _symmetry_equiv_pos_site_id
 _symmetry_equiv_pos_as_xyz
  1  'x, y, z'
loop_
 _atom_site_type_symbol
 _atom_site_label
 _atom_site_symmetry_multiplicity
 _atom_site_fract_x
 _atom_site_fract_y
 _atom_site_fract_z
 _atom_site_occupancy
  Ba  Ba0  1  0.241501  0.758499  0.500000  1
  Ba  Ba1  1  0.758499  0.241501  0.500000  1
  Ba  Ba2  1  0.258499  0.258499  0.000000  1
  Ba  Ba3  1  0.741501  0.741501  0.000000  1
  La  La4  1  0.776982  0.223018  0.314495  1
  La  La5  1  0.776982  0.223018  0.685505  1
  La  La6  1  0.223018  0.776982  0.685505  1
  La  La7  1  0.276982  0.276982  0.185505  1
  La  La8  1  0.223018  0.776982  0.314495  1
  La  La9  1  0.276982  0.276982  0.814495  1
  La  La10  1  0.723018  0.723018  0.814495  1
  La  La11  1  0.723018  0.723018  0.185505  1
  In  In12  1  0.741551  0.741551  0.601803  1
  In  In13  1  0.258449  0.258449  0.601803  1
  In  In14  1  0.741551  0.741551  0.398197  1
  In  In15  1  0.241551  0.758449  0.101803  1
  In  In16  1  0.758449  0.241551  0.101803  1
  In  In17  1  0.758449  0.241551  0.898197  1
  In  In18  1  0.241551  0.758449  0.898197  1
  In  In19  1  0.258449  0.258449  0.398197  1
  O  O20  1  0.000000  0.000000  0.591615  1
  O  O21  1  0.500000  0.500000  0.091615  1
  O  O22  1  0.500000  0.500000  0.908385  1
  O  O23  1  0.000000  0.000000  0.408385  1
  O  O24  1  0.000000  0.000000  0.866255  1
  O  O25  1  0.500000  0.500000  0.366255  1
  O  O26  1  0.500000  0.500000  0.633745  1
  O  O27  1  0.000000  0.000000  0.133745  1
  O  O28  1  0.500000  0.000000  0.115109  1
  O  O29  1  0.500000  0.000000  0.615109  1
  O  O30  1  0.000000  0.500000  0.384891  1
  O  O31  1  0.000000  0.500000  0.884891  1
  O  O32  1  0.500000  0.000000  0.884891  1
  O  O33  1  0.500000  0.000000  0.384891  1
  O  O34  1  0.000000  0.500000  0.615109  1
  O  O35  1  0.000000  0.500000  0.115109  1
  O  O36  1  0.817421  0.817421  0.711221  1
  O  O37  1  0.182579  0.182579  0.711221  1
  O  O38  1  0.817421  0.817421  0.288779  1
  O  O39  1  0.317421  0.682579  0.211221  1
  O  O40  1  0.796737  0.203263  0.000000  1
  O  O41  1  0.296737  0.296737  0.500000  1
  O  O42  1  0.703263  0.703263  0.500000  1
  O  O43  1  0.203263  0.796737  0.000000  1
  O  O44  1  0.182579  0.182579  0.288779  1
  O  O45  1  0.317421  0.682579  0.788779  1
  O  O46  1  0.682579  0.317421  0.788779  1
  O  O47  1  0.682579  0.317421  0.211221  1
