# generated using pymatgen
data_InAgTe2
_symmetry_space_group_name_H-M   'P 1'
_cell_length_a   7.97072254
_cell_length_b   7.97072254
_cell_length_c   7.97072254
_cell_angle_alpha   131.15269415
_cell_angle_beta   131.15269415
_cell_angle_gamma   71.57059212
_symmetry_Int_Tables_number   1
_chemical_formula_structural   InAgTe2
_chemical_formula_sum   'In2 Ag2 Te4'
_cell_volume   280.93004904
_cell_formula_units_Z   2
loop_
 _symmetry_equiv_pos_site_id
 _symmetry_equiv_pos_as_xyz
  1  'x, y, z'
loop_
 _atom_site_type_symbol
 _atom_site_label
 _atom_site_symmetry_multiplicity
 _atom_site_fract_x
 _atom_site_fract_y
 _atom_site_fract_z
 _atom_site_occupancy
  In  In0  1  0.250000  0.750000  0.500000  1
  In  In1  1  0.500000  0.500000  0.000000  1
  Ag  Ag2  1  0.750000  0.250000  0.500000  1
  Ag  Ag3  1  0.000000  0.000000  0.000000  1
  Te  Te4  1  0.120132  0.125000  0.495132  1
  Te  Te5  1  0.875000  0.370132  0.995132  1
  Te  Te6  1  0.375000  0.879868  0.004868  1
  Te  Te7  1  0.629868  0.625000  0.504868  1
