# generated using pymatgen
data_Ca11(ReO6)4
_symmetry_space_group_name_H-M   'P 1'
_cell_length_a   11.46076144
_cell_length_b   11.46076144
_cell_length_c   11.46076144
_cell_angle_alpha   122.00547732
_cell_angle_beta   122.00547732
_cell_angle_gamma   86.56014901
_symmetry_Int_Tables_number   1
_chemical_formula_structural   Ca11(ReO6)4
_chemical_formula_sum   'Ca22 Re8 O48'
_cell_volume   1030.16320856
_cell_formula_units_Z   2
loop_
 _symmetry_equiv_pos_site_id
 _symmetry_equiv_pos_as_xyz
  1  'x, y, z'
loop_
 _atom_site_type_symbol
 _atom_site_label
 _atom_site_symmetry_multiplicity
 _atom_site_fract_x
 _atom_site_fract_y
 _atom_site_fract_z
 _atom_site_occupancy
  Ca  Ca0  1  0.366185  0.866185  0.500000  1
  Ca  Ca1  1  0.616185  0.616185  0.000000  1
  Ca  Ca2  1  0.882468  0.382468  0.500000  1
  Ca  Ca3  1  0.132468  0.132468  0.000000  1
  Ca  Ca4  1  0.673290  0.173290  0.500000  1
  Ca  Ca5  1  0.923290  0.923290  0.000000  1
  Ca  Ca6  1  0.433852  0.666930  0.198531  1
  Ca  Ca7  1  0.416930  0.718399  0.733079  1
  Ca  Ca8  1  0.985321  0.683852  0.266921  1
  Ca  Ca9  1  0.468399  0.235321  0.801469  1
  Ca  Ca10  1  0.030968  0.766818  0.701567  1
  Ca  Ca11  1  0.516818  0.315250  0.235849  1
  Ca  Ca12  1  0.079401  0.280968  0.764151  1
  Ca  Ca13  1  0.065250  0.329401  0.298433  1
  Ca  Ca14  1  0.813531  0.881226  0.466926  1
  Ca  Ca15  1  0.631226  0.664300  0.567695  1
  Ca  Ca16  1  0.096605  0.063531  0.432305  1
  Ca  Ca17  1  0.414300  0.346605  0.533074  1
  Ca  Ca18  1  0.399797  0.928810  0.065178  1
  Ca  Ca19  1  0.678810  0.113633  0.029013  1
  Ca  Ca20  1  0.084619  0.649797  0.970987  1
  Ca  Ca21  1  0.863633  0.334619  0.934822  1
  Re  Re22  1  0.248931  0.000655  0.750587  1
  Re  Re23  1  0.750655  0.500068  0.251723  1
  Re  Re24  1  0.248345  0.498931  0.748277  1
  Re  Re25  1  0.250068  0.498345  0.249413  1
  Re  Re26  1  0.740183  0.998827  0.740109  1
  Re  Re27  1  0.748827  0.508718  0.758644  1
  Re  Re28  1  0.750074  0.990183  0.241356  1
  Re  Re29  1  0.258718  0.000074  0.259891  1
  O  O30  1  0.761671  0.474514  0.080381  1
  O  O31  1  0.224514  0.644133  0.212843  1
  O  O32  1  0.431289  0.011671  0.787157  1
  O  O33  1  0.394133  0.681289  0.919619  1
  O  O34  1  0.863096  0.372000  0.277386  1
  O  O35  1  0.122000  0.344614  0.008905  1
  O  O36  1  0.335709  0.113096  0.991095  1
  O  O37  1  0.094614  0.585709  0.722614  1
  O  O38  1  0.585562  0.330247  0.084686  1
  O  O39  1  0.080247  0.495561  0.244685  1
  O  O40  1  0.250875  0.835562  0.755315  1
  O  O41  1  0.245561  0.500875  0.915314  1
  O  O42  1  0.163482  0.886516  0.509189  1
  O  O43  1  0.636516  0.627327  0.223034  1
  O  O44  1  0.404293  0.413482  0.776966  1
  O  O45  1  0.377327  0.654293  0.490811  1
  O  O46  1  0.246178  0.164844  0.743944  1
  O  O47  1  0.914844  0.670900  0.418665  1
  O  O48  1  0.252235  0.496178  0.581335  1
  O  O49  1  0.420900  0.502235  0.256056  1
  O  O50  1  0.065355  0.990214  0.710652  1
  O  O51  1  0.740214  0.529562  0.424859  1
  O  O52  1  0.104704  0.315355  0.575141  1
  O  O53  1  0.279562  0.354704  0.289348  1
  O  O54  1  0.624901  0.934335  0.281886  1
  O  O55  1  0.684335  0.902449  0.809434  1
  O  O56  1  0.093015  0.874901  0.190566  1
  O  O57  1  0.652449  0.343015  0.718114  1
  O  O58  1  0.326988  0.843244  0.191732  1
  O  O59  1  0.593244  0.901513  0.016256  1
  O  O60  1  0.419540  0.122480  0.322743  1
  O  O61  1  0.872480  0.049737  0.202941  1
  O  O62  1  0.846797  0.669540  0.797059  1
  O  O63  1  0.799737  0.096797  0.677257  1
  O  O64  1  0.885888  0.399344  0.716952  1
  O  O65  1  0.149344  0.932392  0.013457  1
  O  O66  1  0.918936  0.135888  0.986543  1
  O  O67  1  0.682392  0.168936  0.283048  1
  O  O68  1  0.345078  0.070144  0.491434  1
  O  O69  1  0.820144  0.828710  0.225066  1
  O  O70  1  0.603643  0.595078  0.774934  1
  O  O71  1  0.578710  0.853643  0.508566  1
  O  O72  1  0.166127  0.145946  0.292822  1
  O  O73  1  0.895946  0.103124  0.479819  1
  O  O74  1  0.623305  0.416127  0.520181  1
  O  O75  1  0.853124  0.873305  0.707178  1
  O  O76  1  0.651513  0.135257  0.808268  1
  O  O77  1  0.885257  0.576988  0.983744  1
