# generated using pymatgen
data_Mg14Si5O24
_symmetry_space_group_name_H-M   'P 1'
_cell_length_a   5.94114636
_cell_length_b   10.17861438
_cell_length_c   14.34867549
_cell_angle_alpha   90.00000000
_cell_angle_beta   90.00000000
_cell_angle_gamma   90.00000000
_symmetry_Int_Tables_number   1
_chemical_formula_structural   Mg14Si5O24
_chemical_formula_sum   'Mg28 Si10 O48'
_cell_volume   867.70225544
_cell_formula_units_Z   2
loop_
 _symmetry_equiv_pos_site_id
 _symmetry_equiv_pos_as_xyz
  1  'x, y, z'
loop_
 _atom_site_type_symbol
 _atom_site_label
 _atom_site_symmetry_multiplicity
 _atom_site_fract_x
 _atom_site_fract_y
 _atom_site_fract_z
 _atom_site_occupancy
  Mg  Mg0  1  0.756128  0.418874  0.669564  1
  Mg  Mg1  1  0.756128  0.581126  0.330436  1
  Mg  Mg2  1  0.243872  0.918874  0.830436  1
  Mg  Mg3  1  0.243872  0.081126  0.169564  1
  Mg  Mg4  1  0.243872  0.581126  0.330436  1
  Mg  Mg5  1  0.243872  0.418874  0.669564  1
  Mg  Mg6  1  0.756128  0.081126  0.169564  1
  Mg  Mg7  1  0.756128  0.918874  0.830436  1
  Mg  Mg8  1  0.000000  0.320608  0.324029  1
  Mg  Mg9  1  0.000000  0.679392  0.675971  1
  Mg  Mg10  1  0.000000  0.820608  0.175971  1
  Mg  Mg11  1  0.000000  0.179392  0.824029  1
  Mg  Mg12  1  0.759717  0.246595  0.502403  1
  Mg  Mg13  1  0.759717  0.753405  0.497597  1
  Mg  Mg14  1  0.240283  0.746595  0.997597  1
  Mg  Mg15  1  0.240283  0.253405  0.002403  1
  Mg  Mg16  1  0.240283  0.753405  0.497597  1
  Mg  Mg17  1  0.240283  0.246595  0.502403  1
  Mg  Mg18  1  0.759717  0.253405  0.002403  1
  Mg  Mg19  1  0.759717  0.746595  0.997597  1
  Mg  Mg20  1  0.500000  0.500000  0.500000  1
  Mg  Mg21  1  0.500000  0.000000  0.000000  1
  Mg  Mg22  1  0.500000  0.854501  0.325423  1
  Mg  Mg23  1  0.500000  0.145499  0.674577  1
  Mg  Mg24  1  0.500000  0.354501  0.174577  1
  Mg  Mg25  1  0.500000  0.645499  0.825423  1
  Mg  Mg26  1  0.500000  0.000000  0.500000  1
  Mg  Mg27  1  0.500000  0.500000  0.000000  1
  Si  Si28  1  0.000000  0.497810  0.124726  1
  Si  Si29  1  0.000000  0.502190  0.875274  1
  Si  Si30  1  0.000000  0.997810  0.375274  1
  Si  Si31  1  0.000000  0.002190  0.624726  1
  Si  Si32  1  0.500000  0.674095  0.188627  1
  Si  Si33  1  0.500000  0.325905  0.811373  1
  Si  Si34  1  0.500000  0.174095  0.311373  1
  Si  Si35  1  0.500000  0.825905  0.688627  1
  Si  Si36  1  0.000000  0.500000  0.500000  1
  Si  Si37  1  0.000000  0.000000  0.000000  1
  O  O38  1  0.717729  0.247220  0.262130  1
  O  O39  1  0.717729  0.752780  0.737870  1
  O  O40  1  0.282271  0.747220  0.237870  1
  O  O41  1  0.282271  0.252780  0.762130  1
  O  O42  1  0.282271  0.752780  0.737870  1
  O  O43  1  0.282271  0.247220  0.262130  1
  O  O44  1  0.717729  0.252780  0.762130  1
  O  O45  1  0.717729  0.747220  0.237870  1
  O  O46  1  0.785157  0.074752  0.926415  1
  O  O47  1  0.785157  0.925248  0.073585  1
  O  O48  1  0.214843  0.574752  0.573585  1
  O  O49  1  0.214843  0.425248  0.426415  1
  O  O50  1  0.214843  0.925248  0.073585  1
  O  O51  1  0.214843  0.074752  0.926415  1
  O  O52  1  0.785157  0.425248  0.426415  1
  O  O53  1  0.785157  0.574752  0.573585  1
  O  O54  1  0.765607  0.078772  0.587445  1
  O  O55  1  0.765607  0.921228  0.412555  1
  O  O56  1  0.234393  0.578772  0.912555  1
  O  O57  1  0.234393  0.421228  0.087445  1
  O  O58  1  0.234393  0.921228  0.412555  1
  O  O59  1  0.234393  0.078772  0.587445  1
  O  O60  1  0.765607  0.421228  0.087445  1
  O  O61  1  0.765607  0.578772  0.912555  1
  O  O62  1  0.500000  0.971704  0.740211  1
  O  O63  1  0.500000  0.028296  0.259789  1
  O  O64  1  0.500000  0.471704  0.759789  1
  O  O65  1  0.500000  0.528296  0.240211  1
  O  O66  1  0.500000  0.669530  0.075027  1
  O  O67  1  0.500000  0.330470  0.924973  1
  O  O68  1  0.500000  0.169530  0.424973  1
  O  O69  1  0.500000  0.830470  0.575027  1
  O  O70  1  0.500000  0.672281  0.414068  1
  O  O71  1  0.500000  0.327719  0.585932  1
  O  O72  1  0.500000  0.172281  0.085932  1
  O  O73  1  0.500000  0.827719  0.914068  1
  O  O74  1  0.000000  0.995738  0.258396  1
  O  O75  1  0.000000  0.004262  0.741604  1
  O  O76  1  0.000000  0.652997  0.085979  1
  O  O77  1  0.000000  0.347003  0.914021  1
  O  O78  1  0.000000  0.152997  0.414021  1
  O  O79  1  0.000000  0.847003  0.585979  1
  O  O80  1  0.000000  0.646447  0.424237  1
  O  O81  1  0.000000  0.353553  0.575763  1
  O  O82  1  0.000000  0.146447  0.075763  1
  O  O83  1  0.000000  0.853553  0.924237  1
  O  O84  1  0.000000  0.504262  0.758396  1
  O  O85  1  0.000000  0.495738  0.241604  1
