# generated using pymatgen
data_Gd2AlGe2
_symmetry_space_group_name_H-M   'P 1'
_cell_length_a   5.89754402
_cell_length_b   5.89754402
_cell_length_c   7.78628213
_cell_angle_alpha   76.71753602
_cell_angle_beta   103.28246398
_cell_angle_gamma   122.22429965
_symmetry_Int_Tables_number   1
_chemical_formula_structural   Gd2AlGe2
_chemical_formula_sum   'Gd4 Al2 Ge4'
_cell_volume   221.07238796
_cell_formula_units_Z   2
loop_
 _symmetry_equiv_pos_site_id
 _symmetry_equiv_pos_as_xyz
  1  'x, y, z'
loop_
 _atom_site_type_symbol
 _atom_site_label
 _atom_site_symmetry_multiplicity
 _atom_site_fract_x
 _atom_site_fract_y
 _atom_site_fract_z
 _atom_site_occupancy
  Gd  Gd0  1  0.225162  0.515213  0.352877  1
  Gd  Gd1  1  0.774838  0.484787  0.647123  1
  Gd  Gd2  1  0.484787  0.774838  0.852877  1
  Gd  Gd3  1  0.515213  0.225162  0.147123  1
  Al  Al4  1  0.163274  0.163274  0.750000  1
  Al  Al5  1  0.836726  0.836726  0.250000  1
  Ge  Ge6  1  0.734282  0.008683  0.501825  1
  Ge  Ge7  1  0.265718  0.991317  0.498175  1
  Ge  Ge8  1  0.991317  0.265718  0.001825  1
  Ge  Ge9  1  0.008683  0.734282  0.998175  1
