# generated using pymatgen
data_BaBiO3
_symmetry_space_group_name_H-M   'P 1'
_cell_length_a   6.23479424
_cell_length_b   6.23479424
_cell_length_c   6.28764474
_cell_angle_alpha   59.93863095
_cell_angle_beta   120.06136905
_cell_angle_gamma   119.95872683
_symmetry_Int_Tables_number   1
_chemical_formula_structural   BaBiO3
_chemical_formula_sum   'Ba2 Bi2 O6'
_cell_volume   172.72245718
_cell_formula_units_Z   2
loop_
 _symmetry_equiv_pos_site_id
 _symmetry_equiv_pos_as_xyz
  1  'x, y, z'
loop_
 _atom_site_type_symbol
 _atom_site_label
 _atom_site_symmetry_multiplicity
 _atom_site_fract_x
 _atom_site_fract_y
 _atom_site_fract_z
 _atom_site_occupancy
  Ba  Ba0  1  0.249629  0.750371  0.741814  1
  Ba  Ba1  1  0.750371  0.249629  0.258186  1
  Bi  Bi2  1  0.000000  0.000000  0.000000  1
  Bi  Bi3  1  0.500000  0.500000  0.500000  1
  O  O4  1  0.702278  0.785292  0.699562  1
  O  O5  1  0.785292  0.702278  0.300438  1
  O  O6  1  0.297722  0.214708  0.300438  1
  O  O7  1  0.214708  0.297722  0.699562  1
  O  O8  1  0.258392  0.741608  0.183981  1
  O  O9  1  0.741608  0.258392  0.816019  1
