# generated using pymatgen
data_K(BH)5
_symmetry_space_group_name_H-M   'P 1'
_cell_length_a   6.81208797
_cell_length_b   11.26391196
_cell_length_c   14.50182473
_cell_angle_alpha   90.00000000
_cell_angle_beta   115.05905037
_cell_angle_gamma   90.00000000
_symmetry_Int_Tables_number   1
_chemical_formula_structural   K(BH)5
_chemical_formula_sum   'K8 B40 H40'
_cell_volume   1007.99612148
_cell_formula_units_Z   8
loop_
 _symmetry_equiv_pos_site_id
 _symmetry_equiv_pos_as_xyz
  1  'x, y, z'
loop_
 _atom_site_type_symbol
 _atom_site_label
 _atom_site_symmetry_multiplicity
 _atom_site_fract_x
 _atom_site_fract_y
 _atom_site_fract_z
 _atom_site_occupancy
  K  K0  1  0.818404  0.631369  0.552385  1
  K  K1  1  0.181596  0.131369  0.947615  1
  K  K2  1  0.181596  0.368631  0.447615  1
  K  K3  1  0.818404  0.868631  0.052385  1
  K  K4  1  0.391673  0.533187  0.157798  1
  K  K5  1  0.608327  0.033187  0.342202  1
  K  K6  1  0.608327  0.466813  0.842202  1
  K  K7  1  0.391673  0.966813  0.657798  1
  B  B8  1  0.015740  0.824164  0.867052  1
  B  B9  1  0.984260  0.324164  0.632948  1
  B  B10  1  0.984260  0.175836  0.132948  1
  B  B11  1  0.015740  0.675836  0.367052  1
  B  B12  1  0.393998  0.721128  0.865753  1
  B  B13  1  0.606002  0.221128  0.634247  1
  B  B14  1  0.606002  0.278872  0.134247  1
  B  B15  1  0.393998  0.778872  0.365753  1
  B  B16  1  0.187477  0.641111  0.779014  1
  B  B17  1  0.812523  0.141111  0.720986  1
  B  B18  1  0.812523  0.358889  0.220986  1
  B  B19  1  0.187477  0.858889  0.279014  1
  B  B20  1  0.379780  0.728118  0.987068  1
  B  B21  1  0.620220  0.228118  0.512932  1
  B  B22  1  0.620220  0.271882  0.012932  1
  B  B23  1  0.379780  0.771882  0.487068  1
  B  B24  1  0.302085  0.856470  0.900967  1
  B  B25  1  0.697915  0.356470  0.599033  1
  B  B26  1  0.697915  0.143530  0.099033  1
  B  B27  1  0.302085  0.643530  0.400967  1
  B  B28  1  0.245945  0.607437  0.902147  1
  B  B29  1  0.754055  0.107437  0.597853  1
  B  B30  1  0.754055  0.392563  0.097853  1
  B  B31  1  0.245945  0.892563  0.402147  1
  B  B32  1  0.136276  0.788677  0.780412  1
  B  B33  1  0.863724  0.288677  0.719588  1
  B  B34  1  0.863724  0.211323  0.219588  1
  B  B35  1  0.136276  0.711323  0.280412  1
  B  B36  1  0.094767  0.696848  0.953018  1
  B  B37  1  0.905233  0.196848  0.546982  1
  B  B38  1  0.905233  0.303152  0.046982  1
  B  B39  1  0.094767  0.803152  0.453018  1
  B  B40  1  0.989540  0.675337  0.816903  1
  B  B41  1  0.010460  0.175337  0.683097  1
  B  B42  1  0.010460  0.324663  0.183097  1
  B  B43  1  0.989540  0.824663  0.316903  1
  B  B44  1  0.205520  0.834497  0.990112  1
  B  B45  1  0.794480  0.334497  0.509888  1
  B  B46  1  0.794480  0.165503  0.009888  1
  B  B47  1  0.205520  0.665503  0.490112  1
  H  H48  1  0.856976  0.886041  0.837903  1
  H  H49  1  0.143024  0.386041  0.662097  1
  H  H50  1  0.143024  0.113959  0.162097  1
  H  H51  1  0.856976  0.613959  0.337903  1
  H  H52  1  0.541200  0.705948  0.063032  1
  H  H53  1  0.458800  0.205948  0.436968  1
  H  H54  1  0.458800  0.294052  0.936968  1
  H  H55  1  0.541200  0.794052  0.563032  1
  H  H56  1  0.569704  0.720519  0.864271  1
  H  H57  1  0.430296  0.220519  0.635729  1
  H  H58  1  0.430296  0.279481  0.135729  1
  H  H59  1  0.569704  0.779481  0.364271  1
  H  H60  1  0.186719  0.578058  0.712578  1
  H  H61  1  0.813281  0.078058  0.787422  1
  H  H62  1  0.813281  0.421942  0.287422  1
  H  H63  1  0.186719  0.921942  0.212578  1
  H  H64  1  0.082637  0.847611  0.704192  1
  H  H65  1  0.917363  0.347611  0.795808  1
  H  H66  1  0.917363  0.152389  0.295808  1
  H  H67  1  0.082637  0.652389  0.204192  1
  H  H68  1  0.006150  0.647175  0.999003  1
  H  H69  1  0.993850  0.147175  0.500997  1
  H  H70  1  0.993850  0.352825  0.000997  1
  H  H71  1  0.006150  0.852825  0.499003  1
  H  H72  1  0.218058  0.897045  0.059272  1
  H  H73  1  0.781942  0.397045  0.440728  1
  H  H74  1  0.781942  0.102955  0.940728  1
  H  H75  1  0.218058  0.602955  0.559272  1
  H  H76  1  0.292211  0.506912  0.931859  1
  H  H77  1  0.707789  0.006912  0.568141  1
  H  H78  1  0.707789  0.493088  0.068141  1
  H  H79  1  0.292211  0.993088  0.431859  1
  H  H80  1  0.398239  0.946814  0.901162  1
  H  H81  1  0.601761  0.446814  0.598838  1
  H  H82  1  0.601761  0.053186  0.098838  1
  H  H83  1  0.398239  0.553186  0.401162  1
  H  H84  1  0.809353  0.635782  0.770951  1
  H  H85  1  0.190647  0.135782  0.729049  1
  H  H86  1  0.190647  0.364218  0.229049  1
  H  H87  1  0.809353  0.864218  0.270951  1
