# generated using pymatgen
data_Sb4Cl2O5
_symmetry_space_group_name_H-M   'P 1'
_cell_length_a   6.38273242
_cell_length_b   5.22680836
_cell_length_c   13.82230519
_cell_angle_alpha   90.00000000
_cell_angle_beta   95.69528235
_cell_angle_gamma   90.00000000
_symmetry_Int_Tables_number   1
_chemical_formula_structural   Sb4Cl2O5
_chemical_formula_sum   'Sb8 Cl4 O10'
_cell_volume   458.85407796
_cell_formula_units_Z   2
loop_
 _symmetry_equiv_pos_site_id
 _symmetry_equiv_pos_as_xyz
  1  'x, y, z'
loop_
 _atom_site_type_symbol
 _atom_site_label
 _atom_site_symmetry_multiplicity
 _atom_site_fract_x
 _atom_site_fract_y
 _atom_site_fract_z
 _atom_site_occupancy
  Sb  Sb0  1  0.798266  0.602593  0.703971  1
  Sb  Sb1  1  0.201734  0.102593  0.796029  1
  Sb  Sb2  1  0.201734  0.397407  0.296029  1
  Sb  Sb3  1  0.798266  0.897407  0.203971  1
  Sb  Sb4  1  0.183804  0.722318  0.547350  1
  Sb  Sb5  1  0.816196  0.222318  0.952650  1
  Sb  Sb6  1  0.816196  0.277682  0.452650  1
  Sb  Sb7  1  0.183804  0.777682  0.047350  1
  Cl  Cl8  1  0.488931  0.714891  0.882621  1
  Cl  Cl9  1  0.511069  0.214891  0.617379  1
  Cl  Cl10  1  0.511069  0.285109  0.117379  1
  Cl  Cl11  1  0.488931  0.785109  0.382621  1
  O  O12  1  0.069779  0.507420  0.418524  1
  O  O13  1  0.930221  0.007420  0.081476  1
  O  O14  1  0.930221  0.492580  0.581476  1
  O  O15  1  0.069779  0.992580  0.918524  1
  O  O16  1  0.073107  0.825880  0.709678  1
  O  O17  1  0.926893  0.325880  0.790322  1
  O  O18  1  0.926893  0.174120  0.290322  1
  O  O19  1  0.073107  0.674120  0.209678  1
  O  O20  1  0.000000  0.500000  0.000000  1
  O  O21  1  0.000000  0.000000  0.500000  1
