# generated using pymatgen
data_Mg(AlH4)2
_symmetry_space_group_name_H-M   'P 1'
_cell_length_a   5.23272853
_cell_length_b   5.23272853
_cell_length_c   6.04250357
_cell_angle_alpha   90.00000000
_cell_angle_beta   90.00000000
_cell_angle_gamma   120.00000000
_symmetry_Int_Tables_number   1
_chemical_formula_structural   Mg(AlH4)2
_chemical_formula_sum   'Mg1 Al2 H8'
_cell_volume   143.28606506
_cell_formula_units_Z   1
loop_
 _symmetry_equiv_pos_site_id
 _symmetry_equiv_pos_as_xyz
  1  'x, y, z'
loop_
 _atom_site_type_symbol
 _atom_site_label
 _atom_site_symmetry_multiplicity
 _atom_site_fract_x
 _atom_site_fract_y
 _atom_site_fract_z
 _atom_site_occupancy
  Mg  Mg0  1  0.000000  0.000000  0.000000  1
  Al  Al1  1  0.333333  0.666667  0.705759  1
  Al  Al2  1  0.666667  0.333333  0.294241  1
  H  H3  1  0.832443  0.167557  0.189923  1
  H  H4  1  0.832443  0.664885  0.189923  1
  H  H5  1  0.335115  0.167557  0.189923  1
  H  H6  1  0.333333  0.666667  0.440432  1
  H  H7  1  0.666667  0.333333  0.559568  1
  H  H8  1  0.167557  0.832443  0.810077  1
  H  H9  1  0.167557  0.335115  0.810077  1
  H  H10  1  0.664885  0.832443  0.810077  1
