# generated using pymatgen
data_Sb2Ru
_symmetry_space_group_name_H-M   'P 1'
_cell_length_a   3.22278366
_cell_length_b   6.02679541
_cell_length_c   6.74306538
_cell_angle_alpha   90.00000000
_cell_angle_beta   90.00000000
_cell_angle_gamma   90.00000000
_symmetry_Int_Tables_number   1
_chemical_formula_structural   Sb2Ru
_chemical_formula_sum   'Sb4 Ru2'
_cell_volume   130.97094842
_cell_formula_units_Z   2
loop_
 _symmetry_equiv_pos_site_id
 _symmetry_equiv_pos_as_xyz
  1  'x, y, z'
loop_
 _atom_site_type_symbol
 _atom_site_label
 _atom_site_symmetry_multiplicity
 _atom_site_fract_x
 _atom_site_fract_y
 _atom_site_fract_z
 _atom_site_occupancy
  Sb  Sb0  1  0.500000  0.682648  0.142313  1
  Sb  Sb1  1  0.500000  0.317352  0.857687  1
  Sb  Sb2  1  0.000000  0.182648  0.357687  1
  Sb  Sb3  1  0.000000  0.817352  0.642313  1
  Ru  Ru4  1  0.500000  0.500000  0.500000  1
  Ru  Ru5  1  0.000000  0.000000  0.000000  1
