# generated using pymatgen
data_PrFeO3
_symmetry_space_group_name_H-M   'P 1'
_cell_length_a   5.53827376
_cell_length_b   5.69721737
_cell_length_c   7.90274063
_cell_angle_alpha   90.00000000
_cell_angle_beta   90.00000000
_cell_angle_gamma   90.00000000
_symmetry_Int_Tables_number   1
_chemical_formula_structural   PrFeO3
_chemical_formula_sum   'Pr4 Fe4 O12'
_cell_volume   249.35319519
_cell_formula_units_Z   4
loop_
 _symmetry_equiv_pos_site_id
 _symmetry_equiv_pos_as_xyz
  1  'x, y, z'
loop_
 _atom_site_type_symbol
 _atom_site_label
 _atom_site_symmetry_multiplicity
 _atom_site_fract_x
 _atom_site_fract_y
 _atom_site_fract_z
 _atom_site_occupancy
  Pr  Pr0  1  0.012890  0.947821  0.750000  1
  Pr  Pr1  1  0.512890  0.552179  0.250000  1
  Pr  Pr2  1  0.487110  0.447821  0.750000  1
  Pr  Pr3  1  0.987110  0.052179  0.250000  1
  Fe  Fe4  1  0.000000  0.500000  0.500000  1
  Fe  Fe5  1  0.500000  0.000000  0.500000  1
  Fe  Fe6  1  0.500000  0.000000  0.000000  1
  Fe  Fe7  1  0.000000  0.500000  0.000000  1
  O  O8  1  0.706264  0.293946  0.451811  1
  O  O9  1  0.206264  0.206054  0.548189  1
  O  O10  1  0.793736  0.793946  0.048189  1
  O  O11  1  0.293736  0.706054  0.951811  1
  O  O12  1  0.293736  0.706054  0.548189  1
  O  O13  1  0.793736  0.793946  0.451811  1
  O  O14  1  0.206264  0.206054  0.951811  1
  O  O15  1  0.706264  0.293946  0.048189  1
  O  O16  1  0.090260  0.474128  0.250000  1
  O  O17  1  0.590260  0.025872  0.750000  1
  O  O18  1  0.409740  0.974128  0.250000  1
  O  O19  1  0.909740  0.525872  0.750000  1
