# generated using pymatgen
data_KV6O11
_symmetry_space_group_name_H-M   'P 1'
_cell_length_a   5.88747799
_cell_length_b   5.88747799
_cell_length_c   13.61907041
_cell_angle_alpha   90.00000000
_cell_angle_beta   90.00000000
_cell_angle_gamma   120.00000000
_symmetry_Int_Tables_number   1
_chemical_formula_structural   KV6O11
_chemical_formula_sum   'K2 V12 O22'
_cell_volume   408.82428847
_cell_formula_units_Z   2
loop_
 _symmetry_equiv_pos_site_id
 _symmetry_equiv_pos_as_xyz
  1  'x, y, z'
loop_
 _atom_site_type_symbol
 _atom_site_label
 _atom_site_symmetry_multiplicity
 _atom_site_fract_x
 _atom_site_fract_y
 _atom_site_fract_z
 _atom_site_occupancy
  K  K0  1  0.333333  0.666667  0.250000  1
  K  K1  1  0.666667  0.333333  0.750000  1
  V  V2  1  0.500000  0.500000  0.000000  1
  V  V3  1  0.000000  0.000000  0.350978  1
  V  V4  1  0.000000  0.000000  0.649022  1
  V  V5  1  0.000000  0.000000  0.149022  1
  V  V6  1  0.500000  0.000000  0.500000  1
  V  V7  1  0.000000  0.000000  0.850978  1
  V  V8  1  0.000000  0.500000  0.000000  1
  V  V9  1  0.000000  0.500000  0.500000  1
  V  V10  1  0.500000  0.500000  0.500000  1
  V  V11  1  0.500000  0.000000  0.000000  1
  V  V12  1  0.333333  0.666667  0.750000  1
  V  V13  1  0.666667  0.333333  0.250000  1
  O  O14  1  0.666667  0.333333  0.416970  1
  O  O15  1  0.333333  0.666667  0.916970  1
  O  O16  1  0.666667  0.333333  0.083030  1
  O  O17  1  0.333333  0.666667  0.583030  1
  O  O18  1  0.852306  0.704613  0.250000  1
  O  O19  1  0.147694  0.852306  0.750000  1
  O  O20  1  0.704613  0.852306  0.750000  1
  O  O21  1  0.295387  0.147694  0.250000  1
  O  O22  1  0.852306  0.147694  0.250000  1
  O  O23  1  0.147694  0.295387  0.750000  1
  O  O24  1  0.826254  0.652508  0.925931  1
  O  O25  1  0.173746  0.826254  0.425931  1
  O  O26  1  0.652508  0.826254  0.425931  1
  O  O27  1  0.347492  0.173746  0.925931  1
  O  O28  1  0.173746  0.347492  0.074069  1
  O  O29  1  0.826254  0.173746  0.574069  1
  O  O30  1  0.347492  0.173746  0.574069  1
  O  O31  1  0.652508  0.826254  0.074069  1
  O  O32  1  0.826254  0.173746  0.925931  1
  O  O33  1  0.826254  0.652508  0.574069  1
  O  O34  1  0.173746  0.347492  0.425931  1
  O  O35  1  0.173746  0.826254  0.074069  1
