# generated using pymatgen
data_In5S4
_symmetry_space_group_name_H-M   'P 1'
_cell_length_a   12.70920293
_cell_length_b   12.70920293
_cell_length_c   12.70920293
_cell_angle_alpha   90.00000000
_cell_angle_beta   90.00000000
_cell_angle_gamma   90.00000000
_symmetry_Int_Tables_number   1
_chemical_formula_structural   In5S4
_chemical_formula_sum   'In40 S32'
_cell_volume   2052.83924936
_cell_formula_units_Z   8
loop_
 _symmetry_equiv_pos_site_id
 _symmetry_equiv_pos_as_xyz
  1  'x, y, z'
loop_
 _atom_site_type_symbol
 _atom_site_label
 _atom_site_symmetry_multiplicity
 _atom_site_fract_x
 _atom_site_fract_y
 _atom_site_fract_z
 _atom_site_occupancy
  In  In0  1  0.269082  0.269082  0.269082  1
  In  In1  1  0.230918  0.730918  0.769082  1
  In  In2  1  0.769082  0.230918  0.730918  1
  In  In3  1  0.730918  0.769082  0.230918  1
  In  In4  1  0.730918  0.730918  0.730918  1
  In  In5  1  0.769082  0.269082  0.230918  1
  In  In6  1  0.230918  0.769082  0.269082  1
  In  In7  1  0.269082  0.230918  0.769082  1
  In  In8  1  0.401230  0.401230  0.401230  1
  In  In9  1  0.098770  0.598770  0.901230  1
  In  In10  1  0.901230  0.098770  0.598770  1
  In  In11  1  0.598770  0.901230  0.098770  1
  In  In12  1  0.598770  0.598770  0.598770  1
  In  In13  1  0.901230  0.401230  0.098770  1
  In  In14  1  0.098770  0.901230  0.401230  1
  In  In15  1  0.401230  0.098770  0.901230  1
  In  In16  1  0.268297  0.026799  0.067620  1
  In  In17  1  0.067620  0.268297  0.026799  1
  In  In18  1  0.026799  0.067620  0.268297  1
  In  In19  1  0.473201  0.932380  0.768297  1
  In  In20  1  0.567620  0.231703  0.973201  1
  In  In21  1  0.973201  0.567620  0.231703  1
  In  In22  1  0.432380  0.731703  0.526799  1
  In  In23  1  0.932380  0.768297  0.473201  1
  In  In24  1  0.526799  0.432380  0.731703  1
  In  In25  1  0.768297  0.473201  0.932380  1
  In  In26  1  0.731703  0.526799  0.432380  1
  In  In27  1  0.231703  0.973201  0.567620  1
  In  In28  1  0.731703  0.973201  0.932380  1
  In  In29  1  0.932380  0.731703  0.973201  1
  In  In30  1  0.973201  0.932380  0.731703  1
  In  In31  1  0.526799  0.067620  0.231703  1
  In  In32  1  0.432380  0.768297  0.026799  1
  In  In33  1  0.026799  0.432380  0.768297  1
  In  In34  1  0.567620  0.268297  0.473201  1
  In  In35  1  0.067620  0.231703  0.526799  1
  In  In36  1  0.473201  0.567620  0.268297  1
  In  In37  1  0.231703  0.526799  0.067620  1
  In  In38  1  0.268297  0.473201  0.567620  1
  In  In39  1  0.768297  0.026799  0.432380  1
  S  S40  1  0.324708  0.073889  0.256809  1
  S  S41  1  0.256809  0.324708  0.073889  1
  S  S42  1  0.073889  0.256809  0.324708  1
  S  S43  1  0.426111  0.743191  0.824708  1
  S  S44  1  0.756809  0.175292  0.926111  1
  S  S45  1  0.926111  0.756809  0.175292  1
  S  S46  1  0.243191  0.675292  0.573889  1
  S  S47  1  0.743191  0.824708  0.426111  1
  S  S48  1  0.573889  0.243191  0.675292  1
  S  S49  1  0.824708  0.426111  0.743191  1
  S  S50  1  0.675292  0.573889  0.243191  1
  S  S51  1  0.175292  0.926111  0.756809  1
  S  S52  1  0.675292  0.926111  0.743191  1
  S  S53  1  0.743191  0.675292  0.926111  1
  S  S54  1  0.926111  0.743191  0.675292  1
  S  S55  1  0.573889  0.256809  0.175292  1
  S  S56  1  0.243191  0.824708  0.073889  1
  S  S57  1  0.073889  0.243191  0.824708  1
  S  S58  1  0.756809  0.324708  0.426111  1
  S  S59  1  0.256809  0.175292  0.573889  1
  S  S60  1  0.426111  0.756809  0.324708  1
  S  S61  1  0.175292  0.573889  0.256809  1
  S  S62  1  0.324708  0.426111  0.756809  1
  S  S63  1  0.824708  0.073889  0.243191  1
  S  S64  1  0.075294  0.075294  0.075294  1
  S  S65  1  0.424706  0.924706  0.575294  1
  S  S66  1  0.575294  0.424706  0.924706  1
  S  S67  1  0.924706  0.575294  0.424706  1
  S  S68  1  0.924706  0.924706  0.924706  1
  S  S69  1  0.575294  0.075294  0.424706  1
  S  S70  1  0.424706  0.575294  0.075294  1
  S  S71  1  0.075294  0.424706  0.575294  1
