# generated using pymatgen
data_LaMn2O5
_symmetry_space_group_name_H-M   'P 1'
_cell_length_a   5.84352760
_cell_length_b   7.74964183
_cell_length_c   8.79737986
_cell_angle_alpha   90.00000000
_cell_angle_beta   90.00000000
_cell_angle_gamma   90.00000000
_symmetry_Int_Tables_number   1
_chemical_formula_structural   LaMn2O5
_chemical_formula_sum   'La4 Mn8 O20'
_cell_volume   398.39151044
_cell_formula_units_Z   4
loop_
 _symmetry_equiv_pos_site_id
 _symmetry_equiv_pos_as_xyz
  1  'x, y, z'
loop_
 _atom_site_type_symbol
 _atom_site_label
 _atom_site_symmetry_multiplicity
 _atom_site_fract_x
 _atom_site_fract_y
 _atom_site_fract_z
 _atom_site_occupancy
  La  La0  1  0.000000  0.354264  0.672800  1
  La  La1  1  0.000000  0.645736  0.327200  1
  La  La2  1  0.000000  0.854264  0.827200  1
  La  La3  1  0.000000  0.145736  0.172800  1
  Mn  Mn4  1  0.500000  0.089962  0.851313  1
  Mn  Mn5  1  0.500000  0.910038  0.148687  1
  Mn  Mn6  1  0.500000  0.589962  0.648687  1
  Mn  Mn7  1  0.500000  0.410038  0.351313  1
  Mn  Mn8  1  0.258273  0.500000  0.000000  1
  Mn  Mn9  1  0.741727  0.000000  0.500000  1
  Mn  Mn10  1  0.741727  0.500000  0.000000  1
  Mn  Mn11  1  0.258273  0.000000  0.500000  1
  O  O12  1  0.249803  0.903910  0.293421  1
  O  O13  1  0.249803  0.096090  0.706579  1
  O  O14  1  0.750197  0.403910  0.206579  1
  O  O15  1  0.750197  0.596090  0.793421  1
  O  O16  1  0.750197  0.096090  0.706579  1
  O  O17  1  0.750197  0.903910  0.293421  1
  O  O18  1  0.249803  0.596090  0.793421  1
  O  O19  1  0.249803  0.403910  0.206579  1
  O  O20  1  0.500000  0.348151  0.937493  1
  O  O21  1  0.500000  0.651849  0.062507  1
  O  O22  1  0.500000  0.848151  0.562507  1
  O  O23  1  0.500000  0.151849  0.437493  1
  O  O24  1  0.278875  0.000000  0.000000  1
  O  O25  1  0.721125  0.500000  0.500000  1
  O  O26  1  0.721125  0.000000  0.000000  1
  O  O27  1  0.278875  0.500000  0.500000  1
  O  O28  1  0.000000  0.154584  0.448838  1
  O  O29  1  0.000000  0.845416  0.551162  1
  O  O30  1  0.000000  0.654584  0.051162  1
  O  O31  1  0.000000  0.345416  0.948838  1
