# generated using pymatgen
data_CrCl2
_symmetry_space_group_name_H-M   'P 1'
_cell_length_a   3.48899080
_cell_length_b   6.16532060
_cell_length_c   6.92974698
_cell_angle_alpha   90.00000000
_cell_angle_beta   90.00000000
_cell_angle_gamma   90.00000000
_symmetry_Int_Tables_number   1
_chemical_formula_structural   CrCl2
_chemical_formula_sum   'Cr2 Cl4'
_cell_volume   149.06403304
_cell_formula_units_Z   2
loop_
 _symmetry_equiv_pos_site_id
 _symmetry_equiv_pos_as_xyz
  1  'x, y, z'
loop_
 _atom_site_type_symbol
 _atom_site_label
 _atom_site_symmetry_multiplicity
 _atom_site_fract_x
 _atom_site_fract_y
 _atom_site_fract_z
 _atom_site_occupancy
  Cr  Cr0  1  0.500000  0.500000  0.500000  1
  Cr  Cr1  1  0.000000  0.000000  0.000000  1
  Cl  Cl2  1  0.500000  0.786348  0.136831  1
  Cl  Cl3  1  0.500000  0.213652  0.863169  1
  Cl  Cl4  1  0.000000  0.713652  0.636831  1
  Cl  Cl5  1  0.000000  0.286348  0.363169  1
