# generated using pymatgen
data_MnSiO3
_symmetry_space_group_name_H-M   'P 1'
_cell_length_a   5.44932946
_cell_length_b   9.34160200
_cell_length_c   9.70158114
_cell_angle_alpha   90.00000000
_cell_angle_beta   102.18262663
_cell_angle_gamma   90.00000000
_symmetry_Int_Tables_number   1
_chemical_formula_structural   MnSiO3
_chemical_formula_sum   'Mn8 Si8 O24'
_cell_volume   482.74167661
_cell_formula_units_Z   8
loop_
 _symmetry_equiv_pos_site_id
 _symmetry_equiv_pos_as_xyz
  1  'x, y, z'
loop_
 _atom_site_type_symbol
 _atom_site_label
 _atom_site_symmetry_multiplicity
 _atom_site_fract_x
 _atom_site_fract_y
 _atom_site_fract_z
 _atom_site_occupancy
  Mn  Mn0  1  0.497248  0.488072  0.250192  1
  Mn  Mn1  1  0.002752  0.988072  0.749808  1
  Mn  Mn2  1  0.502752  0.511928  0.749808  1
  Mn  Mn3  1  0.997248  0.011928  0.250192  1
  Mn  Mn4  1  0.497605  0.850771  0.249748  1
  Mn  Mn5  1  0.002395  0.350771  0.750252  1
  Mn  Mn6  1  0.502395  0.149229  0.750252  1
  Mn  Mn7  1  0.997605  0.649229  0.249748  1
  Si  Si8  1  0.221643  0.663941  0.953514  1
  Si  Si9  1  0.278357  0.163941  0.046486  1
  Si  Si10  1  0.778357  0.336059  0.046486  1
  Si  Si11  1  0.721643  0.836059  0.953514  1
  Si  Si12  1  0.727580  0.163637  0.454119  1
  Si  Si13  1  0.772420  0.663637  0.545881  1
  Si  Si14  1  0.272420  0.836363  0.545881  1
  Si  Si15  1  0.227580  0.336363  0.454119  1
  O  O16  1  0.436472  0.765931  0.900224  1
  O  O17  1  0.063528  0.265931  0.099776  1
  O  O18  1  0.563528  0.234069  0.099776  1
  O  O19  1  0.936472  0.734069  0.900224  1
  O  O20  1  0.235497  0.512633  0.873935  1
  O  O21  1  0.264503  0.012633  0.126065  1
  O  O22  1  0.764503  0.487367  0.126065  1
  O  O23  1  0.735497  0.987367  0.873935  1
  O  O24  1  0.284707  0.658761  0.126337  1
  O  O25  1  0.215293  0.158761  0.873663  1
  O  O26  1  0.715293  0.341239  0.873663  1
  O  O27  1  0.784707  0.841239  0.126337  1
  O  O28  1  0.950051  0.257909  0.399293  1
  O  O29  1  0.549949  0.757909  0.600707  1
  O  O30  1  0.049949  0.742091  0.600707  1
  O  O31  1  0.450051  0.242091  0.399293  1
  O  O32  1  0.289417  0.340586  0.626832  1
  O  O33  1  0.210583  0.840586  0.373168  1
  O  O34  1  0.710583  0.659414  0.373168  1
  O  O35  1  0.789417  0.159414  0.626832  1
  O  O36  1  0.730924  0.010812  0.375704  1
  O  O37  1  0.269076  0.989188  0.624296  1
  O  O38  1  0.769076  0.510812  0.624296  1
  O  O39  1  0.230924  0.489188  0.375704  1
