# generated using pymatgen
data_Cs4PbBr6
_symmetry_space_group_name_H-M   'P 1'
_cell_length_a   10.03821443
_cell_length_b   10.03821443
_cell_length_c   10.03821443
_cell_angle_alpha   89.35720495
_cell_angle_beta   89.35720495
_cell_angle_gamma   89.35720495
_symmetry_Int_Tables_number   1
_chemical_formula_structural   Cs4PbBr6
_chemical_formula_sum   'Cs8 Pb2 Br12'
_cell_volume   1011.31864574
_cell_formula_units_Z   2
loop_
 _symmetry_equiv_pos_site_id
 _symmetry_equiv_pos_as_xyz
  1  'x, y, z'
loop_
 _atom_site_type_symbol
 _atom_site_label
 _atom_site_symmetry_multiplicity
 _atom_site_fract_x
 _atom_site_fract_y
 _atom_site_fract_z
 _atom_site_occupancy
  Cs  Cs0  1  0.250000  0.250000  0.250000  1
  Cs  Cs1  1  0.750000  0.750000  0.750000  1
  Cs  Cs2  1  0.625492  0.874508  0.250000  1
  Cs  Cs3  1  0.874508  0.250000  0.625492  1
  Cs  Cs4  1  0.250000  0.625492  0.874508  1
  Cs  Cs5  1  0.374508  0.125492  0.750000  1
  Cs  Cs6  1  0.125492  0.750000  0.374508  1
  Cs  Cs7  1  0.750000  0.374508  0.125492  1
  Pb  Pb8  1  0.500000  0.500000  0.500000  1
  Pb  Pb9  1  0.000000  0.000000  0.000000  1
  Br  Br10  1  0.072193  0.290935  0.939765  1
  Br  Br11  1  0.290935  0.939765  0.072193  1
  Br  Br12  1  0.939765  0.072193  0.290935  1
  Br  Br13  1  0.209065  0.427807  0.560235  1
  Br  Br14  1  0.427807  0.560235  0.209065  1
  Br  Br15  1  0.560235  0.209065  0.427807  1
  Br  Br16  1  0.927807  0.709065  0.060235  1
  Br  Br17  1  0.709065  0.060235  0.927807  1
  Br  Br18  1  0.060235  0.927807  0.709065  1
  Br  Br19  1  0.790935  0.572193  0.439765  1
  Br  Br20  1  0.439765  0.790935  0.572193  1
  Br  Br21  1  0.572193  0.439765  0.790935  1
