# generated using pymatgen
data_KScBP2HO9
_symmetry_space_group_name_H-M   'P 1'
_cell_length_a   5.33972906
_cell_length_b   8.39899012
_cell_length_c   8.47306144
_cell_angle_alpha   88.21737700
_cell_angle_beta   79.93687721
_cell_angle_gamma   86.65886274
_symmetry_Int_Tables_number   1
_chemical_formula_structural   KScBP2HO9
_chemical_formula_sum   'K2 Sc2 B2 P4 H2 O18'
_cell_volume   373.43603096
_cell_formula_units_Z   2
loop_
 _symmetry_equiv_pos_site_id
 _symmetry_equiv_pos_as_xyz
  1  'x, y, z'
loop_
 _atom_site_type_symbol
 _atom_site_label
 _atom_site_symmetry_multiplicity
 _atom_site_fract_x
 _atom_site_fract_y
 _atom_site_fract_z
 _atom_site_occupancy
  K  K0  1  0.719666  0.323134  0.120423  1
  K  K1  1  0.280334  0.676866  0.879577  1
  Sc  Sc2  1  0.276449  0.196586  0.804464  1
  Sc  Sc3  1  0.723551  0.803414  0.195536  1
  B  B4  1  0.887578  0.728818  0.558504  1
  B  B5  1  0.112422  0.271182  0.441496  1
  P  P6  1  0.787040  0.939573  0.806461  1
  P  P7  1  0.212960  0.060427  0.193539  1
  P  P8  1  0.806305  0.424040  0.699198  1
  P  P9  1  0.193695  0.575960  0.300802  1
  H  H10  1  0.580930  0.868151  0.516099  1
  H  H11  1  0.419070  0.131849  0.483901  1
  O  O12  1  0.560122  0.363396  0.795882  1
  O  O13  1  0.439878  0.636604  0.204118  1
  O  O14  1  0.718349  0.803370  0.453198  1
  O  O15  1  0.281651  0.196630  0.546802  1
  O  O16  1  0.466473  0.003396  0.247477  1
  O  O17  1  0.533527  0.996604  0.752523  1
  O  O18  1  0.028211  0.406732  0.793411  1
  O  O19  1  0.971789  0.593268  0.206589  1
  O  O20  1  0.038431  0.153959  0.334853  1
  O  O21  1  0.961569  0.846041  0.665147  1
  O  O22  1  0.059244  0.923437  0.155549  1
  O  O23  1  0.940756  0.076563  0.844451  1
  O  O24  1  0.125103  0.664910  0.463747  1
  O  O25  1  0.874897  0.335090  0.536253  1
  O  O26  1  0.268035  0.179525  0.049812  1
  O  O27  1  0.731965  0.820475  0.950188  1
  O  O28  1  0.257592  0.396404  0.340374  1
  O  O29  1  0.742408  0.603596  0.659626  1
