# generated using pymatgen
data_NdSnPt
_symmetry_space_group_name_H-M   'P 1'
_cell_length_a   4.64940615
_cell_length_b   7.48278450
_cell_length_c   8.12886485
_cell_angle_alpha   90.00000000
_cell_angle_beta   90.00000000
_cell_angle_gamma   90.00000000
_symmetry_Int_Tables_number   1
_chemical_formula_structural   NdSnPt
_chemical_formula_sum   'Nd4 Sn4 Pt4'
_cell_volume   282.80730730
_cell_formula_units_Z   4
loop_
 _symmetry_equiv_pos_site_id
 _symmetry_equiv_pos_as_xyz
  1  'x, y, z'
loop_
 _atom_site_type_symbol
 _atom_site_label
 _atom_site_symmetry_multiplicity
 _atom_site_fract_x
 _atom_site_fract_y
 _atom_site_fract_z
 _atom_site_occupancy
  Nd  Nd0  1  0.750000  0.488122  0.804631  1
  Nd  Nd1  1  0.250000  0.011878  0.304631  1
  Nd  Nd2  1  0.750000  0.988122  0.695369  1
  Nd  Nd3  1  0.250000  0.511878  0.195369  1
  Sn  Sn4  1  0.250000  0.677112  0.583977  1
  Sn  Sn5  1  0.250000  0.177112  0.916023  1
  Sn  Sn6  1  0.750000  0.322888  0.416023  1
  Sn  Sn7  1  0.750000  0.822888  0.083977  1
  Pt  Pt8  1  0.250000  0.789296  0.908956  1
  Pt  Pt9  1  0.250000  0.289296  0.591044  1
  Pt  Pt10  1  0.750000  0.710704  0.408956  1
  Pt  Pt11  1  0.750000  0.210704  0.091044  1
