# generated using pymatgen
data_HfGa2Co
_symmetry_space_group_name_H-M   'P 1'
_cell_length_a   9.57253480
_cell_length_b   9.57253480
_cell_length_c   9.57253480
_cell_angle_alpha   100.41070831
_cell_angle_beta   100.41070831
_cell_angle_gamma   129.68706227
_symmetry_Int_Tables_number   1
_chemical_formula_structural   HfGa2Co
_chemical_formula_sum   'Hf10 Ga20 Co10'
_cell_volume   610.99109576
_cell_formula_units_Z   10
loop_
 _symmetry_equiv_pos_site_id
 _symmetry_equiv_pos_as_xyz
  1  'x, y, z'
loop_
 _atom_site_type_symbol
 _atom_site_label
 _atom_site_symmetry_multiplicity
 _atom_site_fract_x
 _atom_site_fract_y
 _atom_site_fract_z
 _atom_site_occupancy
  Hf  Hf0  1  0.519298  0.519298  0.000000  1
  Hf  Hf1  1  0.053112  0.053112  0.000000  1
  Hf  Hf2  1  0.435079  0.836152  0.000000  1
  Hf  Hf3  1  0.435079  0.435079  0.598926  1
  Hf  Hf4  1  0.836152  0.836152  0.401074  1
  Hf  Hf5  1  0.836152  0.435079  0.000000  1
  Hf  Hf6  1  0.124200  0.843897  0.719696  1
  Hf  Hf7  1  0.404504  0.124200  0.280304  1
  Hf  Hf8  1  0.843897  0.124200  0.719696  1
  Hf  Hf9  1  0.124200  0.404504  0.280304  1
  Ga  Ga10  1  0.961127  0.798757  0.162370  1
  Ga  Ga11  1  0.798757  0.636387  0.837630  1
  Ga  Ga12  1  0.648566  0.032509  0.383943  1
  Ga  Ga13  1  0.264623  0.648566  0.616057  1
  Ga  Ga14  1  0.160913  0.422709  1.000000  1
  Ga  Ga15  1  0.032509  0.648566  0.383943  1
  Ga  Ga16  1  0.648566  0.264623  0.616057  1
  Ga  Ga17  1  0.422709  0.160913  0.000000  1
  Ga  Ga18  1  0.422709  0.422709  0.261797  1
  Ga  Ga19  1  0.160913  0.160913  0.738203  1
  Ga  Ga20  1  0.527631  0.738477  0.492269  1
  Ga  Ga21  1  0.035362  0.527631  0.789154  1
  Ga  Ga22  1  0.738477  0.246208  0.210846  1
  Ga  Ga23  1  0.246208  0.035362  0.507731  1
  Ga  Ga24  1  0.035362  0.246208  0.507731  1
  Ga  Ga25  1  0.738477  0.527631  0.492269  1
  Ga  Ga26  1  0.246208  0.738477  0.210846  1
  Ga  Ga27  1  0.527631  0.035362  0.789154  1
  Ga  Ga28  1  0.798757  0.961127  0.162370  1
  Ga  Ga29  1  0.636387  0.798757  0.837630  1
  Co  Co30  1  0.144492  0.819810  0.000000  1
  Co  Co31  1  0.398391  0.898391  0.500000  1
  Co  Co32  1  0.898391  0.398391  0.500000  1
  Co  Co33  1  0.819810  0.144492  1.000000  1
  Co  Co34  1  0.819810  0.819810  0.675318  1
  Co  Co35  1  0.144492  0.144492  0.324682  1
  Co  Co36  1  0.487907  0.272040  0.784133  1
  Co  Co37  1  0.703775  0.487907  0.215867  1
  Co  Co38  1  0.272040  0.487907  0.784133  1
  Co  Co39  1  0.487907  0.703775  0.215867  1
