# generated using pymatgen
data_Y2AlGe3
_symmetry_space_group_name_H-M   'P 1'
_cell_length_a   4.21586996
_cell_length_b   6.84005337
_cell_length_c   17.75491945
_cell_angle_alpha   90.00000000
_cell_angle_beta   90.00000000
_cell_angle_gamma   90.00000000
_symmetry_Int_Tables_number   1
_chemical_formula_structural   Y2AlGe3
_chemical_formula_sum   'Y8 Al4 Ge12'
_cell_volume   511.99462669
_cell_formula_units_Z   4
loop_
 _symmetry_equiv_pos_site_id
 _symmetry_equiv_pos_as_xyz
  1  'x, y, z'
loop_
 _atom_site_type_symbol
 _atom_site_label
 _atom_site_symmetry_multiplicity
 _atom_site_fract_x
 _atom_site_fract_y
 _atom_site_fract_z
 _atom_site_occupancy
  Y  Y0  1  0.250000  0.167339  0.703947  1
  Y  Y1  1  0.750000  0.832661  0.296053  1
  Y  Y2  1  0.250000  0.667339  0.796053  1
  Y  Y3  1  0.750000  0.332661  0.203947  1
  Y  Y4  1  0.250000  0.669032  0.585381  1
  Y  Y5  1  0.750000  0.330968  0.414619  1
  Y  Y6  1  0.250000  0.169032  0.914619  1
  Y  Y7  1  0.750000  0.830968  0.085381  1
  Al  Al8  1  0.250000  0.949958  0.435772  1
  Al  Al9  1  0.750000  0.050042  0.564228  1
  Al  Al10  1  0.250000  0.449958  0.064228  1
  Al  Al11  1  0.750000  0.550042  0.935772  1
  Ge  Ge12  1  0.250000  0.536573  0.327023  1
  Ge  Ge13  1  0.750000  0.463427  0.672977  1
  Ge  Ge14  1  0.250000  0.036573  0.172977  1
  Ge  Ge15  1  0.750000  0.963427  0.827023  1
  Ge  Ge16  1  0.750000  0.355133  0.811951  1
  Ge  Ge17  1  0.250000  0.644867  0.188049  1
  Ge  Ge18  1  0.750000  0.855133  0.688049  1
  Ge  Ge19  1  0.250000  0.144867  0.311951  1
  Ge  Ge20  1  0.750000  0.250054  0.034334  1
  Ge  Ge21  1  0.250000  0.749946  0.965666  1
  Ge  Ge22  1  0.750000  0.750054  0.465666  1
  Ge  Ge23  1  0.250000  0.249946  0.534334  1
