# generated using pymatgen
data_FePO4F
_symmetry_space_group_name_H-M   'P 1'
_cell_length_a   5.35929564
_cell_length_b   5.36358119
_cell_length_c   7.42873993
_cell_angle_alpha   107.39789422
_cell_angle_beta   109.84295778
_cell_angle_gamma   96.17982454
_symmetry_Int_Tables_number   1
_chemical_formula_structural   FePO4F
_chemical_formula_sum   'Fe2 P2 O8 F2'
_cell_volume   186.39587980
_cell_formula_units_Z   2
loop_
 _symmetry_equiv_pos_site_id
 _symmetry_equiv_pos_as_xyz
  1  'x, y, z'
loop_
 _atom_site_type_symbol
 _atom_site_label
 _atom_site_symmetry_multiplicity
 _atom_site_fract_x
 _atom_site_fract_y
 _atom_site_fract_z
 _atom_site_occupancy
  Fe  Fe0  1  0.000000  0.000000  0.000000  1
  Fe  Fe1  1  0.500000  0.500000  0.500000  1
  P  P2  1  0.889769  0.568969  0.238108  1
  P  P3  1  0.110231  0.431031  0.761892  1
  O  O4  1  0.189542  0.734310  0.889976  1
  O  O5  1  0.152322  0.264637  0.901906  1
  O  O6  1  0.812171  0.343168  0.604464  1
  O  O7  1  0.307274  0.367901  0.652967  1
  O  O8  1  0.847678  0.735363  0.098094  1
  O  O9  1  0.187829  0.656832  0.395536  1
  O  O10  1  0.692726  0.632099  0.347033  1
  O  O11  1  0.810458  0.265690  0.110024  1
  F  F12  1  0.680869  0.841264  0.735896  1
  F  F13  1  0.319131  0.158736  0.264104  1
