# generated using pymatgen
data_Na4P2O7
_symmetry_space_group_name_H-M   'P 1'
_cell_length_a   5.46644487
_cell_length_b   9.43197343
_cell_length_c   13.66669008
_cell_angle_alpha   90.00000000
_cell_angle_beta   90.00000000
_cell_angle_gamma   90.00000000
_symmetry_Int_Tables_number   1
_chemical_formula_structural   Na4P2O7
_chemical_formula_sum   'Na16 P8 O28'
_cell_volume   704.64583171
_cell_formula_units_Z   4
loop_
 _symmetry_equiv_pos_site_id
 _symmetry_equiv_pos_as_xyz
  1  'x, y, z'
loop_
 _atom_site_type_symbol
 _atom_site_label
 _atom_site_symmetry_multiplicity
 _atom_site_fract_x
 _atom_site_fract_y
 _atom_site_fract_z
 _atom_site_occupancy
  Na  Na0  1  0.249928  0.027196  0.766313  1
  Na  Na1  1  0.749928  0.472804  0.233687  1
  Na  Na2  1  0.750072  0.527196  0.733687  1
  Na  Na3  1  0.250072  0.972804  0.266313  1
  Na  Na4  1  0.266481  0.008979  0.513984  1
  Na  Na5  1  0.766481  0.491021  0.486016  1
  Na  Na6  1  0.733519  0.508979  0.986016  1
  Na  Na7  1  0.233519  0.991021  0.013984  1
  Na  Na8  1  0.710824  0.166505  0.081710  1
  Na  Na9  1  0.210824  0.333495  0.918290  1
  Na  Na10  1  0.289176  0.666505  0.418290  1
  Na  Na11  1  0.789176  0.833495  0.581710  1
  Na  Na12  1  0.245798  0.621667  0.095051  1
  Na  Na13  1  0.745798  0.878333  0.904949  1
  Na  Na14  1  0.754202  0.121667  0.404949  1
  Na  Na15  1  0.254202  0.378333  0.595051  1
  P  P16  1  0.740759  0.193011  0.856181  1
  P  P17  1  0.240759  0.306989  0.143819  1
  P  P18  1  0.259241  0.693011  0.643819  1
  P  P19  1  0.759241  0.806989  0.356181  1
  P  P20  1  0.771786  0.186222  0.638582  1
  P  P21  1  0.271786  0.313778  0.361418  1
  P  P22  1  0.228214  0.686222  0.861418  1
  P  P23  1  0.728214  0.813778  0.138582  1
  O  O24  1  0.826271  0.664545  0.116944  1
  O  O25  1  0.326271  0.835455  0.883056  1
  O  O26  1  0.173729  0.164545  0.383056  1
  O  O27  1  0.673729  0.335455  0.616944  1
  O  O28  1  0.449327  0.820208  0.148553  1
  O  O29  1  0.949327  0.679792  0.851447  1
  O  O30  1  0.550673  0.320208  0.351447  1
  O  O31  1  0.050673  0.179792  0.648553  1
  O  O32  1  0.831694  0.927170  0.069752  1
  O  O33  1  0.331694  0.572830  0.930248  1
  O  O34  1  0.168306  0.427170  0.430248  1
  O  O35  1  0.668306  0.072830  0.569752  1
  O  O36  1  0.700669  0.648548  0.352189  1
  O  O37  1  0.200669  0.851452  0.647811  1
  O  O38  1  0.299331  0.148548  0.147811  1
  O  O39  1  0.799331  0.351452  0.852189  1
  O  O40  1  0.535747  0.897202  0.383275  1
  O  O41  1  0.035747  0.602798  0.616725  1
  O  O42  1  0.464253  0.397202  0.116725  1
  O  O43  1  0.964253  0.102798  0.883275  1
  O  O44  1  0.982324  0.843383  0.419706  1
  O  O45  1  0.482324  0.656617  0.580294  1
  O  O46  1  0.017676  0.343383  0.080294  1
  O  O47  1  0.517676  0.156617  0.919706  1
  O  O48  1  0.652464  0.139947  0.746312  1
  O  O49  1  0.152464  0.360053  0.253688  1
  O  O50  1  0.347536  0.639947  0.753688  1
  O  O51  1  0.847536  0.860053  0.246312  1
