# generated using pymatgen
data_YAgPb
_symmetry_space_group_name_H-M   'P 1'
_cell_length_a   7.58176093
_cell_length_b   7.58176093
_cell_length_c   4.56053575
_cell_angle_alpha   90.00000000
_cell_angle_beta   90.00000000
_cell_angle_gamma   120.00000000
_symmetry_Int_Tables_number   1
_chemical_formula_structural   YAgPb
_chemical_formula_sum   'Y3 Ag3 Pb3'
_cell_volume   227.03178727
_cell_formula_units_Z   3
loop_
 _symmetry_equiv_pos_site_id
 _symmetry_equiv_pos_as_xyz
  1  'x, y, z'
loop_
 _atom_site_type_symbol
 _atom_site_label
 _atom_site_symmetry_multiplicity
 _atom_site_fract_x
 _atom_site_fract_y
 _atom_site_fract_z
 _atom_site_occupancy
  Y  Y0  1  0.574121  0.000000  0.500000  1
  Y  Y1  1  0.425879  0.425879  0.500000  1
  Y  Y2  1  0.000000  0.574121  0.500000  1
  Ag  Ag3  1  0.247488  0.000000  0.000000  1
  Ag  Ag4  1  0.752512  0.752512  0.000000  1
  Ag  Ag5  1  0.000000  0.247488  0.000000  1
  Pb  Pb6  1  0.000000  0.000000  0.500000  1
  Pb  Pb7  1  0.333333  0.666667  0.000000  1
  Pb  Pb8  1  0.666667  0.333333  0.000000  1
