# generated using pymatgen
data_YbSbPd
_symmetry_space_group_name_H-M   'P 1'
_cell_length_a   4.66510140
_cell_length_b   7.32656627
_cell_length_c   7.96034361
_cell_angle_alpha   90.00000000
_cell_angle_beta   90.00000000
_cell_angle_gamma   90.00000000
_symmetry_Int_Tables_number   1
_chemical_formula_structural   YbSbPd
_chemical_formula_sum   'Yb4 Sb4 Pd4'
_cell_volume   272.07797383
_cell_formula_units_Z   4
loop_
 _symmetry_equiv_pos_site_id
 _symmetry_equiv_pos_as_xyz
  1  'x, y, z'
loop_
 _atom_site_type_symbol
 _atom_site_label
 _atom_site_symmetry_multiplicity
 _atom_site_fract_x
 _atom_site_fract_y
 _atom_site_fract_z
 _atom_site_occupancy
  Yb  Yb0  1  0.250000  0.491968  0.205878  1
  Yb  Yb1  1  0.750000  0.508032  0.794122  1
  Yb  Yb2  1  0.250000  0.991968  0.294122  1
  Yb  Yb3  1  0.750000  0.008032  0.705878  1
  Sb  Sb4  1  0.250000  0.300519  0.591889  1
  Sb  Sb5  1  0.750000  0.199481  0.091889  1
  Sb  Sb6  1  0.250000  0.800519  0.908111  1
  Sb  Sb7  1  0.750000  0.699481  0.408111  1
  Pd  Pd8  1  0.750000  0.309741  0.419217  1
  Pd  Pd9  1  0.250000  0.190259  0.919217  1
  Pd  Pd10  1  0.750000  0.809741  0.080783  1
  Pd  Pd11  1  0.250000  0.690259  0.580783  1
