# generated using pymatgen
data_ReCl5
_symmetry_space_group_name_H-M   'P 1'
_cell_length_a   9.55781293
_cell_length_b   12.35824265
_cell_length_c   12.87671864
_cell_angle_alpha   90.00000000
_cell_angle_beta   109.81154377
_cell_angle_gamma   90.00000000
_symmetry_Int_Tables_number   1
_chemical_formula_structural   ReCl5
_chemical_formula_sum   'Re8 Cl40'
_cell_volume   1430.94694080
_cell_formula_units_Z   8
loop_
 _symmetry_equiv_pos_site_id
 _symmetry_equiv_pos_as_xyz
  1  'x, y, z'
loop_
 _atom_site_type_symbol
 _atom_site_label
 _atom_site_symmetry_multiplicity
 _atom_site_fract_x
 _atom_site_fract_y
 _atom_site_fract_z
 _atom_site_occupancy
  Re  Re0  1  0.115638  0.627645  0.313827  1
  Re  Re1  1  0.884362  0.127645  0.186173  1
  Re  Re2  1  0.884362  0.372355  0.686173  1
  Re  Re3  1  0.115638  0.872355  0.813827  1
  Re  Re4  1  0.696016  0.623970  0.207933  1
  Re  Re5  1  0.303984  0.123970  0.292067  1
  Re  Re6  1  0.303984  0.376030  0.792067  1
  Re  Re7  1  0.696016  0.876030  0.707933  1
  Cl  Cl8  1  0.712963  0.731630  0.355917  1
  Cl  Cl9  1  0.287037  0.231630  0.144083  1
  Cl  Cl10  1  0.287037  0.268370  0.644083  1
  Cl  Cl11  1  0.712963  0.768370  0.855917  1
  Cl  Cl12  1  0.906124  0.233188  0.047127  1
  Cl  Cl13  1  0.093876  0.733188  0.452873  1
  Cl  Cl14  1  0.093876  0.766812  0.952873  1
  Cl  Cl15  1  0.906124  0.266812  0.547127  1
  Cl  Cl16  1  0.907324  0.981453  0.835112  1
  Cl  Cl17  1  0.092676  0.481453  0.664888  1
  Cl  Cl18  1  0.092676  0.018547  0.164888  1
  Cl  Cl19  1  0.907324  0.518547  0.335112  1
  Cl  Cl20  1  0.717891  0.981199  0.568706  1
  Cl  Cl21  1  0.282109  0.481199  0.931294  1
  Cl  Cl22  1  0.282109  0.018801  0.431294  1
  Cl  Cl23  1  0.717891  0.518801  0.068706  1
  Cl  Cl24  1  0.714892  0.483461  0.569303  1
  Cl  Cl25  1  0.285108  0.983461  0.930697  1
  Cl  Cl26  1  0.285108  0.516539  0.430697  1
  Cl  Cl27  1  0.714892  0.016539  0.069303  1
  Cl  Cl28  1  0.468728  0.489605  0.758491  1
  Cl  Cl29  1  0.531272  0.989605  0.741509  1
  Cl  Cl30  1  0.531272  0.510395  0.241509  1
  Cl  Cl31  1  0.468728  0.010395  0.258491  1
  Cl  Cl32  1  0.904603  0.478584  0.835581  1
  Cl  Cl33  1  0.095397  0.978584  0.664419  1
  Cl  Cl34  1  0.095397  0.521416  0.164419  1
  Cl  Cl35  1  0.904603  0.021416  0.335581  1
  Cl  Cl36  1  0.904040  0.765876  0.687754  1
  Cl  Cl37  1  0.095960  0.265876  0.812246  1
  Cl  Cl38  1  0.095960  0.234124  0.312246  1
  Cl  Cl39  1  0.904040  0.734124  0.187754  1
  Cl  Cl40  1  0.526021  0.766457  0.589785  1
  Cl  Cl41  1  0.473979  0.266457  0.910215  1
  Cl  Cl42  1  0.473979  0.233543  0.410215  1
  Cl  Cl43  1  0.526021  0.733543  0.089785  1
  Cl  Cl44  1  0.717866  0.260369  0.719457  1
  Cl  Cl45  1  0.282134  0.760369  0.780543  1
  Cl  Cl46  1  0.282134  0.739631  0.280543  1
  Cl  Cl47  1  0.717866  0.239631  0.219457  1
