# generated using pymatgen
data_HS3N
_symmetry_space_group_name_H-M   'P 1'
_cell_length_a   8.51050045
_cell_length_b   13.19236268
_cell_length_c   9.33723034
_cell_angle_alpha   90.00000000
_cell_angle_beta   121.18561518
_cell_angle_gamma   90.00000000
_symmetry_Int_Tables_number   1
_chemical_formula_structural   HS3N
_chemical_formula_sum   'H8 S24 N8'
_cell_volume   896.83566140
_cell_formula_units_Z   8
loop_
 _symmetry_equiv_pos_site_id
 _symmetry_equiv_pos_as_xyz
  1  'x, y, z'
loop_
 _atom_site_type_symbol
 _atom_site_label
 _atom_site_symmetry_multiplicity
 _atom_site_fract_x
 _atom_site_fract_y
 _atom_site_fract_z
 _atom_site_occupancy
  H  H0  1  0.715727  0.460233  0.076260  1
  H  H1  1  0.284273  0.460233  0.423740  1
  H  H2  1  0.284273  0.539767  0.923740  1
  H  H3  1  0.715727  0.539767  0.576260  1
  H  H4  1  0.781390  0.075671  0.367090  1
  H  H5  1  0.218610  0.075671  0.132910  1
  H  H6  1  0.218610  0.924329  0.632910  1
  H  H7  1  0.781390  0.924329  0.867090  1
  S  S8  1  0.792630  0.405283  0.461687  1
  S  S9  1  0.207370  0.405283  0.038313  1
  S  S10  1  0.207370  0.594717  0.538313  1
  S  S11  1  0.792630  0.594717  0.961687  1
  S  S12  1  0.574119  0.307460  0.380892  1
  S  S13  1  0.425881  0.307460  0.119108  1
  S  S14  1  0.425881  0.692540  0.619108  1
  S  S15  1  0.574119  0.692540  0.880892  1
  S  S16  1  0.641289  0.391778  0.816478  1
  S  S17  1  0.358711  0.391778  0.683522  1
  S  S18  1  0.358711  0.608222  0.183522  1
  S  S19  1  0.641289  0.608222  0.316478  1
  S  S20  1  0.924605  0.843135  0.309524  1
  S  S21  1  0.075395  0.843135  0.190476  1
  S  S22  1  0.075395  0.156865  0.690476  1
  S  S23  1  0.924605  0.156865  0.809524  1
  S  S24  1  0.705619  0.940636  0.182031  1
  S  S25  1  0.294381  0.940636  0.317969  1
  S  S26  1  0.294381  0.059364  0.817969  1
  S  S27  1  0.705619  0.059364  0.682031  1
  S  S28  1  0.858918  0.143625  0.180150  1
  S  S29  1  0.141082  0.143625  0.319850  1
  S  S30  1  0.141082  0.856375  0.819850  1
  S  S31  1  0.858918  0.856375  0.680150  1
  N  N32  1  0.732231  0.475918  0.977378  1
  N  N33  1  0.267769  0.475918  0.522622  1
  N  N34  1  0.267769  0.524082  0.022622  1
  N  N35  1  0.732231  0.524082  0.477378  1
  N  N36  1  0.763615  0.060066  0.252124  1
  N  N37  1  0.236385  0.060066  0.247876  1
  N  N38  1  0.236385  0.939934  0.747876  1
  N  N39  1  0.763615  0.939934  0.752124  1
