# generated using pymatgen
data_SrN6
_symmetry_space_group_name_H-M   'P 1'
_cell_length_a   8.39875768
_cell_length_b   6.79606141
_cell_length_c   6.59359021
_cell_angle_alpha   77.67985910
_cell_angle_beta   52.23598723
_cell_angle_gamma   50.08415367
_symmetry_Int_Tables_number   1
_chemical_formula_structural   SrN6
_chemical_formula_sum   'Sr2 N12'
_cell_volume   217.95624619
_cell_formula_units_Z   2
loop_
 _symmetry_equiv_pos_site_id
 _symmetry_equiv_pos_as_xyz
  1  'x, y, z'
loop_
 _atom_site_type_symbol
 _atom_site_label
 _atom_site_symmetry_multiplicity
 _atom_site_fract_x
 _atom_site_fract_y
 _atom_site_fract_z
 _atom_site_occupancy
  Sr  Sr0  1  0.000000  1.000000  0.000000  1
  Sr  Sr1  1  0.250000  0.250000  0.250000  1
  N  N2  1  0.412157  0.837814  0.960473  1
  N  N3  1  0.789555  0.960473  0.837814  1
  N  N4  1  0.876003  0.876003  0.623997  1
  N  N5  1  0.623997  0.623997  0.876003  1
  N  N6  1  0.373997  0.373997  0.626003  1
  N  N7  1  0.626003  0.626003  0.373997  1
  N  N8  1  0.412186  0.837843  0.460445  1
  N  N9  1  0.289527  0.460445  0.837843  1
  N  N10  1  0.460445  0.289527  0.412186  1
  N  N11  1  0.837843  0.412186  0.289527  1
  N  N12  1  0.837814  0.412157  0.789555  1
  N  N13  1  0.960473  0.789555  0.412157  1
