# generated using pymatgen
data_Tm5(Ge5Rh2)2
_symmetry_space_group_name_H-M   'P 1'
_cell_length_a   13.01157988
_cell_length_b   13.01157988
_cell_length_c   4.26821846
_cell_angle_alpha   90.00000000
_cell_angle_beta   90.00000000
_cell_angle_gamma   90.00000000
_symmetry_Int_Tables_number   1
_chemical_formula_structural   Tm5(Ge5Rh2)2
_chemical_formula_sum   'Tm10 Ge20 Rh8'
_cell_volume   722.61455398
_cell_formula_units_Z   2
loop_
 _symmetry_equiv_pos_site_id
 _symmetry_equiv_pos_as_xyz
  1  'x, y, z'
loop_
 _atom_site_type_symbol
 _atom_site_label
 _atom_site_symmetry_multiplicity
 _atom_site_fract_x
 _atom_site_fract_y
 _atom_site_fract_z
 _atom_site_occupancy
  Tm  Tm0  1  0.113306  0.613306  0.500000  1
  Tm  Tm1  1  0.613306  0.886694  0.500000  1
  Tm  Tm2  1  0.386694  0.113306  0.500000  1
  Tm  Tm3  1  0.886694  0.386694  0.500000  1
  Tm  Tm4  1  0.326128  0.826128  0.500000  1
  Tm  Tm5  1  0.826128  0.673872  0.500000  1
  Tm  Tm6  1  0.173872  0.326128  0.500000  1
  Tm  Tm7  1  0.673872  0.173872  0.500000  1
  Tm  Tm8  1  0.500000  0.500000  0.000000  1
  Tm  Tm9  1  0.000000  0.000000  0.000000  1
  Ge  Ge10  1  0.343553  0.495755  0.500000  1
  Ge  Ge11  1  0.656447  0.504245  0.500000  1
  Ge  Ge12  1  0.504245  0.343553  0.500000  1
  Ge  Ge13  1  0.495755  0.656447  0.500000  1
  Ge  Ge14  1  0.995755  0.843553  0.500000  1
  Ge  Ge15  1  0.843553  0.004245  0.500000  1
  Ge  Ge16  1  0.156447  0.995755  0.500000  1
  Ge  Ge17  1  0.004245  0.156447  0.500000  1
  Ge  Ge18  1  0.337338  0.299965  0.000000  1
  Ge  Ge19  1  0.662662  0.700035  0.000000  1
  Ge  Ge20  1  0.700035  0.337338  0.000000  1
  Ge  Ge21  1  0.299965  0.662662  0.000000  1
  Ge  Ge22  1  0.799965  0.837338  0.000000  1
  Ge  Ge23  1  0.837338  0.200035  0.000000  1
  Ge  Ge24  1  0.162662  0.799965  0.000000  1
  Ge  Ge25  1  0.200035  0.162662  0.000000  1
  Ge  Ge26  1  0.433201  0.933201  0.000000  1
  Ge  Ge27  1  0.933201  0.566799  0.000000  1
  Ge  Ge28  1  0.566799  0.066799  0.000000  1
  Ge  Ge29  1  0.066799  0.433201  0.000000  1
  Rh  Rh30  1  0.246144  0.979376  0.000000  1
  Rh  Rh31  1  0.753856  0.020624  0.000000  1
  Rh  Rh32  1  0.020624  0.246144  0.000000  1
  Rh  Rh33  1  0.979376  0.753856  0.000000  1
  Rh  Rh34  1  0.479376  0.746144  0.000000  1
  Rh  Rh35  1  0.746144  0.520624  0.000000  1
  Rh  Rh36  1  0.253856  0.479376  0.000000  1
  Rh  Rh37  1  0.520624  0.253856  0.000000  1
