# generated using pymatgen
data_BiP4HO12
_symmetry_space_group_name_H-M   'P 1'
_cell_length_a   7.24806736
_cell_length_b   8.77658426
_cell_length_c   8.99476739
_cell_angle_alpha   99.55189670
_cell_angle_beta   112.10680231
_cell_angle_gamma   106.48933913
_symmetry_Int_Tables_number   1
_chemical_formula_structural   BiP4HO12
_chemical_formula_sum   'Bi2 P8 H2 O24'
_cell_volume   483.76742489
_cell_formula_units_Z   2
loop_
 _symmetry_equiv_pos_site_id
 _symmetry_equiv_pos_as_xyz
  1  'x, y, z'
loop_
 _atom_site_type_symbol
 _atom_site_label
 _atom_site_symmetry_multiplicity
 _atom_site_fract_x
 _atom_site_fract_y
 _atom_site_fract_z
 _atom_site_occupancy
  Bi  Bi0  1  0.904057  0.732566  0.739823  1
  Bi  Bi1  1  0.095943  0.267434  0.260177  1
  P  P2  1  0.612472  0.291814  0.581085  1
  P  P3  1  0.387528  0.708186  0.418915  1
  P  P4  1  0.574220  0.133319  0.844664  1
  P  P5  1  0.425780  0.866681  0.155336  1
  P  P6  1  0.794491  0.813514  0.107384  1
  P  P7  1  0.205509  0.186486  0.892616  1
  P  P8  1  0.928138  0.620032  0.341098  1
  P  P9  1  0.071862  0.379968  0.658902  1
  H  H10  1  0.504801  0.133351  0.257598  1
  H  H11  1  0.495199  0.866649  0.742402  1
  O  O12  1  0.817645  0.262330  0.573804  1
  O  O13  1  0.182355  0.737670  0.426196  1
  O  O14  1  0.672712  0.462502  0.694049  1
  O  O15  1  0.327288  0.537498  0.305951  1
  O  O16  1  0.556868  0.764915  0.600139  1
  O  O17  1  0.443132  0.235085  0.399861  1
  O  O18  1  0.531600  0.151584  0.661991  1
  O  O19  1  0.468400  0.848416  0.338009  1
  O  O20  1  0.104406  0.561039  0.700485  1
  O  O21  1  0.895594  0.438961  0.299515  1
  O  O22  1  0.162911  0.311886  0.550490  1
  O  O23  1  0.837089  0.688114  0.449510  1
  O  O24  1  0.161975  0.342248  0.836974  1
  O  O25  1  0.838025  0.657752  0.163026  1
  O  O26  1  0.237044  0.213809  0.070544  1
  O  O27  1  0.762956  0.786191  0.929456  1
  O  O28  1  0.048817  0.023370  0.760305  1
  O  O29  1  0.951183  0.976630  0.239695  1
  O  O30  1  0.445433  0.224775  0.904822  1
  O  O31  1  0.554567  0.775225  0.095178  1
  O  O32  1  0.449572  0.943429  0.805406  1
  O  O33  1  0.550428  0.056571  0.194594  1
  O  O34  1  0.193738  0.794269  0.033952  1
  O  O35  1  0.806262  0.205731  0.966048  1
