# generated using pymatgen
data_Sc3Si4Ni11
_symmetry_space_group_name_H-M   'P 1'
_cell_length_a   7.93197330
_cell_length_b   7.93197330
_cell_length_c   8.32308293
_cell_angle_alpha   90.00000000
_cell_angle_beta   90.00000000
_cell_angle_gamma   120.00000000
_symmetry_Int_Tables_number   1
_chemical_formula_structural   Sc3Si4Ni11
_chemical_formula_sum   'Sc6 Si8 Ni22'
_cell_volume   453.50005169
_cell_formula_units_Z   2
loop_
 _symmetry_equiv_pos_site_id
 _symmetry_equiv_pos_as_xyz
  1  'x, y, z'
loop_
 _atom_site_type_symbol
 _atom_site_label
 _atom_site_symmetry_multiplicity
 _atom_site_fract_x
 _atom_site_fract_y
 _atom_site_fract_z
 _atom_site_occupancy
  Sc  Sc0  1  0.802341  0.604683  0.750000  1
  Sc  Sc1  1  0.197659  0.802341  0.250000  1
  Sc  Sc2  1  0.604683  0.802341  0.250000  1
  Sc  Sc3  1  0.395317  0.197659  0.750000  1
  Sc  Sc4  1  0.802341  0.197659  0.750000  1
  Sc  Sc5  1  0.197659  0.395317  0.250000  1
  Si  Si6  1  0.000000  0.000000  0.750000  1
  Si  Si7  1  0.500000  0.000000  0.000000  1
  Si  Si8  1  0.500000  0.500000  0.500000  1
  Si  Si9  1  0.000000  0.500000  0.500000  1
  Si  Si10  1  0.000000  0.500000  0.000000  1
  Si  Si11  1  0.500000  0.500000  0.000000  1
  Si  Si12  1  0.500000  0.000000  0.500000  1
  Si  Si13  1  0.000000  0.000000  0.250000  1
  Ni  Ni14  1  0.847597  0.695195  0.092882  1
  Ni  Ni15  1  0.695195  0.847597  0.907118  1
  Ni  Ni16  1  0.152403  0.304805  0.907118  1
  Ni  Ni17  1  0.152403  0.847597  0.907118  1
  Ni  Ni18  1  0.304805  0.152403  0.407118  1
  Ni  Ni19  1  0.438801  0.561199  0.750000  1
  Ni  Ni20  1  0.122398  0.561199  0.750000  1
  Ni  Ni21  1  0.877602  0.438801  0.250000  1
  Ni  Ni22  1  0.561199  0.438801  0.250000  1
  Ni  Ni23  1  0.438801  0.877602  0.750000  1
  Ni  Ni24  1  0.333333  0.666667  0.003309  1
  Ni  Ni25  1  0.666667  0.333333  0.503309  1
  Ni  Ni26  1  0.666667  0.333333  0.996691  1
  Ni  Ni27  1  0.333333  0.666667  0.496691  1
  Ni  Ni28  1  0.847597  0.152403  0.407118  1
  Ni  Ni29  1  0.847597  0.695195  0.407118  1
  Ni  Ni30  1  0.152403  0.847597  0.592882  1
  Ni  Ni31  1  0.695195  0.847597  0.592882  1
  Ni  Ni32  1  0.304805  0.152403  0.092882  1
  Ni  Ni33  1  0.847597  0.152403  0.092882  1
  Ni  Ni34  1  0.152403  0.304805  0.592882  1
  Ni  Ni35  1  0.561199  0.122398  0.250000  1
