# generated using pymatgen
data_CCl2O
_symmetry_space_group_name_H-M   'P 1'
_cell_length_a   12.26691352
_cell_length_b   12.26691352
_cell_length_c   12.26691352
_cell_angle_alpha   93.37341220
_cell_angle_beta   93.37341220
_cell_angle_gamma   151.92273829
_symmetry_Int_Tables_number   1
_chemical_formula_structural   CCl2O
_chemical_formula_sum   'C8 Cl16 O8'
_cell_volume   842.84135319
_cell_formula_units_Z   8
loop_
 _symmetry_equiv_pos_site_id
 _symmetry_equiv_pos_as_xyz
  1  'x, y, z'
loop_
 _atom_site_type_symbol
 _atom_site_label
 _atom_site_symmetry_multiplicity
 _atom_site_fract_x
 _atom_site_fract_y
 _atom_site_fract_z
 _atom_site_occupancy
  C  C0  1  0.228996  0.996079  0.490030  1
  C  C1  1  0.988967  0.978996  0.732918  1
  C  C2  1  0.246079  0.256049  0.267082  1
  C  C3  1  0.506049  0.738967  0.509970  1
  C  C4  1  0.021004  0.753921  0.009970  1
  C  C5  1  0.261033  0.771004  0.767082  1
  C  C6  1  0.003921  0.493951  0.232918  1
  C  C7  1  0.743951  0.011033  0.990030  1
  Cl  Cl8  1  0.409700  0.063738  0.434489  1
  Cl  Cl9  1  0.225211  0.159700  0.845962  1
  Cl  Cl10  1  0.313738  0.379249  0.154038  1
  Cl  Cl11  1  0.629249  0.975211  0.565511  1
  Cl  Cl12  1  0.840300  0.686262  0.065511  1
  Cl  Cl13  1  0.024789  0.590300  0.654038  1
  Cl  Cl14  1  0.936262  0.370751  0.345962  1
  Cl  Cl15  1  0.620751  0.774789  0.934489  1
  Cl  Cl16  1  0.938157  0.737355  0.409963  1
  Cl  Cl17  1  0.778195  0.688157  0.700802  1
  Cl  Cl18  1  0.987355  0.077393  0.299198  1
  Cl  Cl19  1  0.327393  0.528195  0.590037  1
  Cl  Cl20  1  0.311843  0.012645  0.090037  1
  Cl  Cl21  1  0.471805  0.061843  0.799198  1
  Cl  Cl22  1  0.262645  0.672607  0.200802  1
  Cl  Cl23  1  0.922607  0.221805  0.909963  1
  O  O24  1  0.299566  0.114986  0.574130  1
  O  O25  1  0.975436  0.049566  0.684580  1
  O  O26  1  0.364986  0.290856  0.315420  1
  O  O27  1  0.540856  0.725436  0.425870  1
  O  O28  1  0.950434  0.635014  0.925870  1
  O  O29  1  0.274564  0.700434  0.815420  1
  O  O30  1  0.885014  0.459144  0.184580  1
  O  O31  1  0.709144  0.024564  0.074130  1
