# generated using pymatgen
data_K2In3CuSe6
_symmetry_space_group_name_H-M   'P 1'
_cell_length_a   8.24992581
_cell_length_b   8.24992581
_cell_length_c   21.72278646
_cell_angle_alpha   84.59961219
_cell_angle_beta   95.40038781
_cell_angle_gamma   89.98071793
_symmetry_Int_Tables_number   1
_chemical_formula_structural   K2In3CuSe6
_chemical_formula_sum   'K8 In12 Cu4 Se24'
_cell_volume   1465.32165907
_cell_formula_units_Z   4
loop_
 _symmetry_equiv_pos_site_id
 _symmetry_equiv_pos_as_xyz
  1  'x, y, z'
loop_
 _atom_site_type_symbol
 _atom_site_label
 _atom_site_symmetry_multiplicity
 _atom_site_fract_x
 _atom_site_fract_y
 _atom_site_fract_z
 _atom_site_occupancy
  K  K0  1  0.762477  0.605214  0.083234  1
  K  K1  1  0.605214  0.762477  0.416766  1
  K  K2  1  0.237523  0.394786  0.916766  1
  K  K3  1  0.394786  0.237523  0.583234  1
  K  K4  1  0.780020  0.103907  0.083127  1
  K  K5  1  0.103907  0.780020  0.416873  1
  K  K6  1  0.219980  0.896093  0.916873  1
  K  K7  1  0.896093  0.219980  0.583127  1
  In  In8  1  0.279160  0.845968  0.114995  1
  In  In9  1  0.845968  0.279160  0.385005  1
  In  In10  1  0.720840  0.154032  0.885005  1
  In  In11  1  0.154032  0.720840  0.614995  1
  In  In12  1  0.346201  0.278325  0.384772  1
  In  In13  1  0.278325  0.346201  0.115228  1
  In  In14  1  0.653799  0.721675  0.615228  1
  In  In15  1  0.721675  0.653799  0.884772  1
  In  In16  1  0.561141  0.561141  0.250000  1
  In  In17  1  0.438859  0.438859  0.750000  1
  In  In18  1  0.063485  0.063485  0.250000  1
  In  In19  1  0.936515  0.936515  0.750000  1
  Cu  Cu20  1  0.063163  0.561784  0.250043  1
  Cu  Cu21  1  0.561784  0.063163  0.249957  1
  Cu  Cu22  1  0.936837  0.438216  0.749957  1
  Cu  Cu23  1  0.438216  0.936837  0.750043  1
  Se  Se24  1  0.182668  0.973021  0.680314  1
  Se  Se25  1  0.973021  0.182668  0.819686  1
  Se  Se26  1  0.817332  0.026979  0.319686  1
  Se  Se27  1  0.026979  0.817332  0.180314  1
  Se  Se28  1  0.157824  0.436321  0.680313  1
  Se  Se29  1  0.436321  0.157824  0.819687  1
  Se  Se30  1  0.842176  0.563679  0.319687  1
  Se  Se31  1  0.563679  0.842176  0.180313  1
  Se  Se32  1  0.973912  0.656949  0.819274  1
  Se  Se33  1  0.656949  0.973912  0.680726  1
  Se  Se34  1  0.026088  0.343051  0.180726  1
  Se  Se35  1  0.343051  0.026088  0.319274  1
  Se  Se36  1  0.884981  0.734013  0.540205  1
  Se  Se37  1  0.734013  0.884981  0.959795  1
  Se  Se38  1  0.115019  0.265987  0.459795  1
  Se  Se39  1  0.265987  0.115019  0.040205  1
  Se  Se40  1  0.436463  0.683693  0.819429  1
  Se  Se41  1  0.683693  0.436463  0.680571  1
  Se  Se42  1  0.563537  0.316307  0.180571  1
  Se  Se43  1  0.316307  0.563537  0.319429  1
  Se  Se44  1  0.385510  0.746435  0.540031  1
  Se  Se45  1  0.746435  0.385510  0.959969  1
  Se  Se46  1  0.614490  0.253565  0.459969  1
  Se  Se47  1  0.253565  0.614490  0.040031  1
