# generated using pymatgen
data_MnVO4
_symmetry_space_group_name_H-M   'P 1'
_cell_length_a   5.02889322
_cell_length_b   5.02889322
_cell_length_c   6.45702741
_cell_angle_alpha   90.00000000
_cell_angle_beta   90.00000000
_cell_angle_gamma   111.28594221
_symmetry_Int_Tables_number   1
_chemical_formula_structural   MnVO4
_chemical_formula_sum   'Mn2 V2 O8'
_cell_volume   152.15666969
_cell_formula_units_Z   2
loop_
 _symmetry_equiv_pos_site_id
 _symmetry_equiv_pos_as_xyz
  1  'x, y, z'
loop_
 _atom_site_type_symbol
 _atom_site_label
 _atom_site_symmetry_multiplicity
 _atom_site_fract_x
 _atom_site_fract_y
 _atom_site_fract_z
 _atom_site_occupancy
  Mn  Mn0  1  0.000000  0.000000  0.500000  1
  Mn  Mn1  1  0.000000  0.000000  0.000000  1
  V  V2  1  0.351427  0.648573  0.750000  1
  V  V3  1  0.648573  0.351427  0.250000  1
  O  O4  1  0.772370  0.227630  0.462939  1
  O  O5  1  0.785294  0.731339  0.250000  1
  O  O6  1  0.268661  0.214706  0.250000  1
  O  O7  1  0.214706  0.268661  0.750000  1
  O  O8  1  0.772370  0.227630  0.037061  1
  O  O9  1  0.227630  0.772370  0.962939  1
  O  O10  1  0.731339  0.785294  0.750000  1
  O  O11  1  0.227630  0.772370  0.537061  1
