# generated using pymatgen
data_K(SnSe2)2
_symmetry_space_group_name_H-M   'P 1'
_cell_length_a   10.26388823
_cell_length_b   10.26388823
_cell_length_c   7.61575193
_cell_angle_alpha   88.21231261
_cell_angle_beta   91.78768739
_cell_angle_gamma   37.71650987
_symmetry_Int_Tables_number   1
_chemical_formula_structural   K(SnSe2)2
_chemical_formula_sum   'K2 Sn4 Se8'
_cell_volume   488.51956510
_cell_formula_units_Z   2
loop_
 _symmetry_equiv_pos_site_id
 _symmetry_equiv_pos_as_xyz
  1  'x, y, z'
loop_
 _atom_site_type_symbol
 _atom_site_label
 _atom_site_symmetry_multiplicity
 _atom_site_fract_x
 _atom_site_fract_y
 _atom_site_fract_z
 _atom_site_occupancy
  K  K0  1  0.969260  0.344806  0.965656  1
  K  K1  1  0.655194  0.030740  0.965656  1
  Sn  Sn2  1  0.411240  0.588760  0.376242  1
  Sn  Sn3  1  0.140357  0.482843  0.556484  1
  Sn  Sn4  1  0.517157  0.859643  0.556484  1
  Sn  Sn5  1  0.312128  0.687872  0.868143  1
  Se  Se6  1  0.886246  0.494982  0.459697  1
  Se  Se7  1  0.505018  0.113754  0.459697  1
  Se  Se8  1  0.632680  0.367320  0.121536  1
  Se  Se9  1  0.043939  0.760941  0.351879  1
  Se  Se10  1  0.627680  0.372320  0.668769  1
  Se  Se11  1  0.469822  0.856779  0.877239  1
  Se  Se12  1  0.143221  0.530178  0.877239  1
  Se  Se13  1  0.239059  0.956061  0.351879  1
