# generated using pymatgen
data_SrV6O11
_symmetry_space_group_name_H-M   'P 1'
_cell_length_a   5.91083137
_cell_length_b   5.91083137
_cell_length_c   13.41282103
_cell_angle_alpha   90.00000000
_cell_angle_beta   90.00000000
_cell_angle_gamma   120.00000000
_symmetry_Int_Tables_number   1
_chemical_formula_structural   SrV6O11
_chemical_formula_sum   'Sr2 V12 O22'
_cell_volume   405.83350615
_cell_formula_units_Z   2
loop_
 _symmetry_equiv_pos_site_id
 _symmetry_equiv_pos_as_xyz
  1  'x, y, z'
loop_
 _atom_site_type_symbol
 _atom_site_label
 _atom_site_symmetry_multiplicity
 _atom_site_fract_x
 _atom_site_fract_y
 _atom_site_fract_z
 _atom_site_occupancy
  Sr  Sr0  1  0.666667  0.333333  0.750000  1
  Sr  Sr1  1  0.333333  0.666667  0.250000  1
  V  V2  1  0.333333  0.666667  0.750000  1
  V  V3  1  0.666667  0.333333  0.250000  1
  V  V4  1  0.000000  0.000000  0.354191  1
  V  V5  1  0.000000  0.000000  0.854191  1
  V  V6  1  0.000000  0.000000  0.645809  1
  V  V7  1  0.000000  0.000000  0.145809  1
  V  V8  1  0.500000  0.500000  0.500000  1
  V  V9  1  0.000000  0.500000  0.000000  1
  V  V10  1  0.500000  0.000000  0.000000  1
  V  V11  1  0.500000  0.000000  0.500000  1
  V  V12  1  0.000000  0.500000  0.500000  1
  V  V13  1  0.500000  0.500000  0.000000  1
  O  O14  1  0.666667  0.333333  0.084671  1
  O  O15  1  0.333333  0.666667  0.584671  1
  O  O16  1  0.333333  0.666667  0.915329  1
  O  O17  1  0.666667  0.333333  0.415329  1
  O  O18  1  0.851760  0.148240  0.250000  1
  O  O19  1  0.703521  0.851760  0.750000  1
  O  O20  1  0.148240  0.296479  0.750000  1
  O  O21  1  0.851760  0.703521  0.250000  1
  O  O22  1  0.296479  0.148240  0.250000  1
  O  O23  1  0.148240  0.851760  0.750000  1
  O  O24  1  0.175806  0.351611  0.420676  1
  O  O25  1  0.648389  0.824194  0.420676  1
  O  O26  1  0.175806  0.824194  0.420676  1
  O  O27  1  0.824194  0.175806  0.920676  1
  O  O28  1  0.175806  0.824194  0.079324  1
  O  O29  1  0.351611  0.175806  0.579324  1
  O  O30  1  0.824194  0.648389  0.579324  1
  O  O31  1  0.175806  0.351611  0.079324  1
  O  O32  1  0.648389  0.824194  0.079324  1
  O  O33  1  0.351611  0.175806  0.920676  1
  O  O34  1  0.824194  0.648389  0.920676  1
  O  O35  1  0.824194  0.175806  0.579324  1
