# generated using pymatgen
data_Ti3Cu4
_symmetry_space_group_name_H-M   'P 1'
_cell_length_a   10.17768620
_cell_length_b   10.17768620
_cell_length_c   10.17768620
_cell_angle_alpha   162.25693605
_cell_angle_beta   162.25693605
_cell_angle_gamma   25.19483958
_symmetry_Int_Tables_number   1
_chemical_formula_structural   Ti3Cu4
_chemical_formula_sum   'Ti3 Cu4'
_cell_volume   97.88199830
_cell_formula_units_Z   1
loop_
 _symmetry_equiv_pos_site_id
 _symmetry_equiv_pos_as_xyz
  1  'x, y, z'
loop_
 _atom_site_type_symbol
 _atom_site_label
 _atom_site_symmetry_multiplicity
 _atom_site_fract_x
 _atom_site_fract_y
 _atom_site_fract_z
 _atom_site_occupancy
  Ti  Ti0  1  0.707446  0.707446  0.000000  1
  Ti  Ti1  1  0.292554  0.292554  0.000000  1
  Ti  Ti2  1  0.000000  1.000000  0.000000  1
  Cu  Cu3  1  0.570327  0.570327  0.000000  1
  Cu  Cu4  1  0.429673  0.429673  0.000000  1
  Cu  Cu5  1  0.865175  0.865175  0.000000  1
  Cu  Cu6  1  0.134825  0.134825  0.000000  1
