# generated using pymatgen
data_NOF
_symmetry_space_group_name_H-M   'P 1'
_cell_length_a   4.22127947
_cell_length_b   4.47802643
_cell_length_c   10.50463571
_cell_angle_alpha   90.00000000
_cell_angle_beta   90.00000000
_cell_angle_gamma   90.00000000
_symmetry_Int_Tables_number   1
_chemical_formula_structural   NOF
_chemical_formula_sum   'N4 O4 F4'
_cell_volume   198.56913970
_cell_formula_units_Z   4
loop_
 _symmetry_equiv_pos_site_id
 _symmetry_equiv_pos_as_xyz
  1  'x, y, z'
loop_
 _atom_site_type_symbol
 _atom_site_label
 _atom_site_symmetry_multiplicity
 _atom_site_fract_x
 _atom_site_fract_y
 _atom_site_fract_z
 _atom_site_occupancy
  N  N0  1  0.342372  0.509499  0.899181  1
  N  N1  1  0.842372  0.990501  0.100819  1
  N  N2  1  0.157628  0.490501  0.399181  1
  N  N3  1  0.657628  0.009499  0.600819  1
  O  O4  1  0.894961  0.968974  0.649408  1
  O  O5  1  0.105039  0.468974  0.850592  1
  O  O6  1  0.394961  0.531026  0.350592  1
  O  O7  1  0.605039  0.031026  0.149408  1
  F  F8  1  0.538821  0.351842  0.627155  1
  F  F9  1  0.038821  0.148158  0.372845  1
  F  F10  1  0.461179  0.851842  0.872845  1
  F  F11  1  0.961179  0.648158  0.127155  1
