# generated using pymatgen
data_InN
_symmetry_space_group_name_H-M   'P 1'
_cell_length_a   3.58388188
_cell_length_b   3.58388188
_cell_length_c   5.79093223
_cell_angle_alpha   90.00000000
_cell_angle_beta   90.00000000
_cell_angle_gamma   120.00000000
_symmetry_Int_Tables_number   1
_chemical_formula_structural   InN
_chemical_formula_sum   'In2 N2'
_cell_volume   64.41492254
_cell_formula_units_Z   2
loop_
 _symmetry_equiv_pos_site_id
 _symmetry_equiv_pos_as_xyz
  1  'x, y, z'
loop_
 _atom_site_type_symbol
 _atom_site_label
 _atom_site_symmetry_multiplicity
 _atom_site_fract_x
 _atom_site_fract_y
 _atom_site_fract_z
 _atom_site_occupancy
  In  In0  1  0.666667  0.333333  0.500359  1
  In  In1  1  0.333333  0.666667  0.000359  1
  N  N2  1  0.666667  0.333333  0.879641  1
  N  N3  1  0.333333  0.666667  0.379641  1
