# generated using pymatgen
data_BiTePt
_symmetry_space_group_name_H-M   'P 1'
_cell_length_a   6.76360612
_cell_length_b   6.76360612
_cell_length_c   6.76360612
_cell_angle_alpha   90.00000000
_cell_angle_beta   90.00000000
_cell_angle_gamma   90.00000000
_symmetry_Int_Tables_number   1
_chemical_formula_structural   BiTePt
_chemical_formula_sum   'Bi4 Te4 Pt4'
_cell_volume   309.41041286
_cell_formula_units_Z   4
loop_
 _symmetry_equiv_pos_site_id
 _symmetry_equiv_pos_as_xyz
  1  'x, y, z'
loop_
 _atom_site_type_symbol
 _atom_site_label
 _atom_site_symmetry_multiplicity
 _atom_site_fract_x
 _atom_site_fract_y
 _atom_site_fract_z
 _atom_site_occupancy
  Bi  Bi0  1  0.368024  0.368024  0.368024  1
  Bi  Bi1  1  0.131976  0.631976  0.868024  1
  Bi  Bi2  1  0.868024  0.131976  0.631976  1
  Bi  Bi3  1  0.631976  0.868024  0.131976  1
  Te  Te4  1  0.627053  0.627053  0.627053  1
  Te  Te5  1  0.872947  0.372947  0.127053  1
  Te  Te6  1  0.127053  0.872947  0.372947  1
  Te  Te7  1  0.372947  0.127053  0.872947  1
  Pt  Pt8  1  0.005210  0.005210  0.005210  1
  Pt  Pt9  1  0.494790  0.994790  0.505210  1
  Pt  Pt10  1  0.505210  0.494790  0.994790  1
  Pt  Pt11  1  0.994790  0.505210  0.494790  1
