# generated using pymatgen
data_VSn2
_symmetry_space_group_name_H-M   'P 1'
_cell_length_a   10.52735283
_cell_length_b   9.79706280
_cell_length_c   5.48940091
_cell_angle_alpha   81.82710513
_cell_angle_beta   67.09882615
_cell_angle_gamma   31.07406873
_symmetry_Int_Tables_number   1
_chemical_formula_structural   VSn2
_chemical_formula_sum   'V4 Sn8'
_cell_volume   246.47799688
_cell_formula_units_Z   4
loop_
 _symmetry_equiv_pos_site_id
 _symmetry_equiv_pos_as_xyz
  1  'x, y, z'
loop_
 _atom_site_type_symbol
 _atom_site_label
 _atom_site_symmetry_multiplicity
 _atom_site_fract_x
 _atom_site_fract_y
 _atom_site_fract_z
 _atom_site_occupancy
  V  V0  1  0.877584  0.877584  0.622416  1
  V  V1  1  0.622416  0.622416  0.877584  1
  V  V2  1  0.372416  0.372416  0.627584  1
  V  V3  1  0.627584  0.627584  0.372416  1
  Sn  Sn4  1  0.916447  0.583553  0.916447  1
  Sn  Sn5  1  0.583553  0.916447  0.583553  1
  Sn  Sn6  1  0.333553  0.666447  0.333553  1
  Sn  Sn7  1  0.666447  0.333553  0.666447  1
  Sn  Sn8  1  0.166050  0.166050  0.333950  1
  Sn  Sn9  1  0.333950  0.333950  0.166050  1
  Sn  Sn10  1  0.083950  0.083950  0.916050  1
  Sn  Sn11  1  0.916050  0.916050  0.083950  1
