# generated using pymatgen
data_Eu3AuO6
_symmetry_space_group_name_H-M   'P 1'
_cell_length_a   3.75942259
_cell_length_b   5.67910303
_cell_length_c   7.21299774
_cell_angle_alpha   90.54084012
_cell_angle_beta   102.54434575
_cell_angle_gamma   91.00768467
_symmetry_Int_Tables_number   1
_chemical_formula_structural   Eu3AuO6
_chemical_formula_sum   'Eu3 Au1 O6'
_cell_volume   150.28522841
_cell_formula_units_Z   1
loop_
 _symmetry_equiv_pos_site_id
 _symmetry_equiv_pos_as_xyz
  1  'x, y, z'
loop_
 _atom_site_type_symbol
 _atom_site_label
 _atom_site_symmetry_multiplicity
 _atom_site_fract_x
 _atom_site_fract_y
 _atom_site_fract_z
 _atom_site_occupancy
  Eu  Eu0  1  0.613650  0.524780  0.768884  1
  Eu  Eu1  1  0.386350  0.475220  0.231116  1
  Eu  Eu2  1  0.000000  0.000000  0.500000  1
  Au  Au3  1  0.000000  0.000000  0.000000  1
  O  O4  1  0.159209  0.302474  0.887366  1
  O  O5  1  0.875133  0.202539  0.207855  1
  O  O6  1  0.124867  0.797461  0.792145  1
  O  O7  1  0.484637  0.745645  0.478267  1
  O  O8  1  0.840791  0.697526  0.112634  1
  O  O9  1  0.515363  0.254355  0.521733  1
