# generated using pymatgen
data_Rb2RhF6
_symmetry_space_group_name_H-M   'P 1'
_cell_length_a   6.01110713
_cell_length_b   6.01110713
_cell_length_c   4.98691140
_cell_angle_alpha   90.00000000
_cell_angle_beta   90.00000000
_cell_angle_gamma   120.00000000
_symmetry_Int_Tables_number   1
_chemical_formula_structural   Rb2RhF6
_chemical_formula_sum   'Rb2 Rh1 F6'
_cell_volume   156.05267600
_cell_formula_units_Z   1
loop_
 _symmetry_equiv_pos_site_id
 _symmetry_equiv_pos_as_xyz
  1  'x, y, z'
loop_
 _atom_site_type_symbol
 _atom_site_label
 _atom_site_symmetry_multiplicity
 _atom_site_fract_x
 _atom_site_fract_y
 _atom_site_fract_z
 _atom_site_occupancy
  Rb  Rb0  1  0.333333  0.666667  0.701921  1
  Rb  Rb1  1  0.666667  0.333333  0.298079  1
  Rh  Rh2  1  0.000000  0.000000  0.000000  1
  F  F3  1  0.843256  0.156744  0.783471  1
  F  F4  1  0.843256  0.686511  0.783471  1
  F  F5  1  0.313489  0.156744  0.783471  1
  F  F6  1  0.156744  0.843256  0.216529  1
  F  F7  1  0.156744  0.313489  0.216529  1
  F  F8  1  0.686511  0.843256  0.216529  1
