# generated using pymatgen
data_SOF2
_symmetry_space_group_name_H-M   'P 1'
_cell_length_a   5.43765791
_cell_length_b   7.30163016
_cell_length_c   15.01920048
_cell_angle_alpha   90.00000000
_cell_angle_beta   97.26660325
_cell_angle_gamma   90.00000000
_symmetry_Int_Tables_number   1
_chemical_formula_structural   SOF2
_chemical_formula_sum   'S8 O8 F16'
_cell_volume   591.52940558
_cell_formula_units_Z   8
loop_
 _symmetry_equiv_pos_site_id
 _symmetry_equiv_pos_as_xyz
  1  'x, y, z'
loop_
 _atom_site_type_symbol
 _atom_site_label
 _atom_site_symmetry_multiplicity
 _atom_site_fract_x
 _atom_site_fract_y
 _atom_site_fract_z
 _atom_site_occupancy
  S  S0  1  0.535011  0.778213  0.351133  1
  S  S1  1  0.464989  0.278213  0.148867  1
  S  S2  1  0.464989  0.221787  0.648867  1
  S  S3  1  0.535011  0.721787  0.851133  1
  S  S4  1  0.952682  0.840123  0.136229  1
  S  S5  1  0.047318  0.340123  0.363771  1
  S  S6  1  0.047318  0.159877  0.863771  1
  S  S7  1  0.952682  0.659877  0.636229  1
  O  O8  1  0.972775  0.025786  0.167629  1
  O  O9  1  0.494866  0.801776  0.255524  1
  O  O10  1  0.505134  0.301776  0.244476  1
  O  O11  1  0.505134  0.198224  0.744476  1
  O  O12  1  0.494866  0.698224  0.755524  1
  O  O13  1  0.027225  0.525786  0.332371  1
  O  O14  1  0.027225  0.974214  0.832371  1
  O  O15  1  0.972775  0.474214  0.667629  1
  F  F16  1  0.768563  0.590098  0.886607  1
  F  F17  1  0.231437  0.090098  0.613393  1
  F  F18  1  0.231437  0.409902  0.113393  1
  F  F19  1  0.334857  0.911011  0.391098  1
  F  F20  1  0.768563  0.909902  0.386607  1
  F  F21  1  0.334857  0.588989  0.891098  1
  F  F22  1  0.665143  0.088989  0.608902  1
  F  F23  1  0.665143  0.411011  0.108902  1
  F  F24  1  0.135519  0.675601  0.558827  1
  F  F25  1  0.864481  0.175601  0.941173  1
  F  F26  1  0.864481  0.324399  0.441173  1
  F  F27  1  0.135519  0.824399  0.058827  1
  F  F28  1  0.702180  0.666060  0.563805  1
  F  F29  1  0.297820  0.166060  0.936195  1
  F  F30  1  0.297820  0.333940  0.436195  1
  F  F31  1  0.702180  0.833940  0.063805  1
