# generated using pymatgen
data_BiTe
_symmetry_space_group_name_H-M   'P 1'
_cell_length_a   4.48094930
_cell_length_b   4.48094930
_cell_length_c   24.95749972
_cell_angle_alpha   90.00000000
_cell_angle_beta   90.00000000
_cell_angle_gamma   120.00000000
_symmetry_Int_Tables_number   1
_chemical_formula_structural   BiTe
_chemical_formula_sum   'Bi6 Te6'
_cell_volume   433.98205008
_cell_formula_units_Z   6
loop_
 _symmetry_equiv_pos_site_id
 _symmetry_equiv_pos_as_xyz
  1  'x, y, z'
loop_
 _atom_site_type_symbol
 _atom_site_label
 _atom_site_symmetry_multiplicity
 _atom_site_fract_x
 _atom_site_fract_y
 _atom_site_fract_z
 _atom_site_occupancy
  Bi  Bi0  1  0.333333  0.666667  0.290999  1
  Bi  Bi1  1  0.666667  0.333333  0.709001  1
  Bi  Bi2  1  0.000000  0.000000  0.871323  1
  Bi  Bi3  1  0.000000  0.000000  0.128677  1
  Bi  Bi4  1  0.666667  0.333333  0.466371  1
  Bi  Bi5  1  0.333333  0.666667  0.533629  1
  Te  Te6  1  0.333333  0.666667  0.060666  1
  Te  Te7  1  0.666667  0.333333  0.939334  1
  Te  Te8  1  0.000000  0.000000  0.639889  1
  Te  Te9  1  0.000000  0.000000  0.360111  1
  Te  Te10  1  0.666667  0.333333  0.210330  1
  Te  Te11  1  0.333333  0.666667  0.789670  1
