# generated using pymatgen
data_CeZrF7
_symmetry_space_group_name_H-M   'P 1'
_cell_length_a   6.36407747
_cell_length_b   5.91083582
_cell_length_c   8.56427856
_cell_angle_alpha   90.00000000
_cell_angle_beta   102.36499832
_cell_angle_gamma   90.00000000
_symmetry_Int_Tables_number   1
_chemical_formula_structural   CeZrF7
_chemical_formula_sum   'Ce2 Zr2 F14'
_cell_volume   314.68949555
_cell_formula_units_Z   2
loop_
 _symmetry_equiv_pos_site_id
 _symmetry_equiv_pos_as_xyz
  1  'x, y, z'
loop_
 _atom_site_type_symbol
 _atom_site_label
 _atom_site_symmetry_multiplicity
 _atom_site_fract_x
 _atom_site_fract_y
 _atom_site_fract_z
 _atom_site_occupancy
  Ce  Ce0  1  0.842281  0.241386  0.813187  1
  Ce  Ce1  1  0.157719  0.741386  0.186813  1
  Zr  Zr2  1  0.311050  0.751981  0.723634  1
  Zr  Zr3  1  0.688950  0.251981  0.276366  1
  F  F4  1  0.439678  0.473897  0.269180  1
  F  F5  1  0.942415  0.037130  0.287198  1
  F  F6  1  0.462459  0.999987  0.258554  1
  F  F7  1  0.118686  0.031834  0.716577  1
  F  F8  1  0.560322  0.973897  0.730820  1
  F  F9  1  0.052263  0.423771  0.024345  1
  F  F10  1  0.947737  0.923771  0.975655  1
  F  F11  1  0.742788  0.247384  0.518701  1
  F  F12  1  0.881314  0.531834  0.283423  1
  F  F13  1  0.057585  0.537130  0.712802  1
  F  F14  1  0.537541  0.499987  0.741446  1
  F  F15  1  0.257212  0.747384  0.481299  1
  F  F16  1  0.356900  0.752432  0.967327  1
  F  F17  1  0.643100  0.252432  0.032673  1
