# generated using pymatgen
data_Sn(PO3)3
_symmetry_space_group_name_H-M   'P 1'
_cell_length_a   8.84940557
_cell_length_b   8.94935746
_cell_length_c   9.09892020
_cell_angle_alpha   90.00000000
_cell_angle_beta   90.00000000
_cell_angle_gamma   90.00000000
_symmetry_Int_Tables_number   1
_chemical_formula_structural   Sn(PO3)3
_chemical_formula_sum   'Sn4 P12 O36'
_cell_volume   720.60257679
_cell_formula_units_Z   4
loop_
 _symmetry_equiv_pos_site_id
 _symmetry_equiv_pos_as_xyz
  1  'x, y, z'
loop_
 _atom_site_type_symbol
 _atom_site_label
 _atom_site_symmetry_multiplicity
 _atom_site_fract_x
 _atom_site_fract_y
 _atom_site_fract_z
 _atom_site_occupancy
  Sn  Sn0  1  0.127291  0.856597  0.154130  1
  Sn  Sn1  1  0.372709  0.143403  0.654130  1
  Sn  Sn2  1  0.627291  0.643403  0.845870  1
  Sn  Sn3  1  0.872709  0.356597  0.345870  1
  P  P4  1  0.032609  0.324701  0.688760  1
  P  P5  1  0.195933  0.481918  0.187745  1
  P  P6  1  0.195934  0.805592  0.563068  1
  P  P7  1  0.304066  0.194408  0.063068  1
  P  P8  1  0.304067  0.518082  0.687745  1
  P  P9  1  0.467391  0.675299  0.188760  1
  P  P10  1  0.532609  0.175299  0.311240  1
  P  P11  1  0.695933  0.018082  0.812255  1
  P  P12  1  0.695934  0.694408  0.436932  1
  P  P13  1  0.804066  0.305592  0.936932  1
  P  P14  1  0.804067  0.981918  0.312255  1
  P  P15  1  0.967391  0.824701  0.811240  1
  O  O16  1  0.042417  0.783279  0.657007  1
  O  O17  1  0.086555  0.881238  0.915875  1
  O  O18  1  0.109808  0.607121  0.115432  1
  O  O19  1  0.126916  0.193335  0.639854  1
  O  O20  1  0.125288  0.404243  0.318305  1
  O  O21  1  0.139341  0.461578  0.740164  1
  O  O22  1  0.150599  0.840773  0.408818  1
  O  O23  1  0.194576  0.095128  0.144482  1
  O  O24  1  0.236995  0.362646  0.061670  1
  O  O25  1  0.263005  0.637354  0.561670  1
  O  O26  1  0.305424  0.904872  0.644482  1
  O  O27  1  0.349401  0.159227  0.908818  1
  O  O28  1  0.360659  0.538422  0.240164  1
  O  O29  1  0.374712  0.595757  0.818305  1
  O  O30  1  0.373084  0.806665  0.139854  1
  O  O31  1  0.390192  0.392879  0.615432  1
  O  O32  1  0.413445  0.118762  0.415875  1
  O  O33  1  0.457583  0.216721  0.157007  1
  O  O34  1  0.542417  0.716721  0.342993  1
  O  O35  1  0.586555  0.618762  0.084125  1
  O  O36  1  0.609808  0.892879  0.884568  1
  O  O37  1  0.626916  0.306665  0.360146  1
  O  O38  1  0.625288  0.095757  0.681695  1
  O  O39  1  0.639341  0.038422  0.259836  1
  O  O40  1  0.650599  0.659227  0.591182  1
  O  O41  1  0.694576  0.404872  0.855518  1
  O  O42  1  0.736995  0.137354  0.938330  1
  O  O43  1  0.763005  0.862646  0.438330  1
  O  O44  1  0.805424  0.595128  0.355518  1
  O  O45  1  0.849401  0.340773  0.091182  1
  O  O46  1  0.860659  0.961578  0.759836  1
  O  O47  1  0.874712  0.904243  0.181695  1
  O  O48  1  0.873084  0.693335  0.860146  1
  O  O49  1  0.890192  0.107121  0.384568  1
  O  O50  1  0.913445  0.381238  0.584125  1
  O  O51  1  0.957583  0.283279  0.842993  1
