# generated using pymatgen
data_CuMo3I7
_symmetry_space_group_name_H-M   'P 1'
_cell_length_a   11.42842282
_cell_length_b   16.60480324
_cell_length_c   17.28185056
_cell_angle_alpha   90.00000000
_cell_angle_beta   90.00000000
_cell_angle_gamma   90.00000000
_symmetry_Int_Tables_number   1
_chemical_formula_structural   CuMo3I7
_chemical_formula_sum   'Cu8 Mo24 I56'
_cell_volume   3279.51996271
_cell_formula_units_Z   8
loop_
 _symmetry_equiv_pos_site_id
 _symmetry_equiv_pos_as_xyz
  1  'x, y, z'
loop_
 _atom_site_type_symbol
 _atom_site_label
 _atom_site_symmetry_multiplicity
 _atom_site_fract_x
 _atom_site_fract_y
 _atom_site_fract_z
 _atom_site_occupancy
  Cu  Cu0  1  0.360702  0.718050  0.208580  1
  Cu  Cu1  1  0.860702  0.281950  0.291420  1
  Cu  Cu2  1  0.139298  0.218050  0.791420  1
  Cu  Cu3  1  0.639298  0.781950  0.708580  1
  Cu  Cu4  1  0.639298  0.281950  0.791420  1
  Cu  Cu5  1  0.139298  0.718050  0.708580  1
  Cu  Cu6  1  0.860702  0.781950  0.208580  1
  Cu  Cu7  1  0.360702  0.218050  0.291420  1
  Mo  Mo8  1  0.637370  0.961533  0.050546  1
  Mo  Mo9  1  0.137370  0.038467  0.449454  1
  Mo  Mo10  1  0.862630  0.461533  0.949454  1
  Mo  Mo11  1  0.362630  0.538467  0.550546  1
  Mo  Mo12  1  0.362630  0.038467  0.949454  1
  Mo  Mo13  1  0.862630  0.961533  0.550546  1
  Mo  Mo14  1  0.137370  0.538467  0.050546  1
  Mo  Mo15  1  0.637370  0.461533  0.449454  1
  Mo  Mo16  1  0.405683  0.939151  0.069157  1
  Mo  Mo17  1  0.905683  0.060849  0.430843  1
  Mo  Mo18  1  0.094317  0.439151  0.930843  1
  Mo  Mo19  1  0.594317  0.560849  0.569157  1
  Mo  Mo20  1  0.594317  0.060849  0.930843  1
  Mo  Mo21  1  0.094317  0.939151  0.569157  1
  Mo  Mo22  1  0.905683  0.560849  0.069157  1
  Mo  Mo23  1  0.405683  0.439151  0.430843  1
  Mo  Mo24  1  0.494433  0.089126  0.068949  1
  Mo  Mo25  1  0.994433  0.910874  0.431051  1
  Mo  Mo26  1  0.005567  0.589126  0.931051  1
  Mo  Mo27  1  0.505567  0.410874  0.568949  1
  Mo  Mo28  1  0.505567  0.910874  0.931051  1
  Mo  Mo29  1  0.005567  0.089126  0.568949  1
  Mo  Mo30  1  0.994433  0.410874  0.068949  1
  Mo  Mo31  1  0.494433  0.589126  0.431051  1
  I  I32  1  0.550448  0.804576  0.053745  1
  I  I33  1  0.050448  0.195424  0.446255  1
  I  I34  1  0.949552  0.304576  0.946255  1
  I  I35  1  0.449552  0.695424  0.553745  1
  I  I36  1  0.449552  0.195424  0.946255  1
  I  I37  1  0.949552  0.804576  0.553745  1
  I  I38  1  0.050448  0.695424  0.053745  1
  I  I39  1  0.550448  0.304576  0.446255  1
  I  I40  1  0.539173  0.989587  0.195768  1
  I  I41  1  0.039173  0.010413  0.304232  1
  I  I42  1  0.960827  0.489587  0.804232  1
  I  I43  1  0.460827  0.510413  0.695768  1
  I  I44  1  0.460827  0.010413  0.804232  1
  I  I45  1  0.960827  0.989587  0.695768  1
  I  I46  1  0.039173  0.510413  0.195768  1
  I  I47  1  0.539173  0.489587  0.304232  1
  I  I48  1  0.253467  0.069386  0.091552  1
  I  I49  1  0.753467  0.930614  0.408448  1
  I  I50  1  0.246533  0.569386  0.908448  1
  I  I51  1  0.746533  0.430614  0.591552  1
  I  I52  1  0.746533  0.930614  0.908448  1
  I  I53  1  0.246533  0.069386  0.591552  1
  I  I54  1  0.753467  0.430614  0.091552  1
  I  I55  1  0.253467  0.569386  0.408448  1
  I  I56  1  0.265231  0.883916  0.947158  1
  I  I57  1  0.765231  0.116084  0.552842  1
  I  I58  1  0.234769  0.383916  0.052842  1
  I  I59  1  0.734769  0.616084  0.447158  1
  I  I60  1  0.734769  0.116084  0.052842  1
  I  I61  1  0.234769  0.883916  0.447158  1
  I  I62  1  0.765231  0.616084  0.947158  1
  I  I63  1  0.265231  0.383916  0.552842  1
  I  I64  1  0.486167  0.228965  0.170159  1
  I  I65  1  0.986167  0.771035  0.329841  1
  I  I66  1  0.013833  0.728965  0.829841  1
  I  I67  1  0.513833  0.271035  0.670159  1
  I  I68  1  0.513833  0.771035  0.829841  1
  I  I69  1  0.013833  0.228965  0.670159  1
  I  I70  1  0.986167  0.271035  0.170159  1
  I  I71  1  0.486167  0.728965  0.329841  1
  I  I72  1  0.852744  0.908066  0.126435  1
  I  I73  1  0.352744  0.091934  0.373565  1
  I  I74  1  0.647256  0.408066  0.873565  1
  I  I75  1  0.147256  0.591934  0.626435  1
  I  I76  1  0.147256  0.091934  0.873565  1
  I  I77  1  0.647256  0.908066  0.626435  1
  I  I78  1  0.352744  0.591934  0.126435  1
  I  I79  1  0.852744  0.408066  0.373565  1
  I  I80  1  0.258199  0.850335  0.175264  1
  I  I81  1  0.758199  0.149665  0.324736  1
  I  I82  1  0.241801  0.350335  0.824736  1
  I  I83  1  0.741801  0.649665  0.675264  1
  I  I84  1  0.741801  0.149665  0.824736  1
  I  I85  1  0.241801  0.850335  0.675264  1
  I  I86  1  0.758199  0.649665  0.175264  1
  I  I87  1  0.258199  0.350335  0.324736  1
