# generated using pymatgen
data_KBiS(ClO2)2
_symmetry_space_group_name_H-M   'P 1'
_cell_length_a   6.43314470
_cell_length_b   7.50207623
_cell_length_c   15.55898419
_cell_angle_alpha   90.00000000
_cell_angle_beta   90.00000000
_cell_angle_gamma   90.00000000
_symmetry_Int_Tables_number   1
_chemical_formula_structural   KBiS(ClO2)2
_chemical_formula_sum   'K4 Bi4 S4 Cl8 O16'
_cell_volume   750.90679159
_cell_formula_units_Z   4
loop_
 _symmetry_equiv_pos_site_id
 _symmetry_equiv_pos_as_xyz
  1  'x, y, z'
loop_
 _atom_site_type_symbol
 _atom_site_label
 _atom_site_symmetry_multiplicity
 _atom_site_fract_x
 _atom_site_fract_y
 _atom_site_fract_z
 _atom_site_occupancy
  K  K0  1  0.028679  0.797967  0.156241  1
  K  K1  1  0.528679  0.702033  0.843759  1
  K  K2  1  0.971321  0.297967  0.343759  1
  K  K3  1  0.471321  0.202033  0.656241  1
  Bi  Bi4  1  0.485564  0.364466  0.116874  1
  Bi  Bi5  1  0.985564  0.135534  0.883126  1
  Bi  Bi6  1  0.514436  0.864466  0.383126  1
  Bi  Bi7  1  0.014436  0.635534  0.616874  1
  S  S8  1  0.005781  0.816327  0.388005  1
  S  S9  1  0.505781  0.683673  0.611995  1
  S  S10  1  0.994219  0.316327  0.111995  1
  S  S11  1  0.494219  0.183673  0.888005  1
  Cl  Cl12  1  0.397700  0.505971  0.265782  1
  Cl  Cl13  1  0.897700  0.994029  0.734218  1
  Cl  Cl14  1  0.602300  0.005971  0.234218  1
  Cl  Cl15  1  0.102300  0.494029  0.765782  1
  Cl  Cl16  1  0.569754  0.665145  0.052221  1
  Cl  Cl17  1  0.069754  0.834855  0.947779  1
  Cl  Cl18  1  0.430246  0.165145  0.447779  1
  Cl  Cl19  1  0.930246  0.334855  0.552221  1
  O  O20  1  0.619138  0.327897  0.848722  1
  O  O21  1  0.119138  0.172103  0.151278  1
  O  O22  1  0.380862  0.827897  0.651278  1
  O  O23  1  0.880862  0.672103  0.348722  1
  O  O24  1  0.369231  0.246563  0.963014  1
  O  O25  1  0.869231  0.253437  0.036986  1
  O  O26  1  0.630769  0.746563  0.536986  1
  O  O27  1  0.130769  0.753437  0.463014  1
  O  O28  1  0.343299  0.105764  0.824399  1
  O  O29  1  0.843299  0.394236  0.175601  1
  O  O30  1  0.656701  0.605764  0.675601  1
  O  O31  1  0.156701  0.894236  0.324399  1
  O  O32  1  0.642496  0.037558  0.915103  1
  O  O33  1  0.142496  0.462442  0.084897  1
  O  O34  1  0.357504  0.537558  0.584897  1
  O  O35  1  0.857504  0.962442  0.415103  1
