# generated using pymatgen
data_Ni5Sb2
_symmetry_space_group_name_H-M   'P 1'
_cell_length_a   7.02655787
_cell_length_b   7.02655787
_cell_length_c   6.14276755
_cell_angle_alpha   64.41802094
_cell_angle_beta   115.58197906
_cell_angle_gamma   134.65762437
_symmetry_Int_Tables_number   1
_chemical_formula_structural   Ni5Sb2
_chemical_formula_sum   'Ni10 Sb4'
_cell_volume   190.65280356
_cell_formula_units_Z   2
loop_
 _symmetry_equiv_pos_site_id
 _symmetry_equiv_pos_as_xyz
  1  'x, y, z'
loop_
 _atom_site_type_symbol
 _atom_site_label
 _atom_site_symmetry_multiplicity
 _atom_site_fract_x
 _atom_site_fract_y
 _atom_site_fract_z
 _atom_site_occupancy
  Ni  Ni0  1  0.247997  0.247997  0.000000  1
  Ni  Ni1  1  0.752003  0.752003  0.000000  1
  Ni  Ni2  1  0.372207  0.627793  0.149503  1
  Ni  Ni3  1  0.627793  0.372207  0.850497  1
  Ni  Ni4  1  0.898166  0.101834  0.594732  1
  Ni  Ni5  1  0.101834  0.898166  0.405268  1
  Ni  Ni6  1  0.018283  0.476303  0.741412  1
  Ni  Ni7  1  0.476303  0.018283  0.258588  1
  Ni  Ni8  1  0.523697  0.981717  0.741412  1
  Ni  Ni9  1  0.981717  0.523697  0.258588  1
  Sb  Sb10  1  0.873088  0.126912  0.150584  1
  Sb  Sb11  1  0.126912  0.873088  0.849416  1
  Sb  Sb12  1  0.397172  0.602828  0.597354  1
  Sb  Sb13  1  0.602828  0.397172  0.402646  1
