# generated using pymatgen
data_Er2Se3
_symmetry_space_group_name_H-M   'P 1'
_cell_length_a   13.45342371
_cell_length_b   12.84126136
_cell_length_c   7.04120362
_cell_angle_alpha   79.33006711
_cell_angle_beta   69.71743757
_cell_angle_gamma   30.95249532
_symmetry_Int_Tables_number   1
_chemical_formula_structural   Er2Se3
_chemical_formula_sum   'Er8 Se12'
_cell_volume   570.77766466
_cell_formula_units_Z   4
loop_
 _symmetry_equiv_pos_site_id
 _symmetry_equiv_pos_as_xyz
  1  'x, y, z'
loop_
 _atom_site_type_symbol
 _atom_site_label
 _atom_site_symmetry_multiplicity
 _atom_site_fract_x
 _atom_site_fract_y
 _atom_site_fract_z
 _atom_site_occupancy
  Er  Er0  1  0.752672  0.752672  0.247328  1
  Er  Er1  1  0.247328  0.247328  0.752672  1
  Er  Er2  1  0.497328  0.497328  0.002672  1
  Er  Er3  1  0.002672  0.002672  0.497328  1
  Er  Er4  1  0.416165  0.416165  0.583835  1
  Er  Er5  1  0.583835  0.583835  0.416165  1
  Er  Er6  1  0.833835  0.833835  0.666165  1
  Er  Er7  1  0.666165  0.666165  0.833835  1
  Se  Se8  1  0.673761  0.164238  0.819964  1
  Se  Se9  1  0.342037  0.819964  0.164238  1
  Se  Se10  1  0.819964  0.342037  0.673761  1
  Se  Se11  1  0.164238  0.673761  0.342037  1
  Se  Se12  1  0.576239  0.085762  0.430036  1
  Se  Se13  1  0.907963  0.430036  0.085762  1
  Se  Se14  1  0.430036  0.907963  0.576239  1
  Se  Se15  1  0.085762  0.576239  0.907963  1
  Se  Se16  1  0.992232  0.507768  0.507768  1
  Se  Se17  1  0.507768  0.992232  0.992232  1
  Se  Se18  1  0.257768  0.742232  0.742232  1
  Se  Se19  1  0.742232  0.257768  0.257768  1
