# generated using pymatgen
data_SbP2O7
_symmetry_space_group_name_H-M   'P 1'
_cell_length_a   6.53186758
_cell_length_b   6.62486874
_cell_length_c   7.15126072
_cell_angle_alpha   112.59363685
_cell_angle_beta   87.72747625
_cell_angle_gamma   97.86098627
_symmetry_Int_Tables_number   1
_chemical_formula_structural   SbP2O7
_chemical_formula_sum   'Sb2 P4 O14'
_cell_volume   282.99211621
_cell_formula_units_Z   2
loop_
 _symmetry_equiv_pos_site_id
 _symmetry_equiv_pos_as_xyz
  1  'x, y, z'
loop_
 _atom_site_type_symbol
 _atom_site_label
 _atom_site_symmetry_multiplicity
 _atom_site_fract_x
 _atom_site_fract_y
 _atom_site_fract_z
 _atom_site_occupancy
  Sb  Sb0  1  0.325306  0.088917  0.229283  1
  Sb  Sb1  1  0.674694  0.911083  0.770717  1
  P  P2  1  0.136111  0.773601  0.753590  1
  P  P3  1  0.384075  0.656561  0.359337  1
  P  P4  1  0.615925  0.343439  0.640663  1
  P  P5  1  0.863889  0.226399  0.246410  1
  O  O6  1  0.011321  0.077375  0.285955  1
  O  O7  1  0.043121  0.622119  0.847641  1
  O  O8  1  0.298635  0.775799  0.240445  1
  O  O9  1  0.227120  0.643065  0.532970  1
  O  O10  1  0.335865  0.939522  0.876737  1
  O  O11  1  0.410571  0.418549  0.226721  1
  O  O12  1  0.408000  0.214707  0.532907  1
  O  O13  1  0.592000  0.785293  0.467093  1
  O  O14  1  0.589429  0.581451  0.773279  1
  O  O15  1  0.664135  0.060478  0.123263  1
  O  O16  1  0.772880  0.356935  0.467030  1
  O  O17  1  0.701365  0.224201  0.759555  1
  O  O18  1  0.956879  0.377881  0.152359  1
  O  O19  1  0.988679  0.922625  0.714045  1
