# generated using pymatgen
data_Cd2P2O7
_symmetry_space_group_name_H-M   'P 1'
_cell_length_a   6.69701382
_cell_length_b   6.81200327
_cell_length_c   6.95487105
_cell_angle_alpha   83.09638749
_cell_angle_beta   65.21453667
_cell_angle_gamma   81.60383091
_symmetry_Int_Tables_number   1
_chemical_formula_structural   Cd2P2O7
_chemical_formula_sum   'Cd4 P4 O14'
_cell_volume   284.35243813
_cell_formula_units_Z   2
loop_
 _symmetry_equiv_pos_site_id
 _symmetry_equiv_pos_as_xyz
  1  'x, y, z'
loop_
 _atom_site_type_symbol
 _atom_site_label
 _atom_site_symmetry_multiplicity
 _atom_site_fract_x
 _atom_site_fract_y
 _atom_site_fract_z
 _atom_site_occupancy
  Cd  Cd0  1  0.115927  0.164553  0.251391  1
  Cd  Cd1  1  0.884073  0.835447  0.748609  1
  Cd  Cd2  1  0.283800  0.347072  0.648908  1
  Cd  Cd3  1  0.716200  0.652928  0.351092  1
  P  P4  1  0.230730  0.661741  0.251243  1
  P  P5  1  0.769270  0.338259  0.748757  1
  P  P6  1  0.358176  0.864998  0.817364  1
  P  P7  1  0.641824  0.135002  0.182636  1
  O  O8  1  0.209328  0.750637  0.768270  1
  O  O9  1  0.790672  0.249363  0.231730  1
  O  O10  1  0.090971  0.511089  0.229518  1
  O  O11  1  0.909029  0.488911  0.770482  1
  O  O12  1  0.261388  0.078818  0.887419  1
  O  O13  1  0.738612  0.921182  0.112581  1
  O  O14  1  0.389498  0.569822  0.352922  1
  O  O15  1  0.610502  0.430178  0.647078  1
  O  O16  1  0.603830  0.255455  0.979714  1
  O  O17  1  0.396170  0.744545  0.020286  1
  O  O18  1  0.929552  0.161820  0.635684  1
  O  O19  1  0.070448  0.838180  0.364316  1
  O  O20  1  0.404080  0.140205  0.355665  1
  O  O21  1  0.595920  0.859795  0.644335  1
