# generated using pymatgen
data_Si3H9N
_symmetry_space_group_name_H-M   'P 1'
_cell_length_a   7.03683429
_cell_length_b   7.09494920
_cell_length_c   8.50191457
_cell_angle_alpha   95.40610518
_cell_angle_beta   99.37999050
_cell_angle_gamma   118.78239757
_symmetry_Int_Tables_number   1
_chemical_formula_structural   Si3H9N
_chemical_formula_sum   'Si6 H18 N2'
_cell_volume   359.65781841
_cell_formula_units_Z   2
loop_
 _symmetry_equiv_pos_site_id
 _symmetry_equiv_pos_as_xyz
  1  'x, y, z'
loop_
 _atom_site_type_symbol
 _atom_site_label
 _atom_site_symmetry_multiplicity
 _atom_site_fract_x
 _atom_site_fract_y
 _atom_site_fract_z
 _atom_site_occupancy
  Si  Si0  1  0.230601  0.303303  0.203521  1
  Si  Si1  1  0.769399  0.696697  0.796479  1
  Si  Si2  1  0.719102  0.440806  0.269470  1
  Si  Si3  1  0.280898  0.559194  0.730530  1
  Si  Si4  1  0.416592  0.213397  0.723828  1
  Si  Si5  1  0.583408  0.786603  0.276172  1
  H  H6  1  0.373259  0.794116  0.265828  1
  H  H7  1  0.626741  0.205884  0.734172  1
  H  H8  1  0.740929  0.913245  0.437423  1
  H  H9  1  0.259071  0.086755  0.562577  1
  H  H10  1  0.693249  0.892700  0.147115  1
  H  H11  1  0.306751  0.107300  0.852885  1
  H  H12  1  0.123664  0.312029  0.340307  1
  H  H13  1  0.876336  0.687971  0.659693  1
  H  H14  1  0.301558  0.698907  0.605799  1
  H  H15  1  0.698442  0.301093  0.394201  1
  H  H16  1  0.060218  0.351407  0.678467  1
  H  H17  1  0.939782  0.648593  0.321533  1
  H  H18  1  0.293272  0.682931  0.887699  1
  H  H19  1  0.706728  0.317069  0.112301  1
  H  H20  1  0.776765  0.911541  0.823640  1
  H  H21  1  0.223235  0.088459  0.176360  1
  H  H22  1  0.899818  0.678795  0.945708  1
  H  H23  1  0.100182  0.321205  0.054292  1
  N  N24  1  0.489146  0.489245  0.750325  1
  N  N25  1  0.510854  0.510755  0.249675  1
