# generated using pymatgen
data_Bi2WO6
_symmetry_space_group_name_H-M   'P 1'
_cell_length_a   5.48650775
_cell_length_b   5.51803548
_cell_length_c   17.10778135
_cell_angle_alpha   90.00000000
_cell_angle_beta   90.00000000
_cell_angle_gamma   90.00000000
_symmetry_Int_Tables_number   1
_chemical_formula_structural   Bi2WO6
_chemical_formula_sum   'Bi8 W4 O24'
_cell_volume   517.93370806
_cell_formula_units_Z   4
loop_
 _symmetry_equiv_pos_site_id
 _symmetry_equiv_pos_as_xyz
  1  'x, y, z'
loop_
 _atom_site_type_symbol
 _atom_site_label
 _atom_site_symmetry_multiplicity
 _atom_site_fract_x
 _atom_site_fract_y
 _atom_site_fract_z
 _atom_site_occupancy
  Bi  Bi0  1  0.024413  0.019376  0.924360  1
  Bi  Bi1  1  0.975587  0.519376  0.075640  1
  Bi  Bi2  1  0.475587  0.519376  0.924360  1
  Bi  Bi3  1  0.524413  0.019376  0.075640  1
  Bi  Bi4  1  0.975614  0.035134  0.575562  1
  Bi  Bi5  1  0.024386  0.535134  0.424438  1
  Bi  Bi6  1  0.524386  0.535134  0.575562  1
  Bi  Bi7  1  0.475614  0.035134  0.424438  1
  W  W8  1  0.497150  0.974293  0.750202  1
  W  W9  1  0.502850  0.474293  0.249798  1
  W  W10  1  0.002850  0.474293  0.750202  1
  W  W11  1  0.997150  0.974293  0.249798  1
  O  O12  1  0.915318  0.429170  0.643154  1
  O  O13  1  0.084682  0.929170  0.356846  1
  O  O14  1  0.584682  0.929170  0.643154  1
  O  O15  1  0.415318  0.429170  0.356846  1
  O  O16  1  0.274696  0.669922  0.729102  1
  O  O17  1  0.725304  0.169922  0.270898  1
  O  O18  1  0.225304  0.169922  0.729102  1
  O  O19  1  0.774696  0.669922  0.270898  1
  O  O20  1  0.782750  0.724338  0.771127  1
  O  O21  1  0.217250  0.224338  0.228873  1
  O  O22  1  0.717250  0.224338  0.771127  1
  O  O23  1  0.282750  0.724338  0.228873  1
  O  O24  1  0.918498  0.913604  0.142655  1
  O  O25  1  0.081502  0.413604  0.857345  1
  O  O26  1  0.581502  0.413604  0.142655  1
  O  O27  1  0.418498  0.913604  0.857345  1
  O  O28  1  0.739231  0.743341  0.999475  1
  O  O29  1  0.260769  0.243341  0.000525  1
  O  O30  1  0.760769  0.243341  0.999475  1
  O  O31  1  0.239231  0.743341  0.000525  1
  O  O32  1  0.760308  0.759321  0.499325  1
  O  O33  1  0.239692  0.259321  0.500675  1
  O  O34  1  0.739692  0.259321  0.499325  1
  O  O35  1  0.260308  0.759321  0.500675  1
