# generated using pymatgen
data_Sr(Sb3Ru)4
_symmetry_space_group_name_H-M   'P 1'
_cell_length_a   8.15252590
_cell_length_b   8.15252590
_cell_length_c   8.15252590
_cell_angle_alpha   109.47122063
_cell_angle_beta   109.47122063
_cell_angle_gamma   109.47122063
_symmetry_Int_Tables_number   1
_chemical_formula_structural   Sr(Sb3Ru)4
_chemical_formula_sum   'Sr1 Sb12 Ru4'
_cell_volume   417.11390770
_cell_formula_units_Z   1
loop_
 _symmetry_equiv_pos_site_id
 _symmetry_equiv_pos_as_xyz
  1  'x, y, z'
loop_
 _atom_site_type_symbol
 _atom_site_label
 _atom_site_symmetry_multiplicity
 _atom_site_fract_x
 _atom_site_fract_y
 _atom_site_fract_z
 _atom_site_occupancy
  Sr  Sr0  1  0.000000  0.000000  0.000000  1
  Sb  Sb1  1  0.342410  0.159387  0.501797  1
  Sb  Sb2  1  0.840613  0.498203  0.657590  1
  Sb  Sb3  1  0.183024  0.342410  0.840613  1
  Sb  Sb4  1  0.159387  0.816976  0.657590  1
  Sb  Sb5  1  0.498203  0.657590  0.840613  1
  Sb  Sb6  1  0.840613  0.183024  0.342410  1
  Sb  Sb7  1  0.816976  0.657590  0.159387  1
  Sb  Sb8  1  0.501797  0.342410  0.159387  1
  Sb  Sb9  1  0.159387  0.501797  0.342410  1
  Sb  Sb10  1  0.657590  0.840613  0.498203  1
  Sb  Sb11  1  0.342410  0.840613  0.183024  1
  Sb  Sb12  1  0.657590  0.159387  0.816976  1
  Ru  Ru13  1  0.500000  0.500000  0.500000  1
  Ru  Ru14  1  1.000000  0.500000  0.000000  1
  Ru  Ru15  1  0.000000  0.000000  0.500000  1
  Ru  Ru16  1  0.500000  0.000000  1.000000  1
