# generated using pymatgen
data_Zn(Bi3O5)4
_symmetry_space_group_name_H-M   'P 1'
_cell_length_a   8.83167811
_cell_length_b   8.83167811
_cell_length_c   8.83167811
_cell_angle_alpha   109.47122063
_cell_angle_beta   109.47122063
_cell_angle_gamma   109.47122063
_symmetry_Int_Tables_number   1
_chemical_formula_structural   Zn(Bi3O5)4
_chemical_formula_sum   'Zn1 Bi12 O20'
_cell_volume   530.28312325
_cell_formula_units_Z   1
loop_
 _symmetry_equiv_pos_site_id
 _symmetry_equiv_pos_as_xyz
  1  'x, y, z'
loop_
 _atom_site_type_symbol
 _atom_site_label
 _atom_site_symmetry_multiplicity
 _atom_site_fract_x
 _atom_site_fract_y
 _atom_site_fract_z
 _atom_site_occupancy
  Zn  Zn0  1  0.000000  0.000000  0.000000  1
  Bi  Bi1  1  0.678240  0.819156  0.510952  1
  Bi  Bi2  1  0.167288  0.489048  0.308204  1
  Bi  Bi3  1  0.859084  0.691796  0.180844  1
  Bi  Bi4  1  0.832712  0.140916  0.321760  1
  Bi  Bi5  1  0.489048  0.308204  0.167288  1
  Bi  Bi6  1  0.180844  0.859084  0.691796  1
  Bi  Bi7  1  0.140916  0.321760  0.832712  1
  Bi  Bi8  1  0.510952  0.678240  0.819156  1
  Bi  Bi9  1  0.819156  0.510952  0.678240  1
  Bi  Bi10  1  0.308204  0.167288  0.489048  1
  Bi  Bi11  1  0.691796  0.180844  0.859084  1
  Bi  Bi12  1  0.321760  0.832712  0.140916  1
  O  O13  1  0.621383  0.621383  0.621383  1
  O  O14  1  1.000000  0.378617  0.000000  1
  O  O15  1  1.000000  1.000000  0.378617  1
  O  O16  1  0.378617  1.000000  0.000000  1
  O  O17  1  0.261466  0.380509  0.619897  1
  O  O18  1  0.641569  0.380103  0.760611  1
  O  O19  1  0.880958  0.239389  0.619491  1
  O  O20  1  0.358431  0.119042  0.738534  1
  O  O21  1  0.380103  0.760611  0.641569  1
  O  O22  1  0.619491  0.880958  0.239389  1
  O  O23  1  0.119042  0.738534  0.358431  1
  O  O24  1  0.619897  0.261466  0.380509  1
  O  O25  1  0.380509  0.619897  0.261466  1
  O  O26  1  0.760611  0.641569  0.380103  1
  O  O27  1  0.239389  0.619491  0.880958  1
  O  O28  1  0.738534  0.358431  0.119042  1
  O  O29  1  0.229800  0.229800  0.229800  1
  O  O30  1  1.000000  0.770200  0.000000  1
  O  O31  1  0.000000  1.000000  0.770200  1
  O  O32  1  0.770200  1.000000  0.000000  1
