# generated using pymatgen
data_SiOs
_symmetry_space_group_name_H-M   'P 1'
_cell_length_a   4.79410063
_cell_length_b   4.79410063
_cell_length_c   4.79410063
_cell_angle_alpha   90.00000000
_cell_angle_beta   90.00000000
_cell_angle_gamma   90.00000000
_symmetry_Int_Tables_number   1
_chemical_formula_structural   SiOs
_chemical_formula_sum   'Si4 Os4'
_cell_volume   110.18473650
_cell_formula_units_Z   4
loop_
 _symmetry_equiv_pos_site_id
 _symmetry_equiv_pos_as_xyz
  1  'x, y, z'
loop_
 _atom_site_type_symbol
 _atom_site_label
 _atom_site_symmetry_multiplicity
 _atom_site_fract_x
 _atom_site_fract_y
 _atom_site_fract_z
 _atom_site_occupancy
  Si  Si0  1  0.164550  0.335450  0.664550  1
  Si  Si1  1  0.335450  0.664550  0.164550  1
  Si  Si2  1  0.664550  0.164550  0.335450  1
  Si  Si3  1  0.835450  0.835450  0.835450  1
  Os  Os4  1  0.877178  0.622822  0.377178  1
  Os  Os5  1  0.622822  0.377178  0.877178  1
  Os  Os6  1  0.377178  0.877178  0.622822  1
  Os  Os7  1  0.122822  0.122822  0.122822  1
