# generated using pymatgen
data_SmInIr
_symmetry_space_group_name_H-M   'P 1'
_cell_length_a   7.58214124
_cell_length_b   7.58214124
_cell_length_c   4.04890011
_cell_angle_alpha   90.00000000
_cell_angle_beta   90.00000000
_cell_angle_gamma   120.00000000
_symmetry_Int_Tables_number   1
_chemical_formula_structural   SmInIr
_chemical_formula_sum   'Sm3 In3 Ir3'
_cell_volume   201.58185372
_cell_formula_units_Z   3
loop_
 _symmetry_equiv_pos_site_id
 _symmetry_equiv_pos_as_xyz
  1  'x, y, z'
loop_
 _atom_site_type_symbol
 _atom_site_label
 _atom_site_symmetry_multiplicity
 _atom_site_fract_x
 _atom_site_fract_y
 _atom_site_fract_z
 _atom_site_occupancy
  Sm  Sm0  1  0.591915  0.591915  0.500000  1
  Sm  Sm1  1  0.408085  0.000000  0.500000  1
  Sm  Sm2  1  0.000000  0.408085  0.500000  1
  In  In3  1  0.000000  0.746399  0.000000  1
  In  In4  1  0.253601  0.253601  0.000000  1
  In  In5  1  0.746399  0.000000  0.000000  1
  Ir  Ir6  1  0.000000  0.000000  0.500000  1
  Ir  Ir7  1  0.666667  0.333333  0.000000  1
  Ir  Ir8  1  0.333333  0.666667  0.000000  1
