# generated using pymatgen
data_K2Li2FeO4
_symmetry_space_group_name_H-M   'P 1'
_cell_length_a   5.54233860
_cell_length_b   9.10377209
_cell_length_c   11.21899655
_cell_angle_alpha   90.00000000
_cell_angle_beta   110.73372085
_cell_angle_gamma   90.00000000
_symmetry_Int_Tables_number   1
_chemical_formula_structural   K2Li2FeO4
_chemical_formula_sum   'K8 Li8 Fe4 O16'
_cell_volume   529.40688482
_cell_formula_units_Z   4
loop_
 _symmetry_equiv_pos_site_id
 _symmetry_equiv_pos_as_xyz
  1  'x, y, z'
loop_
 _atom_site_type_symbol
 _atom_site_label
 _atom_site_symmetry_multiplicity
 _atom_site_fract_x
 _atom_site_fract_y
 _atom_site_fract_z
 _atom_site_occupancy
  K  K0  1  0.766799  0.748470  0.132740  1
  K  K1  1  0.709024  0.500613  0.357468  1
  K  K2  1  0.766799  0.751530  0.632740  1
  K  K3  1  0.290976  0.000613  0.142532  1
  K  K4  1  0.709024  0.999387  0.857468  1
  K  K5  1  0.233201  0.248470  0.367260  1
  K  K6  1  0.290976  0.499387  0.642532  1
  K  K7  1  0.233201  0.251530  0.867260  1
  Li  Li8  1  0.359796  0.486690  0.073754  1
  Li  Li9  1  0.620113  0.246605  0.195688  1
  Li  Li10  1  0.640204  0.986690  0.426246  1
  Li  Li11  1  0.379887  0.746605  0.304312  1
  Li  Li12  1  0.620113  0.253395  0.695688  1
  Li  Li13  1  0.359796  0.013310  0.573754  1
  Li  Li14  1  0.640204  0.513310  0.926246  1
  Li  Li15  1  0.379887  0.753395  0.804312  1
  Fe  Fe16  1  0.890566  0.292520  0.053726  1
  Fe  Fe17  1  0.890566  0.207480  0.553726  1
  Fe  Fe18  1  0.109434  0.792520  0.446274  1
  Fe  Fe19  1  0.109434  0.707480  0.946274  1
  O  O20  1  0.737348  0.309211  0.876907  1
  O  O21  1  0.754514  0.704947  0.878874  1
  O  O22  1  0.280136  0.932451  0.382918  1
  O  O23  1  0.209926  0.621192  0.402114  1
  O  O24  1  0.262652  0.690789  0.123093  1
  O  O25  1  0.245486  0.295053  0.121126  1
  O  O26  1  0.719864  0.067549  0.617082  1
  O  O27  1  0.790074  0.378808  0.597886  1
  O  O28  1  0.754514  0.795053  0.378874  1
  O  O29  1  0.737348  0.190789  0.376907  1
  O  O30  1  0.790074  0.121192  0.097886  1
  O  O31  1  0.719864  0.432451  0.117082  1
  O  O32  1  0.209926  0.878808  0.902114  1
  O  O33  1  0.280136  0.567549  0.882918  1
  O  O34  1  0.262652  0.809211  0.623093  1
  O  O35  1  0.245486  0.204947  0.621126  1
