# generated using pymatgen
data_NaO3
_symmetry_space_group_name_H-M   'P 1'
_cell_length_a   4.31656194
_cell_length_b   4.31656194
_cell_length_c   4.31656194
_cell_angle_alpha   130.12206058
_cell_angle_beta   103.05039741
_cell_angle_gamma   97.45652571
_symmetry_Int_Tables_number   1
_chemical_formula_structural   NaO3
_chemical_formula_sum   'Na1 O3'
_cell_volume   55.67229763
_cell_formula_units_Z   1
loop_
 _symmetry_equiv_pos_site_id
 _symmetry_equiv_pos_as_xyz
  1  'x, y, z'
loop_
 _atom_site_type_symbol
 _atom_site_label
 _atom_site_symmetry_multiplicity
 _atom_site_fract_x
 _atom_site_fract_y
 _atom_site_fract_z
 _atom_site_occupancy
  Na  Na0  1  0.482553  0.482553  0.000000  1
  O  O1  1  0.879654  0.091482  0.788172  1
  O  O2  1  0.958883  0.958883  0.000000  1
  O  O3  1  0.303310  0.091482  0.211828  1
