# generated using pymatgen
data_SrBe13
_symmetry_space_group_name_H-M   'P 1'
_cell_length_a   7.34817056
_cell_length_b   7.34817056
_cell_length_c   7.34817056
_cell_angle_alpha   60.00000000
_cell_angle_beta   60.00000000
_cell_angle_gamma   60.00000000
_symmetry_Int_Tables_number   1
_chemical_formula_structural   SrBe13
_chemical_formula_sum   'Sr2 Be26'
_cell_volume   280.55801961
_cell_formula_units_Z   2
loop_
 _symmetry_equiv_pos_site_id
 _symmetry_equiv_pos_as_xyz
  1  'x, y, z'
loop_
 _atom_site_type_symbol
 _atom_site_label
 _atom_site_symmetry_multiplicity
 _atom_site_fract_x
 _atom_site_fract_y
 _atom_site_fract_z
 _atom_site_occupancy
  Sr  Sr0  1  0.750000  0.750000  0.750000  1
  Sr  Sr1  1  0.250000  0.250000  0.250000  1
  Be  Be2  1  0.000000  0.000000  0.000000  1
  Be  Be3  1  0.500000  0.500000  0.500000  1
  Be  Be4  1  0.065240  0.286100  0.713900  1
  Be  Be5  1  0.565240  0.786100  0.434760  1
  Be  Be6  1  0.786100  0.565240  0.213900  1
  Be  Be7  1  0.213900  0.565240  0.434760  1
  Be  Be8  1  0.786100  0.434760  0.565240  1
  Be  Be9  1  0.213900  0.786100  0.565240  1
  Be  Be10  1  0.565240  0.434760  0.213900  1
  Be  Be11  1  0.713900  0.286100  0.934760  1
  Be  Be12  1  0.934760  0.286100  0.065240  1
  Be  Be13  1  0.713900  0.065240  0.286100  1
  Be  Be14  1  0.286100  0.713900  0.065240  1
  Be  Be15  1  0.065240  0.934760  0.286100  1
  Be  Be16  1  0.065240  0.713900  0.934760  1
  Be  Be17  1  0.934760  0.065240  0.713900  1
  Be  Be18  1  0.286100  0.934760  0.713900  1
  Be  Be19  1  0.434760  0.786100  0.213900  1
  Be  Be20  1  0.213900  0.434760  0.786100  1
  Be  Be21  1  0.434760  0.565240  0.786100  1
  Be  Be22  1  0.786100  0.213900  0.434760  1
  Be  Be23  1  0.434760  0.213900  0.565240  1
  Be  Be24  1  0.565240  0.213900  0.786100  1
  Be  Be25  1  0.286100  0.065240  0.934760  1
  Be  Be26  1  0.934760  0.713900  0.286100  1
  Be  Be27  1  0.713900  0.934760  0.065240  1
