# generated using pymatgen
data_MoCl5
_symmetry_space_group_name_H-M   'P 1'
_cell_length_a   9.72781987
_cell_length_b   12.38137430
_cell_length_c   12.96518031
_cell_angle_alpha   90.00000000
_cell_angle_beta   109.72284822
_cell_angle_gamma   90.00000000
_symmetry_Int_Tables_number   1
_chemical_formula_structural   MoCl5
_chemical_formula_sum   'Mo8 Cl40'
_cell_volume   1469.96712605
_cell_formula_units_Z   8
loop_
 _symmetry_equiv_pos_site_id
 _symmetry_equiv_pos_as_xyz
  1  'x, y, z'
loop_
 _atom_site_type_symbol
 _atom_site_label
 _atom_site_symmetry_multiplicity
 _atom_site_fract_x
 _atom_site_fract_y
 _atom_site_fract_z
 _atom_site_occupancy
  Mo  Mo0  1  0.694368  0.624516  0.206406  1
  Mo  Mo1  1  0.305632  0.124516  0.293594  1
  Mo  Mo2  1  0.305632  0.375484  0.793594  1
  Mo  Mo3  1  0.694368  0.875484  0.706406  1
  Mo  Mo4  1  0.119374  0.627950  0.314458  1
  Mo  Mo5  1  0.880626  0.127950  0.185542  1
  Mo  Mo6  1  0.880626  0.372050  0.685542  1
  Mo  Mo7  1  0.119374  0.872050  0.814458  1
  Cl  Cl8  1  0.527778  0.734395  0.087963  1
  Cl  Cl9  1  0.472222  0.234395  0.412037  1
  Cl  Cl10  1  0.472222  0.265605  0.912037  1
  Cl  Cl11  1  0.527778  0.765605  0.587963  1
  Cl  Cl12  1  0.531820  0.511163  0.241699  1
  Cl  Cl13  1  0.468180  0.011163  0.258301  1
  Cl  Cl14  1  0.468180  0.488837  0.758301  1
  Cl  Cl15  1  0.531820  0.988837  0.741699  1
  Cl  Cl16  1  0.908673  0.980744  0.834551  1
  Cl  Cl17  1  0.091327  0.480744  0.665449  1
  Cl  Cl18  1  0.091327  0.019256  0.165449  1
  Cl  Cl19  1  0.908673  0.519256  0.334551  1
  Cl  Cl20  1  0.093686  0.764433  0.949854  1
  Cl  Cl21  1  0.906314  0.264433  0.550146  1
  Cl  Cl22  1  0.906314  0.235567  0.050146  1
  Cl  Cl23  1  0.093686  0.735567  0.449854  1
  Cl  Cl24  1  0.095885  0.978015  0.664966  1
  Cl  Cl25  1  0.904115  0.478015  0.835034  1
  Cl  Cl26  1  0.904115  0.021985  0.335034  1
  Cl  Cl27  1  0.095885  0.521985  0.164966  1
  Cl  Cl28  1  0.284163  0.984117  0.931093  1
  Cl  Cl29  1  0.715837  0.484117  0.568907  1
  Cl  Cl30  1  0.715837  0.015883  0.068907  1
  Cl  Cl31  1  0.284163  0.515883  0.431093  1
  Cl  Cl32  1  0.282503  0.759103  0.779872  1
  Cl  Cl33  1  0.717497  0.259103  0.720128  1
  Cl  Cl34  1  0.717497  0.240897  0.220128  1
  Cl  Cl35  1  0.282503  0.740897  0.279872  1
  Cl  Cl36  1  0.905058  0.765996  0.686665  1
  Cl  Cl37  1  0.094942  0.265996  0.813335  1
  Cl  Cl38  1  0.094942  0.234004  0.313335  1
  Cl  Cl39  1  0.905058  0.734004  0.186665  1
  Cl  Cl40  1  0.717506  0.768646  0.855062  1
  Cl  Cl41  1  0.282494  0.268646  0.644938  1
  Cl  Cl42  1  0.282494  0.231354  0.144938  1
  Cl  Cl43  1  0.717506  0.731354  0.355062  1
  Cl  Cl44  1  0.722221  0.982117  0.570870  1
  Cl  Cl45  1  0.277779  0.482117  0.929130  1
  Cl  Cl46  1  0.277779  0.017883  0.429130  1
  Cl  Cl47  1  0.722221  0.517883  0.070870  1
