# generated using pymatgen
data_U2C3
_symmetry_space_group_name_H-M   'P 1'
_cell_length_a   6.97181272
_cell_length_b   6.97181272
_cell_length_c   6.97181272
_cell_angle_alpha   109.47122063
_cell_angle_beta   109.47122063
_cell_angle_gamma   109.47122063
_symmetry_Int_Tables_number   1
_chemical_formula_structural   U2C3
_chemical_formula_sum   'U8 C12'
_cell_volume   260.86465908
_cell_formula_units_Z   4
loop_
 _symmetry_equiv_pos_site_id
 _symmetry_equiv_pos_as_xyz
  1  'x, y, z'
loop_
 _atom_site_type_symbol
 _atom_site_label
 _atom_site_symmetry_multiplicity
 _atom_site_fract_x
 _atom_site_fract_y
 _atom_site_fract_z
 _atom_site_occupancy
  U  U0  1  0.598275  0.598275  0.598275  1
  U  U1  1  0.401725  0.500000  1.000000  1
  U  U2  1  0.500000  1.000000  0.401725  1
  U  U3  1  1.000000  0.401725  0.500000  1
  U  U4  1  0.500000  1.000000  0.901725  1
  U  U5  1  1.000000  0.901725  0.500000  1
  U  U6  1  0.901725  0.500000  0.000000  1
  U  U7  1  0.098275  0.098275  0.098275  1
  C  C8  1  0.750000  0.785754  0.035754  1
  C  C9  1  0.750000  0.964246  0.214246  1
  C  C10  1  0.285754  0.250000  0.535754  1
  C  C11  1  0.535754  0.285754  0.250000  1
  C  C12  1  0.214246  0.750000  0.964246  1
  C  C13  1  0.964246  0.214246  0.750000  1
  C  C14  1  0.250000  0.714246  0.464246  1
  C  C15  1  0.714246  0.464246  0.250000  1
  C  C16  1  0.250000  0.535754  0.285754  1
  C  C17  1  0.464246  0.250000  0.714246  1
  C  C18  1  0.035754  0.750000  0.785754  1
  C  C19  1  0.785754  0.035754  0.750000  1
