# generated using pymatgen
data_Nb(PS4)2
_symmetry_space_group_name_H-M   'P 1'
_cell_length_a   12.27950210
_cell_length_b   12.27950210
_cell_length_c   7.71761279
_cell_angle_alpha   90.00000000
_cell_angle_beta   90.00000000
_cell_angle_gamma   90.00000000
_symmetry_Int_Tables_number   1
_chemical_formula_structural   Nb(PS4)2
_chemical_formula_sum   'Nb4 P8 S32'
_cell_volume   1163.70928822
_cell_formula_units_Z   4
loop_
 _symmetry_equiv_pos_site_id
 _symmetry_equiv_pos_as_xyz
  1  'x, y, z'
loop_
 _atom_site_type_symbol
 _atom_site_label
 _atom_site_symmetry_multiplicity
 _atom_site_fract_x
 _atom_site_fract_y
 _atom_site_fract_z
 _atom_site_occupancy
  Nb  Nb0  1  0.916400  0.416400  0.250000  1
  Nb  Nb1  1  0.583600  0.916400  0.750000  1
  Nb  Nb2  1  0.416400  0.083600  0.750000  1
  Nb  Nb3  1  0.083600  0.583600  0.250000  1
  P  P4  1  0.073966  0.825800  0.075827  1
  P  P5  1  0.573966  0.674200  0.575827  1
  P  P6  1  0.426034  0.325800  0.575827  1
  P  P7  1  0.325800  0.573966  0.424173  1
  P  P8  1  0.674200  0.426034  0.424173  1
  P  P9  1  0.926034  0.174200  0.075827  1
  P  P10  1  0.825800  0.926034  0.924173  1
  P  P11  1  0.174200  0.073966  0.924173  1
  S  S12  1  0.057813  0.441440  0.483116  1
  S  S13  1  0.942187  0.558560  0.483116  1
  S  S14  1  0.441440  0.942187  0.516884  1
  S  S15  1  0.558560  0.057813  0.516884  1
  S  S16  1  0.181281  0.711361  0.010260  1
  S  S17  1  0.288639  0.181281  0.989740  1
  S  S18  1  0.711361  0.818719  0.989740  1
  S  S19  1  0.818719  0.288639  0.010260  1
  S  S20  1  0.788639  0.318719  0.489740  1
  S  S21  1  0.211361  0.681281  0.489740  1
  S  S22  1  0.318719  0.211361  0.510260  1
  S  S23  1  0.681281  0.788639  0.510260  1
  S  S24  1  0.146881  0.977393  0.150158  1
  S  S25  1  0.022607  0.146881  0.849842  1
  S  S26  1  0.977393  0.853119  0.849842  1
  S  S27  1  0.853119  0.022607  0.150158  1
  S  S28  1  0.522607  0.353119  0.349842  1
  S  S29  1  0.477393  0.646881  0.349842  1
  S  S30  1  0.353119  0.477393  0.650158  1
  S  S31  1  0.646881  0.522607  0.650158  1
  S  S32  1  0.775789  0.007409  0.712357  1
  S  S33  1  0.941440  0.557813  0.016884  1
  S  S34  1  0.442187  0.941440  0.983116  1
  S  S35  1  0.557813  0.058560  0.983116  1
  S  S36  1  0.058560  0.442187  0.016884  1
  S  S37  1  0.007409  0.224211  0.287643  1
  S  S38  1  0.992591  0.775789  0.287643  1
  S  S39  1  0.224211  0.992591  0.712357  1
  S  S40  1  0.275789  0.492591  0.212357  1
  S  S41  1  0.507409  0.275789  0.787643  1
  S  S42  1  0.492591  0.724211  0.787643  1
  S  S43  1  0.724211  0.507409  0.212357  1
