# generated using pymatgen
data_CsLiCl2
_symmetry_space_group_name_H-M   'P 1'
_cell_length_a   4.94690860
_cell_length_b   4.94690860
_cell_length_c   9.64907812
_cell_angle_alpha   90.00000000
_cell_angle_beta   90.00000000
_cell_angle_gamma   90.00000000
_symmetry_Int_Tables_number   1
_chemical_formula_structural   CsLiCl2
_chemical_formula_sum   'Cs2 Li2 Cl4'
_cell_volume   236.13132016
_cell_formula_units_Z   2
loop_
 _symmetry_equiv_pos_site_id
 _symmetry_equiv_pos_as_xyz
  1  'x, y, z'
loop_
 _atom_site_type_symbol
 _atom_site_label
 _atom_site_symmetry_multiplicity
 _atom_site_fract_x
 _atom_site_fract_y
 _atom_site_fract_z
 _atom_site_occupancy
  Cs  Cs0  1  0.000000  0.500000  0.303809  1
  Cs  Cs1  1  0.500000  0.000000  0.696191  1
  Li  Li2  1  0.500000  0.000000  0.084608  1
  Li  Li3  1  0.000000  0.500000  0.915392  1
  Cl  Cl4  1  0.000000  0.500000  0.669638  1
  Cl  Cl5  1  0.500000  0.000000  0.330362  1
  Cl  Cl6  1  0.000000  0.000000  0.000000  1
  Cl  Cl7  1  0.500000  0.500000  0.000000  1
