# generated using pymatgen
data_Y4CI5
_symmetry_space_group_name_H-M   'P 1'
_cell_length_a   9.84015656
_cell_length_b   9.84015656
_cell_length_c   8.60615090
_cell_angle_alpha   77.80984228
_cell_angle_beta   102.19015772
_cell_angle_gamma   156.66831779
_symmetry_Int_Tables_number   1
_chemical_formula_structural   Y4CI5
_chemical_formula_sum   'Y4 C1 I5'
_cell_volume   322.27729326
_cell_formula_units_Z   1
loop_
 _symmetry_equiv_pos_site_id
 _symmetry_equiv_pos_as_xyz
  1  'x, y, z'
loop_
 _atom_site_type_symbol
 _atom_site_label
 _atom_site_symmetry_multiplicity
 _atom_site_fract_x
 _atom_site_fract_y
 _atom_site_fract_z
 _atom_site_occupancy
  Y  Y0  1  0.627702  0.372298  0.063170  1
  Y  Y1  1  0.999546  0.000454  0.189164  1
  Y  Y2  1  0.372298  0.627702  0.936830  1
  Y  Y3  1  0.000454  0.999546  0.810836  1
  C  C4  1  0.500000  0.500000  0.000000  1
  I  I5  1  0.162641  0.837359  0.338997  1
  I  I6  1  0.166383  0.833617  0.821962  1
  I  I7  1  0.833617  0.166383  0.178038  1
  I  I8  1  0.500000  0.500000  0.500000  1
  I  I9  1  0.837359  0.162641  0.661003  1
