# generated using pymatgen
data_Mn7C3
_symmetry_space_group_name_H-M   'P 1'
_cell_length_a   4.46038043
_cell_length_b   6.81132453
_cell_length_c   11.70101821
_cell_angle_alpha   90.00000000
_cell_angle_beta   90.00000000
_cell_angle_gamma   90.00000000
_symmetry_Int_Tables_number   1
_chemical_formula_structural   Mn7C3
_chemical_formula_sum   'Mn28 C12'
_cell_volume   355.48978838
_cell_formula_units_Z   4
loop_
 _symmetry_equiv_pos_site_id
 _symmetry_equiv_pos_as_xyz
  1  'x, y, z'
loop_
 _atom_site_type_symbol
 _atom_site_label
 _atom_site_symmetry_multiplicity
 _atom_site_fract_x
 _atom_site_fract_y
 _atom_site_fract_z
 _atom_site_occupancy
  Mn  Mn0  1  0.747730  0.066886  0.984092  1
  Mn  Mn1  1  0.247730  0.433114  0.515908  1
  Mn  Mn2  1  0.252270  0.566886  0.015908  1
  Mn  Mn3  1  0.752270  0.933114  0.484092  1
  Mn  Mn4  1  0.252270  0.933114  0.015908  1
  Mn  Mn5  1  0.752270  0.566886  0.484092  1
  Mn  Mn6  1  0.747730  0.433114  0.984092  1
  Mn  Mn7  1  0.247730  0.066886  0.515908  1
  Mn  Mn8  1  0.549478  0.063974  0.192886  1
  Mn  Mn9  1  0.049478  0.436026  0.307114  1
  Mn  Mn10  1  0.450522  0.563974  0.807114  1
  Mn  Mn11  1  0.950522  0.936026  0.692886  1
  Mn  Mn12  1  0.450522  0.936026  0.807114  1
  Mn  Mn13  1  0.950522  0.563974  0.692886  1
  Mn  Mn14  1  0.549478  0.436026  0.192886  1
  Mn  Mn15  1  0.049478  0.063974  0.307114  1
  Mn  Mn16  1  0.783975  0.250000  0.801939  1
  Mn  Mn17  1  0.283975  0.250000  0.698061  1
  Mn  Mn18  1  0.216025  0.750000  0.198061  1
  Mn  Mn19  1  0.716025  0.750000  0.301939  1
  Mn  Mn20  1  0.784120  0.250000  0.590988  1
  Mn  Mn21  1  0.284120  0.250000  0.909012  1
  Mn  Mn22  1  0.215880  0.750000  0.409012  1
  Mn  Mn23  1  0.715880  0.750000  0.090988  1
  Mn  Mn24  1  0.569738  0.250000  0.372987  1
  Mn  Mn25  1  0.069738  0.250000  0.127013  1
  Mn  Mn26  1  0.430262  0.750000  0.627013  1
  Mn  Mn27  1  0.930262  0.750000  0.872987  1
  C  C28  1  0.545515  0.027807  0.646232  1
  C  C29  1  0.045515  0.472193  0.853768  1
  C  C30  1  0.454485  0.527807  0.353768  1
  C  C31  1  0.954485  0.972193  0.146232  1
  C  C32  1  0.454485  0.972193  0.353768  1
  C  C33  1  0.954485  0.527807  0.146232  1
  C  C34  1  0.545515  0.472193  0.646232  1
  C  C35  1  0.045515  0.027807  0.853768  1
  C  C36  1  0.965745  0.250000  0.437326  1
  C  C37  1  0.465745  0.250000  0.062674  1
  C  C38  1  0.034255  0.750000  0.562674  1
  C  C39  1  0.534255  0.750000  0.937326  1
