# generated using pymatgen
data_SrH4O3
_symmetry_space_group_name_H-M   'P 1'
_cell_length_a   3.68772271
_cell_length_b   6.23050594
_cell_length_c   6.76900462
_cell_angle_alpha   90.00000000
_cell_angle_beta   90.00000000
_cell_angle_gamma   90.00000000
_symmetry_Int_Tables_number   1
_chemical_formula_structural   SrH4O3
_chemical_formula_sum   'Sr2 H8 O6'
_cell_volume   155.52721052
_cell_formula_units_Z   2
loop_
 _symmetry_equiv_pos_site_id
 _symmetry_equiv_pos_as_xyz
  1  'x, y, z'
loop_
 _atom_site_type_symbol
 _atom_site_label
 _atom_site_symmetry_multiplicity
 _atom_site_fract_x
 _atom_site_fract_y
 _atom_site_fract_z
 _atom_site_occupancy
  Sr  Sr0  1  0.000000  0.626307  0.748908  1
  Sr  Sr1  1  0.000000  0.373693  0.248908  1
  H  H2  1  0.500000  0.296170  0.594080  1
  H  H3  1  0.500000  0.703830  0.094080  1
  H  H4  1  0.500000  0.966679  0.606314  1
  H  H5  1  0.500000  0.033321  0.106314  1
  H  H6  1  0.209649  0.119913  0.830915  1
  H  H7  1  0.790351  0.880087  0.330915  1
  H  H8  1  0.209649  0.880087  0.330915  1
  H  H9  1  0.790351  0.119913  0.830915  1
  O  O10  1  0.000000  0.213235  0.876314  1
  O  O11  1  0.500000  0.561916  0.033153  1
  O  O12  1  0.500000  0.939200  0.748201  1
  O  O13  1  0.500000  0.060800  0.248201  1
  O  O14  1  0.000000  0.786765  0.376314  1
  O  O15  1  0.500000  0.438084  0.533153  1
