# generated using pymatgen
data_Cd(NO3)2
_symmetry_space_group_name_H-M   'P 1'
_cell_length_a   7.75399264
_cell_length_b   7.76198250
_cell_length_c   15.90128925
_cell_angle_alpha   90.00000000
_cell_angle_beta   90.00000000
_cell_angle_gamma   90.00000000
_symmetry_Int_Tables_number   1
_chemical_formula_structural   Cd(NO3)2
_chemical_formula_sum   'Cd8 N16 O48'
_cell_volume   957.04064257
_cell_formula_units_Z   8
loop_
 _symmetry_equiv_pos_site_id
 _symmetry_equiv_pos_as_xyz
  1  'x, y, z'
loop_
 _atom_site_type_symbol
 _atom_site_label
 _atom_site_symmetry_multiplicity
 _atom_site_fract_x
 _atom_site_fract_y
 _atom_site_fract_z
 _atom_site_occupancy
  Cd  Cd0  1  0.283342  0.981868  0.621649  1
  Cd  Cd1  1  0.783342  0.018132  0.378351  1
  Cd  Cd2  1  0.783342  0.518132  0.621649  1
  Cd  Cd3  1  0.283342  0.481868  0.378351  1
  Cd  Cd4  1  0.263206  0.476883  0.874853  1
  Cd  Cd5  1  0.763206  0.523117  0.125147  1
  Cd  Cd6  1  0.763206  0.023117  0.874853  1
  Cd  Cd7  1  0.263206  0.976883  0.125147  1
  N  N8  1  0.629230  0.341025  0.294013  1
  N  N9  1  0.920408  0.673239  0.952894  1
  N  N10  1  0.420408  0.326761  0.047106  1
  N  N11  1  0.420408  0.826761  0.952894  1
  N  N12  1  0.920408  0.173239  0.047106  1
  N  N13  1  0.594598  0.362449  0.787129  1
  N  N14  1  0.094598  0.637551  0.212871  1
  N  N15  1  0.094598  0.137551  0.787129  1
  N  N16  1  0.594598  0.862449  0.212871  1
  N  N17  1  0.129230  0.658975  0.705987  1
  N  N18  1  0.129230  0.158975  0.294013  1
  N  N19  1  0.629230  0.841025  0.705987  1
  N  N20  1  0.935581  0.668772  0.448028  1
  N  N21  1  0.435581  0.331228  0.551972  1
  N  N22  1  0.435581  0.831228  0.448028  1
  N  N23  1  0.935581  0.168772  0.551972  1
  O  O24  1  0.227628  0.654895  0.257917  1
  O  O25  1  0.053717  0.674685  0.635647  1
  O  O26  1  0.053717  0.174685  0.364353  1
  O  O27  1  0.553717  0.825315  0.635647  1
  O  O28  1  0.589329  0.463552  0.245284  1
  O  O29  1  0.089329  0.536448  0.754716  1
  O  O30  1  0.089329  0.036448  0.245284  1
  O  O31  1  0.589329  0.963552  0.754716  1
  O  O32  1  0.744080  0.733194  0.726847  1
  O  O33  1  0.244080  0.266806  0.273153  1
  O  O34  1  0.244080  0.766806  0.726847  1
  O  O35  1  0.744080  0.233194  0.273153  1
  O  O36  1  0.810783  0.191768  0.501696  1
  O  O37  1  0.310783  0.808232  0.498304  1
  O  O38  1  0.310783  0.308232  0.501696  1
  O  O39  1  0.810783  0.691768  0.498304  1
  O  O40  1  0.967580  0.279958  0.608082  1
  O  O41  1  0.467580  0.720042  0.391918  1
  O  O42  1  0.467580  0.220042  0.608082  1
  O  O43  1  0.967580  0.779958  0.391918  1
  O  O44  1  0.027400  0.034244  0.546060  1
  O  O45  1  0.527400  0.965756  0.453940  1
  O  O46  1  0.527400  0.465756  0.546060  1
  O  O47  1  0.027400  0.534244  0.453940  1
  O  O48  1  0.943427  0.781344  0.894185  1
  O  O49  1  0.017034  0.042898  0.040698  1
  O  O50  1  0.517034  0.957102  0.959302  1
  O  O51  1  0.517034  0.457102  0.040698  1
  O  O52  1  0.727628  0.845105  0.257917  1
  O  O53  1  0.227628  0.154895  0.742083  1
  O  O54  1  0.553717  0.325315  0.364353  1
  O  O55  1  0.727628  0.345105  0.742083  1
  O  O56  1  0.578910  0.775022  0.145693  1
  O  O57  1  0.078910  0.224978  0.854307  1
  O  O58  1  0.078910  0.724978  0.145693  1
  O  O59  1  0.578910  0.275022  0.854307  1
  O  O60  1  0.475903  0.966443  0.233448  1
  O  O61  1  0.975903  0.033557  0.766552  1
  O  O62  1  0.799242  0.696475  0.005343  1
  O  O63  1  0.475903  0.466443  0.766552  1
  O  O64  1  0.017034  0.542898  0.959302  1
  O  O65  1  0.943427  0.281344  0.105815  1
  O  O66  1  0.443427  0.718656  0.894185  1
  O  O67  1  0.443427  0.218656  0.105815  1
  O  O68  1  0.799242  0.196475  0.994657  1
  O  O69  1  0.299242  0.803525  0.005343  1
  O  O70  1  0.299242  0.303525  0.994657  1
  O  O71  1  0.975903  0.533557  0.233448  1
