# generated using pymatgen
data_Ba(ClO3)2
_symmetry_space_group_name_H-M   'P 1'
_cell_length_a   9.04401013
_cell_length_b   7.83362018
_cell_length_c   7.19231835
_cell_angle_alpha   73.87244384
_cell_angle_beta   56.31292497
_cell_angle_gamma   49.81463119
_symmetry_Int_Tables_number   1
_chemical_formula_structural   Ba(ClO3)2
_chemical_formula_sum   'Ba2 Cl4 O12'
_cell_volume   321.32961936
_cell_formula_units_Z   2
loop_
 _symmetry_equiv_pos_site_id
 _symmetry_equiv_pos_as_xyz
  1  'x, y, z'
loop_
 _atom_site_type_symbol
 _atom_site_label
 _atom_site_symmetry_multiplicity
 _atom_site_fract_x
 _atom_site_fract_y
 _atom_site_fract_z
 _atom_site_occupancy
  Ba  Ba0  1  0.752316  0.247684  0.247684  1
  Ba  Ba1  1  0.002316  0.497684  0.497684  1
  Cl  Cl2  1  0.407660  0.633113  0.989966  1
  Cl  Cl3  1  0.969262  0.989966  0.633113  1
  Cl  Cl4  1  0.260034  0.280738  0.842340  1
  Cl  Cl5  1  0.616887  0.842340  0.280738  1
  O  O6  1  0.214129  0.877235  0.047275  1
  O  O7  1  0.861361  0.047275  0.877235  1
  O  O8  1  0.202725  0.388639  0.035871  1
  O  O9  1  0.372765  0.035871  0.388639  1
  O  O10  1  0.322968  0.396636  0.639351  1
  O  O11  1  0.641046  0.639351  0.396636  1
  O  O12  1  0.723083  0.889946  0.344996  1
  O  O13  1  0.041976  0.344996  0.889946  1
  O  O14  1  0.905004  0.208024  0.526917  1
  O  O15  1  0.360054  0.526917  0.208024  1
  O  O16  1  0.853364  0.927032  0.608954  1
  O  O17  1  0.610649  0.608954  0.927032  1
