# generated using pymatgen
data_Ta11(NiSe4)2
_symmetry_space_group_name_H-M   'P 1'
_cell_length_a   3.44139497
_cell_length_b   12.10240136
_cell_length_c   19.65458600
_cell_angle_alpha   90.00000000
_cell_angle_beta   90.00000000
_cell_angle_gamma   90.00000000
_symmetry_Int_Tables_number   1
_chemical_formula_structural   Ta11(NiSe4)2
_chemical_formula_sum   'Ta22 Ni4 Se16'
_cell_volume   818.59666617
_cell_formula_units_Z   2
loop_
 _symmetry_equiv_pos_site_id
 _symmetry_equiv_pos_as_xyz
  1  'x, y, z'
loop_
 _atom_site_type_symbol
 _atom_site_label
 _atom_site_symmetry_multiplicity
 _atom_site_fract_x
 _atom_site_fract_y
 _atom_site_fract_z
 _atom_site_occupancy
  Ta  Ta0  1  0.500000  0.819141  0.051239  1
  Ta  Ta1  1  0.500000  0.180859  0.948761  1
  Ta  Ta2  1  0.000000  0.680859  0.551239  1
  Ta  Ta3  1  0.000000  0.319141  0.448761  1
  Ta  Ta4  1  0.500000  0.448491  0.742118  1
  Ta  Ta5  1  0.500000  0.551509  0.257882  1
  Ta  Ta6  1  0.000000  0.948491  0.757882  1
  Ta  Ta7  1  0.000000  0.051509  0.242118  1
  Ta  Ta8  1  0.500000  0.062372  0.114667  1
  Ta  Ta9  1  0.500000  0.937628  0.885333  1
  Ta  Ta10  1  0.000000  0.562372  0.385333  1
  Ta  Ta11  1  0.000000  0.437628  0.614667  1
  Ta  Ta12  1  0.500000  0.174108  0.354123  1
  Ta  Ta13  1  0.500000  0.825892  0.645877  1
  Ta  Ta14  1  0.000000  0.674108  0.145877  1
  Ta  Ta15  1  0.000000  0.325892  0.854123  1
  Ta  Ta16  1  0.500000  0.156652  0.787249  1
  Ta  Ta17  1  0.500000  0.843348  0.212751  1
  Ta  Ta18  1  0.000000  0.656652  0.712751  1
  Ta  Ta19  1  0.000000  0.343348  0.287249  1
  Ta  Ta20  1  0.500000  0.500000  0.500000  1
  Ta  Ta21  1  0.000000  0.000000  0.000000  1
  Ni  Ni22  1  0.000000  0.092647  0.870763  1
  Ni  Ni23  1  0.000000  0.907353  0.129237  1
  Ni  Ni24  1  0.500000  0.592647  0.629237  1
  Ni  Ni25  1  0.500000  0.407353  0.370763  1
  Se  Se26  1  0.500000  0.292617  0.554886  1
  Se  Se27  1  0.500000  0.707383  0.445114  1
  Se  Se28  1  0.000000  0.792617  0.945114  1
  Se  Se29  1  0.000000  0.207383  0.054886  1
  Se  Se30  1  0.500000  0.041760  0.674222  1
  Se  Se31  1  0.500000  0.958240  0.325778  1
  Se  Se32  1  0.000000  0.541760  0.825778  1
  Se  Se33  1  0.000000  0.458240  0.174222  1
  Se  Se34  1  0.500000  0.391930  0.945988  1
  Se  Se35  1  0.500000  0.608070  0.054012  1
  Se  Se36  1  0.000000  0.891930  0.554012  1
  Se  Se37  1  0.000000  0.108070  0.445988  1
  Se  Se38  1  0.000000  0.285220  0.713487  1
  Se  Se39  1  0.000000  0.714780  0.286513  1
  Se  Se40  1  0.500000  0.785220  0.786513  1
  Se  Se41  1  0.500000  0.214780  0.213487  1
