# generated using pymatgen
data_Ce(CrB3)2
_symmetry_space_group_name_H-M   'P 1'
_cell_length_a   5.51042183
_cell_length_b   5.51042183
_cell_length_c   5.51042183
_cell_angle_alpha   147.62180268
_cell_angle_beta   107.24297151
_cell_angle_gamma   81.89681986
_symmetry_Int_Tables_number   1
_chemical_formula_structural   Ce(CrB3)2
_chemical_formula_sum   'Ce1 Cr2 B6'
_cell_volume   83.59498723
_cell_formula_units_Z   1
loop_
 _symmetry_equiv_pos_site_id
 _symmetry_equiv_pos_as_xyz
  1  'x, y, z'
loop_
 _atom_site_type_symbol
 _atom_site_label
 _atom_site_symmetry_multiplicity
 _atom_site_fract_x
 _atom_site_fract_y
 _atom_site_fract_z
 _atom_site_occupancy
  Ce  Ce0  1  0.000000  0.000000  0.000000  1
  Cr  Cr1  1  0.345584  0.845585  0.500000  1
  Cr  Cr2  1  0.654416  0.154416  0.500000  1
  B  B3  1  0.933693  0.696362  0.237332  1
  B  B4  1  0.066307  0.303638  0.762668  1
  B  B5  1  0.540970  0.303638  0.237332  1
  B  B6  1  0.357596  0.500000  0.857595  1
  B  B7  1  0.642405  0.500000  0.142405  1
  B  B8  1  0.459030  0.696362  0.762668  1
