# generated using pymatgen
data_KHF2
_symmetry_space_group_name_H-M   'P 1'
_cell_length_a   5.30929966
_cell_length_b   5.30929966
_cell_length_c   5.30929966
_cell_angle_alpha   114.75223579
_cell_angle_beta   114.75223579
_cell_angle_gamma   99.35840227
_symmetry_Int_Tables_number   1
_chemical_formula_structural   KHF2
_chemical_formula_sum   'K2 H2 F4'
_cell_volume   112.58865065
_cell_formula_units_Z   2
loop_
 _symmetry_equiv_pos_site_id
 _symmetry_equiv_pos_as_xyz
  1  'x, y, z'
loop_
 _atom_site_type_symbol
 _atom_site_label
 _atom_site_symmetry_multiplicity
 _atom_site_fract_x
 _atom_site_fract_y
 _atom_site_fract_z
 _atom_site_occupancy
  K  K0  1  0.750000  0.750000  0.000000  1
  K  K1  1  0.250000  0.250000  0.000000  1
  H  H2  1  0.000000  0.500000  0.500000  1
  H  H3  1  0.500000  0.000000  0.500000  1
  F  F4  1  0.857852  0.642148  0.500000  1
  F  F5  1  0.642148  0.142148  0.784295  1
  F  F6  1  0.142148  0.357852  0.500000  1
  F  F7  1  0.357852  0.857852  0.215705  1
