# generated using pymatgen
data_Pr3InSe6
_symmetry_space_group_name_H-M   'P 1'
_cell_length_a   4.17467733
_cell_length_b   14.54541186
_cell_length_c   17.75633400
_cell_angle_alpha   90.00000000
_cell_angle_beta   90.00000000
_cell_angle_gamma   90.00000000
_symmetry_Int_Tables_number   1
_chemical_formula_structural   Pr3InSe6
_chemical_formula_sum   'Pr12 In4 Se24'
_cell_volume   1078.20723606
_cell_formula_units_Z   4
loop_
 _symmetry_equiv_pos_site_id
 _symmetry_equiv_pos_as_xyz
  1  'x, y, z'
loop_
 _atom_site_type_symbol
 _atom_site_label
 _atom_site_symmetry_multiplicity
 _atom_site_fract_x
 _atom_site_fract_y
 _atom_site_fract_z
 _atom_site_occupancy
  Pr  Pr0  1  0.500000  0.186405  0.354549  1
  Pr  Pr1  1  0.500000  0.813595  0.645451  1
  Pr  Pr2  1  0.000000  0.686405  0.145451  1
  Pr  Pr3  1  0.000000  0.313595  0.854549  1
  Pr  Pr4  1  0.000000  0.248021  0.105647  1
  Pr  Pr5  1  0.000000  0.751979  0.894353  1
  Pr  Pr6  1  0.500000  0.748021  0.394353  1
  Pr  Pr7  1  0.500000  0.251979  0.605647  1
  Pr  Pr8  1  0.000000  0.458609  0.276959  1
  Pr  Pr9  1  0.000000  0.541391  0.723041  1
  Pr  Pr10  1  0.500000  0.958609  0.223041  1
  Pr  Pr11  1  0.500000  0.041391  0.776959  1
  In  In12  1  0.000000  0.000000  0.000000  1
  In  In13  1  0.500000  0.500000  0.500000  1
  In  In14  1  0.000000  0.000000  0.500000  1
  In  In15  1  0.500000  0.500000  0.000000  1
  Se  Se16  1  0.000000  0.476930  0.103003  1
  Se  Se17  1  0.000000  0.523070  0.896997  1
  Se  Se18  1  0.500000  0.976930  0.396997  1
  Se  Se19  1  0.500000  0.023070  0.603003  1
  Se  Se20  1  0.000000  0.189547  0.480825  1
  Se  Se21  1  0.000000  0.810453  0.519175  1
  Se  Se22  1  0.500000  0.689547  0.019175  1
  Se  Se23  1  0.500000  0.310453  0.980825  1
  Se  Se24  1  0.500000  0.387490  0.385461  1
  Se  Se25  1  0.500000  0.612510  0.614539  1
  Se  Se26  1  0.000000  0.887490  0.114539  1
  Se  Se27  1  0.000000  0.112510  0.885461  1
  Se  Se28  1  0.000000  0.111404  0.251233  1
  Se  Se29  1  0.000000  0.888596  0.748767  1
  Se  Se30  1  0.500000  0.611404  0.248767  1
  Se  Se31  1  0.500000  0.388596  0.751233  1
  Se  Se32  1  0.000000  0.406172  0.585062  1
  Se  Se33  1  0.000000  0.593828  0.414938  1
  Se  Se34  1  0.500000  0.906172  0.914938  1
  Se  Se35  1  0.500000  0.093828  0.085062  1
  Se  Se36  1  0.000000  0.182154  0.715305  1
  Se  Se37  1  0.000000  0.817846  0.284695  1
  Se  Se38  1  0.500000  0.682154  0.784695  1
  Se  Se39  1  0.500000  0.317846  0.215305  1
