# generated using pymatgen
data_PrNiO3
_symmetry_space_group_name_H-M   'P 1'
_cell_length_a   5.46677155
_cell_length_b   5.48540389
_cell_length_c   7.74529172
_cell_angle_alpha   90.00000000
_cell_angle_beta   90.00000000
_cell_angle_gamma   90.00000000
_symmetry_Int_Tables_number   1
_chemical_formula_structural   PrNiO3
_chemical_formula_sum   'Pr4 Ni4 O12'
_cell_volume   232.26154762
_cell_formula_units_Z   4
loop_
 _symmetry_equiv_pos_site_id
 _symmetry_equiv_pos_as_xyz
  1  'x, y, z'
loop_
 _atom_site_type_symbol
 _atom_site_label
 _atom_site_symmetry_multiplicity
 _atom_site_fract_x
 _atom_site_fract_y
 _atom_site_fract_z
 _atom_site_occupancy
  Pr  Pr0  1  0.037453  0.991570  0.750000  1
  Pr  Pr1  1  0.537453  0.508430  0.750000  1
  Pr  Pr2  1  0.462547  0.491570  0.250000  1
  Pr  Pr3  1  0.962547  0.008430  0.250000  1
  Ni  Ni4  1  0.000000  0.500000  0.500000  1
  Ni  Ni5  1  0.500000  0.000000  0.000000  1
  Ni  Ni6  1  0.500000  0.000000  0.500000  1
  Ni  Ni7  1  0.000000  0.500000  0.000000  1
  O  O8  1  0.719000  0.279720  0.458839  1
  O  O9  1  0.219000  0.220280  0.041161  1
  O  O10  1  0.781000  0.779720  0.541161  1
  O  O11  1  0.281000  0.720280  0.958839  1
  O  O12  1  0.281000  0.720280  0.541161  1
  O  O13  1  0.781000  0.779720  0.958839  1
  O  O14  1  0.219000  0.220280  0.458839  1
  O  O15  1  0.719000  0.279720  0.041161  1
  O  O16  1  0.510300  0.925375  0.250000  1
  O  O17  1  0.010300  0.574625  0.250000  1
  O  O18  1  0.989700  0.425375  0.750000  1
  O  O19  1  0.489700  0.074625  0.750000  1
