# generated using pymatgen
data_K2(CuTe)5
_symmetry_space_group_name_H-M   'P 1'
_cell_length_a   8.29879311
_cell_length_b   8.29879311
_cell_length_c   18.84191546
_cell_angle_alpha   90.00000000
_cell_angle_beta   90.00000000
_cell_angle_gamma   151.15454956
_symmetry_Int_Tables_number   1
_chemical_formula_structural   K2(CuTe)5
_chemical_formula_sum   'K4 Cu10 Te10'
_cell_volume   626.04569333
_cell_formula_units_Z   2
loop_
 _symmetry_equiv_pos_site_id
 _symmetry_equiv_pos_as_xyz
  1  'x, y, z'
loop_
 _atom_site_type_symbol
 _atom_site_label
 _atom_site_symmetry_multiplicity
 _atom_site_fract_x
 _atom_site_fract_y
 _atom_site_fract_z
 _atom_site_occupancy
  K  K0  1  0.517328  0.482672  0.118049  1
  K  K1  1  0.482672  0.517328  0.881951  1
  K  K2  1  0.482672  0.517328  0.618049  1
  K  K3  1  0.517328  0.482672  0.381951  1
  Cu  Cu4  1  0.673914  0.326086  0.750000  1
  Cu  Cu5  1  0.326086  0.673914  0.250000  1
  Cu  Cu6  1  0.723818  0.276182  0.957051  1
  Cu  Cu7  1  0.276182  0.723818  0.042949  1
  Cu  Cu8  1  0.276182  0.723818  0.457051  1
  Cu  Cu9  1  0.723818  0.276182  0.542949  1
  Cu  Cu10  1  0.800513  0.199487  0.352927  1
  Cu  Cu11  1  0.199487  0.800513  0.647073  1
  Cu  Cu12  1  0.199487  0.800513  0.852927  1
  Cu  Cu13  1  0.800513  0.199487  0.147073  1
  Te  Te14  1  0.079163  0.920837  0.750000  1
  Te  Te15  1  0.920837  0.079163  0.250000  1
  Te  Te16  1  0.196884  0.803116  0.166661  1
  Te  Te17  1  0.803116  0.196884  0.833339  1
  Te  Te18  1  0.803116  0.196884  0.666661  1
  Te  Te19  1  0.196884  0.803116  0.333339  1
  Te  Te20  1  0.871667  0.128333  0.020296  1
  Te  Te21  1  0.128333  0.871667  0.979704  1
  Te  Te22  1  0.128333  0.871667  0.520296  1
  Te  Te23  1  0.871667  0.128333  0.479704  1
