# generated using pymatgen
data_ErAu2
_symmetry_space_group_name_H-M   'P 1'
_cell_length_a   5.22875971
_cell_length_b   5.22875971
_cell_length_c   5.22875971
_cell_angle_alpha   138.26338598
_cell_angle_beta   138.26338598
_cell_angle_gamma   60.49984936
_symmetry_Int_Tables_number   1
_chemical_formula_structural   ErAu2
_chemical_formula_sum   'Er1 Au2'
_cell_volume   62.67970330
_cell_formula_units_Z   1
loop_
 _symmetry_equiv_pos_site_id
 _symmetry_equiv_pos_as_xyz
  1  'x, y, z'
loop_
 _atom_site_type_symbol
 _atom_site_label
 _atom_site_symmetry_multiplicity
 _atom_site_fract_x
 _atom_site_fract_y
 _atom_site_fract_z
 _atom_site_occupancy
  Er  Er0  1  0.000000  0.000000  0.000000  1
  Au  Au1  1  0.664295  0.664295  0.000000  1
  Au  Au2  1  0.335705  0.335705  0.000000  1
