# generated using pymatgen
data_BeH8(NF2)2
_symmetry_space_group_name_H-M   'P 1'
_cell_length_a   5.98728686
_cell_length_b   10.77168571
_cell_length_c   15.29826697
_cell_angle_alpha   90.00000000
_cell_angle_beta   90.00000000
_cell_angle_gamma   90.00000000
_symmetry_Int_Tables_number   1
_chemical_formula_structural   BeH8(NF2)2
_chemical_formula_sum   'Be8 H64 N16 F32'
_cell_volume   986.63376776
_cell_formula_units_Z   8
loop_
 _symmetry_equiv_pos_site_id
 _symmetry_equiv_pos_as_xyz
  1  'x, y, z'
loop_
 _atom_site_type_symbol
 _atom_site_label
 _atom_site_symmetry_multiplicity
 _atom_site_fract_x
 _atom_site_fract_y
 _atom_site_fract_z
 _atom_site_occupancy
  Be  Be0  1  0.259358  0.418185  0.500566  1
  Be  Be1  1  0.256308  0.080168  0.249705  1
  Be  Be2  1  0.756308  0.580168  0.250295  1
  Be  Be3  1  0.243692  0.080168  0.749705  1
  Be  Be4  1  0.759358  0.918185  0.999434  1
  Be  Be5  1  0.240642  0.418185  0.000566  1
  Be  Be6  1  0.740642  0.918185  0.499434  1
  Be  Be7  1  0.743692  0.580168  0.750295  1
  H  H8  1  0.851942  0.181157  0.699984  1
  H  H9  1  0.148058  0.681157  0.300016  1
  H  H10  1  0.648058  0.181157  0.199984  1
  H  H11  1  0.351942  0.681157  0.800016  1
  H  H12  1  0.579169  0.172900  0.665763  1
  H  H13  1  0.420831  0.672900  0.334237  1
  H  H14  1  0.920831  0.172900  0.165763  1
  H  H15  1  0.079169  0.672900  0.834237  1
  H  H16  1  0.783616  0.147102  0.593083  1
  H  H17  1  0.216384  0.647102  0.406917  1
  H  H18  1  0.716384  0.147102  0.093083  1
  H  H19  1  0.283616  0.647102  0.906917  1
  H  H20  1  0.740508  0.291085  0.633259  1
  H  H21  1  0.259492  0.791085  0.366741  1
  H  H22  1  0.759492  0.291085  0.133259  1
  H  H23  1  0.240508  0.791085  0.866741  1
  H  H24  1  0.901767  0.925484  0.781339  1
  H  H25  1  0.098233  0.425484  0.218661  1
  H  H26  1  0.598233  0.925484  0.281339  1
  H  H27  1  0.401767  0.425484  0.718661  1
  H  H28  1  0.632006  0.975819  0.793387  1
  H  H29  1  0.367994  0.475819  0.206613  1
  H  H30  1  0.867994  0.975819  0.293387  1
  H  H31  1  0.132006  0.475819  0.706613  1
  H  H32  1  0.706865  0.828997  0.821116  1
  H  H33  1  0.293135  0.328997  0.178884  1
  H  H34  1  0.793135  0.828997  0.321116  1
  H  H35  1  0.206865  0.328997  0.678884  1
  H  H36  1  0.701877  0.871510  0.714138  1
  H  H37  1  0.781352  0.677775  0.064872  1
  H  H38  1  0.298123  0.371510  0.285862  1
  H  H39  1  0.201877  0.371510  0.785862  1
  H  H40  1  0.901994  0.319762  0.913343  1
  H  H41  1  0.098006  0.819762  0.086657  1
  H  H42  1  0.598006  0.319762  0.413343  1
  H  H43  1  0.401994  0.819762  0.586657  1
  H  H44  1  0.631265  0.321957  0.950846  1
  H  H45  1  0.368735  0.821957  0.049154  1
  H  H46  1  0.868735  0.321957  0.450846  1
  H  H47  1  0.131265  0.821957  0.549154  1
  H  H48  1  0.697451  0.355264  0.843264  1
  H  H49  1  0.302549  0.855264  0.156736  1
  H  H50  1  0.802549  0.355264  0.343264  1
  H  H51  1  0.197451  0.855264  0.656736  1
  H  H52  1  0.718509  0.209441  0.881931  1
  H  H53  1  0.281491  0.709441  0.118069  1
  H  H54  1  0.781491  0.209441  0.381931  1
  H  H55  1  0.218509  0.709441  0.618069  1
  H  H56  1  0.857855  0.527569  0.044810  1
  H  H57  1  0.142145  0.027569  0.955190  1
  H  H58  1  0.642145  0.527569  0.544810  1
  H  H59  1  0.357855  0.027569  0.455190  1
  H  H60  1  0.587250  0.575021  0.032860  1
  H  H61  1  0.412750  0.075021  0.967140  1
  H  H62  1  0.912750  0.575021  0.532860  1
  H  H63  1  0.087250  0.075021  0.467140  1
  H  H64  1  0.278764  0.122056  0.539309  1
  H  H65  1  0.721236  0.622056  0.460691  1
  H  H66  1  0.221236  0.122056  0.039309  1
  H  H67  1  0.778764  0.622056  0.960691  1
  H  H68  1  0.281352  0.177775  0.435128  1
  H  H69  1  0.718648  0.677775  0.564872  1
  H  H70  1  0.218648  0.177775  0.935128  1
  H  H71  1  0.798123  0.871510  0.214138  1
  N  N72  1  0.753329  0.600881  0.026304  1
  N  N73  1  0.263942  0.801417  0.101847  1
  N  N74  1  0.763942  0.301417  0.398153  1
  N  N75  1  0.234397  0.400180  0.722356  1
  N  N76  1  0.736058  0.301417  0.898153  1
  N  N77  1  0.246671  0.100881  0.973696  1
  N  N78  1  0.746671  0.600881  0.526304  1
  N  N79  1  0.253329  0.100881  0.473696  1
  N  N80  1  0.765603  0.900180  0.277644  1
  N  N81  1  0.265603  0.400180  0.222356  1
  N  N82  1  0.734397  0.900180  0.777644  1
  N  N83  1  0.240794  0.698356  0.851321  1
  N  N84  1  0.759206  0.198356  0.148679  1
  N  N85  1  0.259206  0.698356  0.351321  1
  N  N86  1  0.236058  0.801417  0.601847  1
  N  N87  1  0.740794  0.198356  0.648679  1
  F  F88  1  0.461289  0.102225  0.804484  1
  F  F89  1  0.311946  0.936873  0.249731  1
  F  F90  1  0.811946  0.436873  0.250269  1
  F  F91  1  0.188054  0.936873  0.749731  1
  F  F92  1  0.688054  0.436873  0.750269  1
  F  F93  1  0.205769  0.127728  0.153908  1
  F  F94  1  0.705769  0.627728  0.346092  1
  F  F95  1  0.294231  0.127728  0.653908  1
  F  F96  1  0.975822  0.898050  0.944231  1
  F  F97  1  0.024178  0.398050  0.055769  1
  F  F98  1  0.524178  0.898050  0.444231  1
  F  F99  1  0.475822  0.398050  0.555769  1
  F  F100  1  0.549918  0.849385  0.962573  1
  F  F101  1  0.450082  0.349385  0.037427  1
  F  F102  1  0.950082  0.849385  0.462573  1
  F  F103  1  0.049918  0.349385  0.537427  1
  F  F104  1  0.703755  0.061236  0.001870  1
  F  F105  1  0.296245  0.561236  0.998130  1
  F  F106  1  0.796245  0.061236  0.501870  1
  F  F107  1  0.203755  0.561236  0.498130  1
  F  F108  1  0.808875  0.864220  0.094063  1
  F  F109  1  0.191125  0.364220  0.905937  1
  F  F110  1  0.691125  0.864220  0.594063  1
  F  F111  1  0.308875  0.364220  0.405937  1
  F  F112  1  0.538711  0.602225  0.195516  1
  F  F113  1  0.038711  0.102225  0.304484  1
  F  F114  1  0.961289  0.602225  0.695516  1
  F  F115  1  0.034868  0.150999  0.784240  1
  F  F116  1  0.965132  0.650999  0.215760  1
  F  F117  1  0.465132  0.150999  0.284240  1
  F  F118  1  0.534868  0.650999  0.715760  1
  F  F119  1  0.794231  0.627728  0.846092  1
