# generated using pymatgen
data_Ho5Sb3
_symmetry_space_group_name_H-M   'P 1'
_cell_length_a   8.94411404
_cell_length_b   8.94411404
_cell_length_c   6.27843267
_cell_angle_alpha   90.00000000
_cell_angle_beta   90.00000000
_cell_angle_gamma   120.00000000
_symmetry_Int_Tables_number   1
_chemical_formula_structural   Ho5Sb3
_chemical_formula_sum   'Ho10 Sb6'
_cell_volume   434.96721983
_cell_formula_units_Z   2
loop_
 _symmetry_equiv_pos_site_id
 _symmetry_equiv_pos_as_xyz
  1  'x, y, z'
loop_
 _atom_site_type_symbol
 _atom_site_label
 _atom_site_symmetry_multiplicity
 _atom_site_fract_x
 _atom_site_fract_y
 _atom_site_fract_z
 _atom_site_occupancy
  Ho  Ho0  1  0.333333  0.666667  0.000000  1
  Ho  Ho1  1  0.666667  0.333333  0.500000  1
  Ho  Ho2  1  0.666667  0.333333  0.000000  1
  Ho  Ho3  1  0.333333  0.666667  0.500000  1
  Ho  Ho4  1  0.753517  0.000000  0.750000  1
  Ho  Ho5  1  0.753517  0.753517  0.250000  1
  Ho  Ho6  1  0.000000  0.246483  0.250000  1
  Ho  Ho7  1  0.000000  0.753517  0.750000  1
  Ho  Ho8  1  0.246483  0.246483  0.750000  1
  Ho  Ho9  1  0.246483  0.000000  0.250000  1
  Sb  Sb10  1  0.388902  0.000000  0.750000  1
  Sb  Sb11  1  0.388902  0.388902  0.250000  1
  Sb  Sb12  1  0.000000  0.611098  0.250000  1
  Sb  Sb13  1  0.000000  0.388902  0.750000  1
  Sb  Sb14  1  0.611098  0.611098  0.750000  1
  Sb  Sb15  1  0.611098  0.000000  0.250000  1
