# generated using pymatgen
data_Cd2Ge7O16
_symmetry_space_group_name_H-M   'P 1'
_cell_length_a   11.46441577
_cell_length_b   11.46441577
_cell_length_c   4.71242087
_cell_angle_alpha   90.00000000
_cell_angle_beta   90.00000000
_cell_angle_gamma   90.00000000
_symmetry_Int_Tables_number   1
_chemical_formula_structural   Cd2Ge7O16
_chemical_formula_sum   'Cd4 Ge14 O32'
_cell_volume   619.36680613
_cell_formula_units_Z   2
loop_
 _symmetry_equiv_pos_site_id
 _symmetry_equiv_pos_as_xyz
  1  'x, y, z'
loop_
 _atom_site_type_symbol
 _atom_site_label
 _atom_site_symmetry_multiplicity
 _atom_site_fract_x
 _atom_site_fract_y
 _atom_site_fract_z
 _atom_site_occupancy
  Cd  Cd0  1  0.836788  0.663212  0.000000  1
  Cd  Cd1  1  0.336788  0.836788  0.000000  1
  Cd  Cd2  1  0.663212  0.163212  0.000000  1
  Cd  Cd3  1  0.163212  0.336788  0.000000  1
  Ge  Ge4  1  0.569412  0.684998  0.509909  1
  Ge  Ge5  1  0.430588  0.315002  0.509909  1
  Ge  Ge6  1  0.315002  0.569412  0.490091  1
  Ge  Ge7  1  0.684998  0.430588  0.490091  1
  Ge  Ge8  1  0.930588  0.184998  0.509909  1
  Ge  Ge9  1  0.815002  0.930588  0.490091  1
  Ge  Ge10  1  0.184998  0.069412  0.490091  1
  Ge  Ge11  1  0.069412  0.815002  0.509909  1
  Ge  Ge12  1  0.635716  0.864284  0.000000  1
  Ge  Ge13  1  0.135716  0.635716  0.000000  1
  Ge  Ge14  1  0.864284  0.364284  0.000000  1
  Ge  Ge15  1  0.364284  0.135716  0.000000  1
  Ge  Ge16  1  0.500000  0.000000  0.500000  1
  Ge  Ge17  1  0.000000  0.500000  0.500000  1
  O  O18  1  0.638781  0.564490  0.334096  1
  O  O19  1  0.361219  0.435510  0.334096  1
  O  O20  1  0.435510  0.638781  0.665904  1
  O  O21  1  0.564490  0.361219  0.665904  1
  O  O22  1  0.861219  0.064490  0.334096  1
  O  O23  1  0.935510  0.861219  0.665904  1
  O  O24  1  0.064490  0.138781  0.665904  1
  O  O25  1  0.138781  0.935510  0.334096  1
  O  O26  1  0.673493  0.731310  0.771406  1
  O  O27  1  0.326507  0.268690  0.771406  1
  O  O28  1  0.268690  0.673493  0.228594  1
  O  O29  1  0.731310  0.326507  0.228594  1
  O  O30  1  0.826507  0.231310  0.771406  1
  O  O31  1  0.768690  0.826507  0.228594  1
  O  O32  1  0.231310  0.173493  0.228594  1
  O  O33  1  0.173493  0.768690  0.771406  1
  O  O34  1  0.530767  0.780362  0.228078  1
  O  O35  1  0.469233  0.219638  0.228078  1
  O  O36  1  0.000652  0.618511  0.748006  1
  O  O37  1  0.381489  0.000652  0.251994  1
  O  O38  1  0.618511  0.999348  0.251994  1
  O  O39  1  0.999348  0.381489  0.748006  1
  O  O40  1  0.881489  0.499348  0.251994  1
  O  O41  1  0.118511  0.500652  0.251994  1
  O  O42  1  0.499348  0.118511  0.748006  1
  O  O43  1  0.500652  0.881489  0.748006  1
  O  O44  1  0.030767  0.719638  0.228078  1
  O  O45  1  0.280362  0.030767  0.771922  1
  O  O46  1  0.719638  0.969233  0.771922  1
  O  O47  1  0.969233  0.280362  0.228078  1
  O  O48  1  0.780362  0.469233  0.771922  1
  O  O49  1  0.219638  0.530767  0.771922  1
