# generated using pymatgen
data_Si(PH2)4
_symmetry_space_group_name_H-M   'P 1'
_cell_length_a   11.30259646
_cell_length_b   7.62017900
_cell_length_c   11.40164747
_cell_angle_alpha   90.00000000
_cell_angle_beta   100.39863337
_cell_angle_gamma   90.00000000
_symmetry_Int_Tables_number   1
_chemical_formula_structural   Si(PH2)4
_chemical_formula_sum   'Si4 P16 H32'
_cell_volume   965.87033673
_cell_formula_units_Z   4
loop_
 _symmetry_equiv_pos_site_id
 _symmetry_equiv_pos_as_xyz
  1  'x, y, z'
loop_
 _atom_site_type_symbol
 _atom_site_label
 _atom_site_symmetry_multiplicity
 _atom_site_fract_x
 _atom_site_fract_y
 _atom_site_fract_z
 _atom_site_occupancy
  Si  Si0  1  0.752293  0.939945  0.644648  1
  Si  Si1  1  0.247707  0.439945  0.855352  1
  Si  Si2  1  0.247707  0.060055  0.355352  1
  Si  Si3  1  0.752293  0.560055  0.144648  1
  P  P4  1  0.706747  0.844443  0.093116  1
  P  P5  1  0.293253  0.344443  0.406884  1
  P  P6  1  0.293253  0.155557  0.906884  1
  P  P7  1  0.706747  0.655557  0.593116  1
  P  P8  1  0.805593  0.068073  0.481472  1
  P  P9  1  0.194407  0.568073  0.018528  1
  P  P10  1  0.194407  0.931927  0.518528  1
  P  P11  1  0.805593  0.431927  0.981472  1
  P  P12  1  0.914240  0.539499  0.294830  1
  P  P13  1  0.085760  0.039499  0.205170  1
  P  P14  1  0.085760  0.460501  0.705170  1
  P  P15  1  0.914240  0.960501  0.794830  1
  P  P16  1  0.588579  0.074067  0.695613  1
  P  P17  1  0.411421  0.574067  0.804387  1
  P  P18  1  0.411421  0.925933  0.304387  1
  P  P19  1  0.588579  0.425933  0.195613  1
  H  H20  1  0.799909  0.257250  0.026234  1
  H  H21  1  0.200091  0.757250  0.473766  1
  H  H22  1  0.200091  0.742750  0.973766  1
  H  H23  1  0.799909  0.242750  0.526234  1
  H  H24  1  0.684032  0.427136  0.918446  1
  H  H25  1  0.315968  0.927136  0.581554  1
  H  H26  1  0.315968  0.572864  0.081554  1
  H  H27  1  0.684032  0.072864  0.418446  1
  H  H28  1  0.984854  0.837204  0.742440  1
  H  H29  1  0.015146  0.337204  0.757560  1
  H  H30  1  0.015146  0.162796  0.257560  1
  H  H31  1  0.984854  0.662796  0.242440  1
  H  H32  1  0.870083  0.830180  0.866290  1
  H  H33  1  0.129917  0.330180  0.633710  1
  H  H34  1  0.129917  0.169820  0.133710  1
  H  H35  1  0.870083  0.669820  0.366290  1
  H  H36  1  0.605868  0.500934  0.312544  1
  H  H37  1  0.394132  0.000934  0.187456  1
  H  H38  1  0.394132  0.499066  0.687456  1
  H  H39  1  0.605868  0.999066  0.812544  1
  H  H40  1  0.591850  0.697922  0.523214  1
  H  H41  1  0.408150  0.197922  0.976786  1
  H  H42  1  0.408150  0.302078  0.476786  1
  H  H43  1  0.591850  0.802078  0.023214  1
  H  H44  1  0.656915  0.623173  0.697910  1
  H  H45  1  0.343085  0.123173  0.802090  1
  H  H46  1  0.343085  0.376827  0.302090  1
  H  H47  1  0.656915  0.876827  0.197910  1
  H  H48  1  0.651351  0.268360  0.236759  1
  H  H49  1  0.348649  0.768360  0.263241  1
  H  H50  1  0.348649  0.731640  0.763241  1
  H  H51  1  0.651351  0.231640  0.736759  1
