# generated using pymatgen
data_Cd2P3Cl
_symmetry_space_group_name_H-M   'P 1'
_cell_length_a   6.11639199
_cell_length_b   6.11639199
_cell_length_c   7.66724322
_cell_angle_alpha   83.07993903
_cell_angle_beta   96.92006097
_cell_angle_gamma   83.20597770
_symmetry_Int_Tables_number   1
_chemical_formula_structural   Cd2P3Cl
_chemical_formula_sum   'Cd4 P6 Cl2'
_cell_volume   280.09072753
_cell_formula_units_Z   2
loop_
 _symmetry_equiv_pos_site_id
 _symmetry_equiv_pos_as_xyz
  1  'x, y, z'
loop_
 _atom_site_type_symbol
 _atom_site_label
 _atom_site_symmetry_multiplicity
 _atom_site_fract_x
 _atom_site_fract_y
 _atom_site_fract_z
 _atom_site_occupancy
  Cd  Cd0  1  0.640120  0.667332  0.567232  1
  Cd  Cd1  1  0.332668  0.359880  0.067232  1
  Cd  Cd2  1  0.157869  0.149275  0.499517  1
  Cd  Cd3  1  0.850725  0.842131  0.999517  1
  P  P4  1  0.440069  0.949648  0.032866  1
  P  P5  1  0.050352  0.559931  0.532866  1
  P  P6  1  0.405528  0.684933  0.247252  1
  P  P7  1  0.315067  0.594472  0.747252  1
  P  P8  1  0.085189  0.824454  0.318496  1
  P  P9  1  0.175546  0.914811  0.818496  1
  Cl  Cl10  1  0.608328  0.119459  0.526637  1
  Cl  Cl11  1  0.880541  0.391672  0.026637  1
