# generated using pymatgen
data_Ti3O
_symmetry_space_group_name_H-M   'P 1'
_cell_length_a   5.15772750
_cell_length_b   5.15772750
_cell_length_c   9.50735140
_cell_angle_alpha   90.00000000
_cell_angle_beta   90.00000000
_cell_angle_gamma   120.00000000
_symmetry_Int_Tables_number   1
_chemical_formula_structural   Ti3O
_chemical_formula_sum   'Ti12 O4'
_cell_volume   219.03169505
_cell_formula_units_Z   4
loop_
 _symmetry_equiv_pos_site_id
 _symmetry_equiv_pos_as_xyz
  1  'x, y, z'
loop_
 _atom_site_type_symbol
 _atom_site_label
 _atom_site_symmetry_multiplicity
 _atom_site_fract_x
 _atom_site_fract_y
 _atom_site_fract_z
 _atom_site_occupancy
  Ti  Ti0  1  0.671858  0.005695  0.382742  1
  Ti  Ti1  1  0.333837  0.328142  0.382742  1
  Ti  Ti2  1  0.666163  0.994305  0.882742  1
  Ti  Ti3  1  0.005695  0.671858  0.882742  1
  Ti  Ti4  1  0.328142  0.333837  0.882742  1
  Ti  Ti5  1  0.005695  0.333837  0.617258  1
  Ti  Ti6  1  0.328142  0.994305  0.617258  1
  Ti  Ti7  1  0.666163  0.671858  0.617258  1
  Ti  Ti8  1  0.994305  0.666163  0.382742  1
  Ti  Ti9  1  0.671858  0.666163  0.117258  1
  Ti  Ti10  1  0.994305  0.328142  0.117258  1
  Ti  Ti11  1  0.333837  0.005695  0.117258  1
  O  O12  1  0.333333  0.666667  0.750000  1
  O  O13  1  0.666667  0.333333  0.250000  1
  O  O14  1  0.000000  0.000000  0.750000  1
  O  O15  1  0.000000  0.000000  0.250000  1
