# generated using pymatgen
data_Nb2Cr4Si5
_symmetry_space_group_name_H-M   'P 1'
_cell_length_a   9.07866324
_cell_length_b   9.07866324
_cell_length_c   9.07866324
_cell_angle_alpha   148.96689306
_cell_angle_beta   131.10846459
_cell_angle_gamma   59.04557301
_symmetry_Int_Tables_number   1
_chemical_formula_structural   Nb2Cr4Si5
_chemical_formula_sum   'Nb4 Cr8 Si10'
_cell_volume   288.33644657
_cell_formula_units_Z   2
loop_
 _symmetry_equiv_pos_site_id
 _symmetry_equiv_pos_as_xyz
  1  'x, y, z'
loop_
 _atom_site_type_symbol
 _atom_site_label
 _atom_site_symmetry_multiplicity
 _atom_site_fract_x
 _atom_site_fract_y
 _atom_site_fract_z
 _atom_site_occupancy
  Nb  Nb0  1  0.978705  0.358707  0.619998  1
  Nb  Nb1  1  0.021295  0.641293  0.380002  1
  Nb  Nb2  1  0.261290  0.141293  0.119998  1
  Nb  Nb3  1  0.738710  0.858707  0.880002  1
  Cr  Cr4  1  0.307632  0.057632  0.750000  1
  Cr  Cr5  1  0.692368  0.442368  0.750000  1
  Cr  Cr6  1  0.805593  0.060855  0.744737  1
  Cr  Cr7  1  0.194407  0.939145  0.255263  1
  Cr  Cr8  1  0.683882  0.439145  0.244737  1
  Cr  Cr9  1  0.316118  0.560855  0.755263  1
  Cr  Cr10  1  0.692368  0.942368  0.250000  1
  Cr  Cr11  1  0.307632  0.557632  0.250000  1
  Si  Si12  1  1.000000  0.750000  0.750000  1
  Si  Si13  1  0.000000  0.250000  0.250000  1
  Si  Si14  1  0.357943  0.435032  0.922912  1
  Si  Si15  1  0.642057  0.564968  0.077088  1
  Si  Si16  1  0.003720  0.211817  0.791903  1
  Si  Si17  1  0.996280  0.788183  0.208097  1
  Si  Si18  1  0.580087  0.288183  0.291903  1
  Si  Si19  1  0.419913  0.711817  0.708097  1
  Si  Si20  1  0.512120  0.935032  0.577088  1
  Si  Si21  1  0.487880  0.064968  0.422912  1
