# generated using pymatgen
data_HfSiMo
_symmetry_space_group_name_H-M   'P 1'
_cell_length_a   3.50713178
_cell_length_b   6.94837208
_cell_length_c   8.20530957
_cell_angle_alpha   90.00000000
_cell_angle_beta   90.00000000
_cell_angle_gamma   90.00000000
_symmetry_Int_Tables_number   1
_chemical_formula_structural   HfSiMo
_chemical_formula_sum   'Hf4 Si4 Mo4'
_cell_volume   199.95401179
_cell_formula_units_Z   4
loop_
 _symmetry_equiv_pos_site_id
 _symmetry_equiv_pos_as_xyz
  1  'x, y, z'
loop_
 _atom_site_type_symbol
 _atom_site_label
 _atom_site_symmetry_multiplicity
 _atom_site_fract_x
 _atom_site_fract_y
 _atom_site_fract_z
 _atom_site_occupancy
  Hf  Hf0  1  0.250000  0.543491  0.167397  1
  Hf  Hf1  1  0.750000  0.456509  0.832603  1
  Hf  Hf2  1  0.250000  0.043491  0.332603  1
  Hf  Hf3  1  0.750000  0.956509  0.667397  1
  Si  Si4  1  0.250000  0.757091  0.862632  1
  Si  Si5  1  0.750000  0.242909  0.137368  1
  Si  Si6  1  0.250000  0.257091  0.637368  1
  Si  Si7  1  0.750000  0.742909  0.362632  1
  Mo  Mo8  1  0.750000  0.865362  0.062604  1
  Mo  Mo9  1  0.250000  0.134638  0.937396  1
  Mo  Mo10  1  0.750000  0.365362  0.437396  1
  Mo  Mo11  1  0.250000  0.634638  0.562604  1
