# generated using pymatgen
data_Be3P2
_symmetry_space_group_name_H-M   'P 1'
_cell_length_a   12.49684399
_cell_length_b   12.49684399
_cell_length_c   12.49684399
_cell_angle_alpha   131.64844467
_cell_angle_beta   131.64844467
_cell_angle_gamma   70.78484024
_symmetry_Int_Tables_number   1
_chemical_formula_structural   Be3P2
_chemical_formula_sum   'Be48 P32'
_cell_volume   1067.36923161
_cell_formula_units_Z   16
loop_
 _symmetry_equiv_pos_site_id
 _symmetry_equiv_pos_as_xyz
  1  'x, y, z'
loop_
 _atom_site_type_symbol
 _atom_site_label
 _atom_site_symmetry_multiplicity
 _atom_site_fract_x
 _atom_site_fract_y
 _atom_site_fract_z
 _atom_site_occupancy
  Be  Be0  1  0.328386  0.318228  0.273088  1
  Be  Be1  1  0.068228  0.295140  0.489842  1
  Be  Be2  1  0.805299  0.578386  0.510158  1
  Be  Be3  1  0.921614  0.694701  0.489842  1
  Be  Be4  1  0.204860  0.431772  0.510158  1
  Be  Be5  1  0.444701  0.454860  0.273088  1
  Be  Be6  1  0.181772  0.171614  0.726912  1
  Be  Be7  1  0.045140  0.055299  0.726912  1
  Be  Be8  1  0.421614  0.931772  0.226912  1
  Be  Be9  1  0.681772  0.954860  0.010158  1
  Be  Be10  1  0.944701  0.671614  0.989842  1
  Be  Be11  1  0.828386  0.555299  0.010158  1
  Be  Be12  1  0.545140  0.818228  0.989842  1
  Be  Be13  1  0.305299  0.795140  0.226912  1
  Be  Be14  1  0.568228  0.078386  0.773088  1
  Be  Be15  1  0.704860  0.194701  0.773088  1
  Be  Be16  1  0.310101  0.576957  0.502496  1
  Be  Be17  1  0.326957  0.324460  0.766855  1
  Be  Be18  1  0.557605  0.560101  0.233145  1
  Be  Be19  1  0.939899  0.942395  0.766855  1
  Be  Be20  1  0.175540  0.173043  0.233145  1
  Be  Be21  1  0.692395  0.425540  0.502496  1
  Be  Be22  1  0.923043  0.189899  0.497504  1
  Be  Be23  1  0.074460  0.807605  0.497504  1
  Be  Be24  1  0.439899  0.673043  0.997504  1
  Be  Be25  1  0.423043  0.925540  0.733145  1
  Be  Be26  1  0.192395  0.689899  0.266855  1
  Be  Be27  1  0.810101  0.307605  0.733145  1
  Be  Be28  1  0.574460  0.076957  0.266855  1
  Be  Be29  1  0.057605  0.824460  0.997504  1
  Be  Be30  1  0.826957  0.060101  0.002496  1
  Be  Be31  1  0.675540  0.442395  0.002496  1
  Be  Be32  1  0.055232  0.314010  0.008056  1
  Be  Be33  1  0.064010  0.555953  0.758778  1
  Be  Be34  1  0.797175  0.305232  0.241222  1
  Be  Be35  1  0.194768  0.702825  0.758778  1
  Be  Be36  1  0.944047  0.435990  0.241222  1
  Be  Be37  1  0.452825  0.194047  0.008056  1
  Be  Be38  1  0.185990  0.444768  0.991944  1
  Be  Be39  1  0.305953  0.047175  0.991944  1
  Be  Be40  1  0.694768  0.935990  0.491944  1
  Be  Be41  1  0.685990  0.694047  0.741222  1
  Be  Be42  1  0.952825  0.944768  0.258778  1
  Be  Be43  1  0.555232  0.547175  0.741222  1
  Be  Be44  1  0.805953  0.814010  0.258778  1
  Be  Be45  1  0.297175  0.055953  0.491944  1
  Be  Be46  1  0.564010  0.805232  0.508056  1
  Be  Be47  1  0.444047  0.202825  0.508056  1
  P  P48  1  0.500000  0.500000  0.000000  1
  P  P49  1  0.250000  0.750000  0.500000  1
  P  P50  1  0.750000  0.250000  0.500000  1
  P  P51  1  0.000000  0.000000  0.000000  1
  P  P52  1  0.250000  0.250000  0.000000  1
  P  P53  1  0.000000  0.500000  0.500000  1
  P  P54  1  0.500000  0.000000  0.500000  1
  P  P55  1  0.750000  0.750000  0.000000  1
  P  P56  1  0.875000  0.125000  0.750000  1
  P  P57  1  0.875000  0.625000  0.750000  1
  P  P58  1  0.875000  0.125000  0.250000  1
  P  P59  1  0.375000  0.625000  0.750000  1
  P  P60  1  0.875000  0.625000  0.250000  1
  P  P61  1  0.375000  0.125000  0.750000  1
  P  P62  1  0.375000  0.625000  0.250000  1
  P  P63  1  0.375000  0.125000  0.250000  1
  P  P64  1  0.125000  0.361049  0.736049  1
  P  P65  1  0.111049  0.875000  0.736049  1
  P  P66  1  0.138951  0.375000  0.263951  1
  P  P67  1  0.625000  0.388951  0.263951  1
  P  P68  1  0.625000  0.888951  0.763951  1
  P  P69  1  0.638951  0.375000  0.763951  1
  P  P70  1  0.611049  0.875000  0.236049  1
  P  P71  1  0.125000  0.861049  0.236049  1
  P  P72  1  0.507084  0.507084  0.514167  1
  P  P73  1  0.257084  0.242916  0.500000  1
  P  P74  1  0.742916  0.757084  0.500000  1
  P  P75  1  0.992916  0.992916  0.485833  1
  P  P76  1  0.242916  0.742916  0.985833  1
  P  P77  1  0.492916  0.007084  1.000000  1
  P  P78  1  0.007084  0.492916  0.000000  1
  P  P79  1  0.757084  0.257084  0.014167  1
