# generated using pymatgen
data_CuSi(HO2)2
_symmetry_space_group_name_H-M   'P 1'
_cell_length_a   8.90721360
_cell_length_b   8.90721360
_cell_length_c   8.90721360
_cell_angle_alpha   111.81449278
_cell_angle_beta   111.81449278
_cell_angle_gamma   111.81449278
_symmetry_Int_Tables_number   1
_chemical_formula_structural   CuSi(HO2)2
_chemical_formula_sum   'Cu6 Si6 H12 O24'
_cell_volume   491.18704379
_cell_formula_units_Z   6
loop_
 _symmetry_equiv_pos_site_id
 _symmetry_equiv_pos_as_xyz
  1  'x, y, z'
loop_
 _atom_site_type_symbol
 _atom_site_label
 _atom_site_symmetry_multiplicity
 _atom_site_fract_x
 _atom_site_fract_y
 _atom_site_fract_z
 _atom_site_occupancy
  Cu  Cu0  1  0.529508  0.938620  0.338499  1
  Cu  Cu1  1  0.338499  0.529508  0.938620  1
  Cu  Cu2  1  0.938620  0.338499  0.529508  1
  Cu  Cu3  1  0.470492  0.061380  0.661501  1
  Cu  Cu4  1  0.661501  0.470492  0.061380  1
  Cu  Cu5  1  0.061380  0.661501  0.470492  1
  Si  Si6  1  0.783483  0.917477  0.175892  1
  Si  Si7  1  0.175892  0.783483  0.917477  1
  Si  Si8  1  0.917477  0.175892  0.783483  1
  Si  Si9  1  0.216517  0.082523  0.824108  1
  Si  Si10  1  0.824108  0.216517  0.082523  1
  Si  Si11  1  0.082523  0.824108  0.216517  1
  H  H12  1  0.196984  0.248283  0.479994  1
  H  H13  1  0.479994  0.196984  0.248283  1
  H  H14  1  0.248283  0.479994  0.196984  1
  H  H15  1  0.803016  0.751717  0.520006  1
  H  H16  1  0.520006  0.803016  0.751717  1
  H  H17  1  0.751717  0.520006  0.803016  1
  H  H18  1  0.309117  0.487543  0.580979  1
  H  H19  1  0.580979  0.309117  0.487543  1
  H  H20  1  0.487543  0.580979  0.309117  1
  H  H21  1  0.690883  0.512457  0.419021  1
  H  H22  1  0.419021  0.690883  0.512457  1
  H  H23  1  0.512457  0.419021  0.690883  1
  O  O24  1  0.025552  0.736362  0.987900  1
  O  O25  1  0.736362  0.987900  0.025552  1
  O  O26  1  0.987900  0.025552  0.736362  1
  O  O27  1  0.974448  0.263638  0.012100  1
  O  O28  1  0.263638  0.012100  0.974448  1
  O  O29  1  0.012100  0.974448  0.263638  1
  O  O30  1  0.955249  0.634458  0.214737  1
  O  O31  1  0.634458  0.214737  0.955249  1
  O  O32  1  0.214737  0.955249  0.634458  1
  O  O33  1  0.044751  0.365542  0.785263  1
  O  O34  1  0.365542  0.785263  0.044751  1
  O  O35  1  0.785263  0.044751  0.365542  1
  O  O36  1  0.323682  0.948975  0.374760  1
  O  O37  1  0.948975  0.374760  0.323682  1
  O  O38  1  0.374760  0.323682  0.948975  1
  O  O39  1  0.676318  0.051025  0.625240  1
  O  O40  1  0.051025  0.625240  0.676318  1
  O  O41  1  0.625240  0.676318  0.051025  1
  O  O42  1  0.615853  0.392837  0.705431  1
  O  O43  1  0.392837  0.705431  0.615853  1
  O  O44  1  0.705431  0.615853  0.392837  1
  O  O45  1  0.384147  0.607163  0.294569  1
  O  O46  1  0.607163  0.294569  0.384147  1
  O  O47  1  0.294569  0.384147  0.607163  1
