# generated using pymatgen
data_LiTiP2O7
_symmetry_space_group_name_H-M   'P 1'
_cell_length_a   4.94864606
_cell_length_b   8.28810626
_cell_length_c   7.04787890
_cell_angle_alpha   90.00000000
_cell_angle_beta   108.85795476
_cell_angle_gamma   90.00000000
_symmetry_Int_Tables_number   1
_chemical_formula_structural   LiTiP2O7
_chemical_formula_sum   'Li2 Ti2 P4 O14'
_cell_volume   273.55171525
_cell_formula_units_Z   2
loop_
 _symmetry_equiv_pos_site_id
 _symmetry_equiv_pos_as_xyz
  1  'x, y, z'
loop_
 _atom_site_type_symbol
 _atom_site_label
 _atom_site_symmetry_multiplicity
 _atom_site_fract_x
 _atom_site_fract_y
 _atom_site_fract_z
 _atom_site_occupancy
  Li  Li0  1  0.806616  0.695132  0.321155  1
  Li  Li1  1  0.193384  0.195132  0.678845  1
  Ti  Ti2  1  0.208930  0.558851  0.727841  1
  Ti  Ti3  1  0.791070  0.058851  0.272159  1
  P  P4  1  0.596080  0.377233  0.474877  1
  P  P5  1  0.403920  0.877233  0.525123  1
  P  P6  1  0.784107  0.769394  0.917868  1
  P  P7  1  0.215893  0.269394  0.082132  1
  O  O8  1  0.398765  0.121578  0.077890  1
  O  O9  1  0.198561  0.020750  0.490059  1
  O  O10  1  0.801439  0.520750  0.509941  1
  O  O11  1  0.248356  0.714945  0.508296  1
  O  O12  1  0.601235  0.621578  0.922110  1
  O  O13  1  0.600779  0.901158  0.756848  1
  O  O14  1  0.132222  0.358323  0.881398  1
  O  O15  1  0.867778  0.858323  0.118602  1
  O  O16  1  0.397510  0.380898  0.602936  1
  O  O17  1  0.399221  0.401158  0.243152  1
  O  O18  1  0.957079  0.225083  0.144432  1
  O  O19  1  0.042921  0.725083  0.855568  1
  O  O20  1  0.751644  0.214945  0.491704  1
  O  O21  1  0.602490  0.880898  0.397064  1
