# generated using pymatgen
data_UGePt
_symmetry_space_group_name_H-M   'P 1'
_cell_length_a   5.63544508
_cell_length_b   5.63544508
_cell_length_c   5.63544508
_cell_angle_alpha   134.13206286
_cell_angle_beta   102.40762357
_cell_angle_gamma   95.09573594
_symmetry_Int_Tables_number   1
_chemical_formula_structural   UGePt
_chemical_formula_sum   'U2 Ge2 Pt2'
_cell_volume   117.97386121
_cell_formula_units_Z   2
loop_
 _symmetry_equiv_pos_site_id
 _symmetry_equiv_pos_as_xyz
  1  'x, y, z'
loop_
 _atom_site_type_symbol
 _atom_site_label
 _atom_site_symmetry_multiplicity
 _atom_site_fract_x
 _atom_site_fract_y
 _atom_site_fract_z
 _atom_site_occupancy
  U  U0  1  0.539114  0.539114  0.000000  1
  U  U1  1  0.970930  0.470930  0.500000  1
  Ge  Ge2  1  0.943693  0.163713  0.779980  1
  Ge  Ge3  1  0.383733  0.163713  0.220020  1
  Pt  Pt4  1  0.122771  0.833765  0.289006  1
  Pt  Pt5  1  0.544759  0.833765  0.710994  1
