# generated using pymatgen
data_TlCrP2O7
_symmetry_space_group_name_H-M   'P 1'
_cell_length_a   7.61079318
_cell_length_b   10.09663418
_cell_length_c   8.36103926
_cell_angle_alpha   90.00000000
_cell_angle_beta   106.19700892
_cell_angle_gamma   90.00000000
_symmetry_Int_Tables_number   1
_chemical_formula_structural   TlCrP2O7
_chemical_formula_sum   'Tl4 Cr4 P8 O28'
_cell_volume   616.98906009
_cell_formula_units_Z   4
loop_
 _symmetry_equiv_pos_site_id
 _symmetry_equiv_pos_as_xyz
  1  'x, y, z'
loop_
 _atom_site_type_symbol
 _atom_site_label
 _atom_site_symmetry_multiplicity
 _atom_site_fract_x
 _atom_site_fract_y
 _atom_site_fract_z
 _atom_site_occupancy
  Tl  Tl0  1  0.316993  0.814029  0.947810  1
  Tl  Tl1  1  0.683007  0.314029  0.552190  1
  Tl  Tl2  1  0.683007  0.185971  0.052190  1
  Tl  Tl3  1  0.316993  0.685971  0.447810  1
  Cr  Cr4  1  0.739122  0.601181  0.260110  1
  Cr  Cr5  1  0.260878  0.101181  0.239890  1
  Cr  Cr6  1  0.260878  0.398819  0.739890  1
  Cr  Cr7  1  0.739122  0.898819  0.760110  1
  P  P8  1  0.931921  0.631327  0.688639  1
  P  P9  1  0.068079  0.131327  0.811361  1
  P  P10  1  0.068079  0.368673  0.311361  1
  P  P11  1  0.931921  0.868673  0.188639  1
  P  P12  1  0.629272  0.596987  0.831546  1
  P  P13  1  0.370728  0.096987  0.668454  1
  P  P14  1  0.370728  0.403013  0.168454  1
  P  P15  1  0.629272  0.903013  0.331546  1
  O  O16  1  0.645389  0.590116  0.014702  1
  O  O17  1  0.354611  0.090116  0.485298  1
  O  O18  1  0.354611  0.409884  0.985298  1
  O  O19  1  0.645389  0.909884  0.514702  1
  O  O20  1  0.585140  0.762821  0.256931  1
  O  O21  1  0.414860  0.262821  0.243069  1
  O  O22  1  0.414860  0.237179  0.743069  1
  O  O23  1  0.585140  0.737179  0.756931  1
  O  O24  1  0.511391  0.499503  0.275476  1
  O  O25  1  0.488609  0.999503  0.224524  1
  O  O26  1  0.488609  0.500497  0.724524  1
  O  O27  1  0.511391  0.000497  0.775476  1
  O  O28  1  0.825792  0.554082  0.806983  1
  O  O29  1  0.174208  0.054082  0.693017  1
  O  O30  1  0.174208  0.445918  0.193017  1
  O  O31  1  0.825792  0.945918  0.306983  1
  O  O32  1  0.943761  0.721489  0.240200  1
  O  O33  1  0.056239  0.221489  0.259800  1
  O  O34  1  0.056239  0.278511  0.759800  1
  O  O35  1  0.943761  0.778511  0.740200  1
  O  O36  1  0.124488  0.927476  0.235862  1
  O  O37  1  0.875512  0.427476  0.264138  1
  O  O38  1  0.875512  0.072524  0.764138  1
  O  O39  1  0.124488  0.572524  0.735862  1
  O  O40  1  0.818505  0.896585  0.011009  1
  O  O41  1  0.181495  0.396585  0.488991  1
  O  O42  1  0.181495  0.103415  0.988991  1
  O  O43  1  0.818505  0.603415  0.511009  1
