# generated using pymatgen
data_H3ClO5
_symmetry_space_group_name_H-M   'P 1'
_cell_length_a   5.44812830
_cell_length_b   9.54638421
_cell_length_c   9.08895607
_cell_angle_alpha   90.00000000
_cell_angle_beta   119.29177772
_cell_angle_gamma   90.00000000
_symmetry_Int_Tables_number   1
_chemical_formula_structural   H3ClO5
_chemical_formula_sum   'H12 Cl4 O20'
_cell_volume   412.27423356
_cell_formula_units_Z   4
loop_
 _symmetry_equiv_pos_site_id
 _symmetry_equiv_pos_as_xyz
  1  'x, y, z'
loop_
 _atom_site_type_symbol
 _atom_site_label
 _atom_site_symmetry_multiplicity
 _atom_site_fract_x
 _atom_site_fract_y
 _atom_site_fract_z
 _atom_site_occupancy
  H  H0  1  0.390986  0.271738  0.762640  1
  H  H1  1  0.609014  0.771738  0.737360  1
  H  H2  1  0.609014  0.728262  0.237360  1
  H  H3  1  0.390986  0.228262  0.262640  1
  H  H4  1  0.589623  0.896444  0.182504  1
  H  H5  1  0.410377  0.396444  0.317496  1
  H  H6  1  0.645789  0.166197  0.768516  1
  H  H7  1  0.354211  0.666197  0.731484  1
  H  H8  1  0.354211  0.833803  0.231484  1
  H  H9  1  0.645789  0.333803  0.268516  1
  H  H10  1  0.410377  0.103556  0.817496  1
  H  H11  1  0.589623  0.603556  0.682504  1
  Cl  Cl12  1  0.932210  0.968334  0.719301  1
  Cl  Cl13  1  0.067790  0.468334  0.780699  1
  Cl  Cl14  1  0.067790  0.031666  0.280699  1
  Cl  Cl15  1  0.932210  0.531666  0.219301  1
  O  O16  1  0.847359  0.116853  0.696079  1
  O  O17  1  0.758073  0.037070  0.185321  1
  O  O18  1  0.758073  0.462930  0.685321  1
  O  O19  1  0.241927  0.537070  0.314679  1
  O  O20  1  0.822055  0.599580  0.321056  1
  O  O21  1  0.177945  0.099580  0.178944  1
  O  O22  1  0.177945  0.400420  0.678944  1
  O  O23  1  0.822055  0.900420  0.821056  1
  O  O24  1  0.522698  0.310334  0.320764  1
  O  O25  1  0.477302  0.810334  0.179236  1
  O  O26  1  0.477302  0.689666  0.679236  1
  O  O27  1  0.522698  0.189666  0.820764  1
  O  O28  1  0.152641  0.883147  0.303921  1
  O  O29  1  0.847359  0.383147  0.196079  1
  O  O30  1  0.827988  0.898692  0.559662  1
  O  O31  1  0.172012  0.398692  0.940338  1
  O  O32  1  0.172012  0.101308  0.440338  1
  O  O33  1  0.827988  0.601308  0.059662  1
  O  O34  1  0.241927  0.962930  0.814679  1
  O  O35  1  0.152641  0.616853  0.803921  1
