# generated using pymatgen
data_Ce8SbPd24
_symmetry_space_group_name_H-M   'P 1'
_cell_length_a   8.50164741
_cell_length_b   8.50164741
_cell_length_c   8.50164741
_cell_angle_alpha   90.00000000
_cell_angle_beta   90.00000000
_cell_angle_gamma   90.00000000
_symmetry_Int_Tables_number   1
_chemical_formula_structural   Ce8SbPd24
_chemical_formula_sum   'Ce8 Sb1 Pd24'
_cell_volume   614.48214533
_cell_formula_units_Z   1
loop_
 _symmetry_equiv_pos_site_id
 _symmetry_equiv_pos_as_xyz
  1  'x, y, z'
loop_
 _atom_site_type_symbol
 _atom_site_label
 _atom_site_symmetry_multiplicity
 _atom_site_fract_x
 _atom_site_fract_y
 _atom_site_fract_z
 _atom_site_occupancy
  Ce  Ce0  1  0.752592  0.752592  0.247408  1
  Ce  Ce1  1  0.752592  0.247408  0.752592  1
  Ce  Ce2  1  0.247408  0.752592  0.752592  1
  Ce  Ce3  1  0.752592  0.752592  0.752592  1
  Ce  Ce4  1  0.752592  0.247408  0.247408  1
  Ce  Ce5  1  0.247408  0.247408  0.752592  1
  Ce  Ce6  1  0.247408  0.752592  0.247408  1
  Ce  Ce7  1  0.247408  0.247408  0.247408  1
  Sb  Sb8  1  0.000000  0.000000  0.000000  1
  Pd  Pd9  1  0.000000  0.000000  0.316857  1
  Pd  Pd10  1  0.731849  0.000000  0.500000  1
  Pd  Pd11  1  0.731849  0.500000  0.000000  1
  Pd  Pd12  1  0.500000  0.000000  0.731849  1
  Pd  Pd13  1  0.000000  0.731849  0.500000  1
  Pd  Pd14  1  0.500000  0.000000  0.268151  1
  Pd  Pd15  1  0.000000  0.268151  0.500000  1
  Pd  Pd16  1  0.500000  0.731849  0.000000  1
  Pd  Pd17  1  0.255331  0.500000  0.500000  1
  Pd  Pd18  1  0.500000  0.500000  0.744669  1
  Pd  Pd19  1  0.500000  0.500000  0.255331  1
  Pd  Pd20  1  0.500000  0.255331  0.500000  1
  Pd  Pd21  1  0.500000  0.744669  0.500000  1
  Pd  Pd22  1  0.744669  0.500000  0.500000  1
  Pd  Pd23  1  0.316857  0.000000  0.000000  1
  Pd  Pd24  1  0.000000  0.000000  0.683143  1
  Pd  Pd25  1  0.000000  0.500000  0.268151  1
  Pd  Pd26  1  0.000000  0.316857  0.000000  1
  Pd  Pd27  1  0.000000  0.683143  0.000000  1
  Pd  Pd28  1  0.683143  0.000000  0.000000  1
  Pd  Pd29  1  0.268151  0.500000  0.000000  1
  Pd  Pd30  1  0.268151  0.000000  0.500000  1
  Pd  Pd31  1  0.000000  0.500000  0.731849  1
  Pd  Pd32  1  0.500000  0.268151  0.000000  1
