# generated using pymatgen
data_K2Cr2Cd(H2O5)2
_symmetry_space_group_name_H-M   'P 1'
_cell_length_a   6.04453651
_cell_length_b   6.50927462
_cell_length_c   7.74458516
_cell_angle_alpha   109.82949825
_cell_angle_beta   96.47424861
_cell_angle_gamma   109.87010874
_symmetry_Int_Tables_number   1
_chemical_formula_structural   K2Cr2Cd(H2O5)2
_chemical_formula_sum   'K2 Cr2 Cd1 H4 O10'
_cell_volume   260.47130575
_cell_formula_units_Z   1
loop_
 _symmetry_equiv_pos_site_id
 _symmetry_equiv_pos_as_xyz
  1  'x, y, z'
loop_
 _atom_site_type_symbol
 _atom_site_label
 _atom_site_symmetry_multiplicity
 _atom_site_fract_x
 _atom_site_fract_y
 _atom_site_fract_z
 _atom_site_occupancy
  K  K0  1  0.107496  0.461106  0.244171  1
  K  K1  1  0.892504  0.538894  0.755829  1
  Cr  Cr2  1  0.436107  0.109040  0.240203  1
  Cr  Cr3  1  0.563893  0.890960  0.759797  1
  Cd  Cd4  1  0.000000  0.000000  0.000000  1
  H  H5  1  0.721149  0.726459  0.400519  1
  H  H6  1  0.278851  0.273541  0.599481  1
  H  H7  1  0.621732  0.536442  0.313742  1
  H  H8  1  0.378268  0.463558  0.686258  1
  O  O9  1  0.776810  0.684751  0.287540  1
  O  O10  1  0.275577  0.823600  0.367973  1
  O  O11  1  0.724423  0.176400  0.632027  1
  O  O12  1  0.386418  0.260732  0.379468  1
  O  O13  1  0.613582  0.739268  0.620532  1
  O  O14  1  0.324249  0.177460  0.085899  1
  O  O15  1  0.675751  0.822540  0.914101  1
  O  O16  1  0.766573  0.198513  0.118679  1
  O  O17  1  0.233427  0.801487  0.881321  1
  O  O18  1  0.223190  0.315249  0.712460  1
