# generated using pymatgen
data_Li3Sn2(PO4)3
_symmetry_space_group_name_H-M   'P 1'
_cell_length_a   8.73757440
_cell_length_b   9.33823807
_cell_length_c   15.51553436
_cell_angle_alpha   90.00000000
_cell_angle_beta   123.79202610
_cell_angle_gamma   90.00000000
_symmetry_Int_Tables_number   1
_chemical_formula_structural   Li3Sn2(PO4)3
_chemical_formula_sum   'Li12 Sn8 P12 O48'
_cell_volume   1052.09735498
_cell_formula_units_Z   4
loop_
 _symmetry_equiv_pos_site_id
 _symmetry_equiv_pos_as_xyz
  1  'x, y, z'
loop_
 _atom_site_type_symbol
 _atom_site_label
 _atom_site_symmetry_multiplicity
 _atom_site_fract_x
 _atom_site_fract_y
 _atom_site_fract_z
 _atom_site_occupancy
  Li  Li0  1  0.719451  0.473498  0.641972  1
  Li  Li1  1  0.383079  0.917957  0.312132  1
  Li  Li2  1  0.007321  0.234110  0.803013  1
  Li  Li3  1  0.992679  0.734110  0.696987  1
  Li  Li4  1  0.616921  0.417957  0.187868  1
  Li  Li5  1  0.280549  0.973498  0.858028  1
  Li  Li6  1  0.719451  0.026502  0.141972  1
  Li  Li7  1  0.383079  0.582043  0.812132  1
  Li  Li8  1  0.007321  0.265890  0.303013  1
  Li  Li9  1  0.992679  0.765890  0.196987  1
  Li  Li10  1  0.616921  0.082043  0.687868  1
  Li  Li11  1  0.280549  0.526502  0.358028  1
  Sn  Sn12  1  0.130456  0.547371  0.910227  1
  Sn  Sn13  1  0.349343  0.964700  0.102632  1
  Sn  Sn14  1  0.650657  0.464700  0.397368  1
  Sn  Sn15  1  0.869544  0.047371  0.589773  1
  Sn  Sn16  1  0.130456  0.952629  0.410227  1
  Sn  Sn17  1  0.349343  0.535300  0.602632  1
  Sn  Sn18  1  0.650657  0.035300  0.897368  1
  Sn  Sn19  1  0.869544  0.452629  0.089773  1
  P  P20  1  0.564852  0.738218  0.512377  1
  P  P21  1  0.961166  0.910143  0.855653  1
  P  P22  1  0.297661  0.634876  0.180031  1
  P  P23  1  0.702339  0.134876  0.319969  1
  P  P24  1  0.038834  0.410143  0.644347  1
  P  P25  1  0.435148  0.238218  0.987623  1
  P  P26  1  0.564852  0.761782  0.012377  1
  P  P27  1  0.961166  0.589857  0.355653  1
  P  P28  1  0.297661  0.865124  0.680031  1
  P  P29  1  0.702339  0.365124  0.819969  1
  P  P30  1  0.038834  0.089857  0.144347  1
  P  P31  1  0.435148  0.261782  0.487623  1
  O  O32  1  0.580579  0.144201  0.549023  1
  O  O33  1  0.819102  0.384916  0.774608  1
  O  O34  1  0.453499  0.340952  0.403748  1
  O  O35  1  0.145044  0.088483  0.090355  1
  O  O36  1  0.523528  0.624411  0.426825  1
  O  O37  1  0.897459  0.034055  0.776751  1
  O  O38  1  0.191352  0.593974  0.065645  1
  O  O39  1  0.949143  0.763482  0.808286  1
  O  O40  1  0.347870  0.799670  0.191857  1
  O  O41  1  0.762799  0.792161  0.568109  1
  O  O42  1  0.174753  0.934935  0.942359  1
  O  O43  1  0.478379  0.542333  0.240961  1
  O  O44  1  0.521621  0.042333  0.259039  1
  O  O45  1  0.825247  0.434935  0.557641  1
  O  O46  1  0.237201  0.292161  0.931891  1
  O  O47  1  0.652130  0.299670  0.308143  1
  O  O48  1  0.050857  0.263482  0.691714  1
  O  O49  1  0.808648  0.093974  0.434355  1
  O  O50  1  0.102541  0.534055  0.723249  1
  O  O51  1  0.476472  0.124411  0.073175  1
  O  O52  1  0.854956  0.588483  0.409645  1
  O  O53  1  0.546501  0.840952  0.096252  1
  O  O54  1  0.180898  0.884916  0.725392  1
  O  O55  1  0.419421  0.644201  0.950977  1
  O  O56  1  0.580579  0.355799  0.049023  1
  O  O57  1  0.819102  0.115084  0.274608  1
  O  O58  1  0.453499  0.159048  0.903748  1
  O  O59  1  0.145044  0.411517  0.590355  1
  O  O60  1  0.523528  0.875589  0.926825  1
  O  O61  1  0.897459  0.465945  0.276751  1
  O  O62  1  0.191352  0.906026  0.565645  1
  O  O63  1  0.949143  0.736518  0.308286  1
  O  O64  1  0.347870  0.700330  0.691857  1
  O  O65  1  0.762799  0.707839  0.068109  1
  O  O66  1  0.174753  0.565065  0.442359  1
  O  O67  1  0.478379  0.957667  0.740961  1
  O  O68  1  0.521621  0.457667  0.759039  1
  O  O69  1  0.825247  0.065065  0.057641  1
  O  O70  1  0.237201  0.207839  0.431891  1
  O  O71  1  0.652130  0.200330  0.808143  1
  O  O72  1  0.050857  0.236518  0.191714  1
  O  O73  1  0.808648  0.406026  0.934355  1
  O  O74  1  0.102541  0.965945  0.223249  1
  O  O75  1  0.476472  0.375589  0.573175  1
  O  O76  1  0.854956  0.911517  0.909645  1
  O  O77  1  0.546501  0.659048  0.596252  1
  O  O78  1  0.180898  0.615084  0.225392  1
  O  O79  1  0.419421  0.855799  0.450977  1
