# generated using pymatgen
data_Y5Si3
_symmetry_space_group_name_H-M   'P 1'
_cell_length_a   8.45936543
_cell_length_b   8.45936543
_cell_length_c   6.38759650
_cell_angle_alpha   90.00000000
_cell_angle_beta   90.00000000
_cell_angle_gamma   120.00000000
_symmetry_Int_Tables_number   1
_chemical_formula_structural   Y5Si3
_chemical_formula_sum   'Y10 Si6'
_cell_volume   395.86187621
_cell_formula_units_Z   2
loop_
 _symmetry_equiv_pos_site_id
 _symmetry_equiv_pos_as_xyz
  1  'x, y, z'
loop_
 _atom_site_type_symbol
 _atom_site_label
 _atom_site_symmetry_multiplicity
 _atom_site_fract_x
 _atom_site_fract_y
 _atom_site_fract_z
 _atom_site_occupancy
  Y  Y0  1  0.000000  0.756633  0.750000  1
  Y  Y1  1  0.000000  0.243367  0.250000  1
  Y  Y2  1  0.756633  0.756633  0.250000  1
  Y  Y3  1  0.756633  0.000000  0.750000  1
  Y  Y4  1  0.243367  0.243367  0.750000  1
  Y  Y5  1  0.243367  0.000000  0.250000  1
  Y  Y6  1  0.333333  0.666667  0.500000  1
  Y  Y7  1  0.666667  0.333333  0.000000  1
  Y  Y8  1  0.666667  0.333333  0.500000  1
  Y  Y9  1  0.333333  0.666667  0.000000  1
  Si  Si10  1  0.394389  0.000000  0.750000  1
  Si  Si11  1  0.394389  0.394389  0.250000  1
  Si  Si12  1  0.000000  0.605611  0.250000  1
  Si  Si13  1  0.000000  0.394389  0.750000  1
  Si  Si14  1  0.605611  0.605611  0.750000  1
  Si  Si15  1  0.605611  0.000000  0.250000  1
