# generated using pymatgen
data_Ca2RuO4
_symmetry_space_group_name_H-M   'P 1'
_cell_length_a   5.41167959
_cell_length_b   5.59427603
_cell_length_c   12.03622416
_cell_angle_alpha   90.00000000
_cell_angle_beta   90.00000000
_cell_angle_gamma   90.00000000
_symmetry_Int_Tables_number   1
_chemical_formula_structural   Ca2RuO4
_chemical_formula_sum   'Ca8 Ru4 O16'
_cell_volume   364.38981872
_cell_formula_units_Z   4
loop_
 _symmetry_equiv_pos_site_id
 _symmetry_equiv_pos_as_xyz
  1  'x, y, z'
loop_
 _atom_site_type_symbol
 _atom_site_label
 _atom_site_symmetry_multiplicity
 _atom_site_fract_x
 _atom_site_fract_y
 _atom_site_fract_z
 _atom_site_occupancy
  Ca  Ca0  1  0.507488  0.057700  0.150407  1
  Ca  Ca1  1  0.007488  0.442300  0.849593  1
  Ca  Ca2  1  0.492512  0.557700  0.349593  1
  Ca  Ca3  1  0.992512  0.942300  0.650407  1
  Ca  Ca4  1  0.492512  0.942300  0.849593  1
  Ca  Ca5  1  0.992512  0.557700  0.150407  1
  Ca  Ca6  1  0.507488  0.442300  0.650407  1
  Ca  Ca7  1  0.007488  0.057700  0.349593  1
  Ru  Ru8  1  0.500000  0.000000  0.500000  1
  Ru  Ru9  1  0.000000  0.500000  0.500000  1
  Ru  Ru10  1  0.500000  0.500000  0.000000  1
  Ru  Ru11  1  0.000000  0.000000  0.000000  1
  O  O12  1  0.696205  0.299465  0.472582  1
  O  O13  1  0.196205  0.200535  0.527418  1
  O  O14  1  0.303795  0.799465  0.027418  1
  O  O15  1  0.803795  0.700535  0.972582  1
  O  O16  1  0.303795  0.700535  0.527418  1
  O  O17  1  0.803795  0.799465  0.472582  1
  O  O18  1  0.696205  0.200535  0.972582  1
  O  O19  1  0.196205  0.299465  0.027418  1
  O  O20  1  0.430496  0.977428  0.333218  1
  O  O21  1  0.930496  0.522572  0.666782  1
  O  O22  1  0.569504  0.477428  0.166782  1
  O  O23  1  0.069504  0.022572  0.833218  1
  O  O24  1  0.569504  0.022572  0.666782  1
  O  O25  1  0.069504  0.477428  0.333218  1
  O  O26  1  0.430496  0.522572  0.833218  1
  O  O27  1  0.930496  0.977428  0.166782  1
