# generated using pymatgen
data_Nb2Bi2PbO9
_symmetry_space_group_name_H-M   'P 1'
_cell_length_a   12.86882019
_cell_length_b   12.86882019
_cell_length_c   12.86882019
_cell_angle_alpha   162.27669253
_cell_angle_beta   162.27669253
_cell_angle_gamma   25.16655339
_symmetry_Int_Tables_number   1
_chemical_formula_structural   Nb2Bi2PbO9
_chemical_formula_sum   'Nb2 Bi2 Pb1 O9'
_cell_volume   197.44031925
_cell_formula_units_Z   1
loop_
 _symmetry_equiv_pos_site_id
 _symmetry_equiv_pos_as_xyz
  1  'x, y, z'
loop_
 _atom_site_type_symbol
 _atom_site_label
 _atom_site_symmetry_multiplicity
 _atom_site_fract_x
 _atom_site_fract_y
 _atom_site_fract_z
 _atom_site_occupancy
  Nb  Nb0  1  0.412266  0.412266  0.000000  1
  Nb  Nb1  1  0.587734  0.587734  0.000000  1
  Bi  Bi2  1  0.201115  0.201115  0.000000  1
  Bi  Bi3  1  0.798885  0.798885  0.000000  1
  Pb  Pb4  1  0.000000  0.000000  0.000000  1
  O  O5  1  0.579867  0.079867  0.500000  1
  O  O6  1  0.920133  0.420133  0.500000  1
  O  O7  1  0.420133  0.920133  0.500000  1
  O  O8  1  0.079867  0.579867  0.500000  1
  O  O9  1  0.750000  0.250000  0.500000  1
  O  O10  1  0.500000  0.500000  0.000000  1
  O  O11  1  0.663383  0.663383  0.000000  1
  O  O12  1  0.336617  0.336617  0.000000  1
  O  O13  1  0.250000  0.750000  0.500000  1
