# generated using pymatgen
data_K2CeNb5O15
_symmetry_space_group_name_H-M   'P 1'
_cell_length_a   12.78501117
_cell_length_b   12.78501117
_cell_length_c   3.97062801
_cell_angle_alpha   90.00000000
_cell_angle_beta   90.00000000
_cell_angle_gamma   90.00000000
_symmetry_Int_Tables_number   1
_chemical_formula_structural   K2CeNb5O15
_chemical_formula_sum   'K4 Ce2 Nb10 O30'
_cell_volume   649.02499947
_cell_formula_units_Z   2
loop_
 _symmetry_equiv_pos_site_id
 _symmetry_equiv_pos_as_xyz
  1  'x, y, z'
loop_
 _atom_site_type_symbol
 _atom_site_label
 _atom_site_symmetry_multiplicity
 _atom_site_fract_x
 _atom_site_fract_y
 _atom_site_fract_z
 _atom_site_occupancy
  K  K0  1  0.329454  0.829454  0.000000  1
  K  K1  1  0.670546  0.170546  0.000000  1
  K  K2  1  0.170546  0.329454  0.000000  1
  K  K3  1  0.829454  0.670546  0.000000  1
  Ce  Ce4  1  0.000000  0.000000  0.000000  1
  Ce  Ce5  1  0.500000  0.500000  0.000000  1
  Nb  Nb6  1  0.076077  0.786467  0.500000  1
  Nb  Nb7  1  0.286467  0.576077  0.500000  1
  Nb  Nb8  1  0.786467  0.923923  0.500000  1
  Nb  Nb9  1  0.713533  0.423923  0.500000  1
  Nb  Nb10  1  0.576077  0.713533  0.500000  1
  Nb  Nb11  1  0.923923  0.213533  0.500000  1
  Nb  Nb12  1  0.000000  0.500000  0.500000  1
  Nb  Nb13  1  0.423923  0.286467  0.500000  1
  Nb  Nb14  1  0.213533  0.076077  0.500000  1
  Nb  Nb15  1  0.500000  0.000000  0.500000  1
  O  O16  1  0.130748  0.939877  0.500000  1
  O  O17  1  0.576228  0.690138  0.000000  1
  O  O18  1  0.001817  0.342209  0.500000  1
  O  O19  1  0.869252  0.060123  0.500000  1
  O  O20  1  0.060123  0.130748  0.500000  1
  O  O21  1  0.498183  0.842209  0.500000  1
  O  O22  1  0.501817  0.157791  0.500000  1
  O  O23  1  0.190138  0.076228  0.000000  1
  O  O24  1  0.630748  0.560123  0.500000  1
  O  O25  1  0.809862  0.923772  0.000000  1
  O  O26  1  0.657791  0.001817  0.500000  1
  O  O27  1  0.369252  0.439877  0.500000  1
  O  O28  1  0.076228  0.809862  0.000000  1
  O  O29  1  0.439877  0.630748  0.500000  1
  O  O30  1  0.309862  0.576228  0.000000  1
  O  O31  1  0.998183  0.657791  0.500000  1
  O  O32  1  0.939877  0.869252  0.500000  1
  O  O33  1  0.157791  0.498183  0.500000  1
  O  O34  1  0.215737  0.715737  0.500000  1
  O  O35  1  0.000000  0.500000  0.000000  1
  O  O36  1  0.690138  0.423772  0.000000  1
  O  O37  1  0.423772  0.309862  0.000000  1
  O  O38  1  0.842209  0.501817  0.500000  1
  O  O39  1  0.560123  0.369252  0.500000  1
  O  O40  1  0.715737  0.784263  0.500000  1
  O  O41  1  0.500000  0.000000  0.000000  1
  O  O42  1  0.784263  0.284263  0.500000  1
  O  O43  1  0.342209  0.998183  0.500000  1
  O  O44  1  0.284263  0.215737  0.500000  1
  O  O45  1  0.923772  0.190138  0.000000  1
