# generated using pymatgen
data_K4MnBr6
_symmetry_space_group_name_H-M   'P 1'
_cell_length_a   9.09581881
_cell_length_b   9.09581881
_cell_length_c   9.09581881
_cell_angle_alpha   89.82814970
_cell_angle_beta   89.82814970
_cell_angle_gamma   89.82814970
_symmetry_Int_Tables_number   1
_chemical_formula_structural   K4MnBr6
_chemical_formula_sum   'K8 Mn2 Br12'
_cell_volume   752.52260943
_cell_formula_units_Z   2
loop_
 _symmetry_equiv_pos_site_id
 _symmetry_equiv_pos_as_xyz
  1  'x, y, z'
loop_
 _atom_site_type_symbol
 _atom_site_label
 _atom_site_symmetry_multiplicity
 _atom_site_fract_x
 _atom_site_fract_y
 _atom_site_fract_z
 _atom_site_occupancy
  K  K0  1  0.750000  0.750000  0.750000  1
  K  K1  1  0.250000  0.250000  0.250000  1
  K  K2  1  0.750000  0.371786  0.128215  1
  K  K3  1  0.128215  0.750000  0.371785  1
  K  K4  1  0.371786  0.128215  0.750000  1
  K  K5  1  0.250000  0.628215  0.871786  1
  K  K6  1  0.871786  0.250000  0.628214  1
  K  K7  1  0.628214  0.871786  0.250000  1
  Mn  Mn8  1  0.000000  0.000000  0.000000  1
  Mn  Mn9  1  0.500000  0.500000  0.500000  1
  Br  Br10  1  0.931558  0.713031  0.056721  1
  Br  Br11  1  0.056721  0.931558  0.713031  1
  Br  Br12  1  0.713031  0.056721  0.931558  1
  Br  Br13  1  0.568442  0.443279  0.786969  1
  Br  Br14  1  0.786969  0.568442  0.443279  1
  Br  Br15  1  0.443279  0.786969  0.568442  1
  Br  Br16  1  0.068442  0.286969  0.943279  1
  Br  Br17  1  0.943279  0.068442  0.286969  1
  Br  Br18  1  0.286969  0.943279  0.068442  1
  Br  Br19  1  0.431558  0.556721  0.213031  1
  Br  Br20  1  0.213031  0.431558  0.556721  1
  Br  Br21  1  0.556721  0.213031  0.431558  1
