# generated using pymatgen
data_Cr2WO6
_symmetry_space_group_name_H-M   'P 1'
_cell_length_a   4.66667023
_cell_length_b   4.66667023
_cell_length_c   9.05893698
_cell_angle_alpha   90.00000000
_cell_angle_beta   90.00000000
_cell_angle_gamma   90.00000000
_symmetry_Int_Tables_number   1
_chemical_formula_structural   Cr2WO6
_chemical_formula_sum   'Cr4 W2 O12'
_cell_volume   197.28381773
_cell_formula_units_Z   2
loop_
 _symmetry_equiv_pos_site_id
 _symmetry_equiv_pos_as_xyz
  1  'x, y, z'
loop_
 _atom_site_type_symbol
 _atom_site_label
 _atom_site_symmetry_multiplicity
 _atom_site_fract_x
 _atom_site_fract_y
 _atom_site_fract_z
 _atom_site_occupancy
  Cr  Cr0  1  0.000000  0.000000  0.334883  1
  Cr  Cr1  1  0.500000  0.500000  0.165117  1
  Cr  Cr2  1  0.500000  0.500000  0.834883  1
  Cr  Cr3  1  0.000000  0.000000  0.665117  1
  W  W4  1  0.000000  0.000000  0.000000  1
  W  W5  1  0.500000  0.500000  0.500000  1
  O  O6  1  0.298279  0.298279  0.000000  1
  O  O7  1  0.201721  0.798279  0.500000  1
  O  O8  1  0.798279  0.201721  0.500000  1
  O  O9  1  0.701721  0.701721  0.000000  1
  O  O10  1  0.694738  0.694738  0.660400  1
  O  O11  1  0.305262  0.305262  0.660400  1
  O  O12  1  0.694738  0.694738  0.339600  1
  O  O13  1  0.194738  0.805262  0.160400  1
  O  O14  1  0.805262  0.194738  0.160400  1
  O  O15  1  0.805262  0.194738  0.839600  1
  O  O16  1  0.305262  0.305262  0.339600  1
  O  O17  1  0.194738  0.805262  0.839600  1
