# generated using pymatgen
data_Ga2P3(HO3)3
_symmetry_space_group_name_H-M   'P 1'
_cell_length_a   8.06471475
_cell_length_b   8.06471475
_cell_length_c   7.36137677
_cell_angle_alpha   90.00000000
_cell_angle_beta   90.00000000
_cell_angle_gamma   120.00000000
_symmetry_Int_Tables_number   1
_chemical_formula_structural   Ga2P3(HO3)3
_chemical_formula_sum   'Ga4 P6 H6 O18'
_cell_volume   414.63666233
_cell_formula_units_Z   2
loop_
 _symmetry_equiv_pos_site_id
 _symmetry_equiv_pos_as_xyz
  1  'x, y, z'
loop_
 _atom_site_type_symbol
 _atom_site_label
 _atom_site_symmetry_multiplicity
 _atom_site_fract_x
 _atom_site_fract_y
 _atom_site_fract_z
 _atom_site_occupancy
  Ga  Ga0  1  0.333333  0.666667  0.549386  1
  Ga  Ga1  1  0.666667  0.333333  0.049386  1
  Ga  Ga2  1  0.666667  0.333333  0.450614  1
  Ga  Ga3  1  0.333333  0.666667  0.950614  1
  P  P4  1  0.951994  0.310569  0.750000  1
  P  P5  1  0.641424  0.951994  0.250000  1
  P  P6  1  0.310569  0.358576  0.250000  1
  P  P7  1  0.689431  0.641424  0.750000  1
  P  P8  1  0.358576  0.048006  0.750000  1
  P  P9  1  0.048006  0.689431  0.250000  1
  H  H10  1  0.818239  0.839250  0.750000  1
  H  H11  1  0.978989  0.818239  0.250000  1
  H  H12  1  0.839250  0.021011  0.250000  1
  H  H13  1  0.160750  0.978989  0.750000  1
  H  H14  1  0.021011  0.181761  0.750000  1
  H  H15  1  0.181761  0.160750  0.250000  1
  O  O16  1  0.130726  0.517315  0.750000  1
  O  O17  1  0.613411  0.130726  0.250000  1
  O  O18  1  0.517315  0.386589  0.250000  1
  O  O19  1  0.482685  0.613411  0.750000  1
  O  O20  1  0.162875  0.729047  0.074679  1
  O  O21  1  0.433828  0.162875  0.574679  1
  O  O22  1  0.729047  0.566172  0.574679  1
  O  O23  1  0.270953  0.433828  0.074679  1
  O  O24  1  0.566172  0.837125  0.074679  1
  O  O25  1  0.837125  0.270953  0.574679  1
  O  O26  1  0.837125  0.270953  0.925321  1
  O  O27  1  0.566172  0.837125  0.425321  1
  O  O28  1  0.270953  0.433828  0.425321  1
  O  O29  1  0.729047  0.566172  0.925321  1
  O  O30  1  0.433828  0.162875  0.925321  1
  O  O31  1  0.162875  0.729047  0.425321  1
  O  O32  1  0.869274  0.482685  0.250000  1
  O  O33  1  0.386589  0.869274  0.750000  1
