# generated using pymatgen
data_MgB3H15O13
_symmetry_space_group_name_H-M   'P 1'
_cell_length_a   6.48815360
_cell_length_b   8.35242915
_cell_length_c   10.72019998
_cell_angle_alpha   106.12000498
_cell_angle_beta   99.09185417
_cell_angle_gamma   109.51239980
_symmetry_Int_Tables_number   1
_chemical_formula_structural   MgB3H15O13
_chemical_formula_sum   'Mg2 B6 H30 O26'
_cell_volume   505.48067485
_cell_formula_units_Z   2
loop_
 _symmetry_equiv_pos_site_id
 _symmetry_equiv_pos_as_xyz
  1  'x, y, z'
loop_
 _atom_site_type_symbol
 _atom_site_label
 _atom_site_symmetry_multiplicity
 _atom_site_fract_x
 _atom_site_fract_y
 _atom_site_fract_z
 _atom_site_occupancy
  Mg  Mg0  1  0.198936  0.347089  0.768959  1
  Mg  Mg1  1  0.801064  0.652911  0.231041  1
  B  B2  1  0.695527  0.017597  0.894718  1
  B  B3  1  0.304473  0.982403  0.105282  1
  B  B4  1  0.497273  0.884635  0.646791  1
  B  B5  1  0.502727  0.115365  0.353209  1
  B  B6  1  0.648332  0.232739  0.774543  1
  B  B7  1  0.351668  0.767261  0.225457  1
  H  H8  1  0.050179  0.727895  0.694819  1
  H  H9  1  0.949821  0.272105  0.305181  1
  H  H10  1  0.835455  0.753793  0.737835  1
  H  H11  1  0.164545  0.246207  0.262165  1
  H  H12  1  0.855601  0.096521  0.093360  1
  H  H13  1  0.144399  0.903479  0.906640  1
  H  H14  1  0.183167  0.724327  0.503705  1
  H  H15  1  0.816833  0.275673  0.496295  1
  H  H16  1  0.593608  0.881258  0.474840  1
  H  H17  1  0.406392  0.118742  0.525160  1
  H  H18  1  0.865441  0.452639  0.742909  1
  H  H19  1  0.134559  0.547361  0.257091  1
  H  H20  1  0.627738  0.467161  0.886679  1
  H  H21  1  0.372262  0.532839  0.113321  1
  H  H22  1  0.027600  0.294388  0.960124  1
  H  H23  1  0.972400  0.705612  0.039876  1
  H  H24  1  0.225953  0.225872  0.977133  1
  H  H25  1  0.774047  0.774128  0.022867  1
  H  H26  1  0.317220  0.689426  0.952956  1
  H  H27  1  0.682780  0.310574  0.047044  1
  H  H28  1  0.425461  0.707467  0.829883  1
  H  H29  1  0.574539  0.292533  0.170117  1
  H  H30  1  0.248133  0.521684  0.583371  1
  H  H31  1  0.751867  0.478316  0.416629  1
  H  H32  1  0.289211  0.334151  0.530394  1
  H  H33  1  0.710789  0.665849  0.469606  1
  H  H34  1  0.200209  0.030551  0.664874  1
  H  H35  1  0.799791  0.969449  0.335126  1
  H  H36  1  0.922435  0.983882  0.625625  1
  H  H37  1  0.077565  0.016118  0.374375  1
  O  O38  1  0.960359  0.716713  0.761514  1
  O  O39  1  0.039641  0.283287  0.238486  1
  O  O40  1  0.760602  0.985729  0.011579  1
  O  O41  1  0.239398  0.014271  0.988421  1
  O  O42  1  0.595607  0.869251  0.776646  1
  O  O43  1  0.404393  0.130749  0.223354  1
  O  O44  1  0.261177  0.739441  0.594816  1
  O  O45  1  0.738823  0.260559  0.405184  1
  O  O46  1  0.639273  0.848986  0.554802  1
  O  O47  1  0.360727  0.151014  0.445198  1
  O  O48  1  0.488659  0.063741  0.667509  1
  O  O49  1  0.511341  0.936259  0.332491  1
  O  O50  1  0.733925  0.191868  0.899109  1
  O  O51  1  0.266075  0.808132  0.100891  1
  O  O52  1  0.857309  0.331072  0.737912  1
  O  O53  1  0.142691  0.668928  0.262088  1
  O  O54  1  0.529194  0.352582  0.810755  1
  O  O55  1  0.470806  0.647418  0.189245  1
  O  O56  1  0.192442  0.329905  0.966591  1
  O  O57  1  0.807558  0.670095  0.033409  1
  O  O58  1  0.334505  0.620361  0.866809  1
  O  O59  1  0.665495  0.379639  0.133191  1
  O  O60  1  0.215380  0.398463  0.588544  1
  O  O61  1  0.784620  0.601537  0.411456  1
  O  O62  1  0.078537  0.073470  0.681821  1
  O  O63  1  0.921463  0.926530  0.318179  1
