# generated using pymatgen
data_AlBP2H5NO9
_symmetry_space_group_name_H-M   'P 1'
_cell_length_a   9.39488427
_cell_length_b   8.48483335
_cell_length_c   9.55394478
_cell_angle_alpha   90.00000000
_cell_angle_beta   104.66502515
_cell_angle_gamma   90.00000000
_symmetry_Int_Tables_number   1
_chemical_formula_structural   AlBP2H5NO9
_chemical_formula_sum   'Al4 B4 P8 H20 N4 O36'
_cell_volume   736.77291093
_cell_formula_units_Z   4
loop_
 _symmetry_equiv_pos_site_id
 _symmetry_equiv_pos_as_xyz
  1  'x, y, z'
loop_
 _atom_site_type_symbol
 _atom_site_label
 _atom_site_symmetry_multiplicity
 _atom_site_fract_x
 _atom_site_fract_y
 _atom_site_fract_z
 _atom_site_occupancy
  Al  Al0  1  0.203185  0.345288  0.933353  1
  Al  Al1  1  0.796815  0.845288  0.566647  1
  Al  Al2  1  0.796815  0.654712  0.066647  1
  Al  Al3  1  0.203185  0.154712  0.433353  1
  B  B4  1  0.335329  0.948608  0.696816  1
  B  B5  1  0.335329  0.551392  0.196816  1
  B  B6  1  0.664671  0.051392  0.303184  1
  B  B7  1  0.664671  0.448608  0.803184  1
  P  P8  1  0.586372  0.737300  0.273726  1
  P  P9  1  0.586372  0.762700  0.773726  1
  P  P10  1  0.413628  0.262700  0.726274  1
  P  P11  1  0.413628  0.237300  0.226274  1
  P  P12  1  0.927233  0.564515  0.796028  1
  P  P13  1  0.072767  0.064515  0.703972  1
  P  P14  1  0.072767  0.435485  0.203972  1
  P  P15  1  0.927233  0.935485  0.296028  1
  H  H16  1  0.275998  0.656612  0.605956  1
  H  H17  1  0.724002  0.156612  0.894044  1
  H  H18  1  0.724002  0.343388  0.394044  1
  H  H19  1  0.275998  0.843388  0.105956  1
  H  H20  1  0.143493  0.554732  0.654981  1
  H  H21  1  0.856507  0.054732  0.845019  1
  H  H22  1  0.856507  0.445268  0.345019  1
  H  H23  1  0.143493  0.945268  0.154981  1
  H  H24  1  0.185298  0.512594  0.496107  1
  H  H25  1  0.814702  0.012594  0.003893  1
  H  H26  1  0.814702  0.487406  0.503893  1
  H  H27  1  0.185298  0.987406  0.996107  1
  H  H28  1  0.901258  0.315084  0.483670  1
  H  H29  1  0.098742  0.815084  0.016330  1
  H  H30  1  0.385757  0.565479  0.996278  1
  H  H31  1  0.614243  0.065479  0.503722  1
  H  H32  1  0.614243  0.434521  0.003722  1
  H  H33  1  0.385757  0.934521  0.496278  1
  H  H34  1  0.098742  0.684916  0.516330  1
  H  H35  1  0.901258  0.184916  0.983670  1
  N  N36  1  0.175758  0.897881  0.066448  1
  N  N37  1  0.175758  0.602119  0.566448  1
  N  N38  1  0.824242  0.102119  0.933552  1
  N  N39  1  0.824242  0.397881  0.433552  1
  O  O40  1  0.417081  0.697971  0.241004  1
  O  O41  1  0.192046  0.571655  0.229494  1
  O  O42  1  0.192046  0.928345  0.729494  1
  O  O43  1  0.807954  0.428345  0.770506  1
  O  O44  1  0.342063  0.217741  0.065473  1
  O  O45  1  0.657937  0.717741  0.434527  1
  O  O46  1  0.657937  0.782259  0.934527  1
  O  O47  1  0.342063  0.282259  0.565473  1
  O  O48  1  0.342940  0.133822  0.320727  1
  O  O49  1  0.657060  0.633822  0.179273  1
  O  O50  1  0.076512  0.485747  0.804279  1
  O  O51  1  0.342940  0.366178  0.820727  1
  O  O52  1  0.582919  0.197971  0.258996  1
  O  O53  1  0.807954  0.071655  0.270506  1
  O  O54  1  0.417081  0.802029  0.741004  1
  O  O55  1  0.582919  0.302029  0.758996  1
  O  O56  1  0.417492  0.415008  0.272536  1
  O  O57  1  0.582508  0.915008  0.227464  1
  O  O58  1  0.923488  0.985747  0.695721  1
  O  O59  1  0.417492  0.084992  0.772536  1
  O  O60  1  0.304437  0.966406  0.535974  1
  O  O61  1  0.695563  0.466406  0.964026  1
  O  O62  1  0.695563  0.033594  0.464026  1
  O  O63  1  0.304437  0.533594  0.035974  1
  O  O64  1  0.922589  0.843907  0.434026  1
  O  O65  1  0.892262  0.667371  0.658985  1
  O  O66  1  0.107738  0.167371  0.841015  1
  O  O67  1  0.107738  0.332629  0.341015  1
  O  O68  1  0.923488  0.514253  0.195721  1
  O  O69  1  0.076512  0.014253  0.304279  1
  O  O70  1  0.892262  0.832629  0.158985  1
  O  O71  1  0.922589  0.656093  0.934026  1
  O  O72  1  0.077411  0.156093  0.565974  1
  O  O73  1  0.077411  0.343907  0.065974  1
  O  O74  1  0.582508  0.584992  0.727464  1
  O  O75  1  0.657060  0.866178  0.679273  1
