# generated using pymatgen
data_K5ThF9
_symmetry_space_group_name_H-M   'P 1'
_cell_length_a   7.61806415
_cell_length_b   7.61806415
_cell_length_c   10.91048507
_cell_angle_alpha   90.00000000
_cell_angle_beta   90.00000000
_cell_angle_gamma   117.27933661
_symmetry_Int_Tables_number   1
_chemical_formula_structural   K5ThF9
_chemical_formula_sum   'K10 Th2 F18'
_cell_volume   562.76728923
_cell_formula_units_Z   2
loop_
 _symmetry_equiv_pos_site_id
 _symmetry_equiv_pos_as_xyz
  1  'x, y, z'
loop_
 _atom_site_type_symbol
 _atom_site_label
 _atom_site_symmetry_multiplicity
 _atom_site_fract_x
 _atom_site_fract_y
 _atom_site_fract_z
 _atom_site_occupancy
  K  K0  1  0.143083  0.355112  0.900616  1
  K  K1  1  0.856917  0.644888  0.400616  1
  K  K2  1  0.644888  0.856917  0.900616  1
  K  K3  1  0.355112  0.143083  0.400616  1
  K  K4  1  0.123083  0.395291  0.553154  1
  K  K5  1  0.876917  0.604709  0.053154  1
  K  K6  1  0.604709  0.876917  0.553154  1
  K  K7  1  0.395291  0.123083  0.053154  1
  K  K8  1  0.577947  0.422053  0.715920  1
  K  K9  1  0.422053  0.577947  0.215920  1
  Th  Th10  1  0.161802  0.838198  0.749728  1
  Th  Th11  1  0.838198  0.161802  0.249728  1
  F  F12  1  0.495383  0.053627  0.771574  1
  F  F13  1  0.504617  0.946373  0.271574  1
  F  F14  1  0.946373  0.504617  0.771574  1
  F  F15  1  0.053627  0.495383  0.271574  1
  F  F16  1  0.215172  0.150326  0.678641  1
  F  F17  1  0.784828  0.849674  0.178641  1
  F  F18  1  0.849674  0.784828  0.678641  1
  F  F19  1  0.150326  0.215172  0.178641  1
  F  F20  1  0.517483  0.482517  0.959791  1
  F  F21  1  0.482517  0.517483  0.459791  1
  F  F22  1  0.244154  0.755846  0.949292  1
  F  F23  1  0.755846  0.244154  0.449292  1
  F  F24  1  0.959506  0.040494  0.406256  1
  F  F25  1  0.040494  0.959506  0.906256  1
  F  F26  1  0.800389  0.199611  0.041393  1
  F  F27  1  0.199611  0.800389  0.541393  1
  F  F28  1  0.651786  0.348214  0.224149  1
  F  F29  1  0.348214  0.651786  0.724149  1
