# generated using pymatgen
data_K3Nb2Se11
_symmetry_space_group_name_H-M   'P 1'
_cell_length_a   8.12249532
_cell_length_b   9.29574057
_cell_length_c   26.44960477
_cell_angle_alpha   90.00000000
_cell_angle_beta   99.82046580
_cell_angle_gamma   90.00000000
_symmetry_Int_Tables_number   1
_chemical_formula_structural   K3Nb2Se11
_chemical_formula_sum   'K12 Nb8 Se44'
_cell_volume   1967.80412610
_cell_formula_units_Z   4
loop_
 _symmetry_equiv_pos_site_id
 _symmetry_equiv_pos_as_xyz
  1  'x, y, z'
loop_
 _atom_site_type_symbol
 _atom_site_label
 _atom_site_symmetry_multiplicity
 _atom_site_fract_x
 _atom_site_fract_y
 _atom_site_fract_z
 _atom_site_occupancy
  K  K0  1  0.258492  0.732753  0.172366  1
  K  K1  1  0.741508  0.232753  0.327634  1
  K  K2  1  0.741508  0.267247  0.827634  1
  K  K3  1  0.258492  0.767247  0.672366  1
  K  K4  1  0.798875  0.761567  0.014840  1
  K  K5  1  0.201125  0.261567  0.485160  1
  K  K6  1  0.201125  0.238433  0.985160  1
  K  K7  1  0.798875  0.738433  0.514840  1
  K  K8  1  0.753091  0.701366  0.315772  1
  K  K9  1  0.246909  0.201366  0.184228  1
  K  K10  1  0.246909  0.298634  0.684228  1
  K  K11  1  0.753091  0.798634  0.815772  1
  Nb  Nb12  1  0.785646  0.173121  0.079008  1
  Nb  Nb13  1  0.214354  0.673121  0.420992  1
  Nb  Nb14  1  0.214354  0.826879  0.920992  1
  Nb  Nb15  1  0.785646  0.326879  0.579008  1
  Nb  Nb16  1  0.672726  0.458218  0.169240  1
  Nb  Nb17  1  0.327274  0.958218  0.330760  1
  Nb  Nb18  1  0.327274  0.541782  0.830760  1
  Nb  Nb19  1  0.672726  0.041782  0.669240  1
  Se  Se20  1  0.506608  0.461417  0.236143  1
  Se  Se21  1  0.493392  0.961417  0.263857  1
  Se  Se22  1  0.493392  0.538583  0.763857  1
  Se  Se23  1  0.506608  0.038583  0.736143  1
  Se  Se24  1  0.515874  0.602774  0.092297  1
  Se  Se25  1  0.484126  0.102774  0.407703  1
  Se  Se26  1  0.484126  0.397226  0.907703  1
  Se  Se27  1  0.515874  0.897226  0.592297  1
  Se  Se28  1  0.018732  0.011245  0.087156  1
  Se  Se29  1  0.981268  0.511245  0.412844  1
  Se  Se30  1  0.981268  0.988755  0.912844  1
  Se  Se31  1  0.018732  0.488755  0.587156  1
  Se  Se32  1  0.856670  0.691326  0.192635  1
  Se  Se33  1  0.143330  0.191326  0.307365  1
  Se  Se34  1  0.143330  0.308674  0.807365  1
  Se  Se35  1  0.856670  0.808674  0.692635  1
  Se  Se36  1  0.976722  0.466701  0.224258  1
  Se  Se37  1  0.023278  0.966701  0.275742  1
  Se  Se38  1  0.023278  0.533299  0.775742  1
  Se  Se39  1  0.976722  0.033299  0.724258  1
  Se  Se40  1  0.565041  0.034267  0.121865  1
  Se  Se41  1  0.434959  0.534267  0.378135  1
  Se  Se42  1  0.434959  0.965733  0.878135  1
  Se  Se43  1  0.565041  0.465733  0.621865  1
  Se  Se44  1  0.832519  0.376727  0.015354  1
  Se  Se45  1  0.167481  0.876727  0.484646  1
  Se  Se46  1  0.167481  0.623273  0.984646  1
  Se  Se47  1  0.832519  0.123273  0.515354  1
  Se  Se48  1  0.598777  0.091664  0.991629  1
  Se  Se49  1  0.401223  0.591664  0.508371  1
  Se  Se50  1  0.401223  0.908336  0.008371  1
  Se  Se51  1  0.598777  0.408336  0.491629  1
  Se  Se52  1  0.480266  0.345775  0.091143  1
  Se  Se53  1  0.519734  0.845775  0.408857  1
  Se  Se54  1  0.519734  0.654225  0.908857  1
  Se  Se55  1  0.480266  0.154225  0.591143  1
  Se  Se56  1  0.762136  0.176536  0.178980  1
  Se  Se57  1  0.237864  0.676536  0.321020  1
  Se  Se58  1  0.237864  0.823464  0.821020  1
  Se  Se59  1  0.762136  0.323464  0.678980  1
  Se  Se60  1  0.939146  0.417781  0.104899  1
  Se  Se61  1  0.060854  0.917781  0.395101  1
  Se  Se62  1  0.060854  0.582219  0.895101  1
  Se  Se63  1  0.939146  0.082219  0.604899  1
