# generated using pymatgen
data_PdSO4
_symmetry_space_group_name_H-M   'P 1'
_cell_length_a   4.84341390
_cell_length_b   4.84341390
_cell_length_c   8.02275330
_cell_angle_alpha   84.57908150
_cell_angle_beta   95.42091850
_cell_angle_gamma   108.82264092
_symmetry_Int_Tables_number   1
_chemical_formula_structural   PdSO4
_chemical_formula_sum   'Pd2 S2 O8'
_cell_volume   176.93215019
_cell_formula_units_Z   2
loop_
 _symmetry_equiv_pos_site_id
 _symmetry_equiv_pos_as_xyz
  1  'x, y, z'
loop_
 _atom_site_type_symbol
 _atom_site_label
 _atom_site_symmetry_multiplicity
 _atom_site_fract_x
 _atom_site_fract_y
 _atom_site_fract_z
 _atom_site_occupancy
  Pd  Pd0  1  0.000000  0.500000  0.500000  1
  Pd  Pd1  1  0.500000  0.000000  0.000000  1
  S  S2  1  0.073411  0.073411  0.250000  1
  S  S3  1  0.926589  0.926589  0.750000  1
  O  O4  1  0.769097  0.086808  0.214686  1
  O  O5  1  0.086808  0.769097  0.285314  1
  O  O6  1  0.230903  0.913192  0.785314  1
  O  O7  1  0.913192  0.230903  0.714686  1
  O  O8  1  0.798174  0.752223  0.600612  1
  O  O9  1  0.752223  0.798174  0.899388  1
  O  O10  1  0.201826  0.247778  0.399388  1
  O  O11  1  0.247777  0.201826  0.100612  1
