# generated using pymatgen
data_Na4As2O7
_symmetry_space_group_name_H-M   'P 1'
_cell_length_a   5.96862248
_cell_length_b   5.96862248
_cell_length_c   12.52781518
_cell_angle_alpha   88.61167528
_cell_angle_beta   91.38832472
_cell_angle_gamma   60.96374157
_symmetry_Int_Tables_number   1
_chemical_formula_structural   Na4As2O7
_chemical_formula_sum   'Na8 As4 O14'
_cell_volume   389.75744395
_cell_formula_units_Z   2
loop_
 _symmetry_equiv_pos_site_id
 _symmetry_equiv_pos_as_xyz
  1  'x, y, z'
loop_
 _atom_site_type_symbol
 _atom_site_label
 _atom_site_symmetry_multiplicity
 _atom_site_fract_x
 _atom_site_fract_y
 _atom_site_fract_z
 _atom_site_occupancy
  Na  Na0  1  0.020934  0.335053  0.127825  1
  Na  Na1  1  0.335053  0.020934  0.372175  1
  Na  Na2  1  0.979066  0.664947  0.872175  1
  Na  Na3  1  0.664947  0.979066  0.627825  1
  Na  Na4  1  0.295224  0.676824  0.595104  1
  Na  Na5  1  0.676824  0.295224  0.904896  1
  Na  Na6  1  0.704776  0.323176  0.404896  1
  Na  Na7  1  0.323176  0.704776  0.095104  1
  As  As8  1  0.991710  0.703660  0.360997  1
  As  As9  1  0.703660  0.991710  0.139003  1
  As  As10  1  0.008290  0.296340  0.639003  1
  As  As11  1  0.296340  0.008290  0.860997  1
  O  O12  1  0.555318  0.021620  0.814458  1
  O  O13  1  0.021620  0.555318  0.685542  1
  O  O14  1  0.444682  0.978380  0.185542  1
  O  O15  1  0.978380  0.444682  0.314458  1
  O  O16  1  0.357072  0.712301  0.906035  1
  O  O17  1  0.712301  0.357072  0.593965  1
  O  O18  1  0.642928  0.287699  0.093965  1
  O  O19  1  0.287699  0.642928  0.406035  1
  O  O20  1  0.112122  0.244382  0.943851  1
  O  O21  1  0.244382  0.112122  0.556149  1
  O  O22  1  0.887878  0.755618  0.056149  1
  O  O23  1  0.755618  0.887878  0.443851  1
  O  O24  1  0.934026  0.934026  0.250000  1
  O  O25  1  0.065974  0.065974  0.750000  1
