# generated using pymatgen
data_KCr3H6(SO7)2
_symmetry_space_group_name_H-M   'P 1'
_cell_length_a   7.22951915
_cell_length_b   7.22951915
_cell_length_c   7.22951915
_cell_angle_alpha   61.15216836
_cell_angle_beta   61.15216836
_cell_angle_gamma   61.15216836
_symmetry_Int_Tables_number   1
_chemical_formula_structural   KCr3H6(SO7)2
_chemical_formula_sum   'K1 Cr3 H6 S2 O14'
_cell_volume   274.11266460
_cell_formula_units_Z   1
loop_
 _symmetry_equiv_pos_site_id
 _symmetry_equiv_pos_as_xyz
  1  'x, y, z'
loop_
 _atom_site_type_symbol
 _atom_site_label
 _atom_site_symmetry_multiplicity
 _atom_site_fract_x
 _atom_site_fract_y
 _atom_site_fract_z
 _atom_site_occupancy
  K  K0  1  0.000000  0.000000  0.000000  1
  Cr  Cr1  1  0.500000  0.000000  0.000000  1
  Cr  Cr2  1  0.000000  0.500000  0.000000  1
  Cr  Cr3  1  0.000000  0.000000  0.500000  1
  H  H4  1  0.715179  0.307743  0.307743  1
  H  H5  1  0.307743  0.307743  0.715179  1
  H  H6  1  0.307743  0.715179  0.307743  1
  H  H7  1  0.692257  0.284821  0.692257  1
  H  H8  1  0.284821  0.692257  0.692257  1
  H  H9  1  0.692257  0.692257  0.284821  1
  S  S10  1  0.304369  0.304369  0.304369  1
  S  S11  1  0.695631  0.695631  0.695631  1
  O  O12  1  0.611934  0.611934  0.611934  1
  O  O13  1  0.388066  0.388066  0.388066  1
  O  O14  1  0.834995  0.834995  0.501781  1
  O  O15  1  0.501781  0.834995  0.834995  1
  O  O16  1  0.834995  0.501781  0.834995  1
  O  O17  1  0.165005  0.498219  0.165005  1
  O  O18  1  0.165005  0.165005  0.498219  1
  O  O19  1  0.498219  0.165005  0.165005  1
  O  O20  1  0.737405  0.737405  0.121480  1
  O  O21  1  0.121480  0.737405  0.737405  1
  O  O22  1  0.737405  0.121480  0.737405  1
  O  O23  1  0.262595  0.878520  0.262595  1
  O  O24  1  0.262595  0.262595  0.878520  1
  O  O25  1  0.878520  0.262595  0.262595  1
