# generated using pymatgen
data_Mg17Al12
_symmetry_space_group_name_H-M   'P 1'
_cell_length_a   9.12148564
_cell_length_b   9.12148564
_cell_length_c   9.12148564
_cell_angle_alpha   109.47122063
_cell_angle_beta   109.47122063
_cell_angle_gamma   109.47122063
_symmetry_Int_Tables_number   1
_chemical_formula_structural   Mg17Al12
_chemical_formula_sum   'Mg17 Al12'
_cell_volume   584.21788157
_cell_formula_units_Z   1
loop_
 _symmetry_equiv_pos_site_id
 _symmetry_equiv_pos_as_xyz
  1  'x, y, z'
loop_
 _atom_site_type_symbol
 _atom_site_label
 _atom_site_symmetry_multiplicity
 _atom_site_fract_x
 _atom_site_fract_y
 _atom_site_fract_z
 _atom_site_occupancy
  Mg  Mg0  1  0.000000  0.000000  0.000000  1
  Mg  Mg1  1  0.655801  0.000000  0.000000  1
  Mg  Mg2  1  0.000000  0.655801  0.000000  1
  Mg  Mg3  1  0.000000  0.000000  0.655801  1
  Mg  Mg4  1  0.344199  0.344199  0.344199  1
  Mg  Mg5  1  0.397002  0.683692  0.000000  1
  Mg  Mg6  1  0.713310  0.316308  0.316308  1
  Mg  Mg7  1  0.397002  0.000000  0.683692  1
  Mg  Mg8  1  0.683692  0.397002  1.000000  1
  Mg  Mg9  1  0.000000  0.397002  0.683692  1
  Mg  Mg10  1  0.316308  0.713310  0.316308  1
  Mg  Mg11  1  0.316308  0.316308  0.713310  1
  Mg  Mg12  1  0.000000  0.683692  0.397002  1
  Mg  Mg13  1  0.683692  0.000000  0.397002  1
  Mg  Mg14  1  0.602998  0.602998  0.286690  1
  Mg  Mg15  1  0.286690  0.602998  0.602998  1
  Mg  Mg16  1  0.602998  0.286690  0.602998  1
  Al  Al17  1  0.366445  0.185182  1.000000  1
  Al  Al18  1  0.181263  0.814818  0.814818  1
  Al  Al19  1  0.366445  0.000000  0.185182  1
  Al  Al20  1  0.185182  0.366445  0.000000  1
  Al  Al21  1  0.000000  0.366445  0.185182  1
  Al  Al22  1  0.814818  0.181263  0.814818  1
  Al  Al23  1  0.814818  0.814818  0.181263  1
  Al  Al24  1  0.000000  0.185182  0.366445  1
  Al  Al25  1  0.185182  0.000000  0.366445  1
  Al  Al26  1  0.633555  0.633555  0.818737  1
  Al  Al27  1  0.818737  0.633555  0.633555  1
  Al  Al28  1  0.633555  0.818737  0.633555  1
