# generated using pymatgen
data_K3LiSi4
_symmetry_space_group_name_H-M   'P 1'
_cell_length_a   7.67385400
_cell_length_b   9.78984400
_cell_length_c   12.29516300
_cell_angle_alpha   90.00000000
_cell_angle_beta   90.00000000
_cell_angle_gamma   90.00000000
_symmetry_Int_Tables_number   1
_chemical_formula_structural   K3LiSi4
_chemical_formula_sum   'K12 Li4 Si16'
_cell_volume   923.68436887
_cell_formula_units_Z   4
loop_
 _symmetry_equiv_pos_site_id
 _symmetry_equiv_pos_as_xyz
  1  'x, y, z'
loop_
 _atom_site_type_symbol
 _atom_site_label
 _atom_site_symmetry_multiplicity
 _atom_site_fract_x
 _atom_site_fract_y
 _atom_site_fract_z
 _atom_site_occupancy
  K  K0  1  0.655272  0.250000  0.398906  1
  K  K1  1  0.155272  0.250000  0.101094  1
  K  K2  1  0.344728  0.750000  0.601094  1
  K  K3  1  0.844728  0.750000  0.898906  1
  K  K4  1  0.654025  0.445172  0.693466  1
  K  K5  1  0.154025  0.054828  0.806534  1
  K  K6  1  0.345975  0.945172  0.306534  1
  K  K7  1  0.845975  0.554828  0.193466  1
  K  K8  1  0.345975  0.554828  0.306534  1
  K  K9  1  0.845975  0.945172  0.193466  1
  K  K10  1  0.654025  0.054828  0.693466  1
  K  K11  1  0.154025  0.445172  0.806534  1
  Li  Li12  1  0.500000  0.500000  0.000000  1
  Li  Li13  1  0.000000  0.000000  0.500000  1
  Li  Li14  1  0.500000  0.000000  0.000000  1
  Li  Li15  1  0.000000  0.500000  0.500000  1
  Si  Si16  1  0.361168  0.750000  0.899324  1
  Si  Si17  1  0.861168  0.750000  0.600676  1
  Si  Si18  1  0.638832  0.250000  0.100676  1
  Si  Si19  1  0.138832  0.250000  0.399324  1
  Si  Si20  1  0.715500  0.628507  0.452022  1
  Si  Si21  1  0.215500  0.871493  0.047978  1
  Si  Si22  1  0.284500  0.128507  0.547978  1
  Si  Si23  1  0.784500  0.371493  0.952022  1
  Si  Si24  1  0.011542  0.250000  0.582693  1
  Si  Si25  1  0.511542  0.250000  0.917307  1
  Si  Si26  1  0.988458  0.750000  0.417307  1
  Si  Si27  1  0.488458  0.750000  0.082693  1
  Si  Si28  1  0.215500  0.628507  0.047978  1
  Si  Si29  1  0.715500  0.871493  0.452022  1
  Si  Si30  1  0.784500  0.128507  0.952022  1
  Si  Si31  1  0.284500  0.371493  0.547978  1
