# generated using pymatgen
data_La2Ni12P5
_symmetry_space_group_name_H-M   'P 1'
_cell_length_a   10.92631496
_cell_length_b   3.68750281
_cell_length_c   13.15220278
_cell_angle_alpha   90.00000000
_cell_angle_beta   107.84056278
_cell_angle_gamma   90.00000000
_symmetry_Int_Tables_number   1
_chemical_formula_structural   La2Ni12P5
_chemical_formula_sum   'La4 Ni24 P10'
_cell_volume   504.43093097
_cell_formula_units_Z   2
loop_
 _symmetry_equiv_pos_site_id
 _symmetry_equiv_pos_as_xyz
  1  'x, y, z'
loop_
 _atom_site_type_symbol
 _atom_site_label
 _atom_site_symmetry_multiplicity
 _atom_site_fract_x
 _atom_site_fract_y
 _atom_site_fract_z
 _atom_site_occupancy
  La  La0  1  0.747386  0.250000  0.312049  1
  La  La1  1  0.252614  0.750000  0.687951  1
  La  La2  1  0.778941  0.250000  0.816747  1
  La  La3  1  0.221059  0.750000  0.183253  1
  Ni  Ni4  1  0.572059  0.250000  0.485539  1
  Ni  Ni5  1  0.565718  0.250000  0.051675  1
  Ni  Ni6  1  0.506316  0.750000  0.158986  1
  Ni  Ni7  1  0.493684  0.250000  0.841014  1
  Ni  Ni8  1  0.510795  0.750000  0.349151  1
  Ni  Ni9  1  0.489205  0.250000  0.650849  1
  Ni  Ni10  1  0.434282  0.750000  0.948325  1
  Ni  Ni11  1  0.344098  0.250000  0.364804  1
  Ni  Ni12  1  0.656660  0.750000  0.938460  1
  Ni  Ni13  1  0.343340  0.250000  0.061540  1
  Ni  Ni14  1  0.905465  0.750000  0.195036  1
  Ni  Ni15  1  0.094535  0.250000  0.804964  1
  Ni  Ni16  1  0.919063  0.750000  0.509689  1
  Ni  Ni17  1  0.080937  0.250000  0.490311  1
  Ni  Ni18  1  0.921605  0.750000  0.009696  1
  Ni  Ni19  1  0.078395  0.250000  0.990304  1
  Ni  Ni20  1  0.939439  0.750000  0.703614  1
  Ni  Ni21  1  0.060561  0.250000  0.296386  1
  Ni  Ni22  1  0.786732  0.250000  0.061947  1
  Ni  Ni23  1  0.213268  0.750000  0.938053  1
  Ni  Ni24  1  0.798613  0.250000  0.581529  1
  Ni  Ni25  1  0.201387  0.750000  0.418471  1
  Ni  Ni26  1  0.655902  0.750000  0.635196  1
  Ni  Ni27  1  0.427941  0.750000  0.514461  1
  P  P28  1  0.007391  0.250000  0.628620  1
  P  P29  1  0.992609  0.750000  0.371380  1
  P  P30  1  0.300061  0.250000  0.516131  1
  P  P31  1  0.699939  0.750000  0.483869  1
  P  P32  1  0.451675  0.250000  0.240594  1
  P  P33  1  0.548325  0.750000  0.759406  1
  P  P34  1  0.991891  0.250000  0.121230  1
  P  P35  1  0.008109  0.750000  0.878770  1
  P  P36  1  0.311327  0.250000  0.888046  1
  P  P37  1  0.688673  0.750000  0.111954  1
