# generated using pymatgen
data_HfFeSi2
_symmetry_space_group_name_H-M   'P 1'
_cell_length_a   9.66896799
_cell_length_b   9.66896799
_cell_length_c   9.66896799
_cell_angle_alpha   149.13068413
_cell_angle_beta   133.01753214
_cell_angle_gamma   57.27810051
_symmetry_Int_Tables_number   1
_chemical_formula_structural   HfFeSi2
_chemical_formula_sum   'Hf6 Fe6 Si12'
_cell_volume   336.65161074
_cell_formula_units_Z   6
loop_
 _symmetry_equiv_pos_site_id
 _symmetry_equiv_pos_as_xyz
  1  'x, y, z'
loop_
 _atom_site_type_symbol
 _atom_site_label
 _atom_site_symmetry_multiplicity
 _atom_site_fract_x
 _atom_site_fract_y
 _atom_site_fract_z
 _atom_site_occupancy
  Hf  Hf0  1  0.857322  0.595783  0.261539  1
  Hf  Hf1  1  0.142678  0.404217  0.738461  1
  Hf  Hf2  1  0.665757  0.404217  0.261539  1
  Hf  Hf3  1  0.334243  0.595783  0.738461  1
  Hf  Hf4  1  0.141695  0.141695  0.000000  1
  Hf  Hf5  1  0.858305  0.858305  0.000000  1
  Fe  Fe6  1  0.745199  0.000000  0.745199  1
  Fe  Fe7  1  0.000000  0.000000  0.500000  1
  Fe  Fe8  1  0.500000  0.500000  0.500000  1
  Fe  Fe9  1  0.500000  0.000000  0.000000  1
  Fe  Fe10  1  0.254801  0.000000  0.254801  1
  Fe  Fe11  1  0.000000  0.500000  0.000000  1
  Si  Si12  1  0.488040  0.139308  0.348732  1
  Si  Si13  1  0.511960  0.860692  0.651268  1
  Si  Si14  1  0.209424  0.860692  0.348732  1
  Si  Si15  1  0.790576  0.139308  0.651268  1
  Si  Si16  1  0.702223  0.702223  0.000000  1
  Si  Si17  1  0.297777  0.297777  0.000000  1
  Si  Si18  1  0.500000  0.741404  0.241404  1
  Si  Si19  1  0.500000  0.258596  0.758596  1
  Si  Si20  1  0.000000  0.254360  0.254360  1
  Si  Si21  1  0.214338  0.714338  0.500000  1
  Si  Si22  1  0.000000  0.745640  0.745640  1
  Si  Si23  1  0.785662  0.285662  0.500000  1
