# generated using pymatgen
data_Li3Ti2(PO4)3
_symmetry_space_group_name_H-M   'P 1'
_cell_length_a   8.82884811
_cell_length_b   8.79149142
_cell_length_c   14.96876210
_cell_angle_alpha   90.00000000
_cell_angle_beta   125.25643313
_cell_angle_gamma   90.00000000
_symmetry_Int_Tables_number   1
_chemical_formula_structural   Li3Ti2(PO4)3
_chemical_formula_sum   'Li12 Ti8 P12 O48'
_cell_volume   948.74499486
_cell_formula_units_Z   4
loop_
 _symmetry_equiv_pos_site_id
 _symmetry_equiv_pos_as_xyz
  1  'x, y, z'
loop_
 _atom_site_type_symbol
 _atom_site_label
 _atom_site_symmetry_multiplicity
 _atom_site_fract_x
 _atom_site_fract_y
 _atom_site_fract_z
 _atom_site_occupancy
  Li  Li0  1  0.380656  0.420427  0.303408  1
  Li  Li1  1  0.971831  0.224165  0.678054  1
  Li  Li2  1  0.028169  0.724165  0.821946  1
  Li  Li3  1  0.327147  0.798751  0.241539  1
  Li  Li4  1  0.028169  0.775835  0.321946  1
  Li  Li5  1  0.380656  0.079573  0.803408  1
  Li  Li6  1  0.619344  0.920427  0.196592  1
  Li  Li7  1  0.672853  0.298751  0.258461  1
  Li  Li8  1  0.619344  0.579573  0.696592  1
  Li  Li9  1  0.672853  0.201249  0.758461  1
  Li  Li10  1  0.327147  0.701249  0.741539  1
  Li  Li11  1  0.971831  0.275835  0.178054  1
  Ti  Ti12  1  0.137340  0.039859  0.892028  1
  Ti  Ti13  1  0.862660  0.960141  0.107972  1
  Ti  Ti14  1  0.363120  0.026170  0.607797  1
  Ti  Ti15  1  0.636880  0.973830  0.392203  1
  Ti  Ti16  1  0.137340  0.460141  0.392028  1
  Ti  Ti17  1  0.636880  0.526170  0.892203  1
  Ti  Ti18  1  0.862660  0.539859  0.607972  1
  Ti  Ti19  1  0.363120  0.473830  0.107797  1
  P  P20  1  0.746506  0.883256  0.850148  1
  P  P21  1  0.455949  0.753423  0.992069  1
  P  P22  1  0.544051  0.253423  0.507931  1
  P  P23  1  0.544051  0.246577  0.007931  1
  P  P24  1  0.954858  0.396683  0.850315  1
  P  P25  1  0.746506  0.616744  0.350148  1
  P  P26  1  0.253494  0.383256  0.649852  1
  P  P27  1  0.045142  0.896683  0.649685  1
  P  P28  1  0.045142  0.603317  0.149685  1
  P  P29  1  0.954858  0.103317  0.350315  1
  P  P30  1  0.455949  0.746577  0.492069  1
  P  P31  1  0.253494  0.116744  0.149852  1
  O  O32  1  0.099048  0.406110  0.667375  1
  O  O33  1  0.473539  0.686745  0.903076  1
  O  O34  1  0.223795  0.610716  0.151458  1
  O  O35  1  0.823431  0.589280  0.471578  1
  O  O36  1  0.473539  0.813255  0.403076  1
  O  O37  1  0.872443  0.556573  0.039894  1
  O  O38  1  0.613092  0.633528  0.567883  1
  O  O39  1  0.737238  0.330254  0.566412  1
  O  O40  1  0.535095  0.372303  0.932266  1
  O  O41  1  0.872443  0.943427  0.539894  1
  O  O42  1  0.176569  0.089280  0.028422  1
  O  O43  1  0.099048  0.093890  0.167375  1
  O  O44  1  0.526461  0.313255  0.096924  1
  O  O45  1  0.176569  0.410720  0.528422  1
  O  O46  1  0.411577  0.502659  0.718467  1
  O  O47  1  0.223795  0.889284  0.651458  1
  O  O48  1  0.588423  0.497341  0.281533  1
  O  O49  1  0.088915  0.019668  0.737628  1
  O  O50  1  0.900952  0.593890  0.332625  1
  O  O51  1  0.911085  0.980332  0.262372  1
  O  O52  1  0.386908  0.133528  0.932117  1
  O  O53  1  0.588423  0.002659  0.781533  1
  O  O54  1  0.127557  0.443427  0.960106  1
  O  O55  1  0.464905  0.872303  0.567734  1
  O  O56  1  0.737238  0.169746  0.066412  1
  O  O57  1  0.776205  0.110716  0.348542  1
  O  O58  1  0.823431  0.910720  0.971578  1
  O  O59  1  0.674051  0.782829  0.316826  1
  O  O60  1  0.325949  0.217171  0.683174  1
  O  O61  1  0.900952  0.906110  0.832625  1
  O  O62  1  0.262762  0.669746  0.433588  1
  O  O63  1  0.088915  0.480332  0.237628  1
  O  O64  1  0.526461  0.186745  0.596924  1
  O  O65  1  0.386908  0.366472  0.432117  1
  O  O66  1  0.674051  0.717171  0.816826  1
  O  O67  1  0.127557  0.056573  0.460106  1
  O  O68  1  0.325949  0.282829  0.183174  1
  O  O69  1  0.029710  0.762886  0.188410  1
  O  O70  1  0.911085  0.519668  0.762372  1
  O  O71  1  0.535095  0.127697  0.432266  1
  O  O72  1  0.464905  0.627697  0.067734  1
  O  O73  1  0.262762  0.830254  0.933588  1
  O  O74  1  0.411577  0.997341  0.218467  1
  O  O75  1  0.776205  0.389284  0.848542  1
  O  O76  1  0.970290  0.262886  0.311590  1
  O  O77  1  0.970290  0.237114  0.811590  1
  O  O78  1  0.613092  0.866472  0.067883  1
  O  O79  1  0.029710  0.737114  0.688410  1
