# generated using pymatgen
data_LiBi2(PO4)3
_symmetry_space_group_name_H-M   'P 1'
_cell_length_a   9.17112896
_cell_length_b   9.25915537
_cell_length_c   15.80345835
_cell_angle_alpha   90.00000000
_cell_angle_beta   124.96734494
_cell_angle_gamma   90.00000000
_symmetry_Int_Tables_number   1
_chemical_formula_structural   LiBi2(PO4)3
_chemical_formula_sum   'Li4 Bi8 P12 O48'
_cell_volume   1099.72484998
_cell_formula_units_Z   4
loop_
 _symmetry_equiv_pos_site_id
 _symmetry_equiv_pos_as_xyz
  1  'x, y, z'
loop_
 _atom_site_type_symbol
 _atom_site_label
 _atom_site_symmetry_multiplicity
 _atom_site_fract_x
 _atom_site_fract_y
 _atom_site_fract_z
 _atom_site_occupancy
  Li  Li0  1  0.027104  0.520266  0.819955  1
  Li  Li1  1  0.608666  0.021993  0.820027  1
  Li  Li2  1  0.027104  0.479734  0.319955  1
  Li  Li3  1  0.608666  0.978007  0.320027  1
  Bi  Bi4  1  0.360376  0.783022  0.111188  1
  Bi  Bi5  1  0.627501  0.305966  0.388421  1
  Bi  Bi6  1  0.126694  0.808856  0.377719  1
  Bi  Bi7  1  0.874852  0.278194  0.116712  1
  Bi  Bi8  1  0.360376  0.216978  0.611188  1
  Bi  Bi9  1  0.126694  0.191144  0.877719  1
  Bi  Bi10  1  0.874852  0.721806  0.616712  1
  Bi  Bi11  1  0.627501  0.694034  0.888421  1
  P  P12  1  0.268813  0.848812  0.655061  1
  P  P13  1  0.439338  0.496390  0.995460  1
  P  P14  1  0.268813  0.151188  0.155061  1
  P  P15  1  0.439338  0.503610  0.495460  1
  P  P16  1  0.746267  0.655351  0.348416  1
  P  P17  1  0.044540  0.646599  0.151321  1
  P  P18  1  0.554687  0.006364  0.502459  1
  P  P19  1  0.942162  0.847894  0.849877  1
  P  P20  1  0.942162  0.152106  0.349877  1
  P  P21  1  0.746267  0.344649  0.848416  1
  P  P22  1  0.554687  0.993636  0.002459  1
  P  P23  1  0.044540  0.353401  0.651321  1
  O  O24  1  0.401549  0.899831  0.439238  1
  O  O25  1  0.813050  0.715385  0.455039  1
  O  O26  1  0.654310  0.505704  0.321901  1
  O  O27  1  0.199582  0.803988  0.545181  1
  O  O28  1  0.371070  0.002719  0.187209  1
  O  O29  1  0.896937  0.657412  0.033474  1
  O  O30  1  0.031757  0.499650  0.694701  1
  O  O31  1  0.530305  0.119900  0.565232  1
  O  O32  1  0.036269  0.226840  0.710910  1
  O  O33  1  0.444996  0.611574  0.924461  1
  O  O34  1  0.606512  0.225405  0.775156  1
  O  O35  1  0.371070  0.997281  0.687209  1
  O  O36  1  0.530305  0.880100  0.065232  1
  O  O37  1  0.031757  0.500350  0.194701  1
  O  O38  1  0.573295  0.917868  0.919795  1
  O  O39  1  0.763792  0.153682  0.343125  1
  O  O40  1  0.654310  0.494296  0.821901  1
  O  O41  1  0.257346  0.577663  0.420587  1
  O  O42  1  0.227988  0.643678  0.164392  1
  O  O43  1  0.606512  0.774595  0.275156  1
  O  O44  1  0.401549  0.100169  0.939238  1
  O  O45  1  0.408475  0.728105  0.724109  1
  O  O46  1  0.439551  0.574762  0.083106  1
  O  O47  1  0.936769  0.996554  0.804952  1
  O  O48  1  0.227988  0.356322  0.664392  1
  O  O49  1  0.813050  0.284615  0.955039  1
  O  O50  1  0.257346  0.422337  0.920587  1
  O  O51  1  0.598130  0.605224  0.549334  1
  O  O52  1  0.945127  0.721278  0.786891  1
  O  O53  1  0.731227  0.930606  0.582822  1
  O  O54  1  0.598130  0.394776  0.049334  1
  O  O55  1  0.036269  0.773160  0.210910  1
  O  O56  1  0.408475  0.271895  0.224109  1
  O  O57  1  0.763792  0.846318  0.843125  1
  O  O58  1  0.945127  0.278722  0.286891  1
  O  O59  1  0.896937  0.342588  0.533474  1
  O  O60  1  0.896396  0.357385  0.831959  1
  O  O61  1  0.199582  0.196012  0.045181  1
  O  O62  1  0.121516  0.858810  0.673419  1
  O  O63  1  0.121516  0.141190  0.173419  1
  O  O64  1  0.936769  0.003446  0.304952  1
  O  O65  1  0.103469  0.835078  0.963294  1
  O  O66  1  0.439551  0.425238  0.583106  1
  O  O67  1  0.444996  0.388426  0.424461  1
  O  O68  1  0.103469  0.164922  0.463294  1
  O  O69  1  0.573295  0.082132  0.419795  1
  O  O70  1  0.731227  0.069394  0.082822  1
  O  O71  1  0.896396  0.642615  0.331959  1
