# generated using pymatgen
data_KMnBr3
_symmetry_space_group_name_H-M   'P 1'
_cell_length_a   4.09905193
_cell_length_b   9.46228540
_cell_length_c   15.44821262
_cell_angle_alpha   90.00000000
_cell_angle_beta   90.00000000
_cell_angle_gamma   90.00000000
_symmetry_Int_Tables_number   1
_chemical_formula_structural   KMnBr3
_chemical_formula_sum   'K4 Mn4 Br12'
_cell_volume   599.18054209
_cell_formula_units_Z   4
loop_
 _symmetry_equiv_pos_site_id
 _symmetry_equiv_pos_as_xyz
  1  'x, y, z'
loop_
 _atom_site_type_symbol
 _atom_site_label
 _atom_site_symmetry_multiplicity
 _atom_site_fract_x
 _atom_site_fract_y
 _atom_site_fract_z
 _atom_site_occupancy
  K  K0  1  0.750000  0.568723  0.822996  1
  K  K1  1  0.250000  0.431277  0.177004  1
  K  K2  1  0.750000  0.068723  0.677004  1
  K  K3  1  0.250000  0.931277  0.322996  1
  Mn  Mn4  1  0.250000  0.165305  0.946385  1
  Mn  Mn5  1  0.750000  0.834695  0.053615  1
  Mn  Mn6  1  0.250000  0.665305  0.553615  1
  Mn  Mn7  1  0.750000  0.334695  0.446385  1
  Br  Br8  1  0.250000  0.282947  0.795672  1
  Br  Br9  1  0.750000  0.717053  0.204328  1
  Br  Br10  1  0.250000  0.782947  0.704328  1
  Br  Br11  1  0.750000  0.217053  0.295672  1
  Br  Br12  1  0.750000  0.326165  0.008085  1
  Br  Br13  1  0.250000  0.673835  0.991915  1
  Br  Br14  1  0.750000  0.826165  0.491915  1
  Br  Br15  1  0.250000  0.173835  0.508085  1
  Br  Br16  1  0.250000  0.018972  0.099553  1
  Br  Br17  1  0.750000  0.981028  0.900447  1
  Br  Br18  1  0.250000  0.518972  0.400447  1
  Br  Br19  1  0.750000  0.481028  0.599553  1
