# generated using pymatgen
data_Yb3Sb5O12
_symmetry_space_group_name_H-M   'P 1'
_cell_length_a   9.06431887
_cell_length_b   9.06431887
_cell_length_c   9.06431887
_cell_angle_alpha   109.47122063
_cell_angle_beta   109.47122063
_cell_angle_gamma   109.47122063
_symmetry_Int_Tables_number   1
_chemical_formula_structural   Yb3Sb5O12
_chemical_formula_sum   'Yb6 Sb10 O24'
_cell_volume   573.30223434
_cell_formula_units_Z   2
loop_
 _symmetry_equiv_pos_site_id
 _symmetry_equiv_pos_as_xyz
  1  'x, y, z'
loop_
 _atom_site_type_symbol
 _atom_site_label
 _atom_site_symmetry_multiplicity
 _atom_site_fract_x
 _atom_site_fract_y
 _atom_site_fract_z
 _atom_site_occupancy
  Yb  Yb0  1  0.500000  0.750000  0.250000  1
  Yb  Yb1  1  0.250000  0.500000  0.750000  1
  Yb  Yb2  1  0.250000  0.750000  0.500000  1
  Yb  Yb3  1  0.750000  0.250000  0.500000  1
  Yb  Yb4  1  0.750000  0.500000  0.250000  1
  Yb  Yb5  1  0.500000  0.250000  0.750000  1
  Sb  Sb6  1  0.000000  0.748634  0.748634  1
  Sb  Sb7  1  0.500000  0.000000  0.000000  1
  Sb  Sb8  1  0.000000  0.251366  0.251366  1
  Sb  Sb9  1  0.251366  1.000000  0.251366  1
  Sb  Sb10  1  0.748634  0.000000  0.748634  1
  Sb  Sb11  1  0.000000  0.500000  0.000000  1
  Sb  Sb12  1  0.251366  0.251366  0.000000  1
  Sb  Sb13  1  0.748634  0.748634  0.000000  1
  Sb  Sb14  1  0.000000  0.000000  0.500000  1
  Sb  Sb15  1  0.500000  0.500000  0.500000  1
  O  O16  1  0.783648  0.783648  0.250224  1
  O  O17  1  0.216352  0.000000  0.466576  1
  O  O18  1  0.216352  0.216352  0.749776  1
  O  O19  1  0.749776  0.216352  0.216352  1
  O  O20  1  0.466576  0.250224  0.466576  1
  O  O21  1  0.216352  0.749776  0.216352  1
  O  O22  1  0.533424  0.783648  0.000000  1
  O  O23  1  0.533424  0.749776  0.533424  1
  O  O24  1  0.533424  1.000000  0.783648  1
  O  O25  1  0.466576  0.216352  0.000000  1
  O  O26  1  0.533424  0.533424  0.749776  1
  O  O27  1  0.250224  0.783648  0.783648  1
  O  O28  1  0.000000  0.216352  0.466576  1
  O  O29  1  0.783648  0.250224  0.783648  1
  O  O30  1  0.000000  0.783648  0.533424  1
  O  O31  1  0.000000  0.533424  0.783648  1
  O  O32  1  0.000000  0.466576  0.216352  1
  O  O33  1  0.216352  0.466576  0.000000  1
  O  O34  1  0.783648  0.000000  0.533424  1
  O  O35  1  0.783648  0.533424  0.000000  1
  O  O36  1  0.250224  0.466576  0.466576  1
  O  O37  1  0.466576  0.466576  0.250224  1
  O  O38  1  0.466576  0.000000  0.216352  1
  O  O39  1  0.749776  0.533424  0.533424  1
