# generated using pymatgen
data_Rb3InS3
_symmetry_space_group_name_H-M   'P 1'
_cell_length_a   8.25736332
_cell_length_b   8.25736332
_cell_length_c   8.03505737
_cell_angle_alpha   83.73492409
_cell_angle_beta   96.26507591
_cell_angle_gamma   66.52932513
_symmetry_Int_Tables_number   1
_chemical_formula_structural   Rb3InS3
_chemical_formula_sum   'Rb6 In2 S6'
_cell_volume   492.48840323
_cell_formula_units_Z   2
loop_
 _symmetry_equiv_pos_site_id
 _symmetry_equiv_pos_as_xyz
  1  'x, y, z'
loop_
 _atom_site_type_symbol
 _atom_site_label
 _atom_site_symmetry_multiplicity
 _atom_site_fract_x
 _atom_site_fract_y
 _atom_site_fract_z
 _atom_site_occupancy
  Rb  Rb0  1  0.252777  0.252777  0.000000  1
  Rb  Rb1  1  0.320749  0.320749  0.500000  1
  Rb  Rb2  1  0.887327  0.112673  0.646493  1
  Rb  Rb3  1  0.679251  0.679251  0.500000  1
  Rb  Rb4  1  0.747223  0.747223  0.000000  1
  Rb  Rb5  1  0.112673  0.887327  0.353507  1
  In  In6  1  0.324660  0.675340  0.853369  1
  In  In7  1  0.675340  0.324660  0.146631  1
  S  S8  1  0.654605  0.051714  0.274369  1
  S  S9  1  0.398946  0.601054  0.177171  1
  S  S10  1  0.601054  0.398946  0.822829  1
  S  S11  1  0.345395  0.948286  0.725631  1
  S  S12  1  0.051714  0.654605  0.725631  1
  S  S13  1  0.948286  0.345395  0.274369  1
