# generated using pymatgen
data_ThFe5P3
_symmetry_space_group_name_H-M   'P 1'
_cell_length_a   3.72633814
_cell_length_b   10.41676838
_cell_length_c   11.91026327
_cell_angle_alpha   90.00000000
_cell_angle_beta   90.00000000
_cell_angle_gamma   90.00000000
_symmetry_Int_Tables_number   1
_chemical_formula_structural   ThFe5P3
_chemical_formula_sum   'Th4 Fe20 P12'
_cell_volume   462.31355880
_cell_formula_units_Z   4
loop_
 _symmetry_equiv_pos_site_id
 _symmetry_equiv_pos_as_xyz
  1  'x, y, z'
loop_
 _atom_site_type_symbol
 _atom_site_label
 _atom_site_symmetry_multiplicity
 _atom_site_fract_x
 _atom_site_fract_y
 _atom_site_fract_z
 _atom_site_occupancy
  Th  Th0  1  0.750000  0.419198  0.296718  1
  Th  Th1  1  0.250000  0.580802  0.703282  1
  Th  Th2  1  0.250000  0.919198  0.203282  1
  Th  Th3  1  0.750000  0.080802  0.796718  1
  Fe  Fe4  1  0.750000  0.379182  0.800468  1
  Fe  Fe5  1  0.750000  0.294289  0.011447  1
  Fe  Fe6  1  0.750000  0.596515  0.510789  1
  Fe  Fe7  1  0.250000  0.705711  0.988553  1
  Fe  Fe8  1  0.250000  0.222037  0.174064  1
  Fe  Fe9  1  0.250000  0.620818  0.199532  1
  Fe  Fe10  1  0.250000  0.096515  0.989211  1
  Fe  Fe11  1  0.250000  0.277963  0.674064  1
  Fe  Fe12  1  0.250000  0.879182  0.699532  1
  Fe  Fe13  1  0.750000  0.903485  0.010789  1
  Fe  Fe14  1  0.250000  0.403485  0.489211  1
  Fe  Fe15  1  0.750000  0.965790  0.566700  1
  Fe  Fe16  1  0.750000  0.534210  0.066700  1
  Fe  Fe17  1  0.250000  0.794289  0.488553  1
  Fe  Fe18  1  0.750000  0.777963  0.825936  1
  Fe  Fe19  1  0.750000  0.120818  0.300468  1
  Fe  Fe20  1  0.250000  0.465790  0.933300  1
  Fe  Fe21  1  0.750000  0.722037  0.325936  1
  Fe  Fe22  1  0.750000  0.205711  0.511447  1
  Fe  Fe23  1  0.250000  0.034210  0.433300  1
  P  P24  1  0.250000  0.077427  0.609488  1
  P  P25  1  0.750000  0.725620  0.131033  1
  P  P26  1  0.750000  0.922573  0.390512  1
  P  P27  1  0.250000  0.422573  0.109488  1
  P  P28  1  0.750000  0.577427  0.890512  1
  P  P29  1  0.250000  0.225620  0.368967  1
  P  P30  1  0.250000  0.892489  0.896370  1
  P  P31  1  0.250000  0.607511  0.396370  1
  P  P32  1  0.250000  0.274380  0.868967  1
  P  P33  1  0.750000  0.392489  0.603630  1
  P  P34  1  0.750000  0.107511  0.103630  1
  P  P35  1  0.750000  0.774380  0.631033  1
