# generated using pymatgen
data_KCu4(AsO4)3
_symmetry_space_group_name_H-M   'P 1'
_cell_length_a   8.84231588
_cell_length_b   8.84231588
_cell_length_c   7.54950760
_cell_angle_alpha   70.28960961
_cell_angle_beta   109.71039039
_cell_angle_gamma   89.32134447
_symmetry_Int_Tables_number   1
_chemical_formula_structural   KCu4(AsO4)3
_chemical_formula_sum   'K2 Cu8 As6 O24'
_cell_volume   517.84825267
_cell_formula_units_Z   2
loop_
 _symmetry_equiv_pos_site_id
 _symmetry_equiv_pos_as_xyz
  1  'x, y, z'
loop_
 _atom_site_type_symbol
 _atom_site_label
 _atom_site_symmetry_multiplicity
 _atom_site_fract_x
 _atom_site_fract_y
 _atom_site_fract_z
 _atom_site_occupancy
  K  K0  1  0.012324  0.012324  0.750000  1
  K  K1  1  0.987676  0.987676  0.250000  1
  Cu  Cu2  1  0.067655  0.617661  0.644404  1
  Cu  Cu3  1  0.505085  0.505085  0.250000  1
  Cu  Cu4  1  0.737472  0.737472  0.750000  1
  Cu  Cu5  1  0.382339  0.932345  0.144404  1
  Cu  Cu6  1  0.262528  0.262528  0.250000  1
  Cu  Cu7  1  0.494915  0.494915  0.750000  1
  Cu  Cu8  1  0.617661  0.067655  0.855596  1
  Cu  Cu9  1  0.932345  0.382339  0.355596  1
  As  As10  1  0.886769  0.352124  0.876120  1
  As  As11  1  0.647876  0.113231  0.376120  1
  As  As12  1  0.352124  0.886769  0.623880  1
  As  As13  1  0.723717  0.723717  0.250000  1
  As  As14  1  0.276283  0.276283  0.750000  1
  As  As15  1  0.113231  0.647876  0.123880  1
  O  O16  1  0.814467  0.174480  0.867373  1
  O  O17  1  0.185533  0.825520  0.132627  1
  O  O18  1  0.027509  0.583666  0.307025  1
  O  O19  1  0.416334  0.972491  0.807025  1
  O  O20  1  0.274106  0.499376  0.179893  1
  O  O21  1  0.276522  0.480852  0.741276  1
  O  O22  1  0.500624  0.725894  0.679893  1
  O  O23  1  0.725894  0.500624  0.820107  1
  O  O24  1  0.251080  0.155293  0.966428  1
  O  O25  1  0.825520  0.185533  0.367373  1
  O  O26  1  0.723478  0.519148  0.258724  1
  O  O27  1  0.979048  0.685973  0.880439  1
  O  O28  1  0.685973  0.979048  0.619561  1
  O  O29  1  0.314027  0.020952  0.380439  1
  O  O30  1  0.748920  0.844707  0.033572  1
  O  O31  1  0.499376  0.274106  0.320107  1
  O  O32  1  0.844707  0.748920  0.466428  1
  O  O33  1  0.480852  0.276522  0.758724  1
  O  O34  1  0.972491  0.416334  0.692975  1
  O  O35  1  0.020952  0.314027  0.119561  1
  O  O36  1  0.583666  0.027509  0.192975  1
  O  O37  1  0.155293  0.251080  0.533572  1
  O  O38  1  0.519148  0.723478  0.241276  1
  O  O39  1  0.174480  0.814467  0.632627  1
