# generated using pymatgen
data_K2AlH2OF5
_symmetry_space_group_name_H-M   'P 1'
_cell_length_a   6.21545940
_cell_length_b   6.21545940
_cell_length_c   7.60903589
_cell_angle_alpha   90.00000000
_cell_angle_beta   90.00000000
_cell_angle_gamma   98.60200205
_symmetry_Int_Tables_number   1
_chemical_formula_structural   K2AlH2OF5
_chemical_formula_sum   'K4 Al2 H4 O2 F10'
_cell_volume   290.64516585
_cell_formula_units_Z   2
loop_
 _symmetry_equiv_pos_site_id
 _symmetry_equiv_pos_as_xyz
  1  'x, y, z'
loop_
 _atom_site_type_symbol
 _atom_site_label
 _atom_site_symmetry_multiplicity
 _atom_site_fract_x
 _atom_site_fract_y
 _atom_site_fract_z
 _atom_site_occupancy
  K  K0  1  0.076145  0.497172  0.250000  1
  K  K1  1  0.923855  0.502828  0.750000  1
  K  K2  1  0.497172  0.076145  0.250000  1
  K  K3  1  0.502828  0.923855  0.750000  1
  Al  Al4  1  0.000000  0.000000  0.500000  1
  Al  Al5  1  0.000000  0.000000  0.000000  1
  H  H6  1  0.607983  0.607983  0.148075  1
  H  H7  1  0.392017  0.392017  0.648075  1
  H  H8  1  0.392017  0.392017  0.851925  1
  H  H9  1  0.607983  0.607983  0.351925  1
  O  O10  1  0.532873  0.532873  0.250000  1
  O  O11  1  0.467127  0.467127  0.750000  1
  F  F12  1  0.994436  0.994436  0.750000  1
  F  F13  1  0.005564  0.005564  0.250000  1
  F  F14  1  0.808999  0.191001  1.000000  1
  F  F15  1  0.191001  0.808999  0.500000  1
  F  F16  1  0.191001  0.808999  1.000000  1
  F  F17  1  0.808999  0.191001  0.500000  1
  F  F18  1  0.775866  0.775866  0.002286  1
  F  F19  1  0.224134  0.224134  0.502286  1
  F  F20  1  0.224134  0.224134  0.997714  1
  F  F21  1  0.775866  0.775866  0.497714  1
