# generated using pymatgen
data_LiCu2P
_symmetry_space_group_name_H-M   'P 1'
_cell_length_a   4.02522169
_cell_length_b   4.02522169
_cell_length_c   7.48202524
_cell_angle_alpha   90.00000000
_cell_angle_beta   90.00000000
_cell_angle_gamma   120.00000000
_symmetry_Int_Tables_number   1
_chemical_formula_structural   LiCu2P
_chemical_formula_sum   'Li2 Cu4 P2'
_cell_volume   104.98552126
_cell_formula_units_Z   2
loop_
 _symmetry_equiv_pos_site_id
 _symmetry_equiv_pos_as_xyz
  1  'x, y, z'
loop_
 _atom_site_type_symbol
 _atom_site_label
 _atom_site_symmetry_multiplicity
 _atom_site_fract_x
 _atom_site_fract_y
 _atom_site_fract_z
 _atom_site_occupancy
  Li  Li0  1  0.333333  0.666667  0.908146  1
  Li  Li1  1  0.666667  0.333333  0.091854  1
  Cu  Cu2  1  0.666667  0.333333  0.435145  1
  Cu  Cu3  1  0.333333  0.666667  0.564855  1
  Cu  Cu4  1  0.000000  0.000000  0.726414  1
  Cu  Cu5  1  0.000000  0.000000  0.273586  1
  P  P6  1  0.333333  0.666667  0.251335  1
  P  P7  1  0.666667  0.333333  0.748665  1
