# generated using pymatgen
data_Sn4Pt
_symmetry_space_group_name_H-M   'P 1'
_cell_length_a   6.64754192
_cell_length_b   6.64754192
_cell_length_c   6.51897587
_cell_angle_alpha   90.00000000
_cell_angle_beta   90.00000000
_cell_angle_gamma   121.12550654
_symmetry_Int_Tables_number   1
_chemical_formula_structural   Sn4Pt
_chemical_formula_sum   'Sn8 Pt2'
_cell_volume   246.60058709
_cell_formula_units_Z   2
loop_
 _symmetry_equiv_pos_site_id
 _symmetry_equiv_pos_as_xyz
  1  'x, y, z'
loop_
 _atom_site_type_symbol
 _atom_site_label
 _atom_site_symmetry_multiplicity
 _atom_site_fract_x
 _atom_site_fract_y
 _atom_site_fract_z
 _atom_site_occupancy
  Sn  Sn0  1  0.540883  0.791689  0.166626  1
  Sn  Sn1  1  0.459117  0.208311  0.166626  1
  Sn  Sn2  1  0.291689  0.040883  0.666626  1
  Sn  Sn3  1  0.708311  0.959117  0.666626  1
  Sn  Sn4  1  0.040883  0.291689  0.333374  1
  Sn  Sn5  1  0.959117  0.708311  0.333374  1
  Sn  Sn6  1  0.208311  0.459117  0.833374  1
  Sn  Sn7  1  0.791689  0.540883  0.833374  1
  Pt  Pt8  1  0.000000  0.000000  0.000000  1
  Pt  Pt9  1  0.500000  0.500000  0.500000  1
