# generated using pymatgen
data_BaDy2CuO5
_symmetry_space_group_name_H-M   'P 1'
_cell_length_a   5.70539277
_cell_length_b   7.23371512
_cell_length_c   12.26568817
_cell_angle_alpha   90.00000000
_cell_angle_beta   90.00000000
_cell_angle_gamma   90.00000000
_symmetry_Int_Tables_number   1
_chemical_formula_structural   BaDy2CuO5
_chemical_formula_sum   'Ba4 Dy8 Cu4 O20'
_cell_volume   506.21949722
_cell_formula_units_Z   4
loop_
 _symmetry_equiv_pos_site_id
 _symmetry_equiv_pos_as_xyz
  1  'x, y, z'
loop_
 _atom_site_type_symbol
 _atom_site_label
 _atom_site_symmetry_multiplicity
 _atom_site_fract_x
 _atom_site_fract_y
 _atom_site_fract_z
 _atom_site_occupancy
  Ba  Ba0  1  0.250000  0.566541  0.403928  1
  Ba  Ba1  1  0.750000  0.433459  0.596072  1
  Ba  Ba2  1  0.750000  0.066541  0.096072  1
  Ba  Ba3  1  0.250000  0.933459  0.903928  1
  Dy  Dy4  1  0.250000  0.104249  0.573694  1
  Dy  Dy5  1  0.750000  0.895751  0.426306  1
  Dy  Dy6  1  0.750000  0.604249  0.926306  1
  Dy  Dy7  1  0.250000  0.395751  0.073694  1
  Dy  Dy8  1  0.250000  0.388790  0.786799  1
  Dy  Dy9  1  0.750000  0.611210  0.213201  1
  Dy  Dy10  1  0.750000  0.888790  0.713201  1
  Dy  Dy11  1  0.250000  0.111210  0.286799  1
  Cu  Cu12  1  0.250000  0.780269  0.160662  1
  Cu  Cu13  1  0.750000  0.219731  0.839338  1
  Cu  Cu14  1  0.750000  0.280269  0.339338  1
  Cu  Cu15  1  0.250000  0.719731  0.660662  1
  O  O16  1  0.250000  0.416989  0.599416  1
  O  O17  1  0.750000  0.583011  0.400584  1
  O  O18  1  0.750000  0.916989  0.900584  1
  O  O19  1  0.250000  0.083011  0.099416  1
  O  O20  1  0.003722  0.853375  0.271977  1
  O  O21  1  0.503722  0.146625  0.728023  1
  O  O22  1  0.996278  0.353375  0.228023  1
  O  O23  1  0.496278  0.646625  0.771977  1
  O  O24  1  0.996278  0.146625  0.728023  1
  O  O25  1  0.496278  0.853375  0.271977  1
  O  O26  1  0.003722  0.646625  0.771977  1
  O  O27  1  0.503722  0.353375  0.228023  1
  O  O28  1  0.494591  0.660520  0.068345  1
  O  O29  1  0.994591  0.339480  0.931655  1
  O  O30  1  0.505409  0.160519  0.431655  1
  O  O31  1  0.005409  0.839480  0.568345  1
  O  O32  1  0.994591  0.160519  0.431655  1
  O  O33  1  0.494591  0.839480  0.568345  1
  O  O34  1  0.005409  0.660520  0.068345  1
  O  O35  1  0.505409  0.339480  0.931655  1
