# generated using pymatgen
data_Ta2CuO6
_symmetry_space_group_name_H-M   'P 1'
_cell_length_a   4.79461050
_cell_length_b   4.79461050
_cell_length_c   9.16489704
_cell_angle_alpha   90.00000000
_cell_angle_beta   90.00000000
_cell_angle_gamma   90.00000000
_symmetry_Int_Tables_number   1
_chemical_formula_structural   Ta2CuO6
_chemical_formula_sum   'Ta4 Cu2 O12'
_cell_volume   210.68530957
_cell_formula_units_Z   2
loop_
 _symmetry_equiv_pos_site_id
 _symmetry_equiv_pos_as_xyz
  1  'x, y, z'
loop_
 _atom_site_type_symbol
 _atom_site_label
 _atom_site_symmetry_multiplicity
 _atom_site_fract_x
 _atom_site_fract_y
 _atom_site_fract_z
 _atom_site_occupancy
  Ta  Ta0  1  0.000000  0.000000  0.668477  1
  Ta  Ta1  1  0.500000  0.500000  0.168477  1
  Ta  Ta2  1  0.500000  0.500000  0.831523  1
  Ta  Ta3  1  0.000000  0.000000  0.331523  1
  Cu  Cu4  1  0.000000  0.000000  0.000000  1
  Cu  Cu5  1  0.500000  0.500000  0.500000  1
  O  O6  1  0.203979  0.796021  0.824118  1
  O  O7  1  0.703979  0.703979  0.324118  1
  O  O8  1  0.812457  0.187543  0.500000  1
  O  O9  1  0.296021  0.296021  0.675882  1
  O  O10  1  0.796021  0.203979  0.824118  1
  O  O11  1  0.187543  0.812457  0.500000  1
  O  O12  1  0.312457  0.312457  0.000000  1
  O  O13  1  0.687543  0.687543  0.000000  1
  O  O14  1  0.296021  0.296021  0.324118  1
  O  O15  1  0.203979  0.796021  0.175882  1
  O  O16  1  0.703979  0.703979  0.675882  1
  O  O17  1  0.796021  0.203979  0.175882  1
