# generated using pymatgen
data_Te7As2F12
_symmetry_space_group_name_H-M   'P 1'
_cell_length_a   9.95648225
_cell_length_b   11.41946870
_cell_length_c   16.71577338
_cell_angle_alpha   90.00000000
_cell_angle_beta   90.00000000
_cell_angle_gamma   90.00000000
_symmetry_Int_Tables_number   1
_chemical_formula_structural   Te7As2F12
_chemical_formula_sum   'Te28 As8 F48'
_cell_volume   1900.54561246
_cell_formula_units_Z   4
loop_
 _symmetry_equiv_pos_site_id
 _symmetry_equiv_pos_as_xyz
  1  'x, y, z'
loop_
 _atom_site_type_symbol
 _atom_site_label
 _atom_site_symmetry_multiplicity
 _atom_site_fract_x
 _atom_site_fract_y
 _atom_site_fract_z
 _atom_site_occupancy
  Te  Te0  1  0.900146  0.750000  0.488256  1
  Te  Te1  1  0.400146  0.250000  0.011744  1
  Te  Te2  1  0.099854  0.250000  0.511744  1
  Te  Te3  1  0.599854  0.750000  0.988256  1
  Te  Te4  1  0.119605  0.471795  0.627030  1
  Te  Te5  1  0.619605  0.528205  0.872970  1
  Te  Te6  1  0.880395  0.971795  0.372970  1
  Te  Te7  1  0.380395  0.028205  0.127030  1
  Te  Te8  1  0.880395  0.528205  0.372970  1
  Te  Te9  1  0.380395  0.471795  0.127030  1
  Te  Te10  1  0.119605  0.028205  0.627030  1
  Te  Te11  1  0.619605  0.971795  0.872970  1
  Te  Te12  1  0.252326  0.570179  0.501517  1
  Te  Te13  1  0.752326  0.429821  0.998483  1
  Te  Te14  1  0.747674  0.070179  0.498483  1
  Te  Te15  1  0.247674  0.929821  0.001517  1
  Te  Te16  1  0.747674  0.429821  0.498483  1
  Te  Te17  1  0.247674  0.570179  0.001517  1
  Te  Te18  1  0.252326  0.929821  0.501517  1
  Te  Te19  1  0.752326  0.070179  0.998483  1
  Te  Te20  1  0.142557  0.421951  0.385335  1
  Te  Te21  1  0.642557  0.578048  0.114665  1
  Te  Te22  1  0.857443  0.921952  0.614665  1
  Te  Te23  1  0.357443  0.078049  0.885335  1
  Te  Te24  1  0.857443  0.578048  0.614665  1
  Te  Te25  1  0.357443  0.421951  0.885335  1
  Te  Te26  1  0.142557  0.078049  0.385335  1
  Te  Te27  1  0.642557  0.921952  0.114665  1
  As  As28  1  0.478697  0.750000  0.685946  1
  As  As29  1  0.978697  0.250000  0.814054  1
  As  As30  1  0.521303  0.250000  0.314054  1
  As  As31  1  0.021303  0.750000  0.185946  1
  As  As32  1  0.012605  0.750000  0.829444  1
  As  As33  1  0.512605  0.250000  0.670556  1
  As  As34  1  0.987395  0.250000  0.170556  1
  As  As35  1  0.487395  0.750000  0.329444  1
  F  F36  1  0.581706  0.140151  0.247897  1
  F  F37  1  0.081706  0.859849  0.252103  1
  F  F38  1  0.418294  0.640151  0.752103  1
  F  F39  1  0.918294  0.359849  0.747897  1
  F  F40  1  0.418294  0.859849  0.752103  1
  F  F41  1  0.918294  0.140151  0.747897  1
  F  F42  1  0.581706  0.359849  0.247897  1
  F  F43  1  0.081706  0.640151  0.252103  1
  F  F44  1  0.461113  0.359919  0.379786  1
  F  F45  1  0.961113  0.640081  0.120214  1
  F  F46  1  0.538887  0.859919  0.620214  1
  F  F47  1  0.038887  0.140081  0.879786  1
  F  F48  1  0.538887  0.640081  0.620214  1
  F  F49  1  0.038887  0.359919  0.879786  1
  F  F50  1  0.461113  0.140081  0.379786  1
  F  F51  1  0.961113  0.859919  0.120214  1
  F  F52  1  0.321302  0.750000  0.634319  1
  F  F53  1  0.821302  0.250000  0.865681  1
  F  F54  1  0.678698  0.250000  0.365681  1
  F  F55  1  0.178698  0.750000  0.134319  1
  F  F56  1  0.138337  0.639794  0.835013  1
  F  F57  1  0.635571  0.750000  0.737272  1
  F  F58  1  0.364429  0.250000  0.262728  1
  F  F59  1  0.864429  0.750000  0.237272  1
  F  F60  1  0.112790  0.139799  0.178236  1
  F  F61  1  0.612790  0.860201  0.321764  1
  F  F62  1  0.887210  0.639799  0.821764  1
  F  F63  1  0.387210  0.360201  0.678236  1
  F  F64  1  0.887210  0.860201  0.821764  1
  F  F65  1  0.387210  0.139799  0.678236  1
  F  F66  1  0.112790  0.360201  0.178236  1
  F  F67  1  0.612790  0.639799  0.321764  1
  F  F68  1  0.861663  0.360206  0.164987  1
  F  F69  1  0.361663  0.639794  0.335013  1
  F  F70  1  0.138337  0.860206  0.835013  1
  F  F71  1  0.638337  0.139794  0.664987  1
  F  F72  1  0.472925  0.750000  0.222493  1
  F  F73  1  0.972925  0.250000  0.277507  1
  F  F74  1  0.527075  0.250000  0.777507  1
  F  F75  1  0.027075  0.750000  0.722493  1
  F  F76  1  0.501452  0.750000  0.434935  1
  F  F77  1  0.001452  0.250000  0.065065  1
  F  F78  1  0.498548  0.250000  0.565065  1
  F  F79  1  0.998548  0.750000  0.934935  1
  F  F80  1  0.361663  0.860206  0.335013  1
  F  F81  1  0.861663  0.139794  0.164987  1
  F  F82  1  0.638337  0.360206  0.664987  1
  F  F83  1  0.135571  0.250000  0.762728  1
