# generated using pymatgen
data_Nb3Se12I
_symmetry_space_group_name_H-M   'P 1'
_cell_length_a   9.80142597
_cell_length_b   9.80142597
_cell_length_c   19.42155241
_cell_angle_alpha   90.00000000
_cell_angle_beta   90.00000000
_cell_angle_gamma   90.00000000
_symmetry_Int_Tables_number   1
_chemical_formula_structural   Nb3Se12I
_chemical_formula_sum   'Nb12 Se48 I4'
_cell_volume   1865.78874615
_cell_formula_units_Z   4
loop_
 _symmetry_equiv_pos_site_id
 _symmetry_equiv_pos_as_xyz
  1  'x, y, z'
loop_
 _atom_site_type_symbol
 _atom_site_label
 _atom_site_symmetry_multiplicity
 _atom_site_fract_x
 _atom_site_fract_y
 _atom_site_fract_z
 _atom_site_occupancy
  Nb  Nb0  1  0.500000  0.000000  0.750000  1
  Nb  Nb1  1  0.000000  0.500000  0.750000  1
  Nb  Nb2  1  0.500000  0.000000  0.250000  1
  Nb  Nb3  1  0.000000  0.500000  0.250000  1
  Nb  Nb4  1  0.000000  0.500000  0.580605  1
  Nb  Nb5  1  0.500000  0.000000  0.580605  1
  Nb  Nb6  1  0.500000  0.000000  0.919395  1
  Nb  Nb7  1  0.000000  0.500000  0.919395  1
  Nb  Nb8  1  0.000000  0.500000  0.419395  1
  Nb  Nb9  1  0.500000  0.000000  0.419395  1
  Nb  Nb10  1  0.500000  0.000000  0.080605  1
  Nb  Nb11  1  0.000000  0.500000  0.080605  1
  Se  Se12  1  0.952903  0.289900  0.671601  1
  Se  Se13  1  0.047097  0.710100  0.671601  1
  Se  Se14  1  0.789900  0.452903  0.828399  1
  Se  Se15  1  0.289900  0.047097  0.671601  1
  Se  Se16  1  0.710100  0.952903  0.671601  1
  Se  Se17  1  0.547097  0.789900  0.828399  1
  Se  Se18  1  0.452903  0.210100  0.828399  1
  Se  Se19  1  0.210100  0.547097  0.828399  1
  Se  Se20  1  0.047097  0.710100  0.328399  1
  Se  Se21  1  0.952903  0.289900  0.328399  1
  Se  Se22  1  0.210100  0.547097  0.171601  1
  Se  Se23  1  0.710100  0.952903  0.328399  1
  Se  Se24  1  0.289900  0.047097  0.328399  1
  Se  Se25  1  0.452903  0.210100  0.171601  1
  Se  Se26  1  0.547097  0.789900  0.171601  1
  Se  Se27  1  0.195018  0.605248  0.500000  1
  Se  Se28  1  0.789900  0.452903  0.171601  1
  Se  Se29  1  0.682078  0.123743  0.160554  1
  Se  Se30  1  0.317922  0.876257  0.160554  1
  Se  Se31  1  0.623743  0.182078  0.339446  1
  Se  Se32  1  0.376257  0.817922  0.339446  1
  Se  Se33  1  0.876257  0.682078  0.160554  1
  Se  Se34  1  0.817922  0.623743  0.339446  1
  Se  Se35  1  0.182078  0.376257  0.339446  1
  Se  Se36  1  0.876257  0.682078  0.839446  1
  Se  Se37  1  0.317922  0.876257  0.839446  1
  Se  Se38  1  0.682078  0.123743  0.839446  1
  Se  Se39  1  0.376257  0.817922  0.660554  1
  Se  Se40  1  0.623743  0.182078  0.660554  1
  Se  Se41  1  0.123743  0.317922  0.839446  1
  Se  Se42  1  0.182078  0.376257  0.660554  1
  Se  Se43  1  0.817922  0.623743  0.660554  1
  Se  Se44  1  0.218730  0.482112  0.000000  1
  Se  Se45  1  0.517888  0.218730  0.000000  1
  Se  Se46  1  0.482112  0.781270  0.000000  1
  Se  Se47  1  0.718730  0.017888  0.500000  1
  Se  Se48  1  0.281270  0.982112  0.500000  1
  Se  Se49  1  0.781270  0.517888  0.000000  1
  Se  Se50  1  0.982112  0.718730  0.500000  1
  Se  Se51  1  0.017888  0.281270  0.500000  1
  Se  Se52  1  0.894752  0.304982  0.000000  1
  Se  Se53  1  0.695018  0.894752  0.000000  1
  Se  Se54  1  0.304982  0.105248  0.000000  1
  Se  Se55  1  0.394752  0.195018  0.500000  1
  Se  Se56  1  0.605248  0.804982  0.500000  1
  Se  Se57  1  0.105248  0.695018  0.000000  1
  Se  Se58  1  0.804982  0.394752  0.500000  1
  Se  Se59  1  0.123743  0.317922  0.160554  1
  I  I60  1  0.500000  0.500000  0.631185  1
  I  I61  1  0.000000  0.000000  0.868815  1
  I  I62  1  0.500000  0.500000  0.368815  1
  I  I63  1  0.000000  0.000000  0.131185  1
