# generated using pymatgen
data_CaSi2
_symmetry_space_group_name_H-M   'P 1'
_cell_length_a   10.37733344
_cell_length_b   10.37733344
_cell_length_c   10.37733344
_cell_angle_alpha   21.52064573
_cell_angle_beta   21.52064573
_cell_angle_gamma   21.52064573
_symmetry_Int_Tables_number   1
_chemical_formula_structural   CaSi2
_chemical_formula_sum   'Ca2 Si4'
_cell_volume   131.76714530
_cell_formula_units_Z   2
loop_
 _symmetry_equiv_pos_site_id
 _symmetry_equiv_pos_as_xyz
  1  'x, y, z'
loop_
 _atom_site_type_symbol
 _atom_site_label
 _atom_site_symmetry_multiplicity
 _atom_site_fract_x
 _atom_site_fract_y
 _atom_site_fract_z
 _atom_site_occupancy
  Ca  Ca0  1  0.920045  0.920045  0.920045  1
  Ca  Ca1  1  0.079955  0.079955  0.079955  1
  Si  Si2  1  0.817395  0.817395  0.817395  1
  Si  Si3  1  0.182605  0.182605  0.182605  1
  Si  Si4  1  0.652934  0.652934  0.652934  1
  Si  Si5  1  0.347066  0.347066  0.347066  1
