# generated using pymatgen
data_LiCu2P3O10
_symmetry_space_group_name_H-M   'P 1'
_cell_length_a   4.69800284
_cell_length_b   8.32659272
_cell_length_c   9.33459026
_cell_angle_alpha   90.00000000
_cell_angle_beta   103.06506485
_cell_angle_gamma   90.00000000
_symmetry_Int_Tables_number   1
_chemical_formula_structural   LiCu2P3O10
_chemical_formula_sum   'Li2 Cu4 P6 O20'
_cell_volume   355.70144864
_cell_formula_units_Z   2
loop_
 _symmetry_equiv_pos_site_id
 _symmetry_equiv_pos_as_xyz
  1  'x, y, z'
loop_
 _atom_site_type_symbol
 _atom_site_label
 _atom_site_symmetry_multiplicity
 _atom_site_fract_x
 _atom_site_fract_y
 _atom_site_fract_z
 _atom_site_occupancy
  Li  Li0  1  0.000000  0.000000  0.000000  1
  Li  Li1  1  0.000000  0.500000  0.000000  1
  Cu  Cu2  1  0.041287  0.435767  0.332275  1
  Cu  Cu3  1  0.958713  0.935767  0.667725  1
  Cu  Cu4  1  0.041287  0.064233  0.332275  1
  Cu  Cu5  1  0.958713  0.564233  0.667725  1
  P  P6  1  0.593937  0.250000  0.546093  1
  P  P7  1  0.336785  0.250000  0.821756  1
  P  P8  1  0.474259  0.250000  0.138904  1
  P  P9  1  0.406063  0.750000  0.453907  1
  P  P10  1  0.663215  0.750000  0.178244  1
  P  P11  1  0.525741  0.750000  0.861096  1
  O  O12  1  0.693207  0.902917  0.852431  1
  O  O13  1  0.570430  0.250000  0.976592  1
  O  O14  1  0.761442  0.403199  0.529141  1
  O  O15  1  0.838413  0.596159  0.187655  1
  O  O16  1  0.761442  0.096801  0.529141  1
  O  O17  1  0.693207  0.597083  0.852431  1
  O  O18  1  0.429570  0.750000  0.023408  1
  O  O19  1  0.306793  0.097083  0.147569  1
  O  O20  1  0.287174  0.250000  0.441330  1
  O  O21  1  0.161587  0.403841  0.812345  1
  O  O22  1  0.238558  0.596801  0.470859  1
  O  O23  1  0.838413  0.903841  0.187655  1
  O  O24  1  0.783595  0.250000  0.244722  1
  O  O25  1  0.216405  0.750000  0.755278  1
  O  O26  1  0.238558  0.903199  0.470859  1
  O  O27  1  0.712826  0.750000  0.558670  1
  O  O28  1  0.161587  0.096159  0.812345  1
  O  O29  1  0.449155  0.750000  0.286670  1
  O  O30  1  0.550845  0.250000  0.713330  1
  O  O31  1  0.306793  0.402917  0.147569  1
