# generated using pymatgen
data_RbVCl3
_symmetry_space_group_name_H-M   'P 1'
_cell_length_a   7.14911127
_cell_length_b   7.14911127
_cell_length_c   6.24037247
_cell_angle_alpha   90.00000000
_cell_angle_beta   90.00000000
_cell_angle_gamma   120.00000000
_symmetry_Int_Tables_number   1
_chemical_formula_structural   RbVCl3
_chemical_formula_sum   'Rb2 V2 Cl6'
_cell_volume   276.21372621
_cell_formula_units_Z   2
loop_
 _symmetry_equiv_pos_site_id
 _symmetry_equiv_pos_as_xyz
  1  'x, y, z'
loop_
 _atom_site_type_symbol
 _atom_site_label
 _atom_site_symmetry_multiplicity
 _atom_site_fract_x
 _atom_site_fract_y
 _atom_site_fract_z
 _atom_site_occupancy
  Rb  Rb0  1  0.666667  0.333333  0.250000  1
  Rb  Rb1  1  0.333333  0.666667  0.750000  1
  V  V2  1  0.000000  0.000000  0.500000  1
  V  V3  1  0.000000  0.000000  0.000000  1
  Cl  Cl4  1  0.842900  0.685801  0.750000  1
  Cl  Cl5  1  0.157100  0.842900  0.250000  1
  Cl  Cl6  1  0.685801  0.842900  0.250000  1
  Cl  Cl7  1  0.314199  0.157100  0.750000  1
  Cl  Cl8  1  0.157100  0.314199  0.250000  1
  Cl  Cl9  1  0.842900  0.157100  0.750000  1
