# generated using pymatgen
data_KNb8O14
_symmetry_space_group_name_H-M   'P 1'
_cell_length_a   5.98952253
_cell_length_b   9.48672161
_cell_length_c   10.39335833
_cell_angle_alpha   90.00000000
_cell_angle_beta   90.00000000
_cell_angle_gamma   90.00000000
_symmetry_Int_Tables_number   1
_chemical_formula_structural   KNb8O14
_chemical_formula_sum   'K2 Nb16 O28'
_cell_volume   590.56031543
_cell_formula_units_Z   2
loop_
 _symmetry_equiv_pos_site_id
 _symmetry_equiv_pos_as_xyz
  1  'x, y, z'
loop_
 _atom_site_type_symbol
 _atom_site_label
 _atom_site_symmetry_multiplicity
 _atom_site_fract_x
 _atom_site_fract_y
 _atom_site_fract_z
 _atom_site_occupancy
  K  K0  1  0.500000  0.000000  0.500000  1
  K  K1  1  0.500000  0.500000  0.000000  1
  Nb  Nb2  1  0.500000  0.620543  0.333748  1
  Nb  Nb3  1  0.500000  0.120543  0.166252  1
  Nb  Nb4  1  0.000000  0.386912  0.162091  1
  Nb  Nb5  1  0.500000  0.379457  0.666252  1
  Nb  Nb6  1  0.500000  0.879457  0.833748  1
  Nb  Nb7  1  0.264911  0.126863  0.923880  1
  Nb  Nb8  1  0.264911  0.373137  0.423880  1
  Nb  Nb9  1  0.735089  0.126863  0.923880  1
  Nb  Nb10  1  0.264911  0.626863  0.576120  1
  Nb  Nb11  1  0.735089  0.626863  0.576120  1
  Nb  Nb12  1  0.735089  0.373137  0.423880  1
  Nb  Nb13  1  0.264911  0.873137  0.076120  1
  Nb  Nb14  1  0.000000  0.886912  0.337909  1
  Nb  Nb15  1  0.735089  0.873137  0.076120  1
  Nb  Nb16  1  0.000000  0.113088  0.662091  1
  Nb  Nb17  1  0.000000  0.613088  0.837909  1
  O  O18  1  0.749501  0.494934  0.248340  1
  O  O19  1  0.749501  0.994934  0.251660  1
  O  O20  1  0.000000  0.000000  0.500000  1
  O  O21  1  0.250499  0.005066  0.748340  1
  O  O22  1  0.500000  0.253616  0.842702  1
  O  O23  1  0.749501  0.005066  0.748340  1
  O  O24  1  0.246508  0.252915  0.089460  1
  O  O25  1  0.500000  0.753616  0.657298  1
  O  O26  1  0.250499  0.994934  0.251660  1
  O  O27  1  0.246508  0.747085  0.910540  1
  O  O28  1  0.749501  0.505066  0.751660  1
  O  O29  1  0.500000  0.746384  0.157298  1
  O  O30  1  0.246508  0.752915  0.410540  1
  O  O31  1  0.246508  0.247085  0.589460  1
  O  O32  1  0.000000  0.766883  0.176835  1
  O  O33  1  0.500000  0.246384  0.342702  1
  O  O34  1  0.000000  0.500000  0.000000  1
  O  O35  1  0.753492  0.252915  0.089460  1
  O  O36  1  0.753492  0.747085  0.910540  1
  O  O37  1  0.753492  0.247085  0.589460  1
  O  O38  1  0.250499  0.494934  0.248340  1
  O  O39  1  0.250499  0.505066  0.751660  1
  O  O40  1  0.000000  0.233117  0.823165  1
  O  O41  1  0.000000  0.733117  0.676835  1
  O  O42  1  0.753492  0.752915  0.410540  1
  O  O43  1  0.000000  0.500000  0.500000  1
  O  O44  1  0.000000  0.000000  0.000000  1
  O  O45  1  0.000000  0.266883  0.323165  1
