# generated using pymatgen
data_V4P2C
_symmetry_space_group_name_H-M   'P 1'
_cell_length_a   9.55038571
_cell_length_b   9.55038571
_cell_length_c   3.15427931
_cell_angle_alpha   90.00000000
_cell_angle_beta   90.00000000
_cell_angle_gamma   120.00000000
_symmetry_Int_Tables_number   1
_chemical_formula_structural   V4P2C
_chemical_formula_sum   'V12 P6 C3'
_cell_volume   249.15671856
_cell_formula_units_Z   3
loop_
 _symmetry_equiv_pos_site_id
 _symmetry_equiv_pos_as_xyz
  1  'x, y, z'
loop_
 _atom_site_type_symbol
 _atom_site_label
 _atom_site_symmetry_multiplicity
 _atom_site_fract_x
 _atom_site_fract_y
 _atom_site_fract_z
 _atom_site_occupancy
  V  V0  1  0.813513  0.000000  0.500000  1
  V  V1  1  0.186487  0.186487  0.500000  1
  V  V2  1  0.000000  0.813513  0.500000  1
  V  V3  1  0.000000  0.533653  0.500000  1
  V  V4  1  0.466347  0.466347  0.500000  1
  V  V5  1  0.533653  0.000000  0.500000  1
  V  V6  1  0.451835  0.207838  0.000000  1
  V  V7  1  0.792162  0.243997  0.000000  1
  V  V8  1  0.756003  0.548165  0.000000  1
  V  V9  1  0.548165  0.756003  0.000000  1
  V  V10  1  0.243997  0.792162  0.000000  1
  V  V11  1  0.207838  0.451835  0.000000  1
  P  P12  1  0.000000  0.000000  0.000000  1
  P  P13  1  0.666667  0.333333  0.500000  1
  P  P14  1  0.333333  0.666667  0.500000  1
  P  P15  1  0.000000  0.282109  0.500000  1
  P  P16  1  0.717891  0.717891  0.500000  1
  P  P17  1  0.282109  0.000000  0.500000  1
  C  C18  1  0.000000  0.669200  0.000000  1
  C  C19  1  0.330800  0.330800  0.000000  1
  C  C20  1  0.669200  0.000000  0.000000  1
