# generated using pymatgen
data_RbEu2I5
_symmetry_space_group_name_H-M   'P 1'
_cell_length_a   10.15150865
_cell_length_b   9.10135543
_cell_length_c   14.41070288
_cell_angle_alpha   90.00000000
_cell_angle_beta   90.30603095
_cell_angle_gamma   90.00000000
_symmetry_Int_Tables_number   1
_chemical_formula_structural   RbEu2I5
_chemical_formula_sum   'Rb4 Eu8 I20'
_cell_volume   1331.42170678
_cell_formula_units_Z   4
loop_
 _symmetry_equiv_pos_site_id
 _symmetry_equiv_pos_as_xyz
  1  'x, y, z'
loop_
 _atom_site_type_symbol
 _atom_site_label
 _atom_site_symmetry_multiplicity
 _atom_site_fract_x
 _atom_site_fract_y
 _atom_site_fract_z
 _atom_site_occupancy
  Rb  Rb0  1  0.507202  0.947401  0.831133  1
  Rb  Rb1  1  0.492798  0.447401  0.668867  1
  Rb  Rb2  1  0.492798  0.052599  0.168867  1
  Rb  Rb3  1  0.507202  0.552599  0.331133  1
  Eu  Eu4  1  0.002989  0.973762  0.819302  1
  Eu  Eu5  1  0.246965  0.926797  0.506070  1
  Eu  Eu6  1  0.753035  0.426797  0.993930  1
  Eu  Eu7  1  0.753035  0.073203  0.493930  1
  Eu  Eu8  1  0.246965  0.573203  0.006070  1
  Eu  Eu9  1  0.002989  0.526238  0.319302  1
  Eu  Eu10  1  0.997011  0.026238  0.180698  1
  Eu  Eu11  1  0.997011  0.473762  0.680698  1
  I  I12  1  0.774177  0.187567  0.715734  1
  I  I13  1  0.783934  0.838854  0.316478  1
  I  I14  1  0.216066  0.338854  0.183522  1
  I  I15  1  0.216066  0.161146  0.683522  1
  I  I16  1  0.783934  0.661146  0.816479  1
  I  I17  1  0.225823  0.812433  0.284266  1
  I  I18  1  0.774177  0.312433  0.215734  1
  I  I19  1  0.211539  0.954596  0.002492  1
  I  I20  1  0.958841  0.838428  0.599042  1
  I  I21  1  0.041159  0.338428  0.900958  1
  I  I22  1  0.041159  0.161572  0.400958  1
  I  I23  1  0.958841  0.661572  0.099042  1
  I  I24  1  0.788461  0.045404  0.997508  1
  I  I25  1  0.788461  0.454596  0.497508  1
  I  I26  1  0.536964  0.674187  0.080488  1
  I  I27  1  0.211539  0.545404  0.502492  1
  I  I28  1  0.536964  0.825813  0.580488  1
  I  I29  1  0.463036  0.325813  0.919512  1
  I  I30  1  0.463036  0.174187  0.419512  1
  I  I31  1  0.225823  0.687567  0.784266  1
