# generated using pymatgen
data_Na3BS3
_symmetry_space_group_name_H-M   'P 1'
_cell_length_a   6.83143932
_cell_length_b   6.83143932
_cell_length_c   8.44995188
_cell_angle_alpha   65.82253135
_cell_angle_beta   114.17746865
_cell_angle_gamma   121.30333244
_symmetry_Int_Tables_number   1
_chemical_formula_structural   Na3BS3
_chemical_formula_sum   'Na6 B2 S6'
_cell_volume   297.43038192
_cell_formula_units_Z   2
loop_
 _symmetry_equiv_pos_site_id
 _symmetry_equiv_pos_as_xyz
  1  'x, y, z'
loop_
 _atom_site_type_symbol
 _atom_site_label
 _atom_site_symmetry_multiplicity
 _atom_site_fract_x
 _atom_site_fract_y
 _atom_site_fract_z
 _atom_site_occupancy
  Na  Na0  1  0.381599  0.187983  0.004371  1
  Na  Na1  1  0.812017  0.618401  0.504371  1
  Na  Na2  1  0.000000  0.500000  0.000000  1
  Na  Na3  1  0.500000  0.000000  0.500000  1
  Na  Na4  1  0.618401  0.812017  0.995629  1
  Na  Na5  1  0.187983  0.381599  0.495629  1
  B  B6  1  0.921931  0.921931  0.750000  1
  B  B7  1  0.078069  0.078069  0.250000  1
  S  S8  1  0.077366  0.807197  0.253181  1
  S  S9  1  0.807197  0.077366  0.246819  1
  S  S10  1  0.922634  0.192803  0.746819  1
  S  S11  1  0.192803  0.922634  0.753181  1
  S  S12  1  0.356078  0.356078  0.250000  1
  S  S13  1  0.643922  0.643922  0.750000  1
