# generated using pymatgen
data_Ca2Mn2O5
_symmetry_space_group_name_H-M   'P 1'
_cell_length_a   3.83360142
_cell_length_b   5.48019292
_cell_length_c   10.37721230
_cell_angle_alpha   90.00000000
_cell_angle_beta   90.00000000
_cell_angle_gamma   90.00000000
_symmetry_Int_Tables_number   1
_chemical_formula_structural   Ca2Mn2O5
_chemical_formula_sum   'Ca4 Mn4 O10'
_cell_volume   218.01355979
_cell_formula_units_Z   2
loop_
 _symmetry_equiv_pos_site_id
 _symmetry_equiv_pos_as_xyz
  1  'x, y, z'
loop_
 _atom_site_type_symbol
 _atom_site_label
 _atom_site_symmetry_multiplicity
 _atom_site_fract_x
 _atom_site_fract_y
 _atom_site_fract_z
 _atom_site_occupancy
  Ca  Ca0  1  0.500000  0.695031  0.870843  1
  Ca  Ca1  1  0.500000  0.304969  0.129157  1
  Ca  Ca2  1  0.500000  0.195031  0.629157  1
  Ca  Ca3  1  0.500000  0.804969  0.370843  1
  Mn  Mn4  1  0.000000  0.720936  0.621125  1
  Mn  Mn5  1  0.000000  0.279064  0.378875  1
  Mn  Mn6  1  0.000000  0.779064  0.121125  1
  Mn  Mn7  1  0.000000  0.220936  0.878875  1
  O  O8  1  0.000000  0.000000  0.500000  1
  O  O9  1  0.000000  0.581868  0.289929  1
  O  O10  1  0.000000  0.081868  0.210071  1
  O  O11  1  0.000000  0.918132  0.789929  1
  O  O12  1  0.500000  0.790087  0.099669  1
  O  O13  1  0.500000  0.209913  0.900331  1
  O  O14  1  0.000000  0.418132  0.710071  1
  O  O15  1  0.500000  0.709913  0.599669  1
  O  O16  1  0.000000  0.500000  0.000000  1
  O  O17  1  0.500000  0.290087  0.400331  1
