# generated using pymatgen
data_Bi(PO3)4
_symmetry_space_group_name_H-M   'P 1'
_cell_length_a   10.81011071
_cell_length_b   10.81011071
_cell_length_c   5.27097639
_cell_angle_alpha   78.69950844
_cell_angle_beta   101.30049156
_cell_angle_gamma   113.33498620
_symmetry_Int_Tables_number   1
_chemical_formula_structural   Bi(PO3)4
_chemical_formula_sum   'Bi2 P8 O24'
_cell_volume   549.80036962
_cell_formula_units_Z   2
loop_
 _symmetry_equiv_pos_site_id
 _symmetry_equiv_pos_as_xyz
  1  'x, y, z'
loop_
 _atom_site_type_symbol
 _atom_site_label
 _atom_site_symmetry_multiplicity
 _atom_site_fract_x
 _atom_site_fract_y
 _atom_site_fract_z
 _atom_site_occupancy
  Bi  Bi0  1  0.342182  0.657818  0.394853  1
  Bi  Bi1  1  0.657818  0.342182  0.605147  1
  P  P2  1  0.695535  0.062413  0.099755  1
  P  P3  1  0.767636  0.600847  0.002448  1
  P  P4  1  0.600847  0.767636  0.997552  1
  P  P5  1  0.232364  0.399153  0.997552  1
  P  P6  1  0.304465  0.937587  0.900245  1
  P  P7  1  0.399153  0.232364  0.002448  1
  P  P8  1  0.937587  0.304465  0.099755  1
  P  P9  1  0.062413  0.695535  0.900245  1
  O  O10  1  0.697330  0.541452  0.751244  1
  O  O11  1  0.670813  0.045949  0.375984  1
  O  O12  1  0.329187  0.954051  0.624016  1
  O  O13  1  0.045949  0.670813  0.624016  1
  O  O14  1  0.730697  0.730697  0.000000  1
  O  O15  1  0.269303  0.269303  0.000000  1
  O  O16  1  0.745420  0.508699  0.254391  1
  O  O17  1  0.491301  0.254580  0.254391  1
  O  O18  1  0.682923  0.926312  0.006127  1
  O  O19  1  0.073688  0.317077  0.006127  1
  O  O20  1  0.144087  0.855913  0.925843  1
  O  O21  1  0.541452  0.697330  0.248756  1
  O  O22  1  0.302670  0.458548  0.248756  1
  O  O23  1  0.384999  0.867507  0.101159  1
  O  O24  1  0.132493  0.615001  0.101159  1
  O  O25  1  0.254580  0.491301  0.745609  1
  O  O26  1  0.615001  0.132493  0.898841  1
  O  O27  1  0.867507  0.384999  0.898841  1
  O  O28  1  0.458548  0.302670  0.751244  1
  O  O29  1  0.855913  0.144087  0.074157  1
  O  O30  1  0.926312  0.682923  0.993873  1
  O  O31  1  0.317077  0.073688  0.993873  1
  O  O32  1  0.508699  0.745420  0.745609  1
  O  O33  1  0.954051  0.329187  0.375984  1
