# generated using pymatgen
data_CaAs(HO)7
_symmetry_space_group_name_H-M   'P 1'
_cell_length_a   10.85382218
_cell_length_b   11.11791336
_cell_length_c   11.37086002
_cell_angle_alpha   90.00000000
_cell_angle_beta   90.00000000
_cell_angle_gamma   90.00000000
_symmetry_Int_Tables_number   1
_chemical_formula_structural   CaAs(HO)7
_chemical_formula_sum   'Ca8 As8 H56 O56'
_cell_volume   1372.14276726
_cell_formula_units_Z   8
loop_
 _symmetry_equiv_pos_site_id
 _symmetry_equiv_pos_as_xyz
  1  'x, y, z'
loop_
 _atom_site_type_symbol
 _atom_site_label
 _atom_site_symmetry_multiplicity
 _atom_site_fract_x
 _atom_site_fract_y
 _atom_site_fract_z
 _atom_site_occupancy
  Ca  Ca0  1  0.913964  0.751435  0.199568  1
  Ca  Ca1  1  0.413964  0.248565  0.300432  1
  Ca  Ca2  1  0.086036  0.748565  0.699568  1
  Ca  Ca3  1  0.586036  0.251435  0.800432  1
  Ca  Ca4  1  0.086036  0.248565  0.800432  1
  Ca  Ca5  1  0.586036  0.751435  0.699568  1
  Ca  Ca6  1  0.913964  0.251435  0.300432  1
  Ca  Ca7  1  0.413964  0.748565  0.199568  1
  As  As8  1  0.349329  0.632911  0.503564  1
  As  As9  1  0.849329  0.367089  0.996436  1
  As  As10  1  0.650671  0.867089  0.003564  1
  As  As11  1  0.150671  0.132911  0.496436  1
  As  As12  1  0.650671  0.367089  0.496436  1
  As  As13  1  0.150671  0.632911  0.003564  1
  As  As14  1  0.349329  0.132911  0.996436  1
  As  As15  1  0.849329  0.867089  0.503564  1
  H  H16  1  0.157036  0.673874  0.339860  1
  H  H17  1  0.657036  0.326126  0.160140  1
  H  H18  1  0.842964  0.826126  0.839860  1
  H  H19  1  0.342964  0.173874  0.660140  1
  H  H20  1  0.842964  0.326126  0.660140  1
  H  H21  1  0.342964  0.673874  0.839860  1
  H  H22  1  0.157036  0.173874  0.160140  1
  H  H23  1  0.657036  0.826126  0.339860  1
  H  H24  1  0.047546  0.725012  0.416552  1
  H  H25  1  0.547546  0.274988  0.083448  1
  H  H26  1  0.952454  0.774988  0.916552  1
  H  H27  1  0.452454  0.225012  0.583448  1
  H  H28  1  0.952454  0.274988  0.583448  1
  H  H29  1  0.452454  0.725012  0.916552  1
  H  H30  1  0.047546  0.225012  0.083448  1
  H  H31  1  0.547546  0.774988  0.416552  1
  H  H32  1  0.129538  0.894656  0.131453  1
  H  H33  1  0.629538  0.105344  0.368547  1
  H  H34  1  0.870462  0.605344  0.631453  1
  H  H35  1  0.370462  0.394656  0.868547  1
  H  H36  1  0.870462  0.105344  0.868547  1
  H  H37  1  0.370462  0.894656  0.631453  1
  H  H38  1  0.129538  0.394656  0.368547  1
  H  H39  1  0.629538  0.605344  0.131453  1
  H  H40  1  0.038829  0.005250  0.142614  1
  H  H41  1  0.538829  0.994750  0.357386  1
  H  H42  1  0.961171  0.494750  0.642614  1
  H  H43  1  0.461171  0.505250  0.857386  1
  H  H44  1  0.961171  0.994750  0.857386  1
  H  H45  1  0.461171  0.005250  0.642614  1
  H  H46  1  0.038829  0.505250  0.357386  1
  H  H47  1  0.538829  0.494750  0.142614  1
  H  H48  1  0.813374  0.493979  0.212379  1
  H  H49  1  0.313374  0.506021  0.287621  1
  H  H50  1  0.186626  0.006021  0.712379  1
  H  H51  1  0.686626  0.993979  0.787621  1
  H  H52  1  0.186626  0.506021  0.787621  1
  H  H53  1  0.686626  0.493979  0.712379  1
  H  H54  1  0.813374  0.993979  0.287621  1
  H  H55  1  0.313374  0.006021  0.212379  1
  H  H56  1  0.763511  0.556914  0.328294  1
  H  H57  1  0.263511  0.443086  0.171706  1
  H  H58  1  0.236489  0.943086  0.828294  1
  H  H59  1  0.736489  0.056914  0.671706  1
  H  H60  1  0.236489  0.443086  0.671706  1
  H  H61  1  0.736489  0.556914  0.828294  1
  H  H62  1  0.763511  0.056914  0.171706  1
  H  H63  1  0.263511  0.943086  0.328294  1
  H  H64  1  0.393753  0.426761  0.518244  1
  H  H65  1  0.893753  0.573239  0.981756  1
  H  H66  1  0.606247  0.073239  0.018244  1
  H  H67  1  0.106247  0.926761  0.481756  1
  H  H68  1  0.606247  0.573239  0.481756  1
  H  H69  1  0.106247  0.426761  0.018244  1
  H  H70  1  0.393753  0.926761  0.981756  1
  H  H71  1  0.893753  0.073239  0.518244  1
  O  O72  1  0.065135  0.678079  0.343836  1
  O  O73  1  0.565135  0.321921  0.156164  1
  O  O74  1  0.934865  0.821921  0.843836  1
  O  O75  1  0.434865  0.178079  0.656164  1
  O  O76  1  0.934865  0.321921  0.656164  1
  O  O77  1  0.434865  0.678079  0.843836  1
  O  O78  1  0.065135  0.178079  0.156164  1
  O  O79  1  0.565135  0.821921  0.343836  1
  O  O80  1  0.042670  0.916523  0.141339  1
  O  O81  1  0.542670  0.083477  0.358661  1
  O  O82  1  0.957330  0.583477  0.641339  1
  O  O83  1  0.457330  0.416523  0.858661  1
  O  O84  1  0.957330  0.083477  0.858661  1
  O  O85  1  0.457330  0.916523  0.641339  1
  O  O86  1  0.042670  0.416523  0.358661  1
  O  O87  1  0.542670  0.583477  0.141339  1
  O  O88  1  0.811376  0.571922  0.255596  1
  O  O89  1  0.311376  0.428078  0.244404  1
  O  O90  1  0.188624  0.928078  0.755596  1
  O  O91  1  0.688624  0.071922  0.744404  1
  O  O92  1  0.188624  0.428078  0.744404  1
  O  O93  1  0.688624  0.571922  0.755596  1
  O  O94  1  0.811376  0.071922  0.244404  1
  O  O95  1  0.311376  0.928078  0.255596  1
  O  O96  1  0.322204  0.480848  0.543966  1
  O  O97  1  0.822204  0.519152  0.956034  1
  O  O98  1  0.677796  0.019152  0.043966  1
  O  O99  1  0.177796  0.980848  0.456034  1
  O  O100  1  0.677796  0.519152  0.456034  1
  O  O101  1  0.177796  0.480848  0.043966  1
  O  O102  1  0.322204  0.980848  0.956034  1
  O  O103  1  0.822204  0.019152  0.543966  1
  O  O104  1  0.258798  0.716803  0.590518  1
  O  O105  1  0.758798  0.283197  0.909482  1
  O  O106  1  0.741202  0.783197  0.090518  1
  O  O107  1  0.241202  0.216803  0.409482  1
  O  O108  1  0.741202  0.283197  0.409482  1
  O  O109  1  0.241202  0.716803  0.090518  1
  O  O110  1  0.258798  0.216803  0.909482  1
  O  O111  1  0.758798  0.783197  0.590518  1
  O  O112  1  0.316374  0.645279  0.356023  1
  O  O113  1  0.816374  0.354721  0.143977  1
  O  O114  1  0.683626  0.854721  0.856023  1
  O  O115  1  0.183626  0.145279  0.643977  1
  O  O116  1  0.683626  0.354721  0.643977  1
  O  O117  1  0.183626  0.645279  0.856023  1
  O  O118  1  0.316374  0.145279  0.143977  1
  O  O119  1  0.816374  0.854721  0.356023  1
  O  O120  1  0.503415  0.663281  0.526276  1
  O  O121  1  0.003415  0.336719  0.973724  1
  O  O122  1  0.496585  0.836719  0.026276  1
  O  O123  1  0.996585  0.163281  0.473724  1
  O  O124  1  0.496585  0.336719  0.473724  1
  O  O125  1  0.996585  0.663281  0.026276  1
  O  O126  1  0.503415  0.163281  0.973724  1
  O  O127  1  0.003415  0.836719  0.526276  1
