# generated using pymatgen
data_Na(LiSi2)3
_symmetry_space_group_name_H-M   'P 1'
_cell_length_a   3.79969248
_cell_length_b   10.32010451
_cell_length_c   18.00586415
_cell_angle_alpha   90.00000000
_cell_angle_beta   90.00000000
_cell_angle_gamma   90.00000000
_symmetry_Int_Tables_number   1
_chemical_formula_structural   Na(LiSi2)3
_chemical_formula_sum   'Na4 Li12 Si24'
_cell_volume   706.06797521
_cell_formula_units_Z   4
loop_
 _symmetry_equiv_pos_site_id
 _symmetry_equiv_pos_as_xyz
  1  'x, y, z'
loop_
 _atom_site_type_symbol
 _atom_site_label
 _atom_site_symmetry_multiplicity
 _atom_site_fract_x
 _atom_site_fract_y
 _atom_site_fract_z
 _atom_site_occupancy
  Na  Na0  1  0.750000  0.249656  0.924515  1
  Na  Na1  1  0.250000  0.750344  0.075485  1
  Na  Na2  1  0.250000  0.749656  0.575485  1
  Na  Na3  1  0.750000  0.250344  0.424515  1
  Li  Li4  1  0.250000  0.015482  0.432270  1
  Li  Li5  1  0.750000  0.984518  0.567730  1
  Li  Li6  1  0.750000  0.515482  0.067730  1
  Li  Li7  1  0.250000  0.484518  0.932270  1
  Li  Li8  1  0.250000  0.408803  0.527906  1
  Li  Li9  1  0.750000  0.591197  0.472094  1
  Li  Li10  1  0.750000  0.908803  0.972094  1
  Li  Li11  1  0.250000  0.091197  0.027906  1
  Li  Li12  1  0.750000  0.939015  0.312616  1
  Li  Li13  1  0.250000  0.060985  0.687384  1
  Li  Li14  1  0.250000  0.439015  0.187384  1
  Li  Li15  1  0.750000  0.560985  0.812616  1
  Si  Si16  1  0.250000  0.522558  0.696545  1
  Si  Si17  1  0.750000  0.477442  0.303455  1
  Si  Si18  1  0.750000  0.022558  0.803455  1
  Si  Si19  1  0.250000  0.977442  0.196545  1
  Si  Si20  1  0.250000  0.165789  0.554640  1
  Si  Si21  1  0.750000  0.834211  0.445360  1
  Si  Si22  1  0.750000  0.665789  0.945360  1
  Si  Si23  1  0.250000  0.334211  0.054640  1
  Si  Si24  1  0.250000  0.358538  0.795182  1
  Si  Si25  1  0.750000  0.641462  0.204818  1
  Si  Si26  1  0.750000  0.858538  0.704818  1
  Si  Si27  1  0.250000  0.141462  0.295182  1
  Si  Si28  1  0.750000  0.496088  0.617949  1
  Si  Si29  1  0.250000  0.503912  0.382051  1
  Si  Si30  1  0.250000  0.996088  0.882051  1
  Si  Si31  1  0.750000  0.003912  0.117949  1
  Si  Si32  1  0.750000  0.258217  0.617323  1
  Si  Si33  1  0.250000  0.741783  0.382677  1
  Si  Si34  1  0.250000  0.758217  0.882677  1
  Si  Si35  1  0.750000  0.241783  0.117323  1
  Si  Si36  1  0.250000  0.741082  0.749071  1
  Si  Si37  1  0.750000  0.258918  0.250929  1
  Si  Si38  1  0.750000  0.241082  0.750929  1
  Si  Si39  1  0.250000  0.758918  0.249071  1
