# generated using pymatgen
data_PrNiSn
_symmetry_space_group_name_H-M   'P 1'
_cell_length_a   7.46801432
_cell_length_b   7.46801432
_cell_length_c   4.07440401
_cell_angle_alpha   90.00000000
_cell_angle_beta   90.00000000
_cell_angle_gamma   120.00000000
_symmetry_Int_Tables_number   1
_chemical_formula_structural   PrNiSn
_chemical_formula_sum   'Pr3 Ni3 Sn3'
_cell_volume   196.79089756
_cell_formula_units_Z   3
loop_
 _symmetry_equiv_pos_site_id
 _symmetry_equiv_pos_as_xyz
  1  'x, y, z'
loop_
 _atom_site_type_symbol
 _atom_site_label
 _atom_site_symmetry_multiplicity
 _atom_site_fract_x
 _atom_site_fract_y
 _atom_site_fract_z
 _atom_site_occupancy
  Pr  Pr0  1  0.000000  0.588626  0.000000  1
  Pr  Pr1  1  0.411374  0.411374  0.000000  1
  Pr  Pr2  1  0.588626  0.000000  0.000000  1
  Ni  Ni3  1  0.666667  0.333333  0.500000  1
  Ni  Ni4  1  0.000000  0.000000  0.000000  1
  Ni  Ni5  1  0.333333  0.666667  0.500000  1
  Sn  Sn6  1  0.750624  0.750624  0.500000  1
  Sn  Sn7  1  0.000000  0.249376  0.500000  1
  Sn  Sn8  1  0.249376  0.000000  0.500000  1
