# generated using pymatgen
data_Co3(AsO4)2
_symmetry_space_group_name_H-M   'P 1'
_cell_length_a   6.53831942
_cell_length_b   8.66397197
_cell_length_c   11.31263781
_cell_angle_alpha   90.00000000
_cell_angle_beta   91.02009164
_cell_angle_gamma   90.00000000
_symmetry_Int_Tables_number   1
_chemical_formula_structural   Co3(AsO4)2
_chemical_formula_sum   'Co12 As8 O32'
_cell_volume   640.73466321
_cell_formula_units_Z   4
loop_
 _symmetry_equiv_pos_site_id
 _symmetry_equiv_pos_as_xyz
  1  'x, y, z'
loop_
 _atom_site_type_symbol
 _atom_site_label
 _atom_site_symmetry_multiplicity
 _atom_site_fract_x
 _atom_site_fract_y
 _atom_site_fract_z
 _atom_site_occupancy
  Co  Co0  1  0.760162  0.833961  0.358594  1
  Co  Co1  1  0.239838  0.333961  0.141406  1
  Co  Co2  1  0.239838  0.166039  0.641406  1
  Co  Co3  1  0.760162  0.666039  0.858594  1
  Co  Co4  1  0.390365  0.945161  0.125650  1
  Co  Co5  1  0.609635  0.445161  0.374350  1
  Co  Co6  1  0.609635  0.054839  0.874350  1
  Co  Co7  1  0.390365  0.554839  0.625650  1
  Co  Co8  1  0.109051  0.669503  0.054900  1
  Co  Co9  1  0.890949  0.169503  0.445100  1
  Co  Co10  1  0.890949  0.330497  0.945100  1
  Co  Co11  1  0.109051  0.830497  0.554900  1
  As  As12  1  0.606535  0.912469  0.634108  1
  As  As13  1  0.393465  0.412469  0.865892  1
  As  As14  1  0.393465  0.087531  0.365892  1
  As  As15  1  0.606535  0.587531  0.134108  1
  As  As16  1  0.100842  0.953966  0.855639  1
  As  As17  1  0.899158  0.453966  0.644361  1
  As  As18  1  0.899158  0.046034  0.144361  1
  As  As19  1  0.100842  0.546034  0.355639  1
  O  O20  1  0.132870  0.540358  0.204344  1
  O  O21  1  0.867130  0.040358  0.295656  1
  O  O22  1  0.867130  0.459642  0.795656  1
  O  O23  1  0.132870  0.959642  0.704344  1
  O  O24  1  0.524584  0.406805  0.175447  1
  O  O25  1  0.475416  0.906805  0.324553  1
  O  O26  1  0.475416  0.593195  0.824553  1
  O  O27  1  0.524584  0.093195  0.675447  1
  O  O28  1  0.327058  0.497962  0.428101  1
  O  O29  1  0.672942  0.997962  0.071899  1
  O  O30  1  0.672942  0.502038  0.571899  1
  O  O31  1  0.327058  0.002038  0.928101  1
  O  O32  1  0.703875  0.643290  0.269753  1
  O  O33  1  0.296125  0.143290  0.230247  1
  O  O34  1  0.296125  0.356710  0.730247  1
  O  O35  1  0.703875  0.856710  0.769753  1
  O  O36  1  0.920843  0.404271  0.383426  1
  O  O37  1  0.079157  0.904271  0.116574  1
  O  O38  1  0.079157  0.595729  0.616574  1
  O  O39  1  0.920843  0.095729  0.883426  1
  O  O40  1  0.424642  0.785702  0.577880  1
  O  O41  1  0.575358  0.285702  0.922120  1
  O  O42  1  0.575358  0.214298  0.422120  1
  O  O43  1  0.424642  0.714298  0.077880  1
  O  O44  1  0.035894  0.766560  0.896145  1
  O  O45  1  0.964106  0.266560  0.603855  1
  O  O46  1  0.964106  0.233440  0.103855  1
  O  O47  1  0.035894  0.733440  0.396145  1
  O  O48  1  0.800582  0.929246  0.529470  1
  O  O49  1  0.199418  0.429246  0.970530  1
  O  O50  1  0.199418  0.070754  0.470530  1
  O  O51  1  0.800582  0.570754  0.029470  1
