# generated using pymatgen
data_Te2Au
_symmetry_space_group_name_H-M   'P 1'
_cell_length_a   4.51262296
_cell_length_b   8.95260203
_cell_length_c   16.87999321
_cell_angle_alpha   90.00000000
_cell_angle_beta   90.00000000
_cell_angle_gamma   90.00000000
_symmetry_Int_Tables_number   1
_chemical_formula_structural   Te2Au
_chemical_formula_sum   'Te16 Au8'
_cell_volume   681.94695662
_cell_formula_units_Z   8
loop_
 _symmetry_equiv_pos_site_id
 _symmetry_equiv_pos_as_xyz
  1  'x, y, z'
loop_
 _atom_site_type_symbol
 _atom_site_label
 _atom_site_symmetry_multiplicity
 _atom_site_fract_x
 _atom_site_fract_y
 _atom_site_fract_z
 _atom_site_occupancy
  Te  Te0  1  0.447681  0.029687  0.380361  1
  Te  Te1  1  0.447681  0.970313  0.619639  1
  Te  Te2  1  0.447681  0.970313  0.880361  1
  Te  Te3  1  0.447681  0.029687  0.119639  1
  Te  Te4  1  0.519759  0.638838  0.370986  1
  Te  Te5  1  0.519759  0.361162  0.629014  1
  Te  Te6  1  0.519759  0.361162  0.870986  1
  Te  Te7  1  0.519759  0.638838  0.129014  1
  Te  Te8  1  0.019000  0.979209  0.250000  1
  Te  Te9  1  0.019000  0.020791  0.750000  1
  Te  Te10  1  0.106290  0.375261  0.250000  1
  Te  Te11  1  0.106290  0.624739  0.750000  1
  Te  Te12  1  0.906829  0.697084  0.993532  1
  Te  Te13  1  0.906829  0.302916  0.006468  1
  Te  Te14  1  0.906829  0.302916  0.493532  1
  Te  Te15  1  0.906829  0.697084  0.506468  1
  Au  Au16  1  0.493464  0.333191  0.374010  1
  Au  Au17  1  0.493464  0.666809  0.625990  1
  Au  Au18  1  0.493464  0.666809  0.874010  1
  Au  Au19  1  0.493464  0.333191  0.125990  1
  Au  Au20  1  0.009645  0.324779  0.750000  1
  Au  Au21  1  0.009645  0.675221  0.250000  1
  Au  Au22  1  0.959597  0.000000  0.500000  1
  Au  Au23  1  0.959597  0.000000  0.000000  1
