# generated using pymatgen
data_Ce3Al
_symmetry_space_group_name_H-M   'P 1'
_cell_length_a   6.71115235
_cell_length_b   6.71115235
_cell_length_c   5.27843590
_cell_angle_alpha   90.00000000
_cell_angle_beta   90.00000000
_cell_angle_gamma   120.00000000
_symmetry_Int_Tables_number   1
_chemical_formula_structural   Ce3Al
_chemical_formula_sum   'Ce6 Al2'
_cell_volume   205.88754726
_cell_formula_units_Z   2
loop_
 _symmetry_equiv_pos_site_id
 _symmetry_equiv_pos_as_xyz
  1  'x, y, z'
loop_
 _atom_site_type_symbol
 _atom_site_label
 _atom_site_symmetry_multiplicity
 _atom_site_fract_x
 _atom_site_fract_y
 _atom_site_fract_z
 _atom_site_occupancy
  Ce  Ce0  1  0.816283  0.632567  0.250000  1
  Ce  Ce1  1  0.183717  0.816283  0.750000  1
  Ce  Ce2  1  0.632567  0.816283  0.750000  1
  Ce  Ce3  1  0.367433  0.183717  0.250000  1
  Ce  Ce4  1  0.816283  0.183717  0.250000  1
  Ce  Ce5  1  0.183717  0.367433  0.750000  1
  Al  Al6  1  0.333333  0.666667  0.250000  1
  Al  Al7  1  0.666667  0.333333  0.750000  1
