# generated using pymatgen
data_YH12(ClO2)3
_symmetry_space_group_name_H-M   'P 1'
_cell_length_a   7.87638272
_cell_length_b   6.53958134
_cell_length_c   12.06721712
_cell_angle_alpha   90.00000000
_cell_angle_beta   127.05337183
_cell_angle_gamma   90.00000000
_symmetry_Int_Tables_number   1
_chemical_formula_structural   YH12(ClO2)3
_chemical_formula_sum   'Y2 H24 Cl6 O12'
_cell_volume   496.05216923
_cell_formula_units_Z   2
loop_
 _symmetry_equiv_pos_site_id
 _symmetry_equiv_pos_as_xyz
  1  'x, y, z'
loop_
 _atom_site_type_symbol
 _atom_site_label
 _atom_site_symmetry_multiplicity
 _atom_site_fract_x
 _atom_site_fract_y
 _atom_site_fract_z
 _atom_site_occupancy
  Y  Y0  1  0.000000  0.844854  0.250000  1
  Y  Y1  1  0.000000  0.155146  0.750000  1
  H  H2  1  0.760173  0.908390  0.368793  1
  H  H3  1  0.239827  0.908390  0.131207  1
  H  H4  1  0.239827  0.091610  0.631207  1
  H  H5  1  0.760173  0.091610  0.868793  1
  H  H6  1  0.677166  0.087102  0.260718  1
  H  H7  1  0.322834  0.087102  0.239282  1
  H  H8  1  0.322834  0.912898  0.739282  1
  H  H9  1  0.677166  0.912898  0.760718  1
  H  H10  1  0.798762  0.527999  0.317375  1
  H  H11  1  0.201238  0.527999  0.182625  1
  H  H12  1  0.201238  0.472001  0.682625  1
  H  H13  1  0.798762  0.472001  0.817375  1
  H  H14  1  0.030589  0.447676  0.384971  1
  H  H15  1  0.969411  0.447676  0.115029  1
  H  H16  1  0.969411  0.552324  0.615029  1
  H  H17  1  0.030589  0.552324  0.884971  1
  H  H18  1  0.533166  0.753685  0.040765  1
  H  H19  1  0.466834  0.753685  0.459235  1
  H  H20  1  0.466834  0.246315  0.959235  1
  H  H21  1  0.533166  0.246315  0.540765  1
  H  H22  1  0.630707  0.331713  0.469059  1
  H  H23  1  0.369293  0.331713  0.030941  1
  H  H24  1  0.369293  0.668287  0.530941  1
  H  H25  1  0.630707  0.668287  0.969059  1
  Cl  Cl26  1  0.500000  0.366866  0.250000  1
  Cl  Cl27  1  0.500000  0.633134  0.750000  1
  Cl  Cl28  1  0.200693  0.166131  0.443012  1
  Cl  Cl29  1  0.799307  0.166131  0.056988  1
  Cl  Cl30  1  0.799307  0.833869  0.556988  1
  Cl  Cl31  1  0.200693  0.833869  0.943012  1
  O  O32  1  0.742578  0.950063  0.283259  1
  O  O33  1  0.257422  0.950063  0.216741  1
  O  O34  1  0.257422  0.049937  0.716741  1
  O  O35  1  0.742578  0.049937  0.783259  1
  O  O36  1  0.943436  0.574263  0.354467  1
  O  O37  1  0.056564  0.574263  0.145533  1
  O  O38  1  0.056564  0.425737  0.645533  1
  O  O39  1  0.943436  0.425737  0.854467  1
  O  O40  1  0.667777  0.704260  0.060799  1
  O  O41  1  0.332223  0.704260  0.439201  1
  O  O42  1  0.332223  0.295740  0.939201  1
  O  O43  1  0.667777  0.295740  0.560799  1
