# generated using pymatgen
data_BH2N
_symmetry_space_group_name_H-M   'P 1'
_cell_length_a   5.60885031
_cell_length_b   5.60885031
_cell_length_c   16.84195883
_cell_angle_alpha   90.00000000
_cell_angle_beta   90.00000000
_cell_angle_gamma   90.00000000
_symmetry_Int_Tables_number   1
_chemical_formula_structural   BH2N
_chemical_formula_sum   'B12 H24 N12'
_cell_volume   529.83458154
_cell_formula_units_Z   12
loop_
 _symmetry_equiv_pos_site_id
 _symmetry_equiv_pos_as_xyz
  1  'x, y, z'
loop_
 _atom_site_type_symbol
 _atom_site_label
 _atom_site_symmetry_multiplicity
 _atom_site_fract_x
 _atom_site_fract_y
 _atom_site_fract_z
 _atom_site_occupancy
  B  B0  1  0.347514  0.553557  0.056892  1
  B  B1  1  0.675341  0.324659  0.250000  1
  B  B2  1  0.324659  0.675341  0.750000  1
  B  B3  1  0.175341  0.175341  0.000000  1
  B  B4  1  0.446443  0.652486  0.443108  1
  B  B5  1  0.553557  0.347514  0.943108  1
  B  B6  1  0.652486  0.446443  0.556892  1
  B  B7  1  0.152486  0.053557  0.693108  1
  B  B8  1  0.847514  0.946443  0.193108  1
  B  B9  1  0.053557  0.152486  0.306892  1
  B  B10  1  0.946443  0.847514  0.806892  1
  B  B11  1  0.824659  0.824659  0.500000  1
  H  H12  1  0.976041  0.976041  0.500000  1
  H  H13  1  0.523959  0.476041  0.250000  1
  H  H14  1  0.476041  0.523959  0.750000  1
  H  H15  1  0.023959  0.023959  0.000000  1
  H  H16  1  0.623726  0.965608  0.404720  1
  H  H17  1  0.376274  0.034392  0.904720  1
  H  H18  1  0.965608  0.623726  0.595280  1
  H  H19  1  0.465608  0.876274  0.654720  1
  H  H20  1  0.534392  0.123726  0.154720  1
  H  H21  1  0.876274  0.465608  0.345280  1
  H  H22  1  0.123726  0.534392  0.845280  1
  H  H23  1  0.034392  0.376274  0.095280  1
  H  H24  1  0.285032  0.662886  0.396410  1
  H  H25  1  0.714968  0.337114  0.896410  1
  H  H26  1  0.662886  0.285032  0.603590  1
  H  H27  1  0.162886  0.214968  0.646410  1
  H  H28  1  0.837114  0.785032  0.146410  1
  H  H29  1  0.664716  0.664716  0.000000  1
  H  H30  1  0.785032  0.837114  0.853590  1
  H  H31  1  0.337114  0.714968  0.103590  1
  H  H32  1  0.335284  0.335284  0.500000  1
  H  H33  1  0.164716  0.835284  0.250000  1
  H  H34  1  0.835284  0.164716  0.750000  1
  H  H35  1  0.214968  0.162886  0.353590  1
  N  N36  1  0.631726  0.828715  0.444140  1
  N  N37  1  0.368274  0.171285  0.944140  1
  N  N38  1  0.828715  0.631726  0.555860  1
  N  N39  1  0.328715  0.868274  0.694140  1
  N  N40  1  0.671285  0.131726  0.194140  1
  N  N41  1  0.868274  0.328715  0.305860  1
  N  N42  1  0.131726  0.671285  0.805860  1
  N  N43  1  0.171285  0.368274  0.055860  1
  N  N44  1  0.463338  0.463338  0.500000  1
  N  N45  1  0.036662  0.963338  0.250000  1
  N  N46  1  0.963338  0.036662  0.750000  1
  N  N47  1  0.536662  0.536662  0.000000  1
