# generated using pymatgen
data_CsPd2Cl5
_symmetry_space_group_name_H-M   'P 1'
_cell_length_a   5.56217734
_cell_length_b   10.95102425
_cell_length_c   16.32329490
_cell_angle_alpha   90.00000000
_cell_angle_beta   90.00000000
_cell_angle_gamma   90.00000000
_symmetry_Int_Tables_number   1
_chemical_formula_structural   CsPd2Cl5
_chemical_formula_sum   'Cs4 Pd8 Cl20'
_cell_volume   994.27701282
_cell_formula_units_Z   4
loop_
 _symmetry_equiv_pos_site_id
 _symmetry_equiv_pos_as_xyz
  1  'x, y, z'
loop_
 _atom_site_type_symbol
 _atom_site_label
 _atom_site_symmetry_multiplicity
 _atom_site_fract_x
 _atom_site_fract_y
 _atom_site_fract_z
 _atom_site_occupancy
  Cs  Cs0  1  0.605203  0.750000  0.735366  1
  Cs  Cs1  1  0.105203  0.250000  0.764634  1
  Cs  Cs2  1  0.394797  0.250000  0.264634  1
  Cs  Cs3  1  0.894797  0.750000  0.235366  1
  Pd  Pd4  1  0.717878  0.415355  0.049741  1
  Pd  Pd5  1  0.217878  0.584645  0.450259  1
  Pd  Pd6  1  0.282122  0.915355  0.950259  1
  Pd  Pd7  1  0.782122  0.084645  0.549741  1
  Pd  Pd8  1  0.282122  0.584645  0.950259  1
  Pd  Pd9  1  0.782122  0.415355  0.549741  1
  Pd  Pd10  1  0.717878  0.084645  0.049741  1
  Pd  Pd11  1  0.217878  0.915355  0.450259  1
  Cl  Cl12  1  0.531464  0.418487  0.919998  1
  Cl  Cl13  1  0.031464  0.581513  0.580002  1
  Cl  Cl14  1  0.468536  0.918487  0.080002  1
  Cl  Cl15  1  0.968536  0.081513  0.419998  1
  Cl  Cl16  1  0.468536  0.581513  0.080002  1
  Cl  Cl17  1  0.968536  0.418487  0.419998  1
  Cl  Cl18  1  0.531464  0.081513  0.919998  1
  Cl  Cl19  1  0.031464  0.918487  0.580002  1
  Cl  Cl20  1  0.883883  0.426949  0.178592  1
  Cl  Cl21  1  0.383883  0.573051  0.321408  1
  Cl  Cl22  1  0.116117  0.926949  0.821408  1
  Cl  Cl23  1  0.616117  0.073051  0.678592  1
  Cl  Cl24  1  0.043158  0.750000  0.984748  1
  Cl  Cl25  1  0.543158  0.250000  0.515252  1
  Cl  Cl26  1  0.956842  0.250000  0.015252  1
  Cl  Cl27  1  0.456842  0.750000  0.484748  1
  Cl  Cl28  1  0.383883  0.926949  0.321408  1
  Cl  Cl29  1  0.883883  0.073051  0.178592  1
  Cl  Cl30  1  0.616117  0.426949  0.678592  1
  Cl  Cl31  1  0.116117  0.573051  0.821408  1
