# generated using pymatgen
data_Ce2Co17
_symmetry_space_group_name_H-M   'P 1'
_cell_length_a   8.32484873
_cell_length_b   8.32484873
_cell_length_c   8.09540304
_cell_angle_alpha   90.00000000
_cell_angle_beta   90.00000000
_cell_angle_gamma   120.00000000
_symmetry_Int_Tables_number   1
_chemical_formula_structural   Ce2Co17
_chemical_formula_sum   'Ce4 Co34'
_cell_volume   485.87192875
_cell_formula_units_Z   2
loop_
 _symmetry_equiv_pos_site_id
 _symmetry_equiv_pos_as_xyz
  1  'x, y, z'
loop_
 _atom_site_type_symbol
 _atom_site_label
 _atom_site_symmetry_multiplicity
 _atom_site_fract_x
 _atom_site_fract_y
 _atom_site_fract_z
 _atom_site_occupancy
  Ce  Ce0  1  0.666667  0.333333  0.250000  1
  Ce  Ce1  1  0.333333  0.666667  0.750000  1
  Ce  Ce2  1  0.000000  0.000000  0.750000  1
  Ce  Ce3  1  0.000000  0.000000  0.250000  1
  Co  Co4  1  0.167333  0.334665  0.523160  1
  Co  Co5  1  0.665335  0.832667  0.523160  1
  Co  Co6  1  0.167333  0.832667  0.523160  1
  Co  Co7  1  0.832667  0.167333  0.023160  1
  Co  Co8  1  0.333333  0.666667  0.105299  1
  Co  Co9  1  0.666667  0.333333  0.605299  1
  Co  Co10  1  0.666667  0.333333  0.894701  1
  Co  Co11  1  0.333333  0.666667  0.394701  1
  Co  Co12  1  0.500000  0.000000  0.000000  1
  Co  Co13  1  0.500000  0.500000  0.500000  1
  Co  Co14  1  0.000000  0.500000  0.500000  1
  Co  Co15  1  0.000000  0.500000  0.000000  1
  Co  Co16  1  0.500000  0.500000  0.000000  1
  Co  Co17  1  0.500000  0.000000  0.500000  1
  Co  Co18  1  0.327988  0.951600  0.250000  1
  Co  Co19  1  0.376388  0.327988  0.750000  1
  Co  Co20  1  0.951600  0.623612  0.750000  1
  Co  Co21  1  0.048400  0.376388  0.250000  1
  Co  Co22  1  0.623612  0.672012  0.250000  1
  Co  Co23  1  0.376388  0.048400  0.750000  1
  Co  Co24  1  0.672012  0.623612  0.750000  1
  Co  Co25  1  0.672012  0.048400  0.750000  1
  Co  Co26  1  0.951600  0.327988  0.750000  1
  Co  Co27  1  0.048400  0.672012  0.250000  1
  Co  Co28  1  0.623612  0.951600  0.250000  1
  Co  Co29  1  0.327988  0.376388  0.250000  1
  Co  Co30  1  0.167333  0.832667  0.976840  1
  Co  Co31  1  0.334665  0.167333  0.476840  1
  Co  Co32  1  0.832667  0.665335  0.476840  1
  Co  Co33  1  0.167333  0.334665  0.976840  1
  Co  Co34  1  0.665335  0.832667  0.976840  1
  Co  Co35  1  0.334665  0.167333  0.023160  1
  Co  Co36  1  0.832667  0.665335  0.023160  1
  Co  Co37  1  0.832667  0.167333  0.476840  1
