# generated using pymatgen
data_Cs6Cl4O
_symmetry_space_group_name_H-M   'P 1'
_cell_length_a   9.66044483
_cell_length_b   9.66044483
_cell_length_c   9.66044483
_cell_angle_alpha   89.25403242
_cell_angle_beta   89.25403242
_cell_angle_gamma   89.25403242
_symmetry_Int_Tables_number   1
_chemical_formula_structural   Cs6Cl4O
_chemical_formula_sum   'Cs12 Cl8 O2'
_cell_volume   901.32597124
_cell_formula_units_Z   2
loop_
 _symmetry_equiv_pos_site_id
 _symmetry_equiv_pos_as_xyz
  1  'x, y, z'
loop_
 _atom_site_type_symbol
 _atom_site_label
 _atom_site_symmetry_multiplicity
 _atom_site_fract_x
 _atom_site_fract_y
 _atom_site_fract_z
 _atom_site_occupancy
  Cs  Cs0  1  0.286007  0.066284  0.944733  1
  Cs  Cs1  1  0.944733  0.286007  0.066284  1
  Cs  Cs2  1  0.066284  0.944733  0.286007  1
  Cs  Cs3  1  0.213993  0.555267  0.433716  1
  Cs  Cs4  1  0.555267  0.433716  0.213993  1
  Cs  Cs5  1  0.433716  0.213993  0.555267  1
  Cs  Cs6  1  0.055267  0.713993  0.933716  1
  Cs  Cs7  1  0.713993  0.933716  0.055267  1
  Cs  Cs8  1  0.933716  0.055267  0.713993  1
  Cs  Cs9  1  0.786007  0.444733  0.566284  1
  Cs  Cs10  1  0.444733  0.566284  0.786007  1
  Cs  Cs11  1  0.566284  0.786007  0.444733  1
  Cl  Cl12  1  0.250000  0.250000  0.250000  1
  Cl  Cl13  1  0.750000  0.750000  0.750000  1
  Cl  Cl14  1  0.867827  0.632173  0.250000  1
  Cl  Cl15  1  0.632173  0.250000  0.867827  1
  Cl  Cl16  1  0.250000  0.867827  0.632173  1
  Cl  Cl17  1  0.132173  0.367827  0.750000  1
  Cl  Cl18  1  0.367827  0.750000  0.132173  1
  Cl  Cl19  1  0.750000  0.132173  0.367827  1
  O  O20  1  0.500000  0.500000  0.500000  1
  O  O21  1  0.000000  0.000000  0.000000  1
