# generated using pymatgen
data_Th(Fe2P)2
_symmetry_space_group_name_H-M   'P 1'
_cell_length_a   3.71712329
_cell_length_b   10.73029932
_cell_length_c   14.25628032
_cell_angle_alpha   90.00000000
_cell_angle_beta   90.00000000
_cell_angle_gamma   90.00000000
_symmetry_Int_Tables_number   1
_chemical_formula_structural   Th(Fe2P)2
_chemical_formula_sum   'Th6 Fe24 P12'
_cell_volume   568.62379441
_cell_formula_units_Z   6
loop_
 _symmetry_equiv_pos_site_id
 _symmetry_equiv_pos_as_xyz
  1  'x, y, z'
loop_
 _atom_site_type_symbol
 _atom_site_label
 _atom_site_symmetry_multiplicity
 _atom_site_fract_x
 _atom_site_fract_y
 _atom_site_fract_z
 _atom_site_occupancy
  Th  Th0  1  0.500000  0.376789  0.225891  1
  Th  Th1  1  0.500000  0.623211  0.774109  1
  Th  Th2  1  0.000000  0.876789  0.274109  1
  Th  Th3  1  0.000000  0.123211  0.725891  1
  Th  Th4  1  0.500000  0.500000  0.500000  1
  Th  Th5  1  0.000000  0.000000  0.000000  1
  Fe  Fe6  1  0.000000  0.077739  0.445098  1
  Fe  Fe7  1  0.500000  0.577739  0.054902  1
  Fe  Fe8  1  0.000000  0.593316  0.946762  1
  Fe  Fe9  1  0.000000  0.406684  0.053238  1
  Fe  Fe10  1  0.500000  0.093316  0.553238  1
  Fe  Fe11  1  0.500000  0.422261  0.945098  1
  Fe  Fe12  1  0.000000  0.261302  0.536673  1
  Fe  Fe13  1  0.000000  0.738698  0.463327  1
  Fe  Fe14  1  0.500000  0.761302  0.963327  1
  Fe  Fe15  1  0.500000  0.238698  0.036673  1
  Fe  Fe16  1  0.000000  0.430837  0.673978  1
  Fe  Fe17  1  0.000000  0.569163  0.326022  1
  Fe  Fe18  1  0.500000  0.930837  0.826022  1
  Fe  Fe19  1  0.500000  0.069163  0.173978  1
  Fe  Fe20  1  0.000000  0.822683  0.710888  1
  Fe  Fe21  1  0.000000  0.177317  0.289112  1
  Fe  Fe22  1  0.500000  0.322683  0.789112  1
  Fe  Fe23  1  0.500000  0.677317  0.210888  1
  Fe  Fe24  1  0.500000  0.235461  0.421047  1
  Fe  Fe25  1  0.500000  0.764539  0.578953  1
  Fe  Fe26  1  0.000000  0.735461  0.078953  1
  Fe  Fe27  1  0.000000  0.264539  0.921047  1
  Fe  Fe28  1  0.500000  0.906684  0.446762  1
  Fe  Fe29  1  0.000000  0.922261  0.554902  1
  P  P30  1  0.500000  0.849840  0.114271  1
  P  P31  1  0.500000  0.150160  0.885729  1
  P  P32  1  0.000000  0.349840  0.385729  1
  P  P33  1  0.000000  0.650160  0.614271  1
  P  P34  1  0.500000  0.704146  0.368083  1
  P  P35  1  0.500000  0.295854  0.631917  1
  P  P36  1  0.500000  0.070064  0.335040  1
  P  P37  1  0.500000  0.929936  0.664960  1
  P  P38  1  0.000000  0.570064  0.164960  1
  P  P39  1  0.000000  0.429936  0.835040  1
  P  P40  1  0.000000  0.204146  0.131917  1
  P  P41  1  0.000000  0.795854  0.868083  1
