# generated using pymatgen
data_Pr12C6I17
_symmetry_space_group_name_H-M   'P 1'
_cell_length_a   12.01463074
_cell_length_b   12.01463074
_cell_length_c   19.50383436
_cell_angle_alpha   89.25166500
_cell_angle_beta   90.74833500
_cell_angle_gamma   116.00701268
_symmetry_Int_Tables_number   1
_chemical_formula_structural   Pr12C6I17
_chemical_formula_sum   'Pr24 C12 I34'
_cell_volume   2530.01797895
_cell_formula_units_Z   2
loop_
 _symmetry_equiv_pos_site_id
 _symmetry_equiv_pos_as_xyz
  1  'x, y, z'
loop_
 _atom_site_type_symbol
 _atom_site_label
 _atom_site_symmetry_multiplicity
 _atom_site_fract_x
 _atom_site_fract_y
 _atom_site_fract_z
 _atom_site_occupancy
  Pr  Pr0  1  0.703667  0.710891  0.020600  1
  Pr  Pr1  1  0.710891  0.703667  0.479400  1
  Pr  Pr2  1  0.296333  0.289109  0.979400  1
  Pr  Pr3  1  0.289109  0.296333  0.520600  1
  Pr  Pr4  1  0.451577  0.534154  0.128031  1
  Pr  Pr5  1  0.534154  0.451577  0.371969  1
  Pr  Pr6  1  0.548423  0.465846  0.871969  1
  Pr  Pr7  1  0.465846  0.548423  0.628031  1
  Pr  Pr8  1  0.575948  0.899038  0.116925  1
  Pr  Pr9  1  0.899038  0.575948  0.383075  1
  Pr  Pr10  1  0.424052  0.100962  0.883075  1
  Pr  Pr11  1  0.100962  0.424052  0.616925  1
  Pr  Pr12  1  0.358889  0.641438  0.949790  1
  Pr  Pr13  1  0.641438  0.358889  0.550210  1
  Pr  Pr14  1  0.641111  0.358562  0.050210  1
  Pr  Pr15  1  0.358562  0.641111  0.449790  1
  Pr  Pr16  1  0.923461  0.020178  0.152232  1
  Pr  Pr17  1  0.020178  0.923461  0.347768  1
  Pr  Pr18  1  0.076539  0.979822  0.847768  1
  Pr  Pr19  1  0.979822  0.076539  0.652232  1
  Pr  Pr20  1  0.661832  0.808327  0.288876  1
  Pr  Pr21  1  0.808327  0.661832  0.211124  1
  Pr  Pr22  1  0.338168  0.191673  0.711124  1
  Pr  Pr23  1  0.191673  0.338168  0.788876  1
  C  C24  1  0.634199  0.720967  0.149767  1
  C  C25  1  0.720967  0.634199  0.350233  1
  C  C26  1  0.365801  0.279033  0.850233  1
  C  C27  1  0.279033  0.365801  0.649767  1
  C  C28  1  0.743160  0.831324  0.152860  1
  C  C29  1  0.831324  0.743160  0.347140  1
  C  C30  1  0.256840  0.168676  0.847140  1
  C  C31  1  0.168676  0.256840  0.652860  1
  C  C32  1  0.468116  0.532826  0.988452  1
  C  C33  1  0.532826  0.468116  0.511548  1
  C  C34  1  0.531884  0.467174  0.011548  1
  C  C35  1  0.467174  0.531884  0.488452  1
  I  I36  1  0.787776  0.180323  0.101034  1
  I  I37  1  0.180323  0.787776  0.398966  1
  I  I38  1  0.212224  0.819677  0.898966  1
  I  I39  1  0.819677  0.212224  0.601034  1
  I  I40  1  0.193738  0.282730  0.137688  1
  I  I41  1  0.282730  0.193738  0.362312  1
  I  I42  1  0.806262  0.717270  0.862312  1
  I  I43  1  0.717270  0.806262  0.637688  1
  I  I44  1  0.000000  0.000000  0.000000  1
  I  I45  1  0.000000  0.000000  0.500000  1
  I  I46  1  0.603125  0.895226  0.440074  1
  I  I47  1  0.895226  0.603125  0.059926  1
  I  I48  1  0.396875  0.104774  0.559926  1
  I  I49  1  0.104774  0.396875  0.940074  1
  I  I50  1  0.095103  0.398214  0.451081  1
  I  I51  1  0.398214  0.095103  0.048919  1
  I  I52  1  0.904897  0.601786  0.548919  1
  I  I53  1  0.601786  0.904897  0.951081  1
  I  I54  1  0.501797  0.966254  0.254170  1
  I  I55  1  0.966254  0.501797  0.245830  1
  I  I56  1  0.498203  0.033746  0.745830  1
  I  I57  1  0.033746  0.498203  0.754170  1
  I  I58  1  0.887614  0.093178  0.303143  1
  I  I59  1  0.093178  0.887614  0.196857  1
  I  I60  1  0.112386  0.906822  0.696857  1
  I  I61  1  0.906822  0.112386  0.803143  1
  I  I62  1  0.291407  0.689779  0.100237  1
  I  I63  1  0.689779  0.291407  0.399763  1
  I  I64  1  0.708593  0.310221  0.899763  1
  I  I65  1  0.310221  0.708593  0.600237  1
  I  I66  1  0.374437  0.576542  0.291986  1
  I  I67  1  0.576542  0.374437  0.208014  1
  I  I68  1  0.625563  0.423458  0.708014  1
  I  I69  1  0.423458  0.625563  0.791986  1
