# generated using pymatgen
data_Cr2Te3
_symmetry_space_group_name_H-M   'P 1'
_cell_length_a   6.89726057
_cell_length_b   6.89726057
_cell_length_c   12.30005827
_cell_angle_alpha   90.00000000
_cell_angle_beta   90.00000000
_cell_angle_gamma   120.00000000
_symmetry_Int_Tables_number   1
_chemical_formula_structural   Cr2Te3
_chemical_formula_sum   'Cr8 Te12'
_cell_volume   506.74686141
_cell_formula_units_Z   4
loop_
 _symmetry_equiv_pos_site_id
 _symmetry_equiv_pos_as_xyz
  1  'x, y, z'
loop_
 _atom_site_type_symbol
 _atom_site_label
 _atom_site_symmetry_multiplicity
 _atom_site_fract_x
 _atom_site_fract_y
 _atom_site_fract_z
 _atom_site_occupancy
  Cr  Cr0  1  0.333333  0.666667  0.250000  1
  Cr  Cr1  1  0.666667  0.333333  0.750000  1
  Cr  Cr2  1  0.000000  0.000000  0.000000  1
  Cr  Cr3  1  0.000000  0.000000  0.500000  1
  Cr  Cr4  1  0.333333  0.666667  0.992760  1
  Cr  Cr5  1  0.333333  0.666667  0.507240  1
  Cr  Cr6  1  0.666667  0.333333  0.007240  1
  Cr  Cr7  1  0.666667  0.333333  0.492760  1
  Te  Te8  1  0.329407  0.995083  0.377646  1
  Te  Te9  1  0.004917  0.334324  0.377646  1
  Te  Te10  1  0.665676  0.670593  0.377646  1
  Te  Te11  1  0.004917  0.670593  0.122354  1
  Te  Te12  1  0.665676  0.995083  0.122354  1
  Te  Te13  1  0.329407  0.334324  0.122354  1
  Te  Te14  1  0.670593  0.004917  0.622354  1
  Te  Te15  1  0.995083  0.665676  0.622354  1
  Te  Te16  1  0.334324  0.329407  0.622354  1
  Te  Te17  1  0.995083  0.329407  0.877646  1
  Te  Te18  1  0.334324  0.004917  0.877646  1
  Te  Te19  1  0.670593  0.665676  0.877646  1
