# generated using pymatgen
data_PuH3
_symmetry_space_group_name_H-M   'P 1'
_cell_length_a   3.72252087
_cell_length_b   3.72252087
_cell_length_c   6.68810653
_cell_angle_alpha   90.00000000
_cell_angle_beta   90.00000000
_cell_angle_gamma   120.00000000
_symmetry_Int_Tables_number   1
_chemical_formula_structural   PuH3
_chemical_formula_sum   'Pu2 H6'
_cell_volume   80.26165240
_cell_formula_units_Z   2
loop_
 _symmetry_equiv_pos_site_id
 _symmetry_equiv_pos_as_xyz
  1  'x, y, z'
loop_
 _atom_site_type_symbol
 _atom_site_label
 _atom_site_symmetry_multiplicity
 _atom_site_fract_x
 _atom_site_fract_y
 _atom_site_fract_z
 _atom_site_occupancy
  Pu  Pu0  1  0.666667  0.333333  0.750000  1
  Pu  Pu1  1  0.333333  0.666667  0.250000  1
  H  H2  1  0.333333  0.666667  0.905704  1
  H  H3  1  0.666667  0.333333  0.405704  1
  H  H4  1  0.000000  0.000000  0.250000  1
  H  H5  1  0.000000  0.000000  0.750000  1
  H  H6  1  0.333333  0.666667  0.594296  1
  H  H7  1  0.666667  0.333333  0.094296  1
