# generated using pymatgen
data_Er15C19
_symmetry_space_group_name_H-M   'P 1'
_cell_length_a   8.07404936
_cell_length_b   8.07404936
_cell_length_c   15.33417794
_cell_angle_alpha   90.00000000
_cell_angle_beta   90.00000000
_cell_angle_gamma   90.00000000
_symmetry_Int_Tables_number   1
_chemical_formula_structural   Er15C19
_chemical_formula_sum   'Er30 C38'
_cell_volume   999.63924718
_cell_formula_units_Z   2
loop_
 _symmetry_equiv_pos_site_id
 _symmetry_equiv_pos_as_xyz
  1  'x, y, z'
loop_
 _atom_site_type_symbol
 _atom_site_label
 _atom_site_symmetry_multiplicity
 _atom_site_fract_x
 _atom_site_fract_y
 _atom_site_fract_z
 _atom_site_occupancy
  Er  Er0  1  0.098197  0.715309  0.649801  1
  Er  Er1  1  0.901803  0.284691  0.649801  1
  Er  Er2  1  0.784691  0.401803  0.149801  1
  Er  Er3  1  0.284691  0.098197  0.350199  1
  Er  Er4  1  0.715309  0.901803  0.350199  1
  Er  Er5  1  0.401803  0.215309  0.850199  1
  Er  Er6  1  0.598197  0.784691  0.850199  1
  Er  Er7  1  0.215309  0.598197  0.149801  1
  Er  Er8  1  0.284691  0.098197  0.649801  1
  Er  Er9  1  0.715309  0.901803  0.649801  1
  Er  Er10  1  0.401803  0.215309  0.149801  1
  Er  Er11  1  0.901803  0.284691  0.350199  1
  Er  Er12  1  0.098197  0.715309  0.350199  1
  Er  Er13  1  0.215309  0.598197  0.850199  1
  Er  Er14  1  0.784691  0.401803  0.850199  1
  Er  Er15  1  0.598197  0.784691  0.149801  1
  Er  Er16  1  0.202885  0.406587  0.500000  1
  Er  Er17  1  0.797115  0.593413  0.500000  1
  Er  Er18  1  0.093413  0.297115  0.000000  1
  Er  Er19  1  0.593413  0.202885  0.500000  1
  Er  Er20  1  0.406587  0.797115  0.500000  1
  Er  Er21  1  0.297115  0.906587  0.000000  1
  Er  Er22  1  0.702885  0.093413  0.000000  1
  Er  Er23  1  0.906587  0.702885  0.000000  1
  Er  Er24  1  0.000000  0.000000  0.830766  1
  Er  Er25  1  0.000000  0.000000  0.169234  1
  Er  Er26  1  0.500000  0.500000  0.669234  1
  Er  Er27  1  0.500000  0.500000  0.330766  1
  Er  Er28  1  0.000000  0.000000  0.500000  1
  Er  Er29  1  0.500000  0.500000  0.000000  1
  C  C30  1  0.403853  0.803080  0.671467  1
  C  C31  1  0.596147  0.196920  0.671467  1
  C  C32  1  0.696920  0.096147  0.171467  1
  C  C33  1  0.196920  0.403853  0.328533  1
  C  C34  1  0.803080  0.596147  0.328533  1
  C  C35  1  0.096147  0.303080  0.828533  1
  C  C36  1  0.903853  0.696920  0.828533  1
  C  C37  1  0.303080  0.903853  0.171467  1
  C  C38  1  0.151450  0.348550  0.750000  1
  C  C39  1  0.848550  0.651450  0.750000  1
  C  C40  1  0.151450  0.348550  0.250000  1
  C  C41  1  0.651450  0.151450  0.250000  1
  C  C42  1  0.348550  0.848550  0.250000  1
  C  C43  1  0.348550  0.848550  0.750000  1
  C  C44  1  0.651450  0.151450  0.750000  1
  C  C45  1  0.848550  0.651450  0.250000  1
  C  C46  1  0.602407  0.802453  0.000000  1
  C  C47  1  0.196920  0.403853  0.671467  1
  C  C48  1  0.096147  0.303080  0.171467  1
  C  C49  1  0.596147  0.196920  0.328533  1
  C  C50  1  0.403853  0.803080  0.328533  1
  C  C51  1  0.303080  0.903853  0.828533  1
  C  C52  1  0.696920  0.096147  0.828533  1
  C  C53  1  0.903853  0.696920  0.171467  1
  C  C54  1  0.102407  0.697547  0.500000  1
  C  C55  1  0.897593  0.302453  0.500000  1
  C  C56  1  0.802453  0.397593  0.000000  1
  C  C57  1  0.302453  0.102407  0.500000  1
  C  C58  1  0.697547  0.897593  0.500000  1
  C  C59  1  0.397593  0.197547  0.000000  1
  C  C60  1  0.500000  0.500000  0.500000  1
  C  C61  1  0.000000  0.000000  0.000000  1
  C  C62  1  0.500000  0.500000  0.163088  1
  C  C63  1  0.500000  0.500000  0.836912  1
  C  C64  1  0.000000  0.000000  0.336912  1
  C  C65  1  0.000000  0.000000  0.663088  1
  C  C66  1  0.197547  0.602407  0.000000  1
  C  C67  1  0.803080  0.596147  0.671467  1
