# generated using pymatgen
data_HgH2SeO5
_symmetry_space_group_name_H-M   'P 1'
_cell_length_a   8.07932236
_cell_length_b   7.79172913
_cell_length_c   8.61446869
_cell_angle_alpha   90.00000000
_cell_angle_beta   121.48319978
_cell_angle_gamma   90.00000000
_symmetry_Int_Tables_number   1
_chemical_formula_structural   HgH2SeO5
_chemical_formula_sum   'Hg4 H8 Se4 O20'
_cell_volume   462.46735024
_cell_formula_units_Z   4
loop_
 _symmetry_equiv_pos_site_id
 _symmetry_equiv_pos_as_xyz
  1  'x, y, z'
loop_
 _atom_site_type_symbol
 _atom_site_label
 _atom_site_symmetry_multiplicity
 _atom_site_fract_x
 _atom_site_fract_y
 _atom_site_fract_z
 _atom_site_occupancy
  Hg  Hg0  1  0.207572  0.732181  0.757172  1
  Hg  Hg1  1  0.792428  0.232181  0.742828  1
  Hg  Hg2  1  0.792428  0.267819  0.242828  1
  Hg  Hg3  1  0.207572  0.767819  0.257172  1
  H  H4  1  0.416138  0.565340  0.121748  1
  H  H5  1  0.583862  0.065340  0.378252  1
  H  H6  1  0.583862  0.434660  0.878252  1
  H  H7  1  0.416138  0.934660  0.621748  1
  H  H8  1  0.207645  0.478218  0.019566  1
  H  H9  1  0.792355  0.978218  0.480434  1
  H  H10  1  0.792355  0.521782  0.980434  1
  H  H11  1  0.207645  0.021782  0.519566  1
  Se  Se12  1  0.264118  0.114108  0.015756  1
  Se  Se13  1  0.735882  0.614108  0.484244  1
  Se  Se14  1  0.735882  0.885892  0.984244  1
  Se  Se15  1  0.264118  0.385892  0.515756  1
  O  O16  1  0.117806  0.516003  0.340758  1
  O  O17  1  0.882194  0.016003  0.159242  1
  O  O18  1  0.882194  0.483997  0.659242  1
  O  O19  1  0.117806  0.983997  0.840758  1
  O  O20  1  0.350480  0.492389  0.715723  1
  O  O21  1  0.649520  0.992389  0.784277  1
  O  O22  1  0.649520  0.507611  0.284277  1
  O  O23  1  0.350480  0.007611  0.215723  1
  O  O24  1  0.449405  0.305002  0.508056  1
  O  O25  1  0.550595  0.805002  0.991944  1
  O  O26  1  0.550595  0.694998  0.491944  1
  O  O27  1  0.449405  0.194998  0.008056  1
  O  O28  1  0.114111  0.225953  0.500843  1
  O  O29  1  0.885889  0.725953  0.999157  1
  O  O30  1  0.885889  0.774047  0.499157  1
  O  O31  1  0.114111  0.274047  0.000843  1
  O  O32  1  0.274356  0.907712  0.543310  1
  O  O33  1  0.725644  0.407712  0.956690  1
  O  O34  1  0.725644  0.092288  0.456690  1
  O  O35  1  0.274356  0.592288  0.043310  1
