# generated using pymatgen
data_Tl4O3
_symmetry_space_group_name_H-M   'P 1'
_cell_length_a   7.94598296
_cell_length_b   3.55955895
_cell_length_c   11.34091255
_cell_angle_alpha   90.00000000
_cell_angle_beta   109.53234801
_cell_angle_gamma   90.00000000
_symmetry_Int_Tables_number   1
_chemical_formula_structural   Tl4O3
_chemical_formula_sum   'Tl8 O6'
_cell_volume   302.30927162
_cell_formula_units_Z   2
loop_
 _symmetry_equiv_pos_site_id
 _symmetry_equiv_pos_as_xyz
  1  'x, y, z'
loop_
 _atom_site_type_symbol
 _atom_site_label
 _atom_site_symmetry_multiplicity
 _atom_site_fract_x
 _atom_site_fract_y
 _atom_site_fract_z
 _atom_site_occupancy
  Tl  Tl0  1  0.568999  0.250000  0.392373  1
  Tl  Tl1  1  0.431001  0.750000  0.607627  1
  Tl  Tl2  1  0.916003  0.750000  0.624481  1
  Tl  Tl3  1  0.083997  0.250000  0.375519  1
  Tl  Tl4  1  0.695014  0.750000  0.160522  1
  Tl  Tl5  1  0.304986  0.250000  0.839478  1
  Tl  Tl6  1  0.234824  0.750000  0.136864  1
  Tl  Tl7  1  0.765176  0.250000  0.863136  1
  O  O8  1  0.761550  0.750000  0.399761  1
  O  O9  1  0.238450  0.250000  0.600239  1
  O  O10  1  0.524999  0.750000  0.819028  1
  O  O11  1  0.475001  0.250000  0.180972  1
  O  O12  1  0.361927  0.750000  0.392395  1
  O  O13  1  0.638073  0.250000  0.607605  1
