# generated using pymatgen
data_Te3SeO8
_symmetry_space_group_name_H-M   'P 1'
_cell_length_a   5.02602878
_cell_length_b   7.01487522
_cell_length_c   11.81086544
_cell_angle_alpha   77.62404750
_cell_angle_beta   78.60706958
_cell_angle_gamma   69.40145798
_symmetry_Int_Tables_number   1
_chemical_formula_structural   Te3SeO8
_chemical_formula_sum   'Te6 Se2 O16'
_cell_volume   377.32326530
_cell_formula_units_Z   2
loop_
 _symmetry_equiv_pos_site_id
 _symmetry_equiv_pos_as_xyz
  1  'x, y, z'
loop_
 _atom_site_type_symbol
 _atom_site_label
 _atom_site_symmetry_multiplicity
 _atom_site_fract_x
 _atom_site_fract_y
 _atom_site_fract_z
 _atom_site_occupancy
  Te  Te0  1  0.488072  0.745409  0.571545  1
  Te  Te1  1  0.511928  0.254591  0.428455  1
  Te  Te2  1  0.110602  0.464881  0.805917  1
  Te  Te3  1  0.889398  0.535119  0.194083  1
  Te  Te4  1  0.857952  0.137926  0.696402  1
  Te  Te5  1  0.142048  0.862074  0.303598  1
  Se  Se6  1  0.347935  0.825264  0.904606  1
  Se  Se7  1  0.652065  0.174736  0.095394  1
  O  O8  1  0.507970  0.297910  0.802939  1
  O  O9  1  0.492030  0.702090  0.197061  1
  O  O10  1  0.178395  0.638413  0.927740  1
  O  O11  1  0.821605  0.361587  0.072260  1
  O  O12  1  0.588848  0.775077  0.780527  1
  O  O13  1  0.411152  0.224923  0.219473  1
  O  O14  1  0.646784  0.307772  0.557169  1
  O  O15  1  0.353216  0.692228  0.442831  1
  O  O16  1  0.745583  0.968957  0.435009  1
  O  O17  1  0.254417  0.031043  0.564991  1
  O  O18  1  0.993157  0.636670  0.328219  1
  O  O19  1  0.006843  0.363330  0.671781  1
  O  O20  1  0.841389  0.316360  0.320819  1
  O  O21  1  0.158611  0.683640  0.679181  1
  O  O22  1  0.922451  0.948452  0.143609  1
  O  O23  1  0.077549  0.051548  0.856391  1
