# generated using pymatgen
data_SrAl2
_symmetry_space_group_name_H-M   'P 1'
_cell_length_a   6.09253951
_cell_length_b   6.09253951
_cell_length_c   6.09253951
_cell_angle_alpha   133.57981593
_cell_angle_beta   99.12646785
_cell_angle_gamma   98.74408913
_symmetry_Int_Tables_number   1
_chemical_formula_structural   SrAl2
_chemical_formula_sum   'Sr2 Al4'
_cell_volume   150.56558432
_cell_formula_units_Z   2
loop_
 _symmetry_equiv_pos_site_id
 _symmetry_equiv_pos_as_xyz
  1  'x, y, z'
loop_
 _atom_site_type_symbol
 _atom_site_label
 _atom_site_symmetry_multiplicity
 _atom_site_fract_x
 _atom_site_fract_y
 _atom_site_fract_z
 _atom_site_occupancy
  Sr  Sr0  1  0.199928  0.449928  0.750000  1
  Sr  Sr1  1  0.800072  0.550072  0.250000  1
  Al  Al2  1  0.770628  0.838946  0.931682  1
  Al  Al3  1  0.229372  0.161054  0.068318  1
  Al  Al4  1  0.592736  0.161054  0.431682  1
  Al  Al5  1  0.407264  0.838946  0.568318  1
