# generated using pymatgen
data_Na3B5S9
_symmetry_space_group_name_H-M   'P 1'
_cell_length_a   16.71574965
_cell_length_b   16.71574965
_cell_length_c   16.71574965
_cell_angle_alpha   128.39683805
_cell_angle_beta   128.39683805
_cell_angle_gamma   75.98304236
_symmetry_Int_Tables_number   1
_chemical_formula_structural   Na3B5S9
_chemical_formula_sum   'Na24 B40 S72'
_cell_volume   2789.39058824
_cell_formula_units_Z   8
loop_
 _symmetry_equiv_pos_site_id
 _symmetry_equiv_pos_as_xyz
  1  'x, y, z'
loop_
 _atom_site_type_symbol
 _atom_site_label
 _atom_site_symmetry_multiplicity
 _atom_site_fract_x
 _atom_site_fract_y
 _atom_site_fract_z
 _atom_site_occupancy
  Na  Na0  1  0.875000  0.625000  0.250000  1
  Na  Na1  1  0.375000  0.625000  0.250000  1
  Na  Na2  1  0.375000  0.125000  0.750000  1
  Na  Na3  1  0.375000  0.125000  0.250000  1
  Na  Na4  1  0.875000  0.125000  0.750000  1
  Na  Na5  1  0.875000  0.125000  0.250000  1
  Na  Na6  1  0.875000  0.625000  0.750000  1
  Na  Na7  1  0.375000  0.625000  0.750000  1
  Na  Na8  1  0.038273  0.375000  0.163273  1
  Na  Na9  1  0.125000  0.461727  0.836727  1
  Na  Na10  1  0.625000  0.288273  0.163273  1
  Na  Na11  1  0.211727  0.875000  0.836727  1
  Na  Na12  1  0.711727  0.875000  0.336727  1
  Na  Na13  1  0.625000  0.788273  0.663273  1
  Na  Na14  1  0.125000  0.961727  0.336727  1
  Na  Na15  1  0.538273  0.375000  0.663273  1
  Na  Na16  1  0.046071  0.046071  0.592141  1
  Na  Na17  1  0.796071  0.703929  0.500000  1
  Na  Na18  1  0.203929  0.296071  0.500000  1
  Na  Na19  1  0.453929  0.453929  0.407859  1
  Na  Na20  1  0.703929  0.203929  0.907859  1
  Na  Na21  1  0.953929  0.546071  0.000000  1
  Na  Na22  1  0.546071  0.953929  0.000000  1
  Na  Na23  1  0.296071  0.796071  0.092141  1
  B  B24  1  0.099099  0.774439  0.373726  1
  B  B25  1  0.524439  0.650713  0.175340  1
  B  B26  1  0.475373  0.349099  0.824660  1
  B  B27  1  0.150901  0.024627  0.175340  1
  B  B28  1  0.849287  0.975561  0.824660  1
  B  B29  1  0.774627  0.099287  0.373726  1
  B  B30  1  0.725561  0.400901  0.626274  1
  B  B31  1  0.400713  0.725373  0.626274  1
  B  B32  1  0.650901  0.475561  0.126274  1
  B  B33  1  0.225561  0.599287  0.324660  1
  B  B34  1  0.274627  0.900901  0.675340  1
  B  B35  1  0.599099  0.225373  0.324660  1
  B  B36  1  0.900713  0.274439  0.675340  1
  B  B37  1  0.975373  0.150713  0.126274  1
  B  B38  1  0.024439  0.849099  0.873726  1
  B  B39  1  0.349287  0.524627  0.873726  1
  B  B40  1  0.165400  0.665400  0.500000  1
  B  B41  1  0.415400  0.415400  0.000000  1
  B  B42  1  0.084600  0.084600  0.000000  1
  B  B43  1  0.834600  0.334600  0.500000  1
  B  B44  1  0.584600  0.584600  0.000000  1
  B  B45  1  0.334600  0.834600  0.500000  1
  B  B46  1  0.665400  0.165400  0.500000  1
  B  B47  1  0.915400  0.915400  0.000000  1
  B  B48  1  0.045335  0.834851  0.546391  1
  B  B49  1  0.584851  0.538460  0.289516  1
  B  B50  1  0.248944  0.295335  0.710484  1
  B  B51  1  0.204665  0.251056  0.289516  1
  B  B52  1  0.961540  0.915149  0.710484  1
  B  B53  1  0.001056  0.211540  0.546391  1
  B  B54  1  0.665149  0.454665  0.453609  1
  B  B55  1  0.288460  0.498944  0.453609  1
  B  B56  1  0.704665  0.415149  0.953609  1
  B  B57  1  0.165149  0.711540  0.210484  1
  B  B58  1  0.501056  0.954665  0.789516  1
  B  B59  1  0.545335  0.998944  0.210484  1
  B  B60  1  0.788460  0.334851  0.789516  1
  B  B61  1  0.748944  0.038460  0.953609  1
  B  B62  1  0.084851  0.795335  0.046391  1
  B  B63  1  0.461540  0.751056  0.046391  1
  S  S64  1  0.116755  0.641654  0.345094  1
  S  S65  1  0.391654  0.546561  0.024899  1
  S  S66  1  0.521661  0.366755  0.975101  1
  S  S67  1  0.133245  0.978339  0.024899  1
  S  S68  1  0.953439  0.108346  0.975101  1
  S  S69  1  0.728339  0.203439  0.345094  1
  S  S70  1  0.858346  0.383245  0.654906  1
  S  S71  1  0.296561  0.771661  0.654906  1
  S  S72  1  0.633245  0.608346  0.154906  1
  S  S73  1  0.358346  0.703439  0.475101  1
  S  S74  1  0.228339  0.883245  0.524899  1
  S  S75  1  0.616755  0.271661  0.475101  1
  S  S76  1  0.796561  0.141654  0.524899  1
  S  S77  1  0.021661  0.046561  0.154906  1
  S  S78  1  0.891654  0.866755  0.845094  1
  S  S79  1  0.453439  0.478339  0.845094  1
  S  S80  1  0.172879  0.946739  0.703219  1
  S  S81  1  0.696739  0.493520  0.273861  1
  S  S82  1  0.219660  0.422879  0.726139  1
  S  S83  1  0.077121  0.280340  0.273861  1
  S  S84  1  0.006480  0.803261  0.726139  1
  S  S85  1  0.030340  0.256480  0.703219  1
  S  S86  1  0.553261  0.327121  0.296781  1
  S  S87  1  0.243520  0.469660  0.296781  1
  S  S88  1  0.577121  0.303261  0.796781  1
  S  S89  1  0.053261  0.756480  0.226139  1
  S  S90  1  0.530340  0.827121  0.773861  1
  S  S91  1  0.672879  0.969660  0.226139  1
  S  S92  1  0.743520  0.446739  0.773861  1
  S  S93  1  0.719660  0.993520  0.796781  1
  S  S94  1  0.196739  0.922879  0.203219  1
  S  S95  1  0.506480  0.780340  0.203219  1
  S  S96  1  0.993448  0.820515  0.395408  1
  S  S97  1  0.570515  0.675107  0.327068  1
  S  S98  1  0.348040  0.243448  0.672932  1
  S  S99  1  0.256552  0.151960  0.327068  1
  S  S100  1  0.824893  0.929485  0.672932  1
  S  S101  1  0.901960  0.074893  0.395408  1
  S  S102  1  0.679485  0.506552  0.604592  1
  S  S103  1  0.425107  0.598040  0.604592  1
  S  S104  1  0.756552  0.429485  0.104592  1
  S  S105  1  0.179485  0.574893  0.172932  1
  S  S106  1  0.401960  0.006552  0.827068  1
  S  S107  1  0.493448  0.098040  0.172932  1
  S  S108  1  0.925107  0.320515  0.827068  1
  S  S109  1  0.848040  0.175107  0.104592  1
  S  S110  1  0.070515  0.743448  0.895408  1
  S  S111  1  0.324893  0.651960  0.895408  1
  S  S112  1  0.059911  0.704839  0.520171  1
  S  S113  1  0.454839  0.434668  0.144928  1
  S  S114  1  0.289740  0.309911  0.855072  1
  S  S115  1  0.190089  0.210260  0.144928  1
  S  S116  1  0.065332  0.045161  0.855072  1
  S  S117  1  0.960260  0.315332  0.520171  1
  S  S118  1  0.795161  0.440089  0.479829  1
  S  S119  1  0.184668  0.539740  0.479829  1
  S  S120  1  0.690089  0.545161  0.979829  1
  S  S121  1  0.295161  0.815332  0.355072  1
  S  S122  1  0.460260  0.940089  0.644928  1
  S  S123  1  0.559911  0.039740  0.355072  1
  S  S124  1  0.684668  0.204839  0.644928  1
  S  S125  1  0.789740  0.934668  0.979829  1
  S  S126  1  0.954839  0.809911  0.020171  1
  S  S127  1  0.565332  0.710260  0.020171  1
  S  S128  1  0.929088  0.875000  0.554088  1
  S  S129  1  0.625000  0.570912  0.445912  1
  S  S130  1  0.125000  0.179088  0.554088  1
  S  S131  1  0.320912  0.375000  0.445912  1
  S  S132  1  0.820912  0.375000  0.945912  1
  S  S133  1  0.125000  0.679088  0.054088  1
  S  S134  1  0.625000  0.070912  0.945912  1
  S  S135  1  0.429088  0.875000  0.054088  1
