# generated using pymatgen
data_Hg4Sb2I3
_symmetry_space_group_name_H-M   'P 1'
_cell_length_a   13.91073065
_cell_length_b   13.91073065
_cell_length_c   13.91073065
_cell_angle_alpha   90.00000000
_cell_angle_beta   90.00000000
_cell_angle_gamma   90.00000000
_symmetry_Int_Tables_number   1
_chemical_formula_structural   Hg4Sb2I3
_chemical_formula_sum   'Hg32 Sb16 I24'
_cell_volume   2691.84360952
_cell_formula_units_Z   8
loop_
 _symmetry_equiv_pos_site_id
 _symmetry_equiv_pos_as_xyz
  1  'x, y, z'
loop_
 _atom_site_type_symbol
 _atom_site_label
 _atom_site_symmetry_multiplicity
 _atom_site_fract_x
 _atom_site_fract_y
 _atom_site_fract_z
 _atom_site_occupancy
  Hg  Hg0  1  0.029016  0.005694  0.249029  1
  Hg  Hg1  1  0.249029  0.029016  0.005694  1
  Hg  Hg2  1  0.005694  0.249029  0.029016  1
  Hg  Hg3  1  0.494306  0.750972  0.529016  1
  Hg  Hg4  1  0.749028  0.470984  0.994306  1
  Hg  Hg5  1  0.994306  0.749028  0.470984  1
  Hg  Hg6  1  0.250972  0.970984  0.505694  1
  Hg  Hg7  1  0.750972  0.529016  0.494306  1
  Hg  Hg8  1  0.505694  0.250972  0.970984  1
  Hg  Hg9  1  0.529016  0.494306  0.750972  1
  Hg  Hg10  1  0.970984  0.505694  0.250972  1
  Hg  Hg11  1  0.470984  0.994306  0.749028  1
  Hg  Hg12  1  0.970984  0.994306  0.750972  1
  Hg  Hg13  1  0.750972  0.970984  0.994306  1
  Hg  Hg14  1  0.994306  0.750972  0.970984  1
  Hg  Hg15  1  0.505694  0.249029  0.470984  1
  Hg  Hg16  1  0.250972  0.529016  0.005694  1
  Hg  Hg17  1  0.005694  0.250972  0.529016  1
  Hg  Hg18  1  0.749028  0.029016  0.494306  1
  Hg  Hg19  1  0.249029  0.470984  0.505694  1
  Hg  Hg20  1  0.494306  0.749028  0.029016  1
  Hg  Hg21  1  0.470984  0.505694  0.249029  1
  Hg  Hg22  1  0.029016  0.494306  0.749028  1
  Hg  Hg23  1  0.529016  0.005694  0.250972  1
  Hg  Hg24  1  0.778452  0.221548  0.721548  1
  Hg  Hg25  1  0.721548  0.778452  0.221548  1
  Hg  Hg26  1  0.221548  0.721548  0.778452  1
  Hg  Hg27  1  0.278452  0.278452  0.278452  1
  Hg  Hg28  1  0.221548  0.778452  0.278452  1
  Hg  Hg29  1  0.278452  0.221548  0.778452  1
  Hg  Hg30  1  0.778452  0.278452  0.221548  1
  Hg  Hg31  1  0.721548  0.721548  0.721548  1
  Sb  Sb32  1  0.892479  0.107521  0.607521  1
  Sb  Sb33  1  0.607521  0.892479  0.107521  1
  Sb  Sb34  1  0.107521  0.607521  0.892479  1
  Sb  Sb35  1  0.392479  0.392479  0.392479  1
  Sb  Sb36  1  0.107521  0.892479  0.392479  1
  Sb  Sb37  1  0.392479  0.107521  0.892479  1
  Sb  Sb38  1  0.892479  0.392479  0.107521  1
  Sb  Sb39  1  0.607521  0.607521  0.607521  1
  Sb  Sb40  1  0.558853  0.058853  0.441147  1
  Sb  Sb41  1  0.441147  0.558853  0.058853  1
  Sb  Sb42  1  0.058853  0.441147  0.558853  1
  Sb  Sb43  1  0.941147  0.941147  0.941147  1
  Sb  Sb44  1  0.441147  0.941147  0.558853  1
  Sb  Sb45  1  0.558853  0.441147  0.941147  1
  Sb  Sb46  1  0.941147  0.558853  0.441147  1
  Sb  Sb47  1  0.058853  0.058853  0.058853  1
  I  I48  1  0.237404  0.184324  0.567937  1
  I  I49  1  0.567937  0.237404  0.184324  1
  I  I50  1  0.184324  0.567937  0.237404  1
  I  I51  1  0.315676  0.432063  0.737404  1
  I  I52  1  0.067937  0.262596  0.815676  1
  I  I53  1  0.815676  0.067937  0.262596  1
  I  I54  1  0.932063  0.762596  0.684324  1
  I  I55  1  0.432063  0.737404  0.315676  1
  I  I56  1  0.684324  0.932063  0.762596  1
  I  I57  1  0.737404  0.315676  0.432063  1
  I  I58  1  0.762596  0.684324  0.932063  1
  I  I59  1  0.262596  0.815676  0.067937  1
  I  I60  1  0.762596  0.815676  0.432063  1
  I  I61  1  0.432063  0.762596  0.815676  1
  I  I62  1  0.815676  0.432063  0.762596  1
  I  I63  1  0.684324  0.567937  0.262596  1
  I  I64  1  0.932063  0.737404  0.184324  1
  I  I65  1  0.184324  0.932063  0.737404  1
  I  I66  1  0.067937  0.237404  0.315676  1
  I  I67  1  0.567937  0.262596  0.684324  1
  I  I68  1  0.315676  0.067937  0.237404  1
  I  I69  1  0.262596  0.684324  0.567937  1
  I  I70  1  0.237404  0.315676  0.067937  1
  I  I71  1  0.737404  0.184324  0.932063  1
