# generated using pymatgen
data_U(PO3)4
_symmetry_space_group_name_H-M   'P 1'
_cell_length_a   8.85352697
_cell_length_b   8.85352697
_cell_length_c   8.44062688
_cell_angle_alpha   61.77701461
_cell_angle_beta   118.22298539
_cell_angle_gamma   84.64736068
_symmetry_Int_Tables_number   1
_chemical_formula_structural   U(PO3)4
_chemical_formula_sum   'U2 P8 O24'
_cell_volume   468.90776679
_cell_formula_units_Z   2
loop_
 _symmetry_equiv_pos_site_id
 _symmetry_equiv_pos_as_xyz
  1  'x, y, z'
loop_
 _atom_site_type_symbol
 _atom_site_label
 _atom_site_symmetry_multiplicity
 _atom_site_fract_x
 _atom_site_fract_y
 _atom_site_fract_z
 _atom_site_occupancy
  U  U0  1  0.657921  0.906078  0.992869  1
  U  U1  1  0.093922  0.342079  0.992869  1
  P  P2  1  0.134963  0.097061  0.747669  1
  P  P3  1  0.849680  0.382070  0.239169  1
  P  P4  1  0.369127  0.856668  0.518830  1
  P  P5  1  0.605783  0.621328  0.461277  1
  P  P6  1  0.902939  0.865037  0.747669  1
  P  P7  1  0.143332  0.630873  0.518830  1
  P  P8  1  0.378672  0.394217  0.461277  1
  P  P9  1  0.617930  0.150320  0.239169  1
  O  O10  1  0.780790  0.470738  0.689398  1
  O  O11  1  0.901589  0.338519  0.115919  1
  O  O12  1  0.702102  0.297898  0.262952  1
  O  O13  1  0.730183  0.970863  0.494114  1
  O  O14  1  0.503961  0.869384  0.699074  1
  O  O15  1  0.627081  0.746973  0.285417  1
  O  O16  1  0.085379  0.153160  0.864629  1
  O  O17  1  0.661481  0.098411  0.115919  1
  O  O18  1  0.477743  0.748644  0.472467  1
  O  O19  1  0.846840  0.914621  0.864629  1
  O  O20  1  0.986373  0.662043  0.841908  1
  O  O21  1  0.130616  0.496039  0.699074  1
  O  O22  1  0.029137  0.269817  0.494114  1
  O  O23  1  0.772159  0.583274  0.150915  1
  O  O24  1  0.253027  0.372919  0.285417  1
  O  O25  1  0.052942  0.947058  0.727183  1
  O  O26  1  0.285374  0.714626  0.618131  1
  O  O27  1  0.964910  0.787369  0.299843  1
  O  O28  1  0.472812  0.527188  0.369098  1
  O  O29  1  0.416726  0.227841  0.150915  1
  O  O30  1  0.529262  0.219210  0.689398  1
  O  O31  1  0.337957  0.013627  0.841908  1
  O  O32  1  0.251356  0.522257  0.472467  1
  O  O33  1  0.212631  0.035090  0.299843  1
