# generated using pymatgen
data_Mg(BiO3)2
_symmetry_space_group_name_H-M   'P 1'
_cell_length_a   4.93234806
_cell_length_b   4.93234806
_cell_length_c   9.93245856
_cell_angle_alpha   90.00000000
_cell_angle_beta   90.00000000
_cell_angle_gamma   90.00000000
_symmetry_Int_Tables_number   1
_chemical_formula_structural   Mg(BiO3)2
_chemical_formula_sum   'Mg2 Bi4 O12'
_cell_volume   241.63742182
_cell_formula_units_Z   2
loop_
 _symmetry_equiv_pos_site_id
 _symmetry_equiv_pos_as_xyz
  1  'x, y, z'
loop_
 _atom_site_type_symbol
 _atom_site_label
 _atom_site_symmetry_multiplicity
 _atom_site_fract_x
 _atom_site_fract_y
 _atom_site_fract_z
 _atom_site_occupancy
  Mg  Mg0  1  0.000000  0.000000  0.000000  1
  Mg  Mg1  1  0.500000  0.500000  0.500000  1
  Bi  Bi2  1  0.500000  0.500000  0.832956  1
  Bi  Bi3  1  0.000000  0.000000  0.332956  1
  Bi  Bi4  1  0.500000  0.500000  0.167044  1
  Bi  Bi5  1  0.000000  0.000000  0.667044  1
  O  O6  1  0.691214  0.691214  0.664244  1
  O  O7  1  0.308786  0.308786  0.664244  1
  O  O8  1  0.691214  0.691214  0.335756  1
  O  O9  1  0.191214  0.808786  0.164244  1
  O  O10  1  0.808786  0.191214  0.164244  1
  O  O11  1  0.808786  0.191214  0.835756  1
  O  O12  1  0.302647  0.302647  0.000000  1
  O  O13  1  0.197353  0.802647  0.500000  1
  O  O14  1  0.802647  0.197353  0.500000  1
  O  O15  1  0.697353  0.697353  0.000000  1
  O  O16  1  0.308786  0.308786  0.335756  1
  O  O17  1  0.191214  0.808786  0.835756  1
