# generated using pymatgen
data_Tl2Sn2S3
_symmetry_space_group_name_H-M   'P 1'
_cell_length_a   8.32711932
_cell_length_b   8.32711932
_cell_length_c   7.19098151
_cell_angle_alpha   76.16573966
_cell_angle_beta   103.83426034
_cell_angle_gamma   120.14067872
_symmetry_Int_Tables_number   1
_chemical_formula_structural   Tl2Sn2S3
_chemical_formula_sum   'Tl4 Sn4 S6'
_cell_volume   414.47401205
_cell_formula_units_Z   2
loop_
 _symmetry_equiv_pos_site_id
 _symmetry_equiv_pos_as_xyz
  1  'x, y, z'
loop_
 _atom_site_type_symbol
 _atom_site_label
 _atom_site_symmetry_multiplicity
 _atom_site_fract_x
 _atom_site_fract_y
 _atom_site_fract_z
 _atom_site_occupancy
  Tl  Tl0  1  0.236631  0.991747  0.523488  1
  Tl  Tl1  1  0.991747  0.236631  0.976512  1
  Tl  Tl2  1  0.763369  0.008253  0.476512  1
  Tl  Tl3  1  0.008253  0.763369  0.023488  1
  Sn  Sn4  1  0.741307  0.502283  0.460254  1
  Sn  Sn5  1  0.502283  0.741307  0.039746  1
  Sn  Sn6  1  0.258693  0.497717  0.539746  1
  Sn  Sn7  1  0.497717  0.258693  0.960254  1
  S  S8  1  0.644348  0.190801  0.688830  1
  S  S9  1  0.190801  0.644348  0.811170  1
  S  S10  1  0.355652  0.809199  0.311170  1
  S  S11  1  0.809199  0.355652  0.188830  1
  S  S12  1  0.589251  0.589251  0.750000  1
  S  S13  1  0.410749  0.410749  0.250000  1
