# generated using pymatgen
data_Sr5(B5Rh7)2
_symmetry_space_group_name_H-M   'P 1'
_cell_length_a   15.35334144
_cell_length_b   14.79546289
_cell_length_c   5.72806055
_cell_angle_alpha   84.58639200
_cell_angle_beta   73.61049769
_cell_angle_gamma   21.80311031
_symmetry_Int_Tables_number   1
_chemical_formula_structural   Sr5(B5Rh7)2
_chemical_formula_sum   'Sr5 B10 Rh14'
_cell_volume   409.13155792
_cell_formula_units_Z   1
loop_
 _symmetry_equiv_pos_site_id
 _symmetry_equiv_pos_as_xyz
  1  'x, y, z'
loop_
 _atom_site_type_symbol
 _atom_site_label
 _atom_site_symmetry_multiplicity
 _atom_site_fract_x
 _atom_site_fract_y
 _atom_site_fract_z
 _atom_site_occupancy
  Sr  Sr0  1  0.288439  0.288439  0.711561  1
  Sr  Sr1  1  0.711561  0.711561  0.288439  1
  Sr  Sr2  1  0.395494  0.395494  0.604506  1
  Sr  Sr3  1  0.604506  0.604506  0.395494  1
  Sr  Sr4  1  0.500000  0.500000  0.500000  1
  B  B5  1  0.964470  0.632238  0.367762  1
  B  B6  1  0.035530  0.367762  0.632238  1
  B  B7  1  0.367762  0.035530  0.964470  1
  B  B8  1  0.632238  0.964470  0.035530  1
  B  B9  1  0.063931  0.733837  0.266163  1
  B  B10  1  0.936069  0.266163  0.733837  1
  B  B11  1  0.266163  0.936069  0.063931  1
  B  B12  1  0.733837  0.063931  0.936069  1
  B  B13  1  0.166220  0.833780  0.166220  1
  B  B14  1  0.833780  0.166220  0.833780  1
  Rh  Rh15  1  0.750000  0.750000  0.750000  1
  Rh  Rh16  1  0.250000  0.250000  0.250000  1
  Rh  Rh17  1  0.848497  0.848497  0.651503  1
  Rh  Rh18  1  0.651503  0.651503  0.848497  1
  Rh  Rh19  1  0.151503  0.151503  0.348497  1
  Rh  Rh20  1  0.348497  0.348497  0.151503  1
  Rh  Rh21  1  0.949262  0.949262  0.550738  1
  Rh  Rh22  1  0.550738  0.550738  0.949262  1
  Rh  Rh23  1  0.050738  0.050738  0.449262  1
  Rh  Rh24  1  0.449262  0.449262  0.050738  1
  Rh  Rh25  1  0.152755  0.152755  0.847245  1
  Rh  Rh26  1  0.847245  0.847245  0.152755  1
  Rh  Rh27  1  0.050484  0.050484  0.949516  1
  Rh  Rh28  1  0.949516  0.949516  0.050484  1
