# generated using pymatgen
data_LiCuPO4
_symmetry_space_group_name_H-M   'P 1'
_cell_length_a   4.90236537
_cell_length_b   4.90236537
_cell_length_c   4.90236537
_cell_angle_alpha   119.01643927
_cell_angle_beta   119.01643927
_cell_angle_gamma   91.71219019
_symmetry_Int_Tables_number   1
_chemical_formula_structural   LiCuPO4
_chemical_formula_sum   'Li1 Cu1 P1 O4'
_cell_volume   84.50865036
_cell_formula_units_Z   1
loop_
 _symmetry_equiv_pos_site_id
 _symmetry_equiv_pos_as_xyz
  1  'x, y, z'
loop_
 _atom_site_type_symbol
 _atom_site_label
 _atom_site_symmetry_multiplicity
 _atom_site_fract_x
 _atom_site_fract_y
 _atom_site_fract_z
 _atom_site_occupancy
  Li  Li0  1  0.000000  0.000000  0.000000  1
  Cu  Cu1  1  0.500000  0.500000  0.000000  1
  P  P2  1  0.750000  0.250000  0.500000  1
  O  O3  1  0.063261  0.198053  0.504282  1
  O  O4  1  0.801947  0.306229  0.865208  1
  O  O5  1  0.441021  0.936739  0.134792  1
  O  O6  1  0.693771  0.558979  0.495718  1
