# generated using pymatgen
data_CrO2
_symmetry_space_group_name_H-M   'P 1'
_cell_length_a   5.08956428
_cell_length_b   5.08956428
_cell_length_c   5.08956428
_cell_angle_alpha   34.04528350
_cell_angle_beta   34.04528350
_cell_angle_gamma   34.04528350
_symmetry_Int_Tables_number   1
_chemical_formula_structural   CrO2
_chemical_formula_sum   'Cr1 O2'
_cell_volume   36.83627897
_cell_formula_units_Z   1
loop_
 _symmetry_equiv_pos_site_id
 _symmetry_equiv_pos_as_xyz
  1  'x, y, z'
loop_
 _atom_site_type_symbol
 _atom_site_label
 _atom_site_symmetry_multiplicity
 _atom_site_fract_x
 _atom_site_fract_y
 _atom_site_fract_z
 _atom_site_occupancy
  Cr  Cr0  1  0.500000  0.500000  0.500000  1
  O  O1  1  0.230916  0.230916  0.230916  1
  O  O2  1  0.769084  0.769084  0.769084  1
