# generated using pymatgen
data_TcP3
_symmetry_space_group_name_H-M   'P 1'
_cell_length_a   3.11688887
_cell_length_b   5.17276819
_cell_length_c   15.44266071
_cell_angle_alpha   90.00000000
_cell_angle_beta   90.00000000
_cell_angle_gamma   90.00000000
_symmetry_Int_Tables_number   1
_chemical_formula_structural   TcP3
_chemical_formula_sum   'Tc4 P12'
_cell_volume   248.98114764
_cell_formula_units_Z   4
loop_
 _symmetry_equiv_pos_site_id
 _symmetry_equiv_pos_as_xyz
  1  'x, y, z'
loop_
 _atom_site_type_symbol
 _atom_site_label
 _atom_site_symmetry_multiplicity
 _atom_site_fract_x
 _atom_site_fract_y
 _atom_site_fract_z
 _atom_site_occupancy
  Tc  Tc0  1  0.250000  0.350500  0.650486  1
  Tc  Tc1  1  0.750000  0.649500  0.349514  1
  Tc  Tc2  1  0.750000  0.850500  0.849514  1
  Tc  Tc3  1  0.250000  0.149500  0.150486  1
  P  P4  1  0.250000  0.522328  0.792810  1
  P  P5  1  0.750000  0.477672  0.207190  1
  P  P6  1  0.750000  0.022328  0.707190  1
  P  P7  1  0.250000  0.977672  0.292810  1
  P  P8  1  0.250000  0.353077  0.012799  1
  P  P9  1  0.750000  0.646923  0.987201  1
  P  P10  1  0.750000  0.853077  0.487201  1
  P  P11  1  0.250000  0.146923  0.512799  1
  P  P12  1  0.250000  0.319686  0.381452  1
  P  P13  1  0.750000  0.680314  0.618548  1
  P  P14  1  0.750000  0.819686  0.118548  1
  P  P15  1  0.250000  0.180314  0.881452  1
