# generated using pymatgen
data_Sm3(SiIr)2
_symmetry_space_group_name_H-M   'P 1'
_cell_length_a   5.71374163
_cell_length_b   5.71374163
_cell_length_c   13.41343054
_cell_angle_alpha   90.00000000
_cell_angle_beta   90.00000000
_cell_angle_gamma   137.59517275
_symmetry_Int_Tables_number   1
_chemical_formula_structural   Sm3(SiIr)2
_chemical_formula_sum   'Sm6 Si4 Ir4'
_cell_volume   295.30841735
_cell_formula_units_Z   2
loop_
 _symmetry_equiv_pos_site_id
 _symmetry_equiv_pos_as_xyz
  1  'x, y, z'
loop_
 _atom_site_type_symbol
 _atom_site_label
 _atom_site_symmetry_multiplicity
 _atom_site_fract_x
 _atom_site_fract_y
 _atom_site_fract_z
 _atom_site_occupancy
  Sm  Sm0  1  0.772973  0.227027  0.603869  1
  Sm  Sm1  1  0.517343  0.482657  0.250000  1
  Sm  Sm2  1  0.227027  0.772973  0.396131  1
  Sm  Sm3  1  0.772973  0.227027  0.896131  1
  Sm  Sm4  1  0.482657  0.517343  0.750000  1
  Sm  Sm5  1  0.227027  0.772973  0.103869  1
  Si  Si6  1  0.060651  0.939349  0.588638  1
  Si  Si7  1  0.060651  0.939349  0.911362  1
  Si  Si8  1  0.939349  0.060651  0.411362  1
  Si  Si9  1  0.939349  0.060651  0.088638  1
  Ir  Ir10  1  0.814829  0.185171  0.250000  1
  Ir  Ir11  1  0.185171  0.814829  0.750000  1
  Ir  Ir12  1  0.500000  0.500000  1.000000  1
  Ir  Ir13  1  0.500000  0.500000  0.500000  1
