# generated using pymatgen
data_Y(CuO2)2
_symmetry_space_group_name_H-M   'P 1'
_cell_length_a   6.28815647
_cell_length_b   6.28815647
_cell_length_c   6.28815647
_cell_angle_alpha   125.93893413
_cell_angle_beta   125.93893413
_cell_angle_gamma   79.98852921
_symmetry_Int_Tables_number   1
_chemical_formula_structural   Y(CuO2)2
_chemical_formula_sum   'Y2 Cu4 O8'
_cell_volume   157.36995506
_cell_formula_units_Z   2
loop_
 _symmetry_equiv_pos_site_id
 _symmetry_equiv_pos_as_xyz
  1  'x, y, z'
loop_
 _atom_site_type_symbol
 _atom_site_label
 _atom_site_symmetry_multiplicity
 _atom_site_fract_x
 _atom_site_fract_y
 _atom_site_fract_z
 _atom_site_occupancy
  Y  Y0  1  0.000000  0.000000  0.000000  1
  Y  Y1  1  0.750000  0.250000  0.500000  1
  Cu  Cu2  1  0.375000  0.125000  0.750000  1
  Cu  Cu3  1  0.375000  0.625000  0.250000  1
  Cu  Cu4  1  0.875000  0.625000  0.250000  1
  Cu  Cu5  1  0.375000  0.625000  0.750000  1
  O  O6  1  0.010563  0.654600  0.061729  1
  O  O7  1  0.592871  0.948834  0.938271  1
  O  O8  1  0.157129  0.301166  0.561729  1
  O  O9  1  0.739437  0.595400  0.438271  1
  O  O10  1  0.404600  0.842871  0.144037  1
  O  O11  1  0.698834  0.260563  0.855963  1
  O  O12  1  0.345400  0.407129  0.355963  1
  O  O13  1  0.051166  0.989437  0.644037  1
