# generated using pymatgen
data_Tl4SiSe4
_symmetry_space_group_name_H-M   'P 1'
_cell_length_a   7.14996319
_cell_length_b   7.14996319
_cell_length_c   25.28451860
_cell_angle_alpha   81.69570444
_cell_angle_beta   98.30429556
_cell_angle_gamma   116.80208177
_symmetry_Int_Tables_number   1
_chemical_formula_structural   Tl4SiSe4
_chemical_formula_sum   'Tl16 Si4 Se16'
_cell_volume   1137.02184653
_cell_formula_units_Z   4
loop_
 _symmetry_equiv_pos_site_id
 _symmetry_equiv_pos_as_xyz
  1  'x, y, z'
loop_
 _atom_site_type_symbol
 _atom_site_label
 _atom_site_symmetry_multiplicity
 _atom_site_fract_x
 _atom_site_fract_y
 _atom_site_fract_z
 _atom_site_occupancy
  Tl  Tl0  1  0.175116  0.175116  0.750000  1
  Tl  Tl1  1  0.824884  0.824884  0.250000  1
  Tl  Tl2  1  0.000000  0.000000  0.500000  1
  Tl  Tl3  1  0.000000  0.000000  0.000000  1
  Tl  Tl4  1  0.052394  0.662005  0.663579  1
  Tl  Tl5  1  0.662005  0.052394  0.836421  1
  Tl  Tl6  1  0.947606  0.337995  0.336421  1
  Tl  Tl7  1  0.337995  0.947606  0.163579  1
  Tl  Tl8  1  0.905833  0.675081  0.825036  1
  Tl  Tl9  1  0.675081  0.905833  0.674964  1
  Tl  Tl10  1  0.094167  0.324919  0.174964  1
  Tl  Tl11  1  0.324919  0.094167  0.325036  1
  Tl  Tl12  1  0.278804  0.649359  0.500102  1
  Tl  Tl13  1  0.649359  0.278804  0.999898  1
  Tl  Tl14  1  0.721196  0.350641  0.499898  1
  Tl  Tl15  1  0.350641  0.721196  0.000102  1
  Si  Si16  1  0.440437  0.313513  0.623521  1
  Si  Si17  1  0.686487  0.559563  0.123521  1
  Si  Si18  1  0.559563  0.686487  0.376479  1
  Si  Si19  1  0.313513  0.440437  0.876479  1
  Se  Se20  1  0.601205  0.305497  0.708664  1
  Se  Se21  1  0.704762  0.891133  0.118305  1
  Se  Se22  1  0.108867  0.295238  0.618305  1
  Se  Se23  1  0.295238  0.108867  0.881695  1
  Se  Se24  1  0.340284  0.374811  0.422310  1
  Se  Se25  1  0.891133  0.704762  0.381695  1
  Se  Se26  1  0.659716  0.625189  0.577690  1
  Se  Se27  1  0.625189  0.659716  0.922310  1
  Se  Se28  1  0.967780  0.587563  0.082700  1
  Se  Se29  1  0.587563  0.967780  0.417300  1
  Se  Se30  1  0.032220  0.412437  0.917300  1
  Se  Se31  1  0.412437  0.032220  0.582700  1
  Se  Se32  1  0.305497  0.601205  0.791336  1
  Se  Se33  1  0.398795  0.694503  0.291336  1
  Se  Se34  1  0.694503  0.398795  0.208664  1
  Se  Se35  1  0.374811  0.340284  0.077690  1
