# generated using pymatgen
data_Th3Co3Sb4
_symmetry_space_group_name_H-M   'P 1'
_cell_length_a   8.31851675
_cell_length_b   8.31851675
_cell_length_c   8.31851675
_cell_angle_alpha   109.47122063
_cell_angle_beta   109.47122063
_cell_angle_gamma   109.47122063
_symmetry_Int_Tables_number   1
_chemical_formula_structural   Th3Co3Sb4
_chemical_formula_sum   'Th6 Co6 Sb8'
_cell_volume   443.11432997
_cell_formula_units_Z   2
loop_
 _symmetry_equiv_pos_site_id
 _symmetry_equiv_pos_as_xyz
  1  'x, y, z'
loop_
 _atom_site_type_symbol
 _atom_site_label
 _atom_site_symmetry_multiplicity
 _atom_site_fract_x
 _atom_site_fract_y
 _atom_site_fract_z
 _atom_site_occupancy
  Th  Th0  1  0.625000  0.375000  0.250000  1
  Th  Th1  1  0.125000  0.750000  0.875000  1
  Th  Th2  1  0.375000  0.250000  0.625000  1
  Th  Th3  1  0.250000  0.625000  0.375000  1
  Th  Th4  1  0.750000  0.875000  0.125000  1
  Th  Th5  1  0.875000  0.125000  0.750000  1
  Co  Co6  1  0.250000  0.125000  0.875000  1
  Co  Co7  1  0.375000  0.625000  0.750000  1
  Co  Co8  1  0.125000  0.875000  0.250000  1
  Co  Co9  1  0.875000  0.250000  0.125000  1
  Co  Co10  1  0.625000  0.750000  0.375000  1
  Co  Co11  1  0.750000  0.375000  0.625000  1
  Sb  Sb12  1  0.500000  1.000000  0.340746  1
  Sb  Sb13  1  1.000000  0.840746  0.500000  1
  Sb  Sb14  1  0.840746  0.500000  1.000000  1
  Sb  Sb15  1  0.659254  0.659254  0.659254  1
  Sb  Sb16  1  0.159254  0.159254  0.159254  1
  Sb  Sb17  1  1.000000  0.340746  0.500000  1
  Sb  Sb18  1  0.340746  0.500000  0.000000  1
  Sb  Sb19  1  0.500000  1.000000  0.840746  1
