# generated using pymatgen
data_Np(OF)2
_symmetry_space_group_name_H-M   'P 1'
_cell_length_a   6.06463984
_cell_length_b   6.06463984
_cell_length_c   6.06463984
_cell_angle_alpha   40.77188941
_cell_angle_beta   40.77188941
_cell_angle_gamma   40.77188941
_symmetry_Int_Tables_number   1
_chemical_formula_structural   Np(OF)2
_chemical_formula_sum   'Np1 O2 F2'
_cell_volume   85.84087559
_cell_formula_units_Z   1
loop_
 _symmetry_equiv_pos_site_id
 _symmetry_equiv_pos_as_xyz
  1  'x, y, z'
loop_
 _atom_site_type_symbol
 _atom_site_label
 _atom_site_symmetry_multiplicity
 _atom_site_fract_x
 _atom_site_fract_y
 _atom_site_fract_z
 _atom_site_occupancy
  Np  Np0  1  0.000000  0.000000  0.000000  1
  O  O1  1  0.106390  0.106390  0.106390  1
  O  O2  1  0.893610  0.893610  0.893610  1
  F  F3  1  0.666376  0.666376  0.666376  1
  F  F4  1  0.333624  0.333624  0.333624  1
