# generated using pymatgen
data_Ba4UCr2S9
_symmetry_space_group_name_H-M   'P 1'
_cell_length_a   12.07909177
_cell_length_b   12.07909177
_cell_length_c   9.66305060
_cell_angle_alpha   90.00000000
_cell_angle_beta   90.00000000
_cell_angle_gamma   120.00000000
_symmetry_Int_Tables_number   1
_chemical_formula_structural   Ba4UCr2S9
_chemical_formula_sum   'Ba12 U3 Cr6 S27'
_cell_volume   1220.99376662
_cell_formula_units_Z   3
loop_
 _symmetry_equiv_pos_site_id
 _symmetry_equiv_pos_as_xyz
  1  'x, y, z'
loop_
 _atom_site_type_symbol
 _atom_site_label
 _atom_site_symmetry_multiplicity
 _atom_site_fract_x
 _atom_site_fract_y
 _atom_site_fract_z
 _atom_site_occupancy
  Ba  Ba0  1  0.957165  0.296979  0.750364  1
  Ba  Ba1  1  0.000000  0.681232  0.000000  1
  Ba  Ba2  1  0.681232  0.000000  0.000000  1
  Ba  Ba3  1  0.296979  0.957165  0.249636  1
  Ba  Ba4  1  0.703021  0.660186  0.750364  1
  Ba  Ba5  1  0.660186  0.703021  0.249636  1
  Ba  Ba6  1  0.374571  0.374571  0.500000  1
  Ba  Ba7  1  0.042835  0.339814  0.249636  1
  Ba  Ba8  1  0.318768  0.318768  0.000000  1
  Ba  Ba9  1  0.339814  0.042835  0.750364  1
  Ba  Ba10  1  0.625429  0.000000  0.500000  1
  Ba  Ba11  1  0.000000  0.625429  0.500000  1
  U  U12  1  0.333333  0.666667  0.743857  1
  U  U13  1  0.666667  0.333333  0.256143  1
  U  U14  1  0.000000  0.000000  0.500000  1
  Cr  Cr15  1  0.333333  0.666667  0.398457  1
  Cr  Cr16  1  0.666667  0.333333  0.601543  1
  Cr  Cr17  1  0.000000  0.000000  0.159357  1
  Cr  Cr18  1  0.333333  0.666667  0.081953  1
  Cr  Cr19  1  0.666667  0.333333  0.918047  1
  Cr  Cr20  1  0.000000  0.000000  0.840643  1
  S  S21  1  0.506435  0.687300  0.550067  1
  S  S22  1  0.319870  0.820618  0.932656  1
  S  S23  1  0.646975  0.164891  0.760581  1
  S  S24  1  0.687300  0.506435  0.449933  1
  S  S25  1  0.846887  0.846887  0.000000  1
  S  S26  1  0.680130  0.500748  0.067344  1
  S  S27  1  0.312700  0.819135  0.550067  1
  S  S28  1  0.153113  0.000000  0.000000  1
  S  S29  1  0.179382  0.499252  0.932656  1
  S  S30  1  0.820618  0.319870  0.067344  1
  S  S31  1  0.180865  0.493565  0.550067  1
  S  S32  1  0.482085  0.835109  0.239419  1
  S  S33  1  0.493565  0.180865  0.449933  1
  S  S34  1  0.164891  0.646975  0.239419  1
  S  S35  1  0.830310  0.985904  0.689928  1
  S  S36  1  0.499252  0.179382  0.067344  1
  S  S37  1  0.000000  0.153113  0.000000  1
  S  S38  1  0.014096  0.844407  0.689928  1
  S  S39  1  0.500748  0.680130  0.932656  1
  S  S40  1  0.353025  0.517915  0.239419  1
  S  S41  1  0.169690  0.155593  0.310072  1
  S  S42  1  0.844407  0.014096  0.310072  1
  S  S43  1  0.155593  0.169690  0.689928  1
  S  S44  1  0.517915  0.353025  0.760581  1
  S  S45  1  0.835109  0.482085  0.760581  1
  S  S46  1  0.985904  0.830310  0.310072  1
  S  S47  1  0.819135  0.312700  0.449933  1
