# generated using pymatgen
data_SrPH3O4
_symmetry_space_group_name_H-M   'P 1'
_cell_length_a   7.68841233
_cell_length_b   7.15788568
_cell_length_c   8.24036879
_cell_angle_alpha   90.00000000
_cell_angle_beta   108.47471370
_cell_angle_gamma   90.00000000
_symmetry_Int_Tables_number   1
_chemical_formula_structural   SrPH3O4
_chemical_formula_sum   'Sr4 P4 H12 O16'
_cell_volume   430.11911221
_cell_formula_units_Z   4
loop_
 _symmetry_equiv_pos_site_id
 _symmetry_equiv_pos_as_xyz
  1  'x, y, z'
loop_
 _atom_site_type_symbol
 _atom_site_label
 _atom_site_symmetry_multiplicity
 _atom_site_fract_x
 _atom_site_fract_y
 _atom_site_fract_z
 _atom_site_occupancy
  Sr  Sr0  1  0.626466  0.359685  0.345975  1
  Sr  Sr1  1  0.373534  0.859685  0.154025  1
  Sr  Sr2  1  0.373534  0.640315  0.654025  1
  Sr  Sr3  1  0.626466  0.140315  0.845975  1
  P  P4  1  0.272144  0.348823  0.994987  1
  P  P5  1  0.727856  0.848823  0.505013  1
  P  P6  1  0.727856  0.651177  0.005013  1
  P  P7  1  0.272144  0.151177  0.494987  1
  H  H8  1  0.111213  0.260944  0.004311  1
  H  H9  1  0.888787  0.760944  0.495689  1
  H  H10  1  0.888787  0.739056  0.995689  1
  H  H11  1  0.111213  0.239056  0.504311  1
  H  H12  1  0.995838  0.394003  0.701556  1
  H  H13  1  0.004162  0.894003  0.798444  1
  H  H14  1  0.004162  0.605997  0.298444  1
  H  H15  1  0.995838  0.105997  0.201556  1
  H  H16  1  0.191894  0.547000  0.272331  1
  H  H17  1  0.808106  0.047000  0.227669  1
  H  H18  1  0.808106  0.453000  0.727669  1
  H  H19  1  0.191894  0.953000  0.772331  1
  O  O20  1  0.427440  0.200392  0.042335  1
  O  O21  1  0.859986  0.116267  0.149091  1
  O  O22  1  0.140014  0.883733  0.850909  1
  O  O23  1  0.859986  0.383733  0.649091  1
  O  O24  1  0.320585  0.996624  0.633806  1
  O  O25  1  0.679415  0.496624  0.866194  1
  O  O26  1  0.679415  0.003376  0.366194  1
  O  O27  1  0.320585  0.503376  0.133806  1
  O  O28  1  0.227746  0.077828  0.311738  1
  O  O29  1  0.772254  0.577828  0.188262  1
  O  O30  1  0.772254  0.922172  0.688262  1
  O  O31  1  0.227746  0.422172  0.811738  1
  O  O32  1  0.572560  0.799608  0.957665  1
  O  O33  1  0.427440  0.299608  0.542335  1
  O  O34  1  0.140014  0.616267  0.350909  1
  O  O35  1  0.572560  0.700392  0.457665  1
