# generated using pymatgen
data_AsClF8
_symmetry_space_group_name_H-M   'P 1'
_cell_length_a   5.75131492
_cell_length_b   5.75131492
_cell_length_c   10.49150132
_cell_angle_alpha   74.64325149
_cell_angle_beta   105.35674851
_cell_angle_gamma   93.18762729
_symmetry_Int_Tables_number   1
_chemical_formula_structural   AsClF8
_chemical_formula_sum   'As2 Cl2 F16'
_cell_volume   322.65565888
_cell_formula_units_Z   2
loop_
 _symmetry_equiv_pos_site_id
 _symmetry_equiv_pos_as_xyz
  1  'x, y, z'
loop_
 _atom_site_type_symbol
 _atom_site_label
 _atom_site_symmetry_multiplicity
 _atom_site_fract_x
 _atom_site_fract_y
 _atom_site_fract_z
 _atom_site_occupancy
  As  As0  1  0.000000  0.000000  0.000000  1
  As  As1  1  0.000000  0.000000  0.500000  1
  Cl  Cl2  1  0.334074  0.334074  0.750000  1
  Cl  Cl3  1  0.665926  0.665926  0.250000  1
  F  F4  1  0.461211  0.596087  0.332773  1
  F  F5  1  0.596087  0.461211  0.167227  1
  F  F6  1  0.538789  0.403913  0.667227  1
  F  F7  1  0.403913  0.538789  0.832773  1
  F  F8  1  0.789167  0.181458  0.024994  1
  F  F9  1  0.181458  0.789167  0.475006  1
  F  F10  1  0.210833  0.818542  0.975006  1
  F  F11  1  0.818542  0.210833  0.524994  1
  F  F12  1  0.037501  0.243347  0.853457  1
  F  F13  1  0.243347  0.037501  0.646543  1
  F  F14  1  0.962499  0.756653  0.146543  1
  F  F15  1  0.756653  0.962499  0.353457  1
  F  F16  1  0.766161  0.884557  0.890010  1
  F  F17  1  0.884557  0.766161  0.609990  1
  F  F18  1  0.233839  0.115443  0.109990  1
  F  F19  1  0.115443  0.233839  0.390010  1
