# generated using pymatgen
data_U3S5
_symmetry_space_group_name_H-M   'P 1'
_cell_length_a   7.30757663
_cell_length_b   7.82895628
_cell_length_c   11.56330701
_cell_angle_alpha   90.00000000
_cell_angle_beta   90.00000000
_cell_angle_gamma   90.00000000
_symmetry_Int_Tables_number   1
_chemical_formula_structural   U3S5
_chemical_formula_sum   'U12 S20'
_cell_volume   661.54486464
_cell_formula_units_Z   4
loop_
 _symmetry_equiv_pos_site_id
 _symmetry_equiv_pos_as_xyz
  1  'x, y, z'
loop_
 _atom_site_type_symbol
 _atom_site_label
 _atom_site_symmetry_multiplicity
 _atom_site_fract_x
 _atom_site_fract_y
 _atom_site_fract_z
 _atom_site_occupancy
  U  U0  1  0.920837  0.750000  0.492896  1
  U  U1  1  0.420837  0.250000  0.007104  1
  U  U2  1  0.079163  0.250000  0.507104  1
  U  U3  1  0.579163  0.750000  0.992896  1
  U  U4  1  0.478281  0.998023  0.320395  1
  U  U5  1  0.978281  0.001977  0.179605  1
  U  U6  1  0.521719  0.498023  0.679605  1
  U  U7  1  0.021719  0.501977  0.820395  1
  U  U8  1  0.521719  0.001977  0.679605  1
  U  U9  1  0.021719  0.998023  0.820395  1
  U  U10  1  0.478281  0.501977  0.320395  1
  U  U11  1  0.978281  0.498023  0.179605  1
  S  S12  1  0.170112  0.750000  0.312688  1
  S  S13  1  0.670112  0.250000  0.187312  1
  S  S14  1  0.829888  0.250000  0.687312  1
  S  S15  1  0.329888  0.750000  0.812688  1
  S  S16  1  0.535379  0.750000  0.499866  1
  S  S17  1  0.035379  0.250000  0.000134  1
  S  S18  1  0.464621  0.250000  0.500134  1
  S  S19  1  0.964621  0.750000  0.999866  1
  S  S20  1  0.797037  0.750000  0.718456  1
  S  S21  1  0.297037  0.250000  0.781544  1
  S  S22  1  0.202963  0.250000  0.281544  1
  S  S23  1  0.702963  0.750000  0.218456  1
  S  S24  1  0.168751  0.547998  0.597923  1
  S  S25  1  0.668751  0.452002  0.902077  1
  S  S26  1  0.831249  0.047998  0.402077  1
  S  S27  1  0.331249  0.952002  0.097923  1
  S  S28  1  0.831249  0.452002  0.402077  1
  S  S29  1  0.331249  0.547998  0.097923  1
  S  S30  1  0.168751  0.952002  0.597923  1
  S  S31  1  0.668751  0.047998  0.902077  1
