# generated using pymatgen
data_Li5Bi2P5O18
_symmetry_space_group_name_H-M   'P 1'
_cell_length_a   6.79029565
_cell_length_b   9.53310320
_cell_length_c   11.23929243
_cell_angle_alpha   97.36800227
_cell_angle_beta   91.34974844
_cell_angle_gamma   91.68292448
_symmetry_Int_Tables_number   1
_chemical_formula_structural   Li5Bi2P5O18
_chemical_formula_sum   'Li10 Bi4 P10 O36'
_cell_volume   720.95587518
_cell_formula_units_Z   2
loop_
 _symmetry_equiv_pos_site_id
 _symmetry_equiv_pos_as_xyz
  1  'x, y, z'
loop_
 _atom_site_type_symbol
 _atom_site_label
 _atom_site_symmetry_multiplicity
 _atom_site_fract_x
 _atom_site_fract_y
 _atom_site_fract_z
 _atom_site_occupancy
  Li  Li0  1  0.983314  0.043318  0.864264  1
  Li  Li1  1  0.016686  0.956682  0.135736  1
  Li  Li2  1  0.179563  0.889559  0.646169  1
  Li  Li3  1  0.869519  0.775663  0.336823  1
  Li  Li4  1  0.405977  0.725288  0.403924  1
  Li  Li5  1  0.820437  0.110441  0.353831  1
  Li  Li6  1  0.130481  0.224337  0.663177  1
  Li  Li7  1  0.594023  0.274712  0.596076  1
  Li  Li8  1  0.337870  0.374513  0.852614  1
  Li  Li9  1  0.662130  0.625487  0.147386  1
  Bi  Bi10  1  0.337710  0.763655  0.937361  1
  Bi  Bi11  1  0.777449  0.634648  0.607349  1
  Bi  Bi12  1  0.222551  0.365352  0.392651  1
  Bi  Bi13  1  0.662290  0.236345  0.062639  1
  P  P14  1  0.277077  0.578984  0.658756  1
  P  P15  1  0.147699  0.579378  0.165350  1
  P  P16  1  0.824042  0.732916  0.908323  1
  P  P17  1  0.514130  0.932216  0.216389  1
  P  P18  1  0.219080  0.005567  0.403594  1
  P  P19  1  0.485870  0.067784  0.783611  1
  P  P20  1  0.175958  0.267084  0.091677  1
  P  P21  1  0.780920  0.994433  0.596406  1
  P  P22  1  0.722923  0.421016  0.341244  1
  P  P23  1  0.852301  0.420622  0.834650  1
  O  O24  1  0.255283  0.886793  0.478641  1
  O  O25  1  0.583368  0.974309  0.671628  1
  O  O26  1  0.351549  0.915197  0.116033  1
  O  O27  1  0.040863  0.974180  0.316529  1
  O  O28  1  0.959137  0.025820  0.683471  1
  O  O29  1  0.648451  0.084803  0.883967  1
  O  O30  1  0.416632  0.025691  0.328372  1
  O  O31  1  0.689949  0.026227  0.186745  1
  O  O32  1  0.744717  0.113207  0.521359  1
  O  O33  1  0.208483  0.153647  0.479258  1
  O  O34  1  0.421136  0.204476  0.737729  1
  O  O35  1  0.010494  0.158785  0.043701  1
  O  O36  1  0.032193  0.330637  0.827953  1
  O  O37  1  0.270578  0.234958  0.209689  1
  O  O38  1  0.699633  0.391994  0.929089  1
  O  O39  1  0.883694  0.307242  0.331141  1
  O  O40  1  0.340737  0.278920  0.001268  1
  O  O41  1  0.310051  0.973773  0.813255  1
  O  O42  1  0.563084  0.370365  0.426185  1
  O  O43  1  0.188308  0.432252  0.602726  1
  O  O44  1  0.065355  0.415891  0.116151  1
  O  O45  1  0.637260  0.436321  0.214390  1
  O  O46  1  0.362740  0.563679  0.785610  1
  O  O47  1  0.934645  0.584109  0.883849  1
  O  O48  1  0.811692  0.567748  0.397274  1
  O  O49  1  0.436916  0.629635  0.573815  1
  O  O50  1  0.249191  0.574328  0.288966  1
  O  O51  1  0.659263  0.721080  0.998732  1
  O  O52  1  0.116306  0.692758  0.668859  1
  O  O53  1  0.300367  0.608006  0.070911  1
  O  O54  1  0.729422  0.765042  0.790311  1
  O  O55  1  0.967807  0.669363  0.172047  1
  O  O56  1  0.989506  0.841215  0.956299  1
  O  O57  1  0.578864  0.795524  0.262271  1
  O  O58  1  0.791517  0.846353  0.520742  1
  O  O59  1  0.750809  0.425672  0.711034  1
