# generated using pymatgen
data_Ge2Pt3
_symmetry_space_group_name_H-M   'P 1'
_cell_length_a   6.37950177
_cell_length_b   6.37950177
_cell_length_c   7.67381333
_cell_angle_alpha   90.00000000
_cell_angle_beta   90.00000000
_cell_angle_gamma   147.75464215
_symmetry_Int_Tables_number   1
_chemical_formula_structural   Ge2Pt3
_chemical_formula_sum   'Ge4 Pt6'
_cell_volume   166.63131315
_cell_formula_units_Z   2
loop_
 _symmetry_equiv_pos_site_id
 _symmetry_equiv_pos_as_xyz
  1  'x, y, z'
loop_
 _atom_site_type_symbol
 _atom_site_label
 _atom_site_symmetry_multiplicity
 _atom_site_fract_x
 _atom_site_fract_y
 _atom_site_fract_z
 _atom_site_occupancy
  Ge  Ge0  1  0.500000  0.500000  0.000000  1
  Ge  Ge1  1  0.755513  0.244487  0.250000  1
  Ge  Ge2  1  0.500000  0.500000  0.500000  1
  Ge  Ge3  1  0.244487  0.755513  0.750000  1
  Pt  Pt4  1  0.839425  0.160575  0.941889  1
  Pt  Pt5  1  0.160575  0.839425  0.441889  1
  Pt  Pt6  1  0.033673  0.966327  0.750000  1
  Pt  Pt7  1  0.160575  0.839425  0.058111  1
  Pt  Pt8  1  0.966327  0.033673  0.250000  1
  Pt  Pt9  1  0.839425  0.160575  0.558111  1
