# generated using pymatgen
data_TaSe3
_symmetry_space_group_name_H-M   'P 1'
_cell_length_a   10.37456498
_cell_length_b   3.51916076
_cell_length_c   10.89654279
_cell_angle_alpha   90.00000000
_cell_angle_beta   109.31042960
_cell_angle_gamma   90.00000000
_symmetry_Int_Tables_number   1
_chemical_formula_structural   TaSe3
_chemical_formula_sum   'Ta4 Se12'
_cell_volume   375.44856476
_cell_formula_units_Z   4
loop_
 _symmetry_equiv_pos_site_id
 _symmetry_equiv_pos_as_xyz
  1  'x, y, z'
loop_
 _atom_site_type_symbol
 _atom_site_label
 _atom_site_symmetry_multiplicity
 _atom_site_fract_x
 _atom_site_fract_y
 _atom_site_fract_z
 _atom_site_occupancy
  Ta  Ta0  1  0.371515  0.250000  0.809755  1
  Ta  Ta1  1  0.628485  0.750000  0.190245  1
  Ta  Ta2  1  0.041965  0.250000  0.333007  1
  Ta  Ta3  1  0.958035  0.750000  0.666993  1
  Se  Se4  1  0.430406  0.250000  0.080701  1
  Se  Se5  1  0.569594  0.750000  0.919299  1
  Se  Se6  1  0.795411  0.250000  0.132460  1
  Se  Se7  1  0.204589  0.750000  0.867540  1
  Se  Se8  1  0.931746  0.250000  0.836682  1
  Se  Se9  1  0.068254  0.750000  0.163318  1
  Se  Se10  1  0.588556  0.250000  0.355826  1
  Se  Se11  1  0.411444  0.750000  0.644174  1
  Se  Se12  1  0.753138  0.250000  0.605565  1
  Se  Se13  1  0.246862  0.750000  0.394435  1
  Se  Se14  1  0.118310  0.250000  0.602403  1
  Se  Se15  1  0.881690  0.750000  0.397597  1
