# generated using pymatgen
data_PbF2
_symmetry_space_group_name_H-M   'P 1'
_cell_length_a   3.94635977
_cell_length_b   6.56594505
_cell_length_c   7.80793976
_cell_angle_alpha   90.00000000
_cell_angle_beta   90.00000000
_cell_angle_gamma   90.00000000
_symmetry_Int_Tables_number   1
_chemical_formula_structural   PbF2
_chemical_formula_sum   'Pb4 F8'
_cell_volume   202.31606664
_cell_formula_units_Z   4
loop_
 _symmetry_equiv_pos_site_id
 _symmetry_equiv_pos_as_xyz
  1  'x, y, z'
loop_
 _atom_site_type_symbol
 _atom_site_label
 _atom_site_symmetry_multiplicity
 _atom_site_fract_x
 _atom_site_fract_y
 _atom_site_fract_z
 _atom_site_occupancy
  Pb  Pb0  1  0.250000  0.757221  0.598217  1
  Pb  Pb1  1  0.750000  0.242779  0.401783  1
  Pb  Pb2  1  0.250000  0.257221  0.901783  1
  Pb  Pb3  1  0.750000  0.742779  0.098217  1
  F  F4  1  0.250000  0.982778  0.352039  1
  F  F5  1  0.750000  0.017222  0.647961  1
  F  F6  1  0.250000  0.482778  0.147961  1
  F  F7  1  0.750000  0.517222  0.852039  1
  F  F8  1  0.750000  0.141450  0.070938  1
  F  F9  1  0.250000  0.858550  0.929062  1
  F  F10  1  0.750000  0.641450  0.429062  1
  F  F11  1  0.250000  0.358550  0.570938  1
