# generated using pymatgen
data_V2O5
_symmetry_space_group_name_H-M   'P 1'
_cell_length_a   8.02798109
_cell_length_b   8.02798109
_cell_length_c   10.32941042
_cell_angle_alpha   71.73402057
_cell_angle_beta   108.26597943
_cell_angle_gamma   153.78807052
_symmetry_Int_Tables_number   1
_chemical_formula_structural   V2O5
_chemical_formula_sum   'V6 O15'
_cell_volume   278.39949105
_cell_formula_units_Z   3
loop_
 _symmetry_equiv_pos_site_id
 _symmetry_equiv_pos_as_xyz
  1  'x, y, z'
loop_
 _atom_site_type_symbol
 _atom_site_label
 _atom_site_symmetry_multiplicity
 _atom_site_fract_x
 _atom_site_fract_y
 _atom_site_fract_z
 _atom_site_occupancy
  V  V0  1  0.115440  0.884560  0.613353  1
  V  V1  1  0.884560  0.115440  0.386647  1
  V  V2  1  0.288397  0.711603  0.911022  1
  V  V3  1  0.711603  0.288397  0.088978  1
  V  V4  1  0.337220  0.662780  0.607647  1
  V  V5  1  0.662780  0.337220  0.392353  1
  O  O6  1  0.184015  0.815985  0.445349  1
  O  O7  1  0.815985  0.184015  0.554651  1
  O  O8  1  0.106686  0.893314  0.765388  1
  O  O9  1  0.893314  0.106686  0.234612  1
  O  O10  1  0.245193  0.754807  0.075336  1
  O  O11  1  0.754807  0.245193  0.924664  1
  O  O12  1  0.365101  0.634899  0.426610  1
  O  O13  1  0.634899  0.365101  0.573390  1
  O  O14  1  0.263063  0.736937  0.721273  1
  O  O15  1  0.736937  0.263063  0.278727  1
  O  O16  1  0.396155  0.603845  0.968622  1
  O  O17  1  0.603845  0.396155  0.031378  1
  O  O18  1  0.436727  0.563273  0.717264  1
  O  O19  1  0.563273  0.436727  0.282736  1
  O  O20  1  0.000000  0.000000  0.500000  1
