# generated using pymatgen
data_CaCuGe
_symmetry_space_group_name_H-M   'P 1'
_cell_length_a   4.36850609
_cell_length_b   7.49942958
_cell_length_c   21.35803709
_cell_angle_alpha   90.00000000
_cell_angle_beta   90.00000000
_cell_angle_gamma   90.00000000
_symmetry_Int_Tables_number   1
_chemical_formula_structural   CaCuGe
_chemical_formula_sum   'Ca12 Cu12 Ge12'
_cell_volume   699.71714150
_cell_formula_units_Z   12
loop_
 _symmetry_equiv_pos_site_id
 _symmetry_equiv_pos_as_xyz
  1  'x, y, z'
loop_
 _atom_site_type_symbol
 _atom_site_label
 _atom_site_symmetry_multiplicity
 _atom_site_fract_x
 _atom_site_fract_y
 _atom_site_fract_z
 _atom_site_occupancy
  Ca  Ca0  1  0.250000  0.714342  0.001552  1
  Ca  Ca1  1  0.750000  0.285658  0.998448  1
  Ca  Ca2  1  0.750000  0.214342  0.498448  1
  Ca  Ca3  1  0.250000  0.785658  0.501552  1
  Ca  Ca4  1  0.250000  0.792070  0.166289  1
  Ca  Ca5  1  0.750000  0.207930  0.833711  1
  Ca  Ca6  1  0.750000  0.292070  0.333711  1
  Ca  Ca7  1  0.250000  0.707930  0.666289  1
  Ca  Ca8  1  0.250000  0.706172  0.333168  1
  Ca  Ca9  1  0.750000  0.293828  0.666832  1
  Ca  Ca10  1  0.750000  0.206172  0.166832  1
  Ca  Ca11  1  0.250000  0.793828  0.833168  1
  Cu  Cu12  1  0.250000  0.414517  0.097373  1
  Cu  Cu13  1  0.750000  0.585483  0.902627  1
  Cu  Cu14  1  0.750000  0.914517  0.402627  1
  Cu  Cu15  1  0.250000  0.085483  0.597373  1
  Cu  Cu16  1  0.250000  0.413082  0.235124  1
  Cu  Cu17  1  0.750000  0.586918  0.764876  1
  Cu  Cu18  1  0.750000  0.913082  0.264876  1
  Cu  Cu19  1  0.250000  0.086918  0.735124  1
  Cu  Cu20  1  0.250000  0.419035  0.436169  1
  Cu  Cu21  1  0.750000  0.580965  0.563831  1
  Cu  Cu22  1  0.750000  0.919035  0.063831  1
  Cu  Cu23  1  0.250000  0.080965  0.936169  1
  Ge  Ge24  1  0.250000  0.090338  0.068822  1
  Ge  Ge25  1  0.750000  0.909662  0.931178  1
  Ge  Ge26  1  0.750000  0.590338  0.431178  1
  Ge  Ge27  1  0.250000  0.409662  0.568822  1
  Ge  Ge28  1  0.250000  0.082197  0.269077  1
  Ge  Ge29  1  0.750000  0.917803  0.730923  1
  Ge  Ge30  1  0.750000  0.582197  0.230923  1
  Ge  Ge31  1  0.250000  0.417803  0.769077  1
  Ge  Ge32  1  0.250000  0.084903  0.398326  1
  Ge  Ge33  1  0.750000  0.915097  0.601674  1
  Ge  Ge34  1  0.750000  0.584903  0.101674  1
  Ge  Ge35  1  0.250000  0.415097  0.898326  1
