# generated using pymatgen
data_KEu2I5
_symmetry_space_group_name_H-M   'P 1'
_cell_length_a   10.03183293
_cell_length_b   9.01445563
_cell_length_c   14.39539195
_cell_angle_alpha   90.00000000
_cell_angle_beta   90.14557154
_cell_angle_gamma   90.00000000
_symmetry_Int_Tables_number   1
_chemical_formula_structural   KEu2I5
_chemical_formula_sum   'K4 Eu8 I20'
_cell_volume   1301.79287118
_cell_formula_units_Z   4
loop_
 _symmetry_equiv_pos_site_id
 _symmetry_equiv_pos_as_xyz
  1  'x, y, z'
loop_
 _atom_site_type_symbol
 _atom_site_label
 _atom_site_symmetry_multiplicity
 _atom_site_fract_x
 _atom_site_fract_y
 _atom_site_fract_z
 _atom_site_occupancy
  K  K0  1  0.507718  0.951028  0.329209  1
  K  K1  1  0.492282  0.451028  0.170791  1
  K  K2  1  0.492282  0.048972  0.670791  1
  K  K3  1  0.507718  0.548972  0.829209  1
  Eu  Eu4  1  0.003103  0.974840  0.319731  1
  Eu  Eu5  1  0.248915  0.926791  0.005717  1
  Eu  Eu6  1  0.751085  0.426791  0.494283  1
  Eu  Eu7  1  0.751085  0.073209  0.994283  1
  Eu  Eu8  1  0.248915  0.573209  0.505717  1
  Eu  Eu9  1  0.003103  0.525160  0.819731  1
  Eu  Eu10  1  0.996897  0.025160  0.680269  1
  Eu  Eu11  1  0.996897  0.474840  0.180269  1
  I  I12  1  0.768874  0.188847  0.215850  1
  I  I13  1  0.780451  0.834985  0.817243  1
  I  I14  1  0.219549  0.334985  0.682757  1
  I  I15  1  0.219549  0.165015  0.182757  1
  I  I16  1  0.780451  0.665015  0.317243  1
  I  I17  1  0.231126  0.811153  0.784150  1
  I  I18  1  0.768874  0.311153  0.715850  1
  I  I19  1  0.216213  0.956092  0.502398  1
  I  I20  1  0.959447  0.838343  0.099795  1
  I  I21  1  0.040553  0.338343  0.400205  1
  I  I22  1  0.040553  0.161657  0.900205  1
  I  I23  1  0.959447  0.661657  0.599795  1
  I  I24  1  0.783787  0.043908  0.497602  1
  I  I25  1  0.783787  0.456092  0.997602  1
  I  I26  1  0.537104  0.674376  0.585542  1
  I  I27  1  0.216213  0.543908  0.002398  1
  I  I28  1  0.537104  0.825624  0.085542  1
  I  I29  1  0.462896  0.325624  0.414458  1
  I  I30  1  0.462896  0.174376  0.914458  1
  I  I31  1  0.231126  0.688847  0.284150  1
