# generated using pymatgen
data_GdCrO4
_symmetry_space_group_name_H-M   'P 1'
_cell_length_a   6.05911589
_cell_length_b   6.05911589
_cell_length_c   6.05911589
_cell_angle_alpha   105.91975195
_cell_angle_beta   105.91975195
_cell_angle_gamma   116.83472994
_symmetry_Int_Tables_number   1
_chemical_formula_structural   GdCrO4
_chemical_formula_sum   'Gd2 Cr2 O8'
_cell_volume   169.09314907
_cell_formula_units_Z   2
loop_
 _symmetry_equiv_pos_site_id
 _symmetry_equiv_pos_as_xyz
  1  'x, y, z'
loop_
 _atom_site_type_symbol
 _atom_site_label
 _atom_site_symmetry_multiplicity
 _atom_site_fract_x
 _atom_site_fract_y
 _atom_site_fract_z
 _atom_site_occupancy
  Gd  Gd0  1  0.000000  0.000000  0.000000  1
  Gd  Gd1  1  0.250000  0.750000  0.500000  1
  Cr  Cr2  1  0.750000  0.250000  0.500000  1
  Cr  Cr3  1  0.500000  0.500000  0.000000  1
  O  O4  1  0.854736  0.671731  0.183005  1
  O  O5  1  0.921731  0.238725  0.316995  1
  O  O6  1  0.921731  0.604736  0.683005  1
  O  O7  1  0.488725  0.671731  0.816995  1
  O  O8  1  0.328269  0.511275  0.183005  1
  O  O9  1  0.395264  0.078269  0.316995  1
  O  O10  1  0.761275  0.078269  0.683005  1
  O  O11  1  0.328269  0.145264  0.816995  1
