# generated using pymatgen
data_UGeIr
_symmetry_space_group_name_H-M   'P 1'
_cell_length_a   4.36749967
_cell_length_b   6.67557229
_cell_length_c   7.71541100
_cell_angle_alpha   90.00000000
_cell_angle_beta   90.00000000
_cell_angle_gamma   90.00000000
_symmetry_Int_Tables_number   1
_chemical_formula_structural   UGeIr
_chemical_formula_sum   'U4 Ge4 Ir4'
_cell_volume   224.94712659
_cell_formula_units_Z   4
loop_
 _symmetry_equiv_pos_site_id
 _symmetry_equiv_pos_as_xyz
  1  'x, y, z'
loop_
 _atom_site_type_symbol
 _atom_site_label
 _atom_site_symmetry_multiplicity
 _atom_site_fract_x
 _atom_site_fract_y
 _atom_site_fract_z
 _atom_site_occupancy
  U  U0  1  0.250000  0.491819  0.203209  1
  U  U1  1  0.750000  0.508181  0.796791  1
  U  U2  1  0.250000  0.991819  0.296791  1
  U  U3  1  0.750000  0.008181  0.703209  1
  Ge  Ge4  1  0.250000  0.819361  0.915588  1
  Ge  Ge5  1  0.750000  0.180639  0.084412  1
  Ge  Ge6  1  0.250000  0.319361  0.584412  1
  Ge  Ge7  1  0.750000  0.680639  0.415588  1
  Ir  Ir8  1  0.750000  0.771287  0.085927  1
  Ir  Ir9  1  0.250000  0.228713  0.914073  1
  Ir  Ir10  1  0.750000  0.271287  0.414073  1
  Ir  Ir11  1  0.250000  0.728713  0.585927  1
