# generated using pymatgen
data_Ba(MgSn)2
_symmetry_space_group_name_H-M   'P 1'
_cell_length_a   4.94840027
_cell_length_b   4.94840027
_cell_length_c   24.48816440
_cell_angle_alpha   90.00000000
_cell_angle_beta   90.00000000
_cell_angle_gamma   90.00000000
_symmetry_Int_Tables_number   1
_chemical_formula_structural   Ba(MgSn)2
_chemical_formula_sum   'Ba4 Mg8 Sn8'
_cell_volume   599.63348381
_cell_formula_units_Z   4
loop_
 _symmetry_equiv_pos_site_id
 _symmetry_equiv_pos_as_xyz
  1  'x, y, z'
loop_
 _atom_site_type_symbol
 _atom_site_label
 _atom_site_symmetry_multiplicity
 _atom_site_fract_x
 _atom_site_fract_y
 _atom_site_fract_z
 _atom_site_occupancy
  Ba  Ba0  1  0.000000  0.500000  0.379786  1
  Ba  Ba1  1  0.500000  0.000000  0.620214  1
  Ba  Ba2  1  0.000000  0.500000  0.871150  1
  Ba  Ba3  1  0.500000  0.000000  0.128850  1
  Mg  Mg4  1  0.000000  0.000000  0.747678  1
  Mg  Mg5  1  0.500000  0.500000  0.747678  1
  Mg  Mg6  1  0.000000  0.000000  0.252322  1
  Mg  Mg7  1  0.500000  0.500000  0.252322  1
  Mg  Mg8  1  0.500000  0.500000  0.000000  1
  Mg  Mg9  1  0.000000  0.000000  0.000000  1
  Mg  Mg10  1  0.500000  0.000000  0.434486  1
  Mg  Mg11  1  0.000000  0.500000  0.565514  1
  Sn  Sn12  1  0.500000  0.000000  0.318244  1
  Sn  Sn13  1  0.000000  0.500000  0.681756  1
  Sn  Sn14  1  0.000000  0.000000  0.500000  1
  Sn  Sn15  1  0.500000  0.500000  0.500000  1
  Sn  Sn16  1  0.500000  0.000000  0.814886  1
  Sn  Sn17  1  0.000000  0.500000  0.185114  1
  Sn  Sn18  1  0.500000  0.000000  0.934055  1
  Sn  Sn19  1  0.000000  0.500000  0.065945  1
