# generated using pymatgen
data_PaBr4
_symmetry_space_group_name_H-M   'P 1'
_cell_length_a   7.52414254
_cell_length_b   7.52414254
_cell_length_c   7.52414254
_cell_angle_alpha   107.25530055
_cell_angle_beta   107.25530055
_cell_angle_gamma   114.00021999
_symmetry_Int_Tables_number   1
_chemical_formula_structural   PaBr4
_chemical_formula_sum   'Pa2 Br8'
_cell_volume   326.35660562
_cell_formula_units_Z   2
loop_
 _symmetry_equiv_pos_site_id
 _symmetry_equiv_pos_as_xyz
  1  'x, y, z'
loop_
 _atom_site_type_symbol
 _atom_site_label
 _atom_site_symmetry_multiplicity
 _atom_site_fract_x
 _atom_site_fract_y
 _atom_site_fract_z
 _atom_site_occupancy
  Pa  Pa0  1  0.000000  0.000000  0.000000  1
  Pa  Pa1  1  0.250000  0.750000  0.500000  1
  Br  Br2  1  0.928423  0.239655  0.311232  1
  Br  Br3  1  0.867191  0.678423  0.188768  1
  Br  Br4  1  0.489655  0.678423  0.811232  1
  Br  Br5  1  0.928423  0.617191  0.688768  1
  Br  Br6  1  0.760345  0.071577  0.688768  1
  Br  Br7  1  0.321577  0.132809  0.811232  1
  Br  Br8  1  0.321577  0.510345  0.188768  1
  Br  Br9  1  0.382809  0.071577  0.311232  1
