# generated using pymatgen
data_Ni2As2O7
_symmetry_space_group_name_H-M   'P 1'
_cell_length_a   5.40723791
_cell_length_b   5.40723791
_cell_length_c   4.83246805
_cell_angle_alpha   83.16202456
_cell_angle_beta   96.83797544
_cell_angle_gamma   73.14578670
_symmetry_Int_Tables_number   1
_chemical_formula_structural   Ni2As2O7
_chemical_formula_sum   'Ni2 As2 O7'
_cell_volume   132.49650362
_cell_formula_units_Z   1
loop_
 _symmetry_equiv_pos_site_id
 _symmetry_equiv_pos_as_xyz
  1  'x, y, z'
loop_
 _atom_site_type_symbol
 _atom_site_label
 _atom_site_symmetry_multiplicity
 _atom_site_fract_x
 _atom_site_fract_y
 _atom_site_fract_z
 _atom_site_occupancy
  Ni  Ni0  1  0.688087  0.688087  0.500000  1
  Ni  Ni1  1  0.311913  0.311913  0.500000  1
  As  As2  1  0.242504  0.757496  0.896491  1
  As  As3  1  0.757496  0.242504  0.103509  1
  O  O4  1  0.406053  0.929889  0.710210  1
  O  O5  1  0.929889  0.406053  0.289790  1
  O  O6  1  0.593947  0.070111  0.289790  1
  O  O7  1  0.070111  0.593947  0.710210  1
  O  O8  1  0.000000  0.000000  0.000000  1
  O  O9  1  0.591702  0.408298  0.772930  1
  O  O10  1  0.408298  0.591702  0.227070  1
