# generated using pymatgen
data_Li2CuPO4
_symmetry_space_group_name_H-M   'P 1'
_cell_length_a   5.16589375
_cell_length_b   10.91697819
_cell_length_c   7.97171853
_cell_angle_alpha   90.00000000
_cell_angle_beta   129.70820444
_cell_angle_gamma   90.00000000
_symmetry_Int_Tables_number   1
_chemical_formula_structural   Li2CuPO4
_chemical_formula_sum   'Li8 Cu4 P4 O16'
_cell_volume   345.85985978
_cell_formula_units_Z   4
loop_
 _symmetry_equiv_pos_site_id
 _symmetry_equiv_pos_as_xyz
  1  'x, y, z'
loop_
 _atom_site_type_symbol
 _atom_site_label
 _atom_site_symmetry_multiplicity
 _atom_site_fract_x
 _atom_site_fract_y
 _atom_site_fract_z
 _atom_site_occupancy
  Li  Li0  1  0.697656  0.835513  0.501359  1
  Li  Li1  1  0.445459  0.072512  0.244055  1
  Li  Li2  1  0.554541  0.572512  0.255945  1
  Li  Li3  1  0.302344  0.335513  0.998641  1
  Li  Li4  1  0.302344  0.164487  0.498641  1
  Li  Li5  1  0.554541  0.927488  0.755945  1
  Li  Li6  1  0.445459  0.427488  0.744055  1
  Li  Li7  1  0.697656  0.664487  0.001359  1
  Cu  Cu8  1  0.213797  0.828964  0.000999  1
  Cu  Cu9  1  0.786203  0.171036  0.999001  1
  Cu  Cu10  1  0.786203  0.328964  0.499001  1
  Cu  Cu11  1  0.213797  0.671036  0.500999  1
  P  P12  1  0.049322  0.087499  0.746743  1
  P  P13  1  0.950678  0.587499  0.753257  1
  P  P14  1  0.049322  0.412501  0.246743  1
  P  P15  1  0.950678  0.912501  0.253257  1
  O  O16  1  0.063569  0.044249  0.251031  1
  O  O17  1  0.660664  0.918067  0.265346  1
  O  O18  1  0.265320  0.847511  0.461937  1
  O  O19  1  0.063569  0.455751  0.751031  1
  O  O20  1  0.826694  0.659103  0.544659  1
  O  O21  1  0.936431  0.544249  0.248969  1
  O  O22  1  0.339336  0.081933  0.734654  1
  O  O23  1  0.936431  0.955751  0.748969  1
  O  O24  1  0.734680  0.152489  0.538063  1
  O  O25  1  0.660664  0.581933  0.765346  1
  O  O26  1  0.265320  0.652489  0.961937  1
  O  O27  1  0.173306  0.159103  0.955341  1
  O  O28  1  0.826694  0.840897  0.044659  1
  O  O29  1  0.734680  0.347511  0.038063  1
  O  O30  1  0.339336  0.418067  0.234654  1
  O  O31  1  0.173306  0.340897  0.455341  1
