# generated using pymatgen
data_NaTiSe4
_symmetry_space_group_name_H-M   'P 1'
_cell_length_a   13.12070414
_cell_length_b   7.41557780
_cell_length_c   13.14288665
_cell_angle_alpha   90.00000000
_cell_angle_beta   106.63107508
_cell_angle_gamma   90.00000000
_symmetry_Int_Tables_number   1
_chemical_formula_structural   NaTiSe4
_chemical_formula_sum   'Na8 Ti8 Se32'
_cell_volume   1225.27713869
_cell_formula_units_Z   8
loop_
 _symmetry_equiv_pos_site_id
 _symmetry_equiv_pos_as_xyz
  1  'x, y, z'
loop_
 _atom_site_type_symbol
 _atom_site_label
 _atom_site_symmetry_multiplicity
 _atom_site_fract_x
 _atom_site_fract_y
 _atom_site_fract_z
 _atom_site_occupancy
  Na  Na0  1  0.903666  0.683706  0.129660  1
  Na  Na1  1  0.096334  0.183706  0.370340  1
  Na  Na2  1  0.096334  0.316294  0.870340  1
  Na  Na3  1  0.903666  0.816294  0.629660  1
  Na  Na4  1  0.537488  0.666158  0.117566  1
  Na  Na5  1  0.462512  0.166158  0.382434  1
  Na  Na6  1  0.462512  0.333842  0.882434  1
  Na  Na7  1  0.537488  0.833842  0.617566  1
  Ti  Ti8  1  0.268585  0.728173  0.385101  1
  Ti  Ti9  1  0.731415  0.228173  0.114899  1
  Ti  Ti10  1  0.731415  0.271827  0.614899  1
  Ti  Ti11  1  0.268585  0.771827  0.885101  1
  Ti  Ti12  1  0.217823  0.799039  0.625754  1
  Ti  Ti13  1  0.782177  0.299039  0.874246  1
  Ti  Ti14  1  0.782177  0.200961  0.374246  1
  Ti  Ti15  1  0.217823  0.700961  0.125754  1
  Se  Se16  1  0.324174  0.982174  0.500948  1
  Se  Se17  1  0.675826  0.482174  0.999052  1
  Se  Se18  1  0.675826  0.017826  0.499052  1
  Se  Se19  1  0.324174  0.517826  0.000948  1
  Se  Se20  1  0.397360  0.808379  0.257822  1
  Se  Se21  1  0.602640  0.308379  0.242178  1
  Se  Se22  1  0.602640  0.191621  0.742178  1
  Se  Se23  1  0.397360  0.691621  0.757822  1
  Se  Se24  1  0.267704  0.999803  0.035707  1
  Se  Se25  1  0.732296  0.499803  0.464293  1
  Se  Se26  1  0.732296  0.000197  0.964293  1
  Se  Se27  1  0.267704  0.500197  0.535707  1
  Se  Se28  1  0.450188  0.915768  0.895529  1
  Se  Se29  1  0.549812  0.415768  0.604471  1
  Se  Se30  1  0.549812  0.084232  0.104471  1
  Se  Se31  1  0.450188  0.584232  0.395529  1
  Se  Se32  1  0.091457  0.073534  0.597443  1
  Se  Se33  1  0.908543  0.573534  0.902557  1
  Se  Se34  1  0.908543  0.926466  0.402557  1
  Se  Se35  1  0.091457  0.426466  0.097443  1
  Se  Se36  1  0.248994  0.076507  0.747254  1
  Se  Se37  1  0.751006  0.576507  0.752746  1
  Se  Se38  1  0.751006  0.923493  0.252746  1
  Se  Se39  1  0.248994  0.423493  0.247254  1
  Se  Se40  1  0.122493  0.627358  0.729323  1
  Se  Se41  1  0.877507  0.127358  0.770677  1
  Se  Se42  1  0.877507  0.372642  0.270677  1
  Se  Se43  1  0.122493  0.872642  0.229323  1
  Se  Se44  1  0.103984  0.646291  0.450146  1
  Se  Se45  1  0.896016  0.146291  0.049854  1
  Se  Se46  1  0.896016  0.353709  0.549854  1
  Se  Se47  1  0.103984  0.853709  0.950146  1
