# generated using pymatgen
data_ErGeRh
_symmetry_space_group_name_H-M   'P 1'
_cell_length_a   4.30203031
_cell_length_b   6.88502495
_cell_length_c   7.55363924
_cell_angle_alpha   90.00000000
_cell_angle_beta   90.00000000
_cell_angle_gamma   90.00000000
_symmetry_Int_Tables_number   1
_chemical_formula_structural   ErGeRh
_chemical_formula_sum   'Er4 Ge4 Rh4'
_cell_volume   223.73566723
_cell_formula_units_Z   4
loop_
 _symmetry_equiv_pos_site_id
 _symmetry_equiv_pos_as_xyz
  1  'x, y, z'
loop_
 _atom_site_type_symbol
 _atom_site_label
 _atom_site_symmetry_multiplicity
 _atom_site_fract_x
 _atom_site_fract_y
 _atom_site_fract_z
 _atom_site_occupancy
  Er  Er0  1  0.250000  0.003244  0.695524  1
  Er  Er1  1  0.750000  0.996756  0.304476  1
  Er  Er2  1  0.250000  0.503244  0.804476  1
  Er  Er3  1  0.750000  0.496756  0.195524  1
  Ge  Ge4  1  0.250000  0.786469  0.106007  1
  Ge  Ge5  1  0.750000  0.213531  0.893993  1
  Ge  Ge6  1  0.250000  0.286469  0.393993  1
  Ge  Ge7  1  0.750000  0.713531  0.606007  1
  Rh  Rh8  1  0.750000  0.343695  0.567432  1
  Rh  Rh9  1  0.250000  0.656305  0.432568  1
  Rh  Rh10  1  0.750000  0.843695  0.932568  1
  Rh  Rh11  1  0.250000  0.156305  0.067432  1
