# generated using pymatgen
data_LaAuO3
_symmetry_space_group_name_H-M   'P 1'
_cell_length_a   4.06924201
_cell_length_b   5.75254482
_cell_length_c   13.26282316
_cell_angle_alpha   90.00000000
_cell_angle_beta   90.00000000
_cell_angle_gamma   90.00000000
_symmetry_Int_Tables_number   1
_chemical_formula_structural   LaAuO3
_chemical_formula_sum   'La4 Au4 O12'
_cell_volume   310.46275676
_cell_formula_units_Z   4
loop_
 _symmetry_equiv_pos_site_id
 _symmetry_equiv_pos_as_xyz
  1  'x, y, z'
loop_
 _atom_site_type_symbol
 _atom_site_label
 _atom_site_symmetry_multiplicity
 _atom_site_fract_x
 _atom_site_fract_y
 _atom_site_fract_z
 _atom_site_occupancy
  La  La0  1  0.264490  0.750000  0.080564  1
  La  La1  1  0.264490  0.250000  0.419436  1
  La  La2  1  0.735510  0.250000  0.919436  1
  La  La3  1  0.735510  0.750000  0.580564  1
  Au  Au4  1  0.072852  0.750000  0.829718  1
  Au  Au5  1  0.072852  0.250000  0.670282  1
  Au  Au6  1  0.927148  0.250000  0.170282  1
  Au  Au7  1  0.927148  0.750000  0.329718  1
  O  O8  1  0.172449  0.500000  0.250000  1
  O  O9  1  0.827551  0.000000  0.750000  1
  O  O10  1  0.827551  0.500000  0.750000  1
  O  O11  1  0.172449  0.000000  0.250000  1
  O  O12  1  0.743797  0.496079  0.078138  1
  O  O13  1  0.743797  0.503921  0.421862  1
  O  O14  1  0.256203  0.996079  0.921862  1
  O  O15  1  0.256203  0.003921  0.578138  1
  O  O16  1  0.743797  0.996079  0.421862  1
  O  O17  1  0.743797  0.003921  0.078138  1
  O  O18  1  0.256203  0.496079  0.578138  1
  O  O19  1  0.256203  0.503921  0.921862  1
