# generated using pymatgen
data_NbNiTe2
_symmetry_space_group_name_H-M   'P 1'
_cell_length_a   6.30633581
_cell_length_b   7.48112864
_cell_length_c   8.02431690
_cell_angle_alpha   90.00000000
_cell_angle_beta   90.00000000
_cell_angle_gamma   90.00000000
_symmetry_Int_Tables_number   1
_chemical_formula_structural   NbNiTe2
_chemical_formula_sum   'Nb4 Ni4 Te8'
_cell_volume   378.57531063
_cell_formula_units_Z   4
loop_
 _symmetry_equiv_pos_site_id
 _symmetry_equiv_pos_as_xyz
  1  'x, y, z'
loop_
 _atom_site_type_symbol
 _atom_site_label
 _atom_site_symmetry_multiplicity
 _atom_site_fract_x
 _atom_site_fract_y
 _atom_site_fract_z
 _atom_site_occupancy
  Nb  Nb0  1  0.500000  0.000000  0.793769  1
  Nb  Nb1  1  0.000000  0.000000  0.706231  1
  Nb  Nb2  1  0.000000  0.000000  0.293769  1
  Nb  Nb3  1  0.500000  0.000000  0.206231  1
  Ni  Ni4  1  0.855866  0.882570  0.000000  1
  Ni  Ni5  1  0.644134  0.882570  0.500000  1
  Ni  Ni6  1  0.144134  0.117430  0.000000  1
  Ni  Ni7  1  0.355866  0.117430  0.500000  1
  Te  Te8  1  0.748938  0.218659  0.000000  1
  Te  Te9  1  0.751062  0.218659  0.500000  1
  Te  Te10  1  0.750000  0.686901  0.750000  1
  Te  Te11  1  0.750000  0.686901  0.250000  1
  Te  Te12  1  0.251062  0.781341  0.000000  1
  Te  Te13  1  0.248938  0.781341  0.500000  1
  Te  Te14  1  0.250000  0.313099  0.750000  1
  Te  Te15  1  0.250000  0.313099  0.250000  1
