# generated using pymatgen
data_KMgH9(CO5)2
_symmetry_space_group_name_H-M   'P 1'
_cell_length_a   5.35742625
_cell_length_b   6.73464923
_cell_length_c   7.12883772
_cell_angle_alpha   114.69442893
_cell_angle_beta   91.10089095
_cell_angle_gamma   107.31194681
_symmetry_Int_Tables_number   1
_chemical_formula_structural   KMgH9(CO5)2
_chemical_formula_sum   'K1 Mg1 H9 C2 O10'
_cell_volume   220.02678550
_cell_formula_units_Z   1
loop_
 _symmetry_equiv_pos_site_id
 _symmetry_equiv_pos_as_xyz
  1  'x, y, z'
loop_
 _atom_site_type_symbol
 _atom_site_label
 _atom_site_symmetry_multiplicity
 _atom_site_fract_x
 _atom_site_fract_y
 _atom_site_fract_z
 _atom_site_occupancy
  K  K0  1  0.000000  0.000000  0.000000  1
  Mg  Mg1  1  0.500000  0.500000  0.500000  1
  H  H2  1  0.000000  0.500000  0.000000  1
  H  H3  1  0.798666  0.795124  0.398776  1
  H  H4  1  0.998997  0.330084  0.575915  1
  H  H5  1  0.636421  0.259265  0.131676  1
  H  H6  1  0.363579  0.740735  0.868324  1
  H  H7  1  0.001003  0.669916  0.424085  1
  H  H8  1  0.427286  0.914370  0.757665  1
  H  H9  1  0.201334  0.204876  0.601224  1
  H  H10  1  0.572714  0.085630  0.242335  1
  C  C11  1  0.369720  0.695079  0.202799  1
  C  C12  1  0.630280  0.304921  0.797201  1
  O  O13  1  0.799388  0.333042  0.953093  1
  O  O14  1  0.396638  0.156094  0.754430  1
  O  O15  1  0.603362  0.843906  0.245570  1
  O  O16  1  0.711656  0.426682  0.697402  1
  O  O17  1  0.859008  0.728034  0.486436  1
  O  O18  1  0.140992  0.271966  0.513564  1
  O  O19  1  0.536655  0.220399  0.235421  1
  O  O20  1  0.463345  0.779601  0.764579  1
  O  O21  1  0.200612  0.666958  0.046907  1
  O  O22  1  0.288344  0.573318  0.302598  1
