# generated using pymatgen
data_PHF4
_symmetry_space_group_name_H-M   'P 1'
_cell_length_a   4.70198274
_cell_length_b   8.20117776
_cell_length_c   9.98174348
_cell_angle_alpha   90.00000000
_cell_angle_beta   117.54454550
_cell_angle_gamma   90.00000000
_symmetry_Int_Tables_number   1
_chemical_formula_structural   PHF4
_chemical_formula_sum   'P4 H4 F16'
_cell_volume   341.28456665
_cell_formula_units_Z   4
loop_
 _symmetry_equiv_pos_site_id
 _symmetry_equiv_pos_as_xyz
  1  'x, y, z'
loop_
 _atom_site_type_symbol
 _atom_site_label
 _atom_site_symmetry_multiplicity
 _atom_site_fract_x
 _atom_site_fract_y
 _atom_site_fract_z
 _atom_site_occupancy
  P  P0  1  0.681828  0.282851  0.673074  1
  P  P1  1  0.318172  0.782851  0.826926  1
  P  P2  1  0.318172  0.717149  0.326926  1
  P  P3  1  0.681828  0.217149  0.173074  1
  H  H4  1  0.836001  0.383489  0.613982  1
  H  H5  1  0.163999  0.883490  0.886018  1
  H  H6  1  0.163999  0.616511  0.386018  1
  H  H7  1  0.836001  0.116511  0.113982  1
  F  F8  1  0.983402  0.344184  0.230897  1
  F  F9  1  0.016598  0.844184  0.269103  1
  F  F10  1  0.016598  0.655816  0.769103  1
  F  F11  1  0.983402  0.155816  0.730897  1
  F  F12  1  0.384445  0.087095  0.115307  1
  F  F13  1  0.615555  0.587095  0.384693  1
  F  F14  1  0.615555  0.912905  0.884693  1
  F  F15  1  0.384445  0.412905  0.615307  1
  F  F16  1  0.729903  0.201186  0.338805  1
  F  F17  1  0.270097  0.701186  0.161195  1
  F  F18  1  0.270097  0.798814  0.661195  1
  F  F19  1  0.729903  0.298814  0.838805  1
  F  F20  1  0.445582  0.355388  0.077876  1
  F  F21  1  0.554418  0.855388  0.422124  1
  F  F22  1  0.554418  0.644612  0.922124  1
  F  F23  1  0.445582  0.144612  0.577876  1
