# generated using pymatgen
data_U(BH4)4
_symmetry_space_group_name_H-M   'P 1'
_cell_length_a   7.45022926
_cell_length_b   7.45022926
_cell_length_c   13.16872749
_cell_angle_alpha   90.00000000
_cell_angle_beta   90.00000000
_cell_angle_gamma   90.00000000
_symmetry_Int_Tables_number   1
_chemical_formula_structural   U(BH4)4
_chemical_formula_sum   'U4 B16 H64'
_cell_volume   730.94228224
_cell_formula_units_Z   4
loop_
 _symmetry_equiv_pos_site_id
 _symmetry_equiv_pos_as_xyz
  1  'x, y, z'
loop_
 _atom_site_type_symbol
 _atom_site_label
 _atom_site_symmetry_multiplicity
 _atom_site_fract_x
 _atom_site_fract_y
 _atom_site_fract_z
 _atom_site_occupancy
  U  U0  1  0.070763  0.070763  0.500000  1
  U  U1  1  0.429237  0.570763  0.250000  1
  U  U2  1  0.570763  0.429237  0.750000  1
  U  U3  1  0.929237  0.929237  0.000000  1
  B  B4  1  0.339004  0.211066  0.626835  1
  B  B5  1  0.660996  0.788934  0.126835  1
  B  B6  1  0.211066  0.339004  0.373165  1
  B  B7  1  0.711066  0.160996  0.876835  1
  B  B8  1  0.288934  0.839004  0.376835  1
  B  B9  1  0.160996  0.711066  0.123165  1
  B  B10  1  0.839004  0.288934  0.623165  1
  B  B11  1  0.788934  0.660996  0.873165  1
  B  B12  1  0.073803  0.791101  0.601489  1
  B  B13  1  0.926197  0.208899  0.101489  1
  B  B14  1  0.791101  0.073803  0.398511  1
  B  B15  1  0.291101  0.426197  0.851489  1
  B  B16  1  0.708899  0.573803  0.351489  1
  B  B17  1  0.426197  0.291101  0.148511  1
  B  B18  1  0.573803  0.708899  0.648511  1
  B  B19  1  0.208899  0.926197  0.898511  1
  H  H20  1  0.845350  0.575808  0.399284  1
  H  H21  1  0.154650  0.424192  0.899284  1
  H  H22  1  0.575808  0.845350  0.600716  1
  H  H23  1  0.075808  0.654650  0.649284  1
  H  H24  1  0.924192  0.345350  0.149284  1
  H  H25  1  0.654650  0.075808  0.350716  1
  H  H26  1  0.345350  0.924192  0.850716  1
  H  H27  1  0.424192  0.154650  0.100716  1
  H  H28  1  0.722829  0.500338  0.266366  1
  H  H29  1  0.277171  0.499662  0.766366  1
  H  H30  1  0.500338  0.722829  0.733634  1
  H  H31  1  0.000338  0.777171  0.516366  1
  H  H32  1  0.999662  0.222829  0.016366  1
  H  H33  1  0.777171  0.000338  0.483634  1
  H  H34  1  0.222829  0.999662  0.983634  1
  H  H35  1  0.499662  0.277171  0.233634  1
  H  H36  1  0.642756  0.725527  0.335820  1
  H  H37  1  0.357244  0.274473  0.835820  1
  H  H38  1  0.725527  0.642756  0.664180  1
  H  H39  1  0.225527  0.857244  0.585820  1
  H  H40  1  0.376106  0.354024  0.378690  1
  H  H41  1  0.145976  0.876106  0.128690  1
  H  H42  1  0.854024  0.123894  0.628690  1
  H  H43  1  0.876106  0.145976  0.871310  1
  H  H44  1  0.123894  0.854024  0.371310  1
  H  H45  1  0.623894  0.645976  0.878690  1
  H  H46  1  0.354024  0.376106  0.621310  1
  H  H47  1  0.645976  0.623894  0.121310  1
  H  H48  1  0.145971  0.445353  0.311725  1
  H  H49  1  0.054647  0.645971  0.061725  1
  H  H50  1  0.945353  0.354029  0.561725  1
  H  H51  1  0.645971  0.054647  0.938275  1
  H  H52  1  0.354029  0.945353  0.438275  1
  H  H53  1  0.854029  0.554647  0.811725  1
  H  H54  1  0.445353  0.145971  0.688275  1
  H  H55  1  0.554647  0.854029  0.188275  1
  H  H56  1  0.148424  0.371129  0.458165  1
  H  H57  1  0.128871  0.648424  0.208165  1
  H  H58  1  0.871129  0.351576  0.708165  1
  H  H59  1  0.648424  0.128871  0.791835  1
  H  H60  1  0.351576  0.871129  0.291835  1
  H  H61  1  0.851576  0.628871  0.958165  1
  H  H62  1  0.371129  0.148424  0.541835  1
  H  H63  1  0.628871  0.851576  0.041835  1
  H  H64  1  0.174491  0.184560  0.345019  1
  H  H65  1  0.315440  0.674491  0.095019  1
  H  H66  1  0.684560  0.325509  0.595019  1
  H  H67  1  0.674491  0.315440  0.904981  1
  H  H68  1  0.325509  0.684560  0.404981  1
  H  H69  1  0.825509  0.815440  0.845019  1
  H  H70  1  0.184560  0.174491  0.654981  1
  H  H71  1  0.815440  0.825509  0.154981  1
  H  H72  1  0.009607  0.083196  0.142816  1
  H  H73  1  0.416804  0.509607  0.892816  1
  H  H74  1  0.583196  0.490393  0.392816  1
  H  H75  1  0.509607  0.416804  0.107184  1
  H  H76  1  0.490393  0.583196  0.607184  1
  H  H77  1  0.990393  0.916804  0.642816  1
  H  H78  1  0.083196  0.009607  0.857184  1
  H  H79  1  0.916804  0.990393  0.357184  1
  H  H80  1  0.274473  0.357244  0.164180  1
  H  H81  1  0.142756  0.774473  0.914180  1
  H  H82  1  0.857244  0.225527  0.414180  1
  H  H83  1  0.774473  0.142756  0.085820  1
