# generated using pymatgen
data_Na2TbO3
_symmetry_space_group_name_H-M   'P 1'
_cell_length_a   5.98966587
_cell_length_b   5.98966587
_cell_length_c   11.34652230
_cell_angle_alpha   84.88122410
_cell_angle_beta   95.11877590
_cell_angle_gamma   59.88052025
_symmetry_Int_Tables_number   1
_chemical_formula_structural   Na2TbO3
_chemical_formula_sum   'Na8 Tb4 O12'
_cell_volume   346.43507699
_cell_formula_units_Z   4
loop_
 _symmetry_equiv_pos_site_id
 _symmetry_equiv_pos_as_xyz
  1  'x, y, z'
loop_
 _atom_site_type_symbol
 _atom_site_label
 _atom_site_symmetry_multiplicity
 _atom_site_fract_x
 _atom_site_fract_y
 _atom_site_fract_z
 _atom_site_occupancy
  Na  Na0  1  0.085873  0.085873  0.750000  1
  Na  Na1  1  0.159172  0.681778  0.999837  1
  Na  Na2  1  0.318222  0.840828  0.499837  1
  Na  Na3  1  0.840828  0.318222  0.000163  1
  Na  Na4  1  0.500000  0.000000  0.000000  1
  Na  Na5  1  0.000000  0.500000  0.500000  1
  Na  Na6  1  0.914127  0.914127  0.250000  1
  Na  Na7  1  0.681778  0.159172  0.500163  1
  Tb  Tb8  1  0.752472  0.752472  0.750000  1
  Tb  Tb9  1  0.247528  0.247528  0.250000  1
  Tb  Tb10  1  0.418411  0.418411  0.750000  1
  Tb  Tb11  1  0.581589  0.581589  0.250000  1
  O  O12  1  0.046401  0.760419  0.636322  1
  O  O13  1  0.760419  0.046401  0.863678  1
  O  O14  1  0.953599  0.239581  0.363678  1
  O  O15  1  0.239581  0.953599  0.136322  1
  O  O16  1  0.410233  0.122909  0.638691  1
  O  O17  1  0.122909  0.410233  0.861309  1
  O  O18  1  0.589767  0.877091  0.361309  1
  O  O19  1  0.877091  0.589767  0.138691  1
  O  O20  1  0.684412  0.485273  0.639128  1
  O  O21  1  0.514727  0.315588  0.139128  1
  O  O22  1  0.315588  0.514727  0.360872  1
  O  O23  1  0.485273  0.684412  0.860872  1
