# generated using pymatgen
data_Co7(AsO6)2
_symmetry_space_group_name_H-M   'P 1'
_cell_length_a   10.52989238
_cell_length_b   10.52989238
_cell_length_c   10.52989238
_cell_angle_alpha   147.34140247
_cell_angle_beta   132.01205837
_cell_angle_gamma   59.25700990
_symmetry_Int_Tables_number   1
_chemical_formula_structural   Co7(AsO6)2
_chemical_formula_sum   'Co14 As4 O24'
_cell_volume   464.12643988
_cell_formula_units_Z   2
loop_
 _symmetry_equiv_pos_site_id
 _symmetry_equiv_pos_as_xyz
  1  'x, y, z'
loop_
 _atom_site_type_symbol
 _atom_site_label
 _atom_site_symmetry_multiplicity
 _atom_site_fract_x
 _atom_site_fract_y
 _atom_site_fract_z
 _atom_site_occupancy
  Co  Co0  1  0.556687  0.928231  0.128456  1
  Co  Co1  1  0.161865  0.161865  0.000000  1
  Co  Co2  1  0.161865  0.661865  0.500000  1
  Co  Co3  1  0.355089  0.336128  0.518960  1
  Co  Co4  1  0.838135  0.338135  0.500000  1
  Co  Co5  1  0.644911  0.663872  0.481040  1
  Co  Co6  1  0.443313  0.071769  0.871544  1
  Co  Co7  1  0.182832  0.163872  0.518960  1
  Co  Co8  1  0.000000  0.500000  0.500000  1
  Co  Co9  1  0.838135  0.838135  0.000000  1
  Co  Co10  1  0.817168  0.836128  0.481040  1
  Co  Co11  1  0.200225  0.571769  0.128456  1
  Co  Co12  1  0.799775  0.428231  0.871544  1
  Co  Co13  1  0.000000  0.000000  0.000000  1
  As  As14  1  0.626882  0.250000  0.876882  1
  As  As15  1  0.373118  0.750000  0.123118  1
  As  As16  1  0.500000  0.500000  0.500000  1
  As  As17  1  0.000000  0.000000  0.500000  1
  O  O18  1  0.429229  0.645707  0.723081  1
  O  O19  1  0.258053  0.507834  0.765886  1
  O  O20  1  0.258053  0.992166  0.250219  1
  O  O21  1  0.789461  0.009200  0.280261  1
  O  O22  1  0.922626  0.706148  0.276919  1
  O  O23  1  0.271061  0.490800  0.280261  1
  O  O24  1  0.741947  0.492166  0.234114  1
  O  O25  1  0.922626  0.145707  0.716478  1
  O  O26  1  0.429229  0.206148  0.283522  1
  O  O27  1  0.890873  0.669130  0.721743  1
  O  O28  1  0.947388  0.169130  0.278257  1
  O  O29  1  0.077374  0.293852  0.723081  1
  O  O30  1  0.570771  0.354293  0.276919  1
  O  O31  1  0.210539  0.990800  0.719739  1
  O  O32  1  0.592871  0.328815  0.764056  1
  O  O33  1  0.564759  0.828815  0.235944  1
  O  O34  1  0.741947  0.007834  0.749781  1
  O  O35  1  0.407129  0.671185  0.235944  1
  O  O36  1  0.435241  0.171185  0.764056  1
  O  O37  1  0.570771  0.793852  0.716478  1
  O  O38  1  0.109127  0.330870  0.278257  1
  O  O39  1  0.728939  0.509200  0.719739  1
  O  O40  1  0.077374  0.854293  0.283522  1
  O  O41  1  0.052612  0.830870  0.721743  1
