# generated using pymatgen
data_Th4H15
_symmetry_space_group_name_H-M   'P 1'
_cell_length_a   7.90283487
_cell_length_b   7.90283487
_cell_length_c   7.90283487
_cell_angle_alpha   109.47122063
_cell_angle_beta   109.47122063
_cell_angle_gamma   109.47122063
_symmetry_Int_Tables_number   1
_chemical_formula_structural   Th4H15
_chemical_formula_sum   'Th8 H30'
_cell_volume   379.95033479
_cell_formula_units_Z   2
loop_
 _symmetry_equiv_pos_site_id
 _symmetry_equiv_pos_as_xyz
  1  'x, y, z'
loop_
 _atom_site_type_symbol
 _atom_site_label
 _atom_site_symmetry_multiplicity
 _atom_site_fract_x
 _atom_site_fract_y
 _atom_site_fract_z
 _atom_site_occupancy
  Th  Th0  1  0.915836  0.915836  0.915836  1
  Th  Th1  1  0.084164  0.500000  0.000000  1
  Th  Th2  1  0.500000  1.000000  0.084164  1
  Th  Th3  1  1.000000  0.084164  0.500000  1
  Th  Th4  1  0.500000  1.000000  0.584164  1
  Th  Th5  1  1.000000  0.584164  0.500000  1
  Th  Th6  1  0.584164  0.500000  1.000000  1
  Th  Th7  1  0.415836  0.415836  0.415836  1
  H  H8  1  0.373641  0.653037  0.969677  1
  H  H9  1  0.846963  0.220604  0.316640  1
  H  H10  1  0.530323  0.183360  0.403964  1
  H  H11  1  0.126359  0.096036  0.279396  1
  H  H12  1  0.096036  0.279396  0.126359  1
  H  H13  1  0.279396  0.126359  0.096036  1
  H  H14  1  0.873641  0.469677  0.153037  1
  H  H15  1  0.816640  0.720604  0.346963  1
  H  H16  1  0.250000  0.625000  0.375000  1
  H  H17  1  0.375000  0.250000  0.625000  1
  H  H18  1  0.125000  0.750000  0.875000  1
  H  H19  1  0.875000  0.125000  0.750000  1
  H  H20  1  0.625000  0.375000  0.250000  1
  H  H21  1  0.750000  0.875000  0.125000  1
  H  H22  1  0.626359  0.779396  0.596036  1
  H  H23  1  0.220604  0.316640  0.846963  1
  H  H24  1  0.969677  0.373641  0.653037  1
  H  H25  1  0.653037  0.969677  0.373641  1
  H  H26  1  0.403964  0.530323  0.183360  1
  H  H27  1  0.183360  0.403964  0.530323  1
  H  H28  1  0.316640  0.846963  0.220604  1
  H  H29  1  0.030323  0.903964  0.683360  1
  H  H30  1  0.346963  0.816640  0.720604  1
  H  H31  1  0.469677  0.153037  0.873641  1
  H  H32  1  0.903964  0.683360  0.030323  1
  H  H33  1  0.720604  0.346963  0.816640  1
  H  H34  1  0.153037  0.873641  0.469677  1
  H  H35  1  0.596036  0.626359  0.779396  1
  H  H36  1  0.779396  0.596036  0.626359  1
  H  H37  1  0.683360  0.030323  0.903964  1
