# generated using pymatgen
data_CuPtF6
_symmetry_space_group_name_H-M   'P 1'
_cell_length_a   5.02854647
_cell_length_b   5.04458692
_cell_length_c   9.72806977
_cell_angle_alpha   76.10322523
_cell_angle_beta   76.04876630
_cell_angle_gamma   60.85113665
_symmetry_Int_Tables_number   1
_chemical_formula_structural   CuPtF6
_chemical_formula_sum   'Cu2 Pt2 F12'
_cell_volume   206.95729874
_cell_formula_units_Z   2
loop_
 _symmetry_equiv_pos_site_id
 _symmetry_equiv_pos_as_xyz
  1  'x, y, z'
loop_
 _atom_site_type_symbol
 _atom_site_label
 _atom_site_symmetry_multiplicity
 _atom_site_fract_x
 _atom_site_fract_y
 _atom_site_fract_z
 _atom_site_occupancy
  Cu  Cu0  1  0.000000  0.000000  0.000000  1
  Cu  Cu1  1  0.500000  0.500000  0.500000  1
  Pt  Pt2  1  0.726986  0.781543  0.749901  1
  Pt  Pt3  1  0.273014  0.218457  0.250099  1
  F  F4  1  0.908767  0.200906  0.371307  1
  F  F5  1  0.091233  0.799094  0.628693  1
  F  F6  1  0.541538  0.850783  0.374320  1
  F  F7  1  0.458462  0.149217  0.625680  1
  F  F8  1  0.358639  0.750835  0.873450  1
  F  F9  1  0.641361  0.249165  0.126550  1
  F  F10  1  0.711744  0.045386  0.875383  1
  F  F11  1  0.288256  0.954614  0.124617  1
  F  F12  1  0.989021  0.419428  0.870878  1
  F  F13  1  0.010979  0.580572  0.129122  1
  F  F14  1  0.752523  0.507031  0.625985  1
  F  F15  1  0.247477  0.492969  0.374015  1
