# generated using pymatgen
data_Th2Ta2O9
_symmetry_space_group_name_H-M   'P 1'
_cell_length_a   9.78327582
_cell_length_b   9.78327582
_cell_length_c   7.47353118
_cell_angle_alpha   90.00000000
_cell_angle_beta   90.00000000
_cell_angle_gamma   106.66450955
_symmetry_Int_Tables_number   1
_chemical_formula_structural   Th2Ta2O9
_chemical_formula_sum   'Th8 Ta8 O36'
_cell_volume   685.26743740
_cell_formula_units_Z   4
loop_
 _symmetry_equiv_pos_site_id
 _symmetry_equiv_pos_as_xyz
  1  'x, y, z'
loop_
 _atom_site_type_symbol
 _atom_site_label
 _atom_site_symmetry_multiplicity
 _atom_site_fract_x
 _atom_site_fract_y
 _atom_site_fract_z
 _atom_site_occupancy
  Th  Th0  1  0.793326  0.206674  0.750000  1
  Th  Th1  1  0.206674  0.793326  0.250000  1
  Th  Th2  1  0.238578  0.761422  0.750000  1
  Th  Th3  1  0.761422  0.238578  0.250000  1
  Th  Th4  1  0.134453  0.389883  0.487382  1
  Th  Th5  1  0.865548  0.610117  0.987382  1
  Th  Th6  1  0.389883  0.134453  0.512618  1
  Th  Th7  1  0.610117  0.865548  0.012618  1
  Ta  Ta8  1  0.991305  0.991305  0.500000  1
  Ta  Ta9  1  0.008695  0.008695  0.000000  1
  Ta  Ta10  1  0.494603  0.505397  0.750000  1
  Ta  Ta11  1  0.505397  0.494603  0.250000  1
  Ta  Ta12  1  0.600345  0.854582  0.501433  1
  Ta  Ta13  1  0.399655  0.145418  0.001433  1
  Ta  Ta14  1  0.854582  0.600345  0.498567  1
  Ta  Ta15  1  0.145418  0.399655  0.998567  1
  O  O16  1  0.176188  0.176188  0.500000  1
  O  O17  1  0.823812  0.823812  0.000000  1
  O  O18  1  0.817797  0.817797  0.500000  1
  O  O19  1  0.182203  0.182203  0.000000  1
  O  O20  1  0.431072  0.431072  0.500000  1
  O  O21  1  0.568928  0.568928  0.000000  1
  O  O22  1  0.973060  0.026940  0.750000  1
  O  O23  1  0.026940  0.973060  0.250000  1
  O  O24  1  0.292409  0.490871  0.801431  1
  O  O25  1  0.707591  0.509129  0.301431  1
  O  O26  1  0.490871  0.292409  0.198569  1
  O  O27  1  0.509129  0.707591  0.698569  1
  O  O28  1  0.371133  0.791767  0.020133  1
  O  O29  1  0.628867  0.208233  0.520133  1
  O  O30  1  0.791767  0.371133  0.979867  1
  O  O31  1  0.208233  0.628867  0.479867  1
  O  O32  1  0.101153  0.852527  0.968937  1
  O  O33  1  0.898847  0.147473  0.468937  1
  O  O34  1  0.852527  0.101153  0.031063  1
  O  O35  1  0.147473  0.898847  0.531063  1
  O  O36  1  0.669677  0.966492  0.717036  1
  O  O37  1  0.330323  0.033508  0.217036  1
  O  O38  1  0.966492  0.669677  0.282964  1
  O  O39  1  0.033508  0.330323  0.782964  1
  O  O40  1  0.657497  0.978054  0.296518  1
  O  O41  1  0.342503  0.021946  0.796518  1
  O  O42  1  0.978054  0.657497  0.703482  1
  O  O43  1  0.021946  0.342503  0.203482  1
  O  O44  1  0.583135  0.107032  0.999798  1
  O  O45  1  0.416865  0.892968  0.499798  1
  O  O46  1  0.107032  0.583135  0.000202  1
  O  O47  1  0.892968  0.416865  0.500202  1
  O  O48  1  0.543546  0.697127  0.320996  1
  O  O49  1  0.456454  0.302873  0.820996  1
  O  O50  1  0.697127  0.543546  0.679004  1
  O  O51  1  0.302873  0.456454  0.179004  1
