# generated using pymatgen
data_Rb2Cd3Te4
_symmetry_space_group_name_H-M   'P 1'
_cell_length_a   10.79493022
_cell_length_b   10.79493022
_cell_length_c   13.22769829
_cell_angle_alpha   72.47418167
_cell_angle_beta   107.52581833
_cell_angle_gamma   86.83303479
_symmetry_Int_Tables_number   1
_chemical_formula_structural   Rb2Cd3Te4
_chemical_formula_sum   'Rb8 Cd12 Te16'
_cell_volume   1383.48265301
_cell_formula_units_Z   4
loop_
 _symmetry_equiv_pos_site_id
 _symmetry_equiv_pos_as_xyz
  1  'x, y, z'
loop_
 _atom_site_type_symbol
 _atom_site_label
 _atom_site_symmetry_multiplicity
 _atom_site_fract_x
 _atom_site_fract_y
 _atom_site_fract_z
 _atom_site_occupancy
  Rb  Rb0  1  1.000000  1.000000  0.500000  1
  Rb  Rb1  1  0.751695  0.244655  0.137052  1
  Rb  Rb2  1  0.755345  0.248305  0.637052  1
  Rb  Rb3  1  0.248305  0.755345  0.862948  1
  Rb  Rb4  1  0.497837  0.497837  0.250000  1
  Rb  Rb5  1  0.502163  0.502163  0.750000  1
  Rb  Rb6  1  0.000000  0.000000  0.000000  1
  Rb  Rb7  1  0.244655  0.751695  0.362948  1
  Cd  Cd8  1  0.407899  0.111614  0.698737  1
  Cd  Cd9  1  0.124628  0.351408  0.089554  1
  Cd  Cd10  1  0.875372  0.648592  0.910446  1
  Cd  Cd11  1  0.648592  0.875372  0.589554  1
  Cd  Cd12  1  0.111614  0.407899  0.801263  1
  Cd  Cd13  1  0.592101  0.888386  0.301263  1
  Cd  Cd14  1  0.888386  0.592101  0.198737  1
  Cd  Cd15  1  0.378585  0.141047  0.956492  1
  Cd  Cd16  1  0.141047  0.378585  0.543508  1
  Cd  Cd17  1  0.621415  0.858953  0.043508  1
  Cd  Cd18  1  0.858953  0.621415  0.456492  1
  Cd  Cd19  1  0.351408  0.124628  0.410446  1
  Te  Te20  1  0.342111  0.380066  0.997854  1
  Te  Te21  1  0.380066  0.342111  0.502146  1
  Te  Te22  1  0.657889  0.619934  0.002146  1
  Te  Te23  1  0.619934  0.657889  0.497854  1
  Te  Te24  1  0.842838  0.842838  0.250000  1
  Te  Te25  1  0.157162  0.157162  0.750000  1
  Te  Te26  1  0.117046  0.117046  0.250000  1
  Te  Te27  1  0.882954  0.882954  0.750000  1
  Te  Te28  1  0.393479  0.894128  0.620723  1
  Te  Te29  1  0.606521  0.105872  0.379277  1
  Te  Te30  1  0.105872  0.606521  0.120723  1
  Te  Te31  1  0.614699  0.115214  0.892500  1
  Te  Te32  1  0.115214  0.614699  0.607500  1
  Te  Te33  1  0.385301  0.884786  0.107500  1
  Te  Te34  1  0.884786  0.385301  0.392500  1
  Te  Te35  1  0.894128  0.393479  0.879277  1
