# generated using pymatgen
data_Ti9O17
_symmetry_space_group_name_H-M   'P 1'
_cell_length_a   5.57685601
_cell_length_b   7.19835584
_cell_length_c   14.90099799
_cell_angle_alpha   96.82910296
_cell_angle_beta   90.62032359
_cell_angle_gamma   108.62794197
_symmetry_Int_Tables_number   1
_chemical_formula_structural   Ti9O17
_chemical_formula_sum   'Ti18 O34'
_cell_volume   562.07163382
_cell_formula_units_Z   2
loop_
 _symmetry_equiv_pos_site_id
 _symmetry_equiv_pos_as_xyz
  1  'x, y, z'
loop_
 _atom_site_type_symbol
 _atom_site_label
 _atom_site_symmetry_multiplicity
 _atom_site_fract_x
 _atom_site_fract_y
 _atom_site_fract_z
 _atom_site_occupancy
  Ti  Ti0  1  0.000000  0.500000  0.000000  1
  Ti  Ti1  1  0.000000  0.000000  0.000000  1
  Ti  Ti2  1  0.303120  0.810476  0.540367  1
  Ti  Ti3  1  0.696880  0.189524  0.459633  1
  Ti  Ti4  1  0.303050  0.312641  0.542731  1
  Ti  Ti5  1  0.696950  0.687359  0.457269  1
  Ti  Ti6  1  0.749773  0.599787  0.659362  1
  Ti  Ti7  1  0.250227  0.400213  0.340638  1
  Ti  Ti8  1  0.749492  0.095951  0.659913  1
  Ti  Ti9  1  0.250508  0.904049  0.340087  1
  Ti  Ti10  1  0.172719  0.407821  0.774122  1
  Ti  Ti11  1  0.827281  0.592179  0.225878  1
  Ti  Ti12  1  0.168890  0.907070  0.773325  1
  Ti  Ti13  1  0.831110  0.092930  0.226675  1
  Ti  Ti14  1  0.584607  0.205113  0.886954  1
  Ti  Ti15  1  0.415393  0.794887  0.113046  1
  Ti  Ti16  1  0.591280  0.707276  0.886825  1
  Ti  Ti17  1  0.408720  0.292724  0.113175  1
  O  O18  1  0.703353  0.959236  0.520816  1
  O  O19  1  0.296647  0.040764  0.479184  1
  O  O20  1  0.956793  0.678696  0.542463  1
  O  O21  1  0.043207  0.321304  0.457537  1
  O  O22  1  0.457581  0.604622  0.570594  1
  O  O23  1  0.542419  0.395378  0.429406  1
  O  O24  1  0.647587  0.314604  0.595210  1
  O  O25  1  0.352413  0.685396  0.404790  1
  O  O26  1  0.105618  0.261095  0.640482  1
  O  O27  1  0.894382  0.738905  0.359518  1
  O  O28  1  0.386731  0.948675  0.657913  1
  O  O29  1  0.613269  0.051325  0.342087  1
  O  O30  1  0.859938  0.886735  0.691327  1
  O  O31  1  0.140062  0.113265  0.308673  1
  O  O32  1  0.520908  0.559245  0.755134  1
  O  O33  1  0.479092  0.440755  0.244866  1
  O  O34  1  0.045013  0.614347  0.727506  1
  O  O35  1  0.954987  0.385653  0.272494  1
  O  O36  1  0.641259  0.832638  0.009998  1
  O  O37  1  0.358741  0.167362  0.990002  1
  O  O38  1  0.125718  0.787402  0.037328  1
  O  O39  1  0.874282  0.212598  0.962672  1
  O  O40  1  0.291391  0.511199  0.079731  1
  O  O41  1  0.708609  0.488801  0.920269  1
  O  O42  1  0.773840  0.465676  0.106587  1
  O  O43  1  0.226160  0.534324  0.893413  1
  O  O44  1  0.059888  0.133805  0.127177  1
  O  O45  1  0.940112  0.866195  0.872823  1
  O  O46  1  0.542104  0.086913  0.154975  1
  O  O47  1  0.457896  0.913087  0.845025  1
  O  O48  1  0.713933  0.811664  0.194646  1
  O  O49  1  0.286067  0.188336  0.805354  1
  O  O50  1  0.193232  0.761151  0.224395  1
  O  O51  1  0.806768  0.238849  0.775605  1
