# generated using pymatgen
data_Hg4P2O7
_symmetry_space_group_name_H-M   'P 1'
_cell_length_a   9.48692968
_cell_length_b   5.03841902
_cell_length_c   12.43370374
_cell_angle_alpha   90.00000000
_cell_angle_beta   129.77208247
_cell_angle_gamma   90.00000000
_symmetry_Int_Tables_number   1
_chemical_formula_structural   Hg4P2O7
_chemical_formula_sum   'Hg8 P4 O14'
_cell_volume   456.79171642
_cell_formula_units_Z   2
loop_
 _symmetry_equiv_pos_site_id
 _symmetry_equiv_pos_as_xyz
  1  'x, y, z'
loop_
 _atom_site_type_symbol
 _atom_site_label
 _atom_site_symmetry_multiplicity
 _atom_site_fract_x
 _atom_site_fract_y
 _atom_site_fract_z
 _atom_site_occupancy
  Hg  Hg0  1  0.056286  0.439930  0.877109  1
  Hg  Hg1  1  0.943714  0.439930  0.622891  1
  Hg  Hg2  1  0.943714  0.560070  0.122891  1
  Hg  Hg3  1  0.056286  0.560070  0.377109  1
  Hg  Hg4  1  0.575368  0.676229  0.597939  1
  Hg  Hg5  1  0.424632  0.676229  0.902061  1
  Hg  Hg6  1  0.424632  0.323771  0.402061  1
  Hg  Hg7  1  0.575368  0.323771  0.097939  1
  P  P8  1  0.294865  0.097878  0.644055  1
  P  P9  1  0.705135  0.097878  0.855945  1
  P  P10  1  0.705135  0.902122  0.355945  1
  P  P11  1  0.294865  0.902122  0.144055  1
  O  O12  1  0.833727  0.341179  0.921681  1
  O  O13  1  0.166273  0.341179  0.578319  1
  O  O14  1  0.166273  0.658821  0.078319  1
  O  O15  1  0.833727  0.658821  0.421681  1
  O  O16  1  0.500000  0.232346  0.750000  1
  O  O17  1  0.500000  0.767654  0.250000  1
  O  O18  1  0.290312  0.924613  0.541458  1
  O  O19  1  0.709688  0.924613  0.958542  1
  O  O20  1  0.709688  0.075387  0.458542  1
  O  O21  1  0.290312  0.075387  0.041458  1
  O  O22  1  0.258416  0.955112  0.733937  1
  O  O23  1  0.741584  0.955112  0.766063  1
  O  O24  1  0.258416  0.044888  0.233937  1
  O  O25  1  0.741584  0.044888  0.266063  1
