# generated using pymatgen
data_Co3W
_symmetry_space_group_name_H-M   'P 1'
_cell_length_a   5.11345512
_cell_length_b   5.11345512
_cell_length_c   4.09275054
_cell_angle_alpha   90.00000000
_cell_angle_beta   90.00000000
_cell_angle_gamma   120.00000000
_symmetry_Int_Tables_number   1
_chemical_formula_structural   Co3W
_chemical_formula_sum   'Co6 W2'
_cell_volume   92.67760540
_cell_formula_units_Z   2
loop_
 _symmetry_equiv_pos_site_id
 _symmetry_equiv_pos_as_xyz
  1  'x, y, z'
loop_
 _atom_site_type_symbol
 _atom_site_label
 _atom_site_symmetry_multiplicity
 _atom_site_fract_x
 _atom_site_fract_y
 _atom_site_fract_z
 _atom_site_occupancy
  Co  Co0  1  0.161701  0.323403  0.750000  1
  Co  Co1  1  0.161701  0.838299  0.750000  1
  Co  Co2  1  0.676597  0.838299  0.750000  1
  Co  Co3  1  0.838299  0.676597  0.250000  1
  Co  Co4  1  0.838299  0.161701  0.250000  1
  Co  Co5  1  0.323403  0.161701  0.250000  1
  W  W6  1  0.666667  0.333333  0.750000  1
  W  W7  1  0.333333  0.666667  0.250000  1
