# generated using pymatgen
data_DyInAu
_symmetry_space_group_name_H-M   'P 1'
_cell_length_a   7.73193552
_cell_length_b   7.73193552
_cell_length_c   4.04812802
_cell_angle_alpha   90.00000000
_cell_angle_beta   90.00000000
_cell_angle_gamma   120.00000000
_symmetry_Int_Tables_number   1
_chemical_formula_structural   DyInAu
_chemical_formula_sum   'Dy3 In3 Au3'
_cell_volume   209.58554064
_cell_formula_units_Z   3
loop_
 _symmetry_equiv_pos_site_id
 _symmetry_equiv_pos_as_xyz
  1  'x, y, z'
loop_
 _atom_site_type_symbol
 _atom_site_label
 _atom_site_symmetry_multiplicity
 _atom_site_fract_x
 _atom_site_fract_y
 _atom_site_fract_z
 _atom_site_occupancy
  Dy  Dy0  1  0.593575  0.000000  0.500000  1
  Dy  Dy1  1  0.406425  0.406425  0.500000  1
  Dy  Dy2  1  0.000000  0.593575  0.500000  1
  In  In3  1  0.740881  0.740881  0.000000  1
  In  In4  1  0.000000  0.259119  0.000000  1
  In  In5  1  0.259119  0.000000  0.000000  1
  Au  Au6  1  0.333333  0.666667  0.000000  1
  Au  Au7  1  0.666667  0.333333  0.000000  1
  Au  Au8  1  0.000000  0.000000  0.500000  1
