# generated using pymatgen
data_Ba2Nd2Co4O11
_symmetry_space_group_name_H-M   'P 1'
_cell_length_a   3.84192264
_cell_length_b   7.91898981
_cell_length_c   7.95966862
_cell_angle_alpha   90.00000000
_cell_angle_beta   90.00000000
_cell_angle_gamma   90.00000000
_symmetry_Int_Tables_number   1
_chemical_formula_structural   Ba2Nd2Co4O11
_chemical_formula_sum   'Ba2 Nd2 Co4 O11'
_cell_volume   242.16612209
_cell_formula_units_Z   1
loop_
 _symmetry_equiv_pos_site_id
 _symmetry_equiv_pos_as_xyz
  1  'x, y, z'
loop_
 _atom_site_type_symbol
 _atom_site_label
 _atom_site_symmetry_multiplicity
 _atom_site_fract_x
 _atom_site_fract_y
 _atom_site_fract_z
 _atom_site_occupancy
  Ba  Ba0  1  0.500000  0.000000  0.242777  1
  Ba  Ba1  1  0.500000  0.000000  0.757223  1
  Nd  Nd2  1  0.500000  0.500000  0.267228  1
  Nd  Nd3  1  0.500000  0.500000  0.732772  1
  Co  Co4  1  0.000000  0.750559  0.500000  1
  Co  Co5  1  0.000000  0.249441  0.500000  1
  Co  Co6  1  0.000000  0.740761  0.000000  1
  Co  Co7  1  0.000000  0.259239  0.000000  1
  O  O8  1  0.000000  0.000000  0.000000  1
  O  O9  1  0.000000  0.000000  0.500000  1
  O  O10  1  0.000000  0.500000  0.500000  1
  O  O11  1  0.500000  0.683397  0.000000  1
  O  O12  1  0.500000  0.316603  0.000000  1
  O  O13  1  0.500000  0.732302  0.500000  1
  O  O14  1  0.500000  0.267698  0.500000  1
  O  O15  1  0.000000  0.708915  0.237109  1
  O  O16  1  0.000000  0.708915  0.762891  1
  O  O17  1  0.000000  0.291085  0.762891  1
  O  O18  1  0.000000  0.291085  0.237109  1
