# generated using pymatgen
data_Er(IO3)3
_symmetry_space_group_name_H-M   'P 1'
_cell_length_a   8.76959295
_cell_length_b   6.15793796
_cell_length_c   16.70920584
_cell_angle_alpha   90.00000000
_cell_angle_beta   114.77019478
_cell_angle_gamma   90.00000000
_symmetry_Int_Tables_number   1
_chemical_formula_structural   Er(IO3)3
_chemical_formula_sum   'Er4 I12 O36'
_cell_volume   819.32135750
_cell_formula_units_Z   4
loop_
 _symmetry_equiv_pos_site_id
 _symmetry_equiv_pos_as_xyz
  1  'x, y, z'
loop_
 _atom_site_type_symbol
 _atom_site_label
 _atom_site_symmetry_multiplicity
 _atom_site_fract_x
 _atom_site_fract_y
 _atom_site_fract_z
 _atom_site_occupancy
  Er  Er0  1  0.648693  0.788691  0.606213  1
  Er  Er1  1  0.351307  0.288691  0.893787  1
  Er  Er2  1  0.351307  0.211309  0.393787  1
  Er  Er3  1  0.648693  0.711309  0.106213  1
  I  I4  1  0.425833  0.311244  0.639531  1
  I  I5  1  0.574167  0.811244  0.860469  1
  I  I6  1  0.574167  0.688756  0.360469  1
  I  I7  1  0.425833  0.188756  0.139531  1
  I  I8  1  0.917836  0.095507  0.802043  1
  I  I9  1  0.082164  0.595507  0.697957  1
  I  I10  1  0.082164  0.904493  0.197957  1
  I  I11  1  0.917836  0.404493  0.302043  1
  I  I12  1  0.853239  0.145589  0.519325  1
  I  I13  1  0.146761  0.645589  0.980675  1
  I  I14  1  0.146761  0.854411  0.480675  1
  I  I15  1  0.853239  0.354411  0.019325  1
  O  O16  1  0.595296  0.105331  0.669106  1
  O  O17  1  0.404704  0.605331  0.830894  1
  O  O18  1  0.404704  0.894669  0.330894  1
  O  O19  1  0.595296  0.394669  0.169106  1
  O  O20  1  0.379909  0.363996  0.524652  1
  O  O21  1  0.620091  0.863996  0.975348  1
  O  O22  1  0.620091  0.636004  0.475348  1
  O  O23  1  0.379909  0.136004  0.024652  1
  O  O24  1  0.558552  0.553214  0.683045  1
  O  O25  1  0.441448  0.053214  0.816955  1
  O  O26  1  0.441448  0.446786  0.316955  1
  O  O27  1  0.558552  0.946786  0.183045  1
  O  O28  1  0.138483  0.014090  0.864346  1
  O  O29  1  0.861517  0.514090  0.635654  1
  O  O30  1  0.861517  0.985910  0.135654  1
  O  O31  1  0.138483  0.485910  0.364346  1
  O  O32  1  0.887154  0.526695  0.115784  1
  O  O33  1  0.112846  0.026695  0.384216  1
  O  O34  1  0.112846  0.473305  0.884216  1
  O  O35  1  0.887154  0.973305  0.615784  1
  O  O36  1  0.376761  0.630850  0.016549  1
  O  O37  1  0.623239  0.130850  0.483451  1
  O  O38  1  0.623239  0.369150  0.983451  1
  O  O39  1  0.376761  0.869150  0.516549  1
  O  O40  1  0.852593  0.568116  0.940148  1
  O  O41  1  0.147407  0.068116  0.559852  1
  O  O42  1  0.147407  0.431884  0.059852  1
  O  O43  1  0.852593  0.931884  0.440148  1
  O  O44  1  0.843344  0.675124  0.255592  1
  O  O45  1  0.156656  0.175124  0.244408  1
  O  O46  1  0.156656  0.324876  0.744408  1
  O  O47  1  0.843344  0.824876  0.755592  1
  O  O48  1  0.841961  0.417237  0.389132  1
  O  O49  1  0.158039  0.917237  0.110868  1
  O  O50  1  0.158039  0.582763  0.610868  1
  O  O51  1  0.841961  0.082763  0.889132  1
