# generated using pymatgen
data_Ba(NiP2)2
_symmetry_space_group_name_H-M   'P 1'
_cell_length_a   5.47599118
_cell_length_b   5.47599118
_cell_length_c   5.47599118
_cell_angle_alpha   106.17625850
_cell_angle_beta   106.17625850
_cell_angle_gamma   116.28354227
_symmetry_Int_Tables_number   1
_chemical_formula_structural   Ba(NiP2)2
_chemical_formula_sum   'Ba1 Ni2 P4'
_cell_volume   125.05000008
_cell_formula_units_Z   1
loop_
 _symmetry_equiv_pos_site_id
 _symmetry_equiv_pos_as_xyz
  1  'x, y, z'
loop_
 _atom_site_type_symbol
 _atom_site_label
 _atom_site_symmetry_multiplicity
 _atom_site_fract_x
 _atom_site_fract_y
 _atom_site_fract_z
 _atom_site_occupancy
  Ba  Ba0  1  0.000000  0.000000  0.000000  1
  Ni  Ni1  1  0.750000  0.250000  0.500000  1
  Ni  Ni2  1  0.250000  0.750000  0.500000  1
  P  P3  1  0.741942  0.500000  0.241942  1
  P  P4  1  0.500000  0.741942  0.241942  1
  P  P5  1  0.500000  0.258058  0.758058  1
  P  P6  1  0.258058  0.500000  0.758058  1
