# generated using pymatgen
data_Bi(PO3)4
_symmetry_space_group_name_H-M   'P 1'
_cell_length_a   7.84562560
_cell_length_b   7.84562560
_cell_length_c   17.59611786
_cell_angle_alpha   90.00000000
_cell_angle_beta   90.00000000
_cell_angle_gamma   96.34514823
_symmetry_Int_Tables_number   1
_chemical_formula_structural   Bi(PO3)4
_chemical_formula_sum   'Bi4 P16 O48'
_cell_volume   1076.47371019
_cell_formula_units_Z   4
loop_
 _symmetry_equiv_pos_site_id
 _symmetry_equiv_pos_as_xyz
  1  'x, y, z'
loop_
 _atom_site_type_symbol
 _atom_site_label
 _atom_site_symmetry_multiplicity
 _atom_site_fract_x
 _atom_site_fract_y
 _atom_site_fract_z
 _atom_site_occupancy
  Bi  Bi0  1  0.608116  0.962114  0.853830  1
  Bi  Bi1  1  0.962114  0.608116  0.146170  1
  Bi  Bi2  1  0.037886  0.391884  0.646170  1
  Bi  Bi3  1  0.391884  0.037886  0.353830  1
  P  P4  1  0.217465  0.689160  0.486784  1
  P  P5  1  0.035041  0.739116  0.342887  1
  P  P6  1  0.310840  0.782535  0.013216  1
  P  P7  1  0.677484  0.709310  0.303614  1
  P  P8  1  0.739116  0.035041  0.657113  1
  P  P9  1  0.689160  0.217465  0.513216  1
  P  P10  1  0.964959  0.260884  0.842887  1
  P  P11  1  0.782535  0.310840  0.986784  1
  P  P12  1  0.322516  0.290690  0.803614  1
  P  P13  1  0.643154  0.356846  0.250000  1
  P  P14  1  0.260884  0.964959  0.157113  1
  P  P15  1  0.353615  0.353615  0.500000  1
  P  P16  1  0.646385  0.646385  0.000000  1
  P  P17  1  0.709310  0.677484  0.696386  1
  P  P18  1  0.356846  0.643154  0.750000  1
  P  P19  1  0.290690  0.322516  0.196386  1
  O  O20  1  0.107954  0.926341  0.346241  1
  O  O21  1  0.365123  0.937407  0.226597  1
  O  O22  1  0.073659  0.892046  0.153759  1
  O  O23  1  0.346993  0.890024  0.943153  1
  O  O24  1  0.892046  0.073659  0.846241  1
  O  O25  1  0.634877  0.062593  0.726597  1
  O  O26  1  0.926341  0.107954  0.653759  1
  O  O27  1  0.653007  0.109976  0.443153  1
  O  O28  1  0.634996  0.101194  0.586944  1
  O  O29  1  0.687886  0.134574  0.975568  1
  O  O30  1  0.618594  0.186130  0.290091  1
  O  O31  1  0.264282  0.164734  0.136435  1
  O  O32  1  0.466628  0.210234  0.840732  1
  O  O33  1  0.261445  0.251559  0.724263  1
  O  O34  1  0.865426  0.312114  0.524432  1
  O  O35  1  0.302703  0.248956  0.430296  1
  O  O36  1  0.251559  0.261445  0.275737  1
  O  O37  1  0.312114  0.865426  0.475568  1
  O  O38  1  0.164734  0.264282  0.863565  1
  O  O39  1  0.937407  0.365123  0.773403  1
  O  O40  1  0.898806  0.365004  0.913056  1
  O  O41  1  0.248956  0.302703  0.569704  1
  O  O42  1  0.553089  0.356738  0.519338  1
  O  O43  1  0.813870  0.381406  0.209909  1
  O  O44  1  0.497234  0.378243  0.187988  1
  O  O45  1  0.643262  0.446911  0.980662  1
  O  O46  1  0.621757  0.502766  0.312012  1
  O  O47  1  0.789766  0.533372  0.659268  1
  O  O48  1  0.210234  0.466628  0.159268  1
  O  O49  1  0.378243  0.497234  0.812012  1
  O  O50  1  0.356738  0.553089  0.480662  1
  O  O51  1  0.502766  0.621757  0.687988  1
  O  O52  1  0.186130  0.618594  0.709909  1
  O  O53  1  0.446911  0.643262  0.019338  1
  O  O54  1  0.751044  0.697297  0.069704  1
  O  O55  1  0.101194  0.634996  0.413056  1
  O  O56  1  0.062593  0.634877  0.273403  1
  O  O57  1  0.835266  0.735718  0.363565  1
  O  O58  1  0.109976  0.653007  0.556847  1
  O  O59  1  0.748441  0.738555  0.775737  1
  O  O60  1  0.697297  0.751044  0.930296  1
  O  O61  1  0.134574  0.687886  0.024432  1
  O  O62  1  0.738555  0.748441  0.224263  1
  O  O63  1  0.533372  0.789766  0.340732  1
  O  O64  1  0.735718  0.835266  0.636435  1
  O  O65  1  0.381406  0.813870  0.790091  1
  O  O66  1  0.365004  0.898806  0.086944  1
  O  O67  1  0.890024  0.346993  0.056847  1
