# generated using pymatgen
data_KPbO2
_symmetry_space_group_name_H-M   'P 1'
_cell_length_a   6.58841615
_cell_length_b   7.12282695
_cell_length_c   7.62265704
_cell_angle_alpha   117.53873411
_cell_angle_beta   93.66972697
_cell_angle_gamma   104.88289686
_symmetry_Int_Tables_number   1
_chemical_formula_structural   KPbO2
_chemical_formula_sum   'K4 Pb4 O8'
_cell_volume   299.49434625
_cell_formula_units_Z   4
loop_
 _symmetry_equiv_pos_site_id
 _symmetry_equiv_pos_as_xyz
  1  'x, y, z'
loop_
 _atom_site_type_symbol
 _atom_site_label
 _atom_site_symmetry_multiplicity
 _atom_site_fract_x
 _atom_site_fract_y
 _atom_site_fract_z
 _atom_site_occupancy
  K  K0  1  0.469837  0.253490  0.995169  1
  K  K1  1  0.016388  0.000085  0.742908  1
  K  K2  1  0.530163  0.746510  0.004831  1
  K  K3  1  0.983612  0.999915  0.257092  1
  Pb  Pb4  1  0.932498  0.488301  0.740499  1
  Pb  Pb5  1  0.067502  0.511699  0.259501  1
  Pb  Pb6  1  0.507744  0.239012  0.500662  1
  Pb  Pb7  1  0.492256  0.760988  0.499338  1
  O  O8  1  0.687182  0.088727  0.400662  1
  O  O9  1  0.312818  0.911273  0.599338  1
  O  O10  1  0.277040  0.830523  0.198436  1
  O  O11  1  0.722960  0.169477  0.801564  1
  O  O12  1  0.286742  0.408278  0.569262  1
  O  O13  1  0.713258  0.591722  0.430738  1
  O  O14  1  0.709874  0.637596  0.794030  1
  O  O15  1  0.290126  0.362404  0.205970  1
