# generated using pymatgen
data_Ba(InSe2)2
_symmetry_space_group_name_H-M   'P 1'
_cell_length_a   16.37160603
_cell_length_b   13.55625701
_cell_length_c   13.40166126
_cell_angle_alpha   74.78692885
_cell_angle_beta   53.03638668
_cell_angle_gamma   52.17668447
_symmetry_Int_Tables_number   1
_chemical_formula_structural   Ba(InSe2)2
_chemical_formula_sum   'Ba8 In16 Se32'
_cell_volume   1850.41402746
_cell_formula_units_Z   8
loop_
 _symmetry_equiv_pos_site_id
 _symmetry_equiv_pos_as_xyz
  1  'x, y, z'
loop_
 _atom_site_type_symbol
 _atom_site_label
 _atom_site_symmetry_multiplicity
 _atom_site_fract_x
 _atom_site_fract_y
 _atom_site_fract_z
 _atom_site_occupancy
  Ba  Ba0  1  0.497751  0.497751  0.002249  1
  Ba  Ba1  1  0.002249  0.002249  0.497751  1
  Ba  Ba2  1  0.752249  0.752249  0.247751  1
  Ba  Ba3  1  0.247751  0.247751  0.752249  1
  Ba  Ba4  1  0.250000  0.250000  0.250000  1
  Ba  Ba5  1  0.000000  0.000000  0.000000  1
  Ba  Ba6  1  0.750000  0.750000  0.750000  1
  Ba  Ba7  1  0.500000  0.500000  0.500000  1
  In  In8  1  0.592729  0.157009  0.266128  1
  In  In9  1  0.984135  0.266128  0.157009  1
  In  In10  1  0.266128  0.984135  0.592729  1
  In  In11  1  0.157009  0.592729  0.984135  1
  In  In12  1  0.657271  0.092991  0.983872  1
  In  In13  1  0.265865  0.983872  0.092991  1
  In  In14  1  0.983872  0.265865  0.657271  1
  In  In15  1  0.092991  0.657271  0.265865  1
  In  In16  1  0.236978  0.511640  0.489088  1
  In  In17  1  0.762294  0.489088  0.511640  1
  In  In18  1  0.489088  0.762294  0.236978  1
  In  In19  1  0.511640  0.236978  0.762294  1
  In  In20  1  0.013022  0.738360  0.760912  1
  In  In21  1  0.487706  0.760912  0.738360  1
  In  In22  1  0.760912  0.487706  0.013022  1
  In  In23  1  0.738360  0.013022  0.487706  1
  Se  Se24  1  0.307199  0.440038  0.774422  1
  Se  Se25  1  0.478342  0.774422  0.440038  1
  Se  Se26  1  0.774422  0.478342  0.307199  1
  Se  Se27  1  0.440038  0.307199  0.478342  1
  Se  Se28  1  0.942801  0.809962  0.475578  1
  Se  Se29  1  0.771658  0.475578  0.809962  1
  Se  Se30  1  0.475578  0.771658  0.942801  1
  Se  Se31  1  0.809962  0.942801  0.771658  1
  Se  Se32  1  0.965403  0.786614  0.971586  1
  Se  Se33  1  0.276397  0.971586  0.786614  1
  Se  Se34  1  0.971586  0.276397  0.965403  1
  Se  Se35  1  0.786614  0.965403  0.276397  1
  Se  Se36  1  0.284597  0.463386  0.278414  1
  Se  Se37  1  0.973603  0.278414  0.463386  1
  Se  Se38  1  0.278414  0.973603  0.284597  1
  Se  Se39  1  0.463386  0.284597  0.973603  1
  Se  Se40  1  0.211927  0.209842  0.038289  1
  Se  Se41  1  0.539942  0.038289  0.209842  1
  Se  Se42  1  0.038289  0.539942  0.211927  1
  Se  Se43  1  0.209842  0.211927  0.539942  1
  Se  Se44  1  0.038073  0.040158  0.211711  1
  Se  Se45  1  0.710058  0.211711  0.040158  1
  Se  Se46  1  0.211711  0.710058  0.038073  1
  Se  Se47  1  0.040158  0.038073  0.710058  1
  Se  Se48  1  0.541145  0.537828  0.709230  1
  Se  Se49  1  0.211797  0.709230  0.537828  1
  Se  Se50  1  0.709230  0.211797  0.541145  1
  Se  Se51  1  0.537828  0.541145  0.211797  1
  Se  Se52  1  0.708855  0.712172  0.540770  1
  Se  Se53  1  0.038203  0.540770  0.712172  1
  Se  Se54  1  0.540770  0.038203  0.708855  1
  Se  Se55  1  0.712172  0.708855  0.038203  1
