# generated using pymatgen
data_NaGa3Te5
_symmetry_space_group_name_H-M   'P 1'
_cell_length_a   10.52807870
_cell_length_b   10.52807870
_cell_length_c   10.52807870
_cell_angle_alpha   90.49386995
_cell_angle_beta   90.49386995
_cell_angle_gamma   90.49386995
_symmetry_Int_Tables_number   1
_chemical_formula_structural   NaGa3Te5
_chemical_formula_sum   'Na4 Ga12 Te20'
_cell_volume   1166.80608323
_cell_formula_units_Z   4
loop_
 _symmetry_equiv_pos_site_id
 _symmetry_equiv_pos_as_xyz
  1  'x, y, z'
loop_
 _atom_site_type_symbol
 _atom_site_label
 _atom_site_symmetry_multiplicity
 _atom_site_fract_x
 _atom_site_fract_y
 _atom_site_fract_z
 _atom_site_occupancy
  Na  Na0  1  0.743642  0.256358  0.000000  1
  Na  Na1  1  0.000000  0.743642  0.256358  1
  Na  Na2  1  0.256358  0.000000  0.743642  1
  Na  Na3  1  0.500000  0.500000  0.500000  1
  Ga  Ga4  1  0.573524  0.838542  0.878048  1
  Ga  Ga5  1  0.878048  0.573524  0.838542  1
  Ga  Ga6  1  0.838542  0.878048  0.573524  1
  Ga  Ga7  1  0.121952  0.161458  0.426476  1
  Ga  Ga8  1  0.426476  0.121952  0.161458  1
  Ga  Ga9  1  0.161458  0.426476  0.121952  1
  Ga  Ga10  1  0.342895  0.747100  0.165618  1
  Ga  Ga11  1  0.165618  0.342895  0.747100  1
  Ga  Ga12  1  0.747100  0.165618  0.342895  1
  Ga  Ga13  1  0.834382  0.252900  0.657105  1
  Ga  Ga14  1  0.657105  0.834382  0.252900  1
  Ga  Ga15  1  0.252900  0.657105  0.834382  1
  Te  Te16  1  0.000000  0.173538  0.826462  1
  Te  Te17  1  0.173538  0.826462  0.000000  1
  Te  Te18  1  0.172532  0.172532  0.172532  1
  Te  Te19  1  0.827468  0.827468  0.827468  1
  Te  Te20  1  0.826462  0.000000  0.173538  1
  Te  Te21  1  0.077155  0.922845  0.500000  1
  Te  Te22  1  0.500000  0.077155  0.922845  1
  Te  Te23  1  0.922845  0.500000  0.077155  1
  Te  Te24  1  0.430798  0.749765  0.686843  1
  Te  Te25  1  0.686843  0.430798  0.749765  1
  Te  Te26  1  0.749765  0.686843  0.430798  1
  Te  Te27  1  0.313157  0.250235  0.569202  1
  Te  Te28  1  0.569202  0.313157  0.250235  1
  Te  Te29  1  0.250235  0.569202  0.313157  1
  Te  Te30  1  0.569629  0.673399  0.069951  1
  Te  Te31  1  0.069951  0.569629  0.673399  1
  Te  Te32  1  0.673399  0.069951  0.569629  1
  Te  Te33  1  0.930049  0.326601  0.430371  1
  Te  Te34  1  0.430371  0.930049  0.326601  1
  Te  Te35  1  0.326601  0.430371  0.930049  1
