# generated using pymatgen
data_Er10Ru10C19
_symmetry_space_group_name_H-M   'P 1'
_cell_length_a   8.16678316
_cell_length_b   8.16678316
_cell_length_c   10.03641133
_cell_angle_alpha   70.90534414
_cell_angle_beta   109.09465586
_cell_angle_gamma   127.34243035
_symmetry_Int_Tables_number   1
_chemical_formula_structural   Er10Ru10C19
_chemical_formula_sum   'Er10 Ru10 C19'
_cell_volume   495.46790475
_cell_formula_units_Z   1
loop_
 _symmetry_equiv_pos_site_id
 _symmetry_equiv_pos_as_xyz
  1  'x, y, z'
loop_
 _atom_site_type_symbol
 _atom_site_label
 _atom_site_symmetry_multiplicity
 _atom_site_fract_x
 _atom_site_fract_y
 _atom_site_fract_z
 _atom_site_occupancy
  Er  Er0  1  0.000294  0.999706  0.989314  1
  Er  Er1  1  0.478182  0.521818  0.989215  1
  Er  Er2  1  0.323073  0.676927  0.613355  1
  Er  Er3  1  0.510802  0.489198  0.364017  1
  Er  Er4  1  0.016114  0.983886  0.380720  1
  Er  Er5  1  0.821440  0.178560  0.600074  1
  Er  Er6  1  0.625712  0.374288  0.737874  1
  Er  Er7  1  0.751306  0.248694  0.240136  1
  Er  Er8  1  0.141911  0.858089  0.764200  1
  Er  Er9  1  0.254776  0.745224  0.215083  1
  Ru  Ru10  1  0.461010  0.106346  0.989528  1
  Ru  Ru11  1  0.219662  0.273870  0.583127  1
  Ru  Ru12  1  0.726130  0.780338  0.583127  1
  Ru  Ru13  1  0.417856  0.064276  0.396173  1
  Ru  Ru14  1  0.022953  0.402312  0.843319  1
  Ru  Ru15  1  0.597688  0.977047  0.843319  1
  Ru  Ru16  1  0.670371  0.903205  0.135536  1
  Ru  Ru17  1  0.096795  0.329629  0.135536  1
  Ru  Ru18  1  0.935724  0.582144  0.396173  1
  Ru  Ru19  1  0.893654  0.538990  0.989528  1
  C  C20  1  0.788491  0.211509  0.989476  1
  C  C21  1  0.391967  0.812190  0.989314  1
  C  C22  1  0.187810  0.608033  0.989314  1
  C  C23  1  0.354617  0.139248  0.555787  1
  C  C24  1  0.860752  0.645383  0.555787  1
  C  C25  1  0.085193  0.436122  0.422741  1
  C  C26  1  0.563878  0.914807  0.422741  1
  C  C27  1  0.458811  0.045387  0.631446  1
  C  C28  1  0.954613  0.541189  0.631446  1
  C  C29  1  0.636197  0.864689  0.347452  1
  C  C30  1  0.182074  0.312275  0.782705  1
  C  C31  1  0.285636  0.208535  0.196119  1
  C  C32  1  0.791465  0.714364  0.196119  1
  C  C33  1  0.285663  0.214863  0.823979  1
  C  C34  1  0.687725  0.817926  0.782705  1
  C  C35  1  0.785137  0.714337  0.823979  1
  C  C36  1  0.368382  0.131726  0.154862  1
  C  C37  1  0.868274  0.631618  0.154862  1
  C  C38  1  0.135311  0.363803  0.347452  1
