# generated using pymatgen
data_Ba2Nb15O32
_symmetry_space_group_name_H-M   'P 1'
_cell_length_a   12.91664241
_cell_length_b   12.91664241
_cell_length_c   12.91664241
_cell_angle_alpha   35.60895017
_cell_angle_beta   35.60895017
_cell_angle_gamma   35.60895017
_symmetry_Int_Tables_number   1
_chemical_formula_structural   Ba2Nb15O32
_chemical_formula_sum   'Ba2 Nb15 O32'
_cell_volume   653.00528883
_cell_formula_units_Z   1
loop_
 _symmetry_equiv_pos_site_id
 _symmetry_equiv_pos_as_xyz
  1  'x, y, z'
loop_
 _atom_site_type_symbol
 _atom_site_label
 _atom_site_symmetry_multiplicity
 _atom_site_fract_x
 _atom_site_fract_y
 _atom_site_fract_z
 _atom_site_occupancy
  Ba  Ba0  1  0.361375  0.361375  0.361375  1
  Ba  Ba1  1  0.638625  0.638625  0.638625  1
  Nb  Nb2  1  0.139224  0.139224  0.139224  1
  Nb  Nb3  1  0.860776  0.860776  0.860776  1
  Nb  Nb4  1  0.273668  0.684072  0.443642  1
  Nb  Nb5  1  0.684072  0.443642  0.273668  1
  Nb  Nb6  1  0.443642  0.273668  0.684072  1
  Nb  Nb7  1  0.726332  0.315928  0.556358  1
  Nb  Nb8  1  0.315928  0.556358  0.726332  1
  Nb  Nb9  1  0.556358  0.726332  0.315928  1
  Nb  Nb10  1  0.078431  0.530684  0.189323  1
  Nb  Nb11  1  0.530684  0.189323  0.078431  1
  Nb  Nb12  1  0.189323  0.078431  0.530684  1
  Nb  Nb13  1  0.921569  0.469316  0.810677  1
  Nb  Nb14  1  0.469316  0.810677  0.921569  1
  Nb  Nb15  1  0.810677  0.921569  0.469316  1
  Nb  Nb16  1  1.000000  0.000000  0.000000  1
  O  O17  1  0.043635  0.236307  0.815673  1
  O  O18  1  0.236307  0.815673  0.043635  1
  O  O19  1  0.815673  0.043635  0.236307  1
  O  O20  1  0.956365  0.763693  0.184327  1
  O  O21  1  0.763693  0.184327  0.956365  1
  O  O22  1  0.184327  0.956365  0.763693  1
  O  O23  1  0.529732  0.942622  0.647607  1
  O  O24  1  0.942622  0.647607  0.529732  1
  O  O25  1  0.647607  0.529732  0.942622  1
  O  O26  1  0.470268  0.057378  0.352393  1
  O  O27  1  0.057378  0.352393  0.470268  1
  O  O28  1  0.352393  0.470268  0.057378  1
  O  O29  1  0.930400  0.340391  0.041680  1
  O  O30  1  0.340391  0.041680  0.930400  1
  O  O31  1  0.041680  0.930400  0.340391  1
  O  O32  1  0.069600  0.659609  0.958320  1
  O  O33  1  0.659609  0.958320  0.069600  1
  O  O34  1  0.462916  0.633709  0.199274  1
  O  O35  1  0.199274  0.462916  0.633709  1
  O  O36  1  0.633709  0.199274  0.462916  1
  O  O37  1  0.537084  0.366291  0.800726  1
  O  O38  1  0.800726  0.537084  0.366291  1
  O  O39  1  0.366291  0.800726  0.537084  1
  O  O40  1  0.237262  0.336631  0.926942  1
  O  O41  1  0.926942  0.237262  0.336631  1
  O  O42  1  0.336631  0.926942  0.237262  1
  O  O43  1  0.762738  0.663369  0.073058  1
  O  O44  1  0.073058  0.762738  0.663369  1
  O  O45  1  0.663369  0.073058  0.762738  1
  O  O46  1  0.761906  0.761906  0.761906  1
  O  O47  1  0.238094  0.238094  0.238094  1
  O  O48  1  0.958320  0.069600  0.659609  1
