# generated using pymatgen
data_KP(HO2)2
_symmetry_space_group_name_H-M   'P 1'
_cell_length_a   7.35092051
_cell_length_b   7.48220268
_cell_length_c   7.50498189
_cell_angle_alpha   87.86862940
_cell_angle_beta   87.05384857
_cell_angle_gamma   89.37039838
_symmetry_Int_Tables_number   1
_chemical_formula_structural   KP(HO2)2
_chemical_formula_sum   'K4 P4 H8 O16'
_cell_volume   411.93427386
_cell_formula_units_Z   4
loop_
 _symmetry_equiv_pos_site_id
 _symmetry_equiv_pos_as_xyz
  1  'x, y, z'
loop_
 _atom_site_type_symbol
 _atom_site_label
 _atom_site_symmetry_multiplicity
 _atom_site_fract_x
 _atom_site_fract_y
 _atom_site_fract_z
 _atom_site_occupancy
  K  K0  1  0.060227  0.820781  0.692579  1
  K  K1  1  0.939773  0.179219  0.307421  1
  K  K2  1  0.644306  0.246694  0.799212  1
  K  K3  1  0.355694  0.753306  0.200788  1
  P  P4  1  0.566033  0.753036  0.698365  1
  P  P5  1  0.433967  0.246964  0.301635  1
  P  P6  1  0.111527  0.276503  0.792437  1
  P  P7  1  0.888473  0.723497  0.207563  1
  H  H8  1  0.274219  0.136561  0.002996  1
  H  H9  1  0.343025  0.560344  0.785081  1
  H  H10  1  0.719947  0.590048  0.486802  1
  H  H11  1  0.280053  0.409952  0.513198  1
  H  H12  1  0.656975  0.439656  0.214919  1
  H  H13  1  0.500000  0.000000  0.500000  1
  H  H14  1  0.725781  0.863439  0.997004  1
  H  H15  1  0.000000  0.500000  0.000000  1
  O  O16  1  0.005157  0.653224  0.044783  1
  O  O17  1  0.994843  0.346776  0.955217  1
  O  O18  1  0.319976  0.120841  0.201700  1
  O  O19  1  0.000731  0.814176  0.340343  1
  O  O20  1  0.999269  0.185824  0.659657  1
  O  O21  1  0.750693  0.871806  0.129494  1
  O  O22  1  0.249307  0.128194  0.870506  1
  O  O23  1  0.680024  0.879159  0.798300  1
  O  O24  1  0.421165  0.661993  0.836017  1
  O  O25  1  0.771142  0.568678  0.297215  1
  O  O26  1  0.228858  0.431322  0.702785  1
  O  O27  1  0.684023  0.591185  0.624442  1
  O  O28  1  0.578835  0.338007  0.163983  1
  O  O29  1  0.534704  0.154152  0.456768  1
  O  O30  1  0.465296  0.845848  0.543232  1
  O  O31  1  0.315977  0.408815  0.375558  1
