# generated using pymatgen
data_La3Br6N
_symmetry_space_group_name_H-M   'P 1'
_cell_length_a   11.30568721
_cell_length_b   12.08086718
_cell_length_c   17.37526814
_cell_angle_alpha   90.00000000
_cell_angle_beta   90.00000000
_cell_angle_gamma   90.00000000
_symmetry_Int_Tables_number   1
_chemical_formula_structural   La3Br6N
_chemical_formula_sum   'La24 Br48 N8'
_cell_volume   2373.15765738
_cell_formula_units_Z   8
loop_
 _symmetry_equiv_pos_site_id
 _symmetry_equiv_pos_as_xyz
  1  'x, y, z'
loop_
 _atom_site_type_symbol
 _atom_site_label
 _atom_site_symmetry_multiplicity
 _atom_site_fract_x
 _atom_site_fract_y
 _atom_site_fract_z
 _atom_site_occupancy
  La  La0  1  0.136909  0.019427  0.441942  1
  La  La1  1  0.636909  0.480573  0.558058  1
  La  La2  1  0.863091  0.519427  0.058058  1
  La  La3  1  0.363091  0.980573  0.941942  1
  La  La4  1  0.863091  0.980573  0.558058  1
  La  La5  1  0.363091  0.519427  0.441942  1
  La  La6  1  0.136909  0.480573  0.941942  1
  La  La7  1  0.636909  0.019427  0.058058  1
  La  La8  1  0.349718  0.960734  0.172297  1
  La  La9  1  0.849718  0.539266  0.827703  1
  La  La10  1  0.650282  0.460734  0.327703  1
  La  La11  1  0.150282  0.039266  0.672297  1
  La  La12  1  0.650282  0.039266  0.827703  1
  La  La13  1  0.150282  0.460734  0.172297  1
  La  La14  1  0.349718  0.539266  0.672297  1
  La  La15  1  0.849718  0.960734  0.327703  1
  La  La16  1  0.009532  0.222371  0.050151  1
  La  La17  1  0.509532  0.277629  0.949849  1
  La  La18  1  0.990468  0.722371  0.449849  1
  La  La19  1  0.490468  0.777629  0.550151  1
  La  La20  1  0.990468  0.777629  0.949849  1
  La  La21  1  0.490468  0.722371  0.050151  1
  La  La22  1  0.009532  0.277629  0.550151  1
  La  La23  1  0.509532  0.222371  0.449849  1
  Br  Br24  1  0.256347  0.784144  0.454242  1
  Br  Br25  1  0.756347  0.715856  0.545758  1
  Br  Br26  1  0.743653  0.284144  0.045758  1
  Br  Br27  1  0.243653  0.215856  0.954242  1
  Br  Br28  1  0.743653  0.215856  0.545758  1
  Br  Br29  1  0.243653  0.284144  0.454242  1
  Br  Br30  1  0.256347  0.715856  0.954242  1
  Br  Br31  1  0.756347  0.784144  0.045758  1
  Br  Br32  1  0.367711  0.064245  0.338666  1
  Br  Br33  1  0.867711  0.435755  0.661334  1
  Br  Br34  1  0.632289  0.564245  0.161334  1
  Br  Br35  1  0.132289  0.935755  0.838666  1
  Br  Br36  1  0.632289  0.935755  0.661334  1
  Br  Br37  1  0.132289  0.564245  0.338666  1
  Br  Br38  1  0.367711  0.435755  0.838666  1
  Br  Br39  1  0.867711  0.064245  0.161334  1
  Br  Br40  1  0.105166  0.917339  0.275352  1
  Br  Br41  1  0.605166  0.582661  0.724648  1
  Br  Br42  1  0.894834  0.417339  0.224648  1
  Br  Br43  1  0.394834  0.082661  0.775352  1
  Br  Br44  1  0.894834  0.082661  0.724648  1
  Br  Br45  1  0.394834  0.417339  0.275352  1
  Br  Br46  1  0.105166  0.582661  0.775352  1
  Br  Br47  1  0.605166  0.917339  0.224648  1
  Br  Br48  1  0.643409  0.970192  0.444892  1
  Br  Br49  1  0.143409  0.529808  0.555108  1
  Br  Br50  1  0.356591  0.470192  0.055108  1
  Br  Br51  1  0.856591  0.029808  0.944892  1
  Br  Br52  1  0.356591  0.029808  0.555108  1
  Br  Br53  1  0.856591  0.470192  0.444892  1
  Br  Br54  1  0.643409  0.529808  0.944892  1
  Br  Br55  1  0.143409  0.970192  0.055108  1
  Br  Br56  1  0.163019  0.216946  0.188845  1
  Br  Br57  1  0.663019  0.283054  0.811155  1
  Br  Br58  1  0.836981  0.716946  0.311155  1
  Br  Br59  1  0.336981  0.783054  0.688845  1
  Br  Br60  1  0.836981  0.783054  0.811155  1
  Br  Br61  1  0.336981  0.716946  0.188845  1
  Br  Br62  1  0.163019  0.283054  0.688845  1
  Br  Br63  1  0.663019  0.216946  0.311155  1
  Br  Br64  1  0.533726  0.683788  0.376861  1
  Br  Br65  1  0.033726  0.816212  0.623139  1
  Br  Br66  1  0.466274  0.183788  0.123139  1
  Br  Br67  1  0.966274  0.316212  0.876861  1
  Br  Br68  1  0.466274  0.316212  0.623139  1
  Br  Br69  1  0.966274  0.183788  0.376861  1
  Br  Br70  1  0.533726  0.816212  0.876861  1
  Br  Br71  1  0.033726  0.683788  0.123139  1
  N  N72  1  0.546869  0.091447  0.940470  1
  N  N73  1  0.046869  0.408553  0.059530  1
  N  N74  1  0.453131  0.591447  0.559530  1
  N  N75  1  0.953131  0.908553  0.440470  1
  N  N76  1  0.453131  0.908553  0.059530  1
  N  N77  1  0.953131  0.591447  0.940470  1
  N  N78  1  0.546869  0.408553  0.440470  1
  N  N79  1  0.046869  0.091447  0.559530  1
