# generated using pymatgen
data_CuHOF
_symmetry_space_group_name_H-M   'P 1'
_cell_length_a   5.07660378
_cell_length_b   6.46915858
_cell_length_c   5.39002941
_cell_angle_alpha   90.00000000
_cell_angle_beta   114.33633063
_cell_angle_gamma   90.00000000
_symmetry_Int_Tables_number   1
_chemical_formula_structural   CuHOF
_chemical_formula_sum   'Cu4 H4 O4 F4'
_cell_volume   161.28662065
_cell_formula_units_Z   4
loop_
 _symmetry_equiv_pos_site_id
 _symmetry_equiv_pos_as_xyz
  1  'x, y, z'
loop_
 _atom_site_type_symbol
 _atom_site_label
 _atom_site_symmetry_multiplicity
 _atom_site_fract_x
 _atom_site_fract_y
 _atom_site_fract_z
 _atom_site_occupancy
  Cu  Cu0  1  0.012216  0.379736  0.241021  1
  Cu  Cu1  1  0.987784  0.879736  0.258979  1
  Cu  Cu2  1  0.987784  0.620264  0.758979  1
  Cu  Cu3  1  0.012216  0.120264  0.741021  1
  H  H4  1  0.612506  0.135211  0.247107  1
  H  H5  1  0.387494  0.635211  0.252893  1
  H  H6  1  0.387494  0.864789  0.752893  1
  H  H7  1  0.612506  0.364789  0.747107  1
  O  O8  1  0.831364  0.360312  0.836138  1
  O  O9  1  0.168636  0.860312  0.663862  1
  O  O10  1  0.168636  0.639688  0.163862  1
  O  O11  1  0.831364  0.139688  0.336138  1
  F  F12  1  0.282236  0.391326  0.628673  1
  F  F13  1  0.717764  0.891326  0.871327  1
  F  F14  1  0.717764  0.608674  0.371327  1
  F  F15  1  0.282236  0.108674  0.128673  1
