# generated using pymatgen
data_GaSeBr7
_symmetry_space_group_name_H-M   'P 1'
_cell_length_a   7.00651549
_cell_length_b   6.77328229
_cell_length_c   15.31278763
_cell_angle_alpha   90.00000000
_cell_angle_beta   104.07327696
_cell_angle_gamma   90.00000000
_symmetry_Int_Tables_number   1
_chemical_formula_structural   GaSeBr7
_chemical_formula_sum   'Ga2 Se2 Br14'
_cell_volume   704.88907352
_cell_formula_units_Z   2
loop_
 _symmetry_equiv_pos_site_id
 _symmetry_equiv_pos_as_xyz
  1  'x, y, z'
loop_
 _atom_site_type_symbol
 _atom_site_label
 _atom_site_symmetry_multiplicity
 _atom_site_fract_x
 _atom_site_fract_y
 _atom_site_fract_z
 _atom_site_occupancy
  Ga  Ga0  1  0.337192  0.997872  0.498415  1
  Ga  Ga1  1  0.337192  0.002128  0.998415  1
  Se  Se2  1  0.051200  0.593352  0.337991  1
  Se  Se3  1  0.051200  0.406648  0.837991  1
  Br  Br4  1  0.171916  0.605655  0.735812  1
  Br  Br5  1  0.171916  0.394345  0.235812  1
  Br  Br6  1  0.017692  0.126149  0.995232  1
  Br  Br7  1  0.017692  0.873851  0.495232  1
  Br  Br8  1  0.407936  0.129800  0.864261  1
  Br  Br9  1  0.407936  0.870200  0.364261  1
  Br  Br10  1  0.559343  0.133136  0.127080  1
  Br  Br11  1  0.559343  0.866864  0.627080  1
  Br  Br12  1  0.361354  0.655922  0.002889  1
  Br  Br13  1  0.361354  0.344078  0.502889  1
  Br  Br14  1  0.798461  0.389538  0.367663  1
  Br  Br15  1  0.798461  0.610462  0.867663  1
  Br  Br16  1  0.847656  0.814076  0.233786  1
  Br  Br17  1  0.847656  0.185924  0.733786  1
