# generated using pymatgen
data_H7Se2NO6
_symmetry_space_group_name_H-M   'P 1'
_cell_length_a   5.91613713
_cell_length_b   6.50508676
_cell_length_c   17.95076529
_cell_angle_alpha   90.00000000
_cell_angle_beta   90.00000000
_cell_angle_gamma   90.00000000
_symmetry_Int_Tables_number   1
_chemical_formula_structural   H7Se2NO6
_chemical_formula_sum   'H28 Se8 N4 O24'
_cell_volume   690.83493857
_cell_formula_units_Z   4
loop_
 _symmetry_equiv_pos_site_id
 _symmetry_equiv_pos_as_xyz
  1  'x, y, z'
loop_
 _atom_site_type_symbol
 _atom_site_label
 _atom_site_symmetry_multiplicity
 _atom_site_fract_x
 _atom_site_fract_y
 _atom_site_fract_z
 _atom_site_occupancy
  H  H0  1  0.104256  0.585445  0.180801  1
  H  H1  1  0.604256  0.914555  0.819199  1
  H  H2  1  0.895744  0.085445  0.319199  1
  H  H3  1  0.395744  0.414555  0.680801  1
  H  H4  1  0.881080  0.527978  0.124079  1
  H  H5  1  0.381080  0.972022  0.875921  1
  H  H6  1  0.118920  0.027978  0.375921  1
  H  H7  1  0.618920  0.472022  0.624079  1
  H  H8  1  0.888629  0.438258  0.213466  1
  H  H9  1  0.388629  0.061742  0.786534  1
  H  H10  1  0.111371  0.938258  0.286534  1
  H  H11  1  0.611371  0.561742  0.713466  1
  H  H12  1  0.068137  0.343949  0.148796  1
  H  H13  1  0.568137  0.156051  0.851204  1
  H  H14  1  0.931863  0.843949  0.351204  1
  H  H15  1  0.431863  0.656051  0.648796  1
  H  H16  1  0.349079  0.537117  0.864142  1
  H  H17  1  0.849079  0.962883  0.135858  1
  H  H18  1  0.650921  0.037117  0.635858  1
  H  H19  1  0.150921  0.462883  0.364142  1
  H  H20  1  0.235482  0.693370  0.998226  1
  H  H21  1  0.735482  0.806630  0.001774  1
  H  H22  1  0.764518  0.193370  0.501774  1
  H  H23  1  0.264518  0.306630  0.498226  1
  H  H24  1  0.015447  0.265505  0.780458  1
  H  H25  1  0.515447  0.234495  0.219542  1
  H  H26  1  0.984553  0.765505  0.719542  1
  H  H27  1  0.484553  0.734495  0.280458  1
  Se  Se28  1  0.510413  0.427864  0.009265  1
  Se  Se29  1  0.010413  0.072136  0.990735  1
  Se  Se30  1  0.489587  0.927864  0.490735  1
  Se  Se31  1  0.989587  0.572136  0.509265  1
  Se  Se32  1  0.955195  0.557208  0.855275  1
  Se  Se33  1  0.455195  0.942792  0.144725  1
  Se  Se34  1  0.044805  0.057208  0.644725  1
  Se  Se35  1  0.544805  0.442792  0.355275  1
  N  N36  1  0.985336  0.474481  0.167132  1
  N  N37  1  0.485336  0.025519  0.832868  1
  N  N38  1  0.014664  0.974481  0.332868  1
  N  N39  1  0.514664  0.525519  0.667132  1
  O  O40  1  0.700670  0.599370  0.044586  1
  O  O41  1  0.200670  0.900630  0.955414  1
  O  O42  1  0.299330  0.099370  0.455414  1
  O  O43  1  0.799330  0.400630  0.544586  1
  O  O44  1  0.824241  0.692109  0.787226  1
  O  O45  1  0.324241  0.807891  0.212774  1
  O  O46  1  0.175759  0.192109  0.712774  1
  O  O47  1  0.675759  0.307891  0.287226  1
  O  O48  1  0.537558  0.446949  0.914514  1
  O  O49  1  0.037558  0.053051  0.085486  1
  O  O50  1  0.462442  0.946949  0.585486  1
  O  O51  1  0.962442  0.553051  0.414514  1
  O  O52  1  0.239323  0.590305  0.823454  1
  O  O53  1  0.739323  0.909695  0.176546  1
  O  O54  1  0.760677  0.090305  0.676546  1
  O  O55  1  0.260677  0.409695  0.323454  1
  O  O56  1  0.243923  0.552772  0.024980  1
  O  O57  1  0.743923  0.947228  0.975020  1
  O  O58  1  0.756077  0.052772  0.475020  1
  O  O59  1  0.256077  0.447228  0.524980  1
  O  O60  1  0.921403  0.295208  0.827080  1
  O  O61  1  0.421403  0.204792  0.172920  1
  O  O62  1  0.078597  0.795208  0.672920  1
  O  O63  1  0.578597  0.704792  0.327080  1
