# generated using pymatgen
data_K2Os(Cl2O)2
_symmetry_space_group_name_H-M   'P 1'
_cell_length_a   6.73929212
_cell_length_b   6.73929212
_cell_length_c   6.73929212
_cell_angle_alpha   115.15862707
_cell_angle_beta   115.15862707
_cell_angle_gamma   98.61234503
_symmetry_Int_Tables_number   1
_chemical_formula_structural   K2Os(Cl2O)2
_chemical_formula_sum   'K2 Os1 Cl4 O2'
_cell_volume   229.45862568
_cell_formula_units_Z   1
loop_
 _symmetry_equiv_pos_site_id
 _symmetry_equiv_pos_as_xyz
  1  'x, y, z'
loop_
 _atom_site_type_symbol
 _atom_site_label
 _atom_site_symmetry_multiplicity
 _atom_site_fract_x
 _atom_site_fract_y
 _atom_site_fract_z
 _atom_site_occupancy
  K  K0  1  0.250000  0.750000  0.500000  1
  K  K1  1  0.750000  0.250000  0.500000  1
  Os  Os2  1  0.000000  0.000000  0.000000  1
  Cl  Cl3  1  0.763512  0.236488  1.000000  1
  Cl  Cl4  1  0.236488  0.763512  1.000000  1
  Cl  Cl5  1  0.763512  0.763512  0.527023  1
  Cl  Cl6  1  0.236488  0.236488  0.472977  1
  O  O7  1  0.800151  0.800151  0.000000  1
  O  O8  1  0.199849  0.199849  0.000000  1
