# generated using pymatgen
data_FeAg2SnS4
_symmetry_space_group_name_H-M   'P 1'
_cell_length_a   7.13804435
_cell_length_b   7.13804435
_cell_length_c   7.13804435
_cell_angle_alpha   133.78205056
_cell_angle_beta   133.78205056
_cell_angle_gamma   67.42862376
_symmetry_Int_Tables_number   1
_chemical_formula_structural   FeAg2SnS4
_chemical_formula_sum   'Fe1 Ag2 Sn1 S4'
_cell_volume   186.40708956
_cell_formula_units_Z   1
loop_
 _symmetry_equiv_pos_site_id
 _symmetry_equiv_pos_as_xyz
  1  'x, y, z'
loop_
 _atom_site_type_symbol
 _atom_site_label
 _atom_site_symmetry_multiplicity
 _atom_site_fract_x
 _atom_site_fract_y
 _atom_site_fract_z
 _atom_site_occupancy
  Fe  Fe0  1  0.000000  0.000000  0.000000  1
  Ag  Ag1  1  0.750000  0.250000  0.500000  1
  Ag  Ag2  1  0.250000  0.750000  0.500000  1
  Sn  Sn3  1  0.500000  0.500000  0.000000  1
  S  S4  1  0.879983  0.348877  0.000000  1
  S  S5  1  0.651123  0.651123  0.531106  1
  S  S6  1  0.120017  0.120017  0.468894  1
  S  S7  1  0.348877  0.879983  1.000000  1
