# generated using pymatgen
data_RbGeCl3
_symmetry_space_group_name_H-M   'P 1'
_cell_length_a   5.91436983
_cell_length_b   7.19642288
_cell_length_c   8.36143007
_cell_angle_alpha   90.00000000
_cell_angle_beta   107.59318060
_cell_angle_gamma   90.00000000
_symmetry_Int_Tables_number   1
_chemical_formula_structural   RbGeCl3
_chemical_formula_sum   'Rb2 Ge2 Cl6'
_cell_volume   339.23596624
_cell_formula_units_Z   2
loop_
 _symmetry_equiv_pos_site_id
 _symmetry_equiv_pos_as_xyz
  1  'x, y, z'
loop_
 _atom_site_type_symbol
 _atom_site_label
 _atom_site_symmetry_multiplicity
 _atom_site_fract_x
 _atom_site_fract_y
 _atom_site_fract_z
 _atom_site_occupancy
  Rb  Rb0  1  0.672810  0.750000  0.299296  1
  Rb  Rb1  1  0.327190  0.250000  0.700704  1
  Ge  Ge2  1  0.928329  0.750000  0.873133  1
  Ge  Ge3  1  0.071671  0.250000  0.126867  1
  Cl  Cl4  1  0.330633  0.750000  0.882598  1
  Cl  Cl5  1  0.669367  0.250000  0.117402  1
  Cl  Cl6  1  0.183159  0.492476  0.323497  1
  Cl  Cl7  1  0.816841  0.992476  0.676503  1
  Cl  Cl8  1  0.183159  0.007524  0.323497  1
  Cl  Cl9  1  0.816841  0.507524  0.676503  1
