# generated using pymatgen
data_Sc2Fe3Si5
_symmetry_space_group_name_H-M   'P 1'
_cell_length_a   10.16872683
_cell_length_b   10.16872683
_cell_length_c   5.28058691
_cell_angle_alpha   90.00000000
_cell_angle_beta   90.00000000
_cell_angle_gamma   90.00000000
_symmetry_Int_Tables_number   1
_chemical_formula_structural   Sc2Fe3Si5
_chemical_formula_sum   'Sc8 Fe12 Si20'
_cell_volume   546.02855647
_cell_formula_units_Z   4
loop_
 _symmetry_equiv_pos_site_id
 _symmetry_equiv_pos_as_xyz
  1  'x, y, z'
loop_
 _atom_site_type_symbol
 _atom_site_label
 _atom_site_symmetry_multiplicity
 _atom_site_fract_x
 _atom_site_fract_y
 _atom_site_fract_z
 _atom_site_occupancy
  Sc  Sc0  1  0.431891  0.263802  0.500000  1
  Sc  Sc1  1  0.068109  0.763802  0.000000  1
  Sc  Sc2  1  0.931891  0.236198  0.000000  1
  Sc  Sc3  1  0.763802  0.931891  0.000000  1
  Sc  Sc4  1  0.263802  0.568109  0.500000  1
  Sc  Sc5  1  0.736198  0.431891  0.500000  1
  Sc  Sc6  1  0.568109  0.736198  0.500000  1
  Sc  Sc7  1  0.236198  0.068109  0.000000  1
  Fe  Fe8  1  0.377378  0.643554  0.000000  1
  Fe  Fe9  1  0.622622  0.356446  0.000000  1
  Fe  Fe10  1  0.643554  0.622622  0.000000  1
  Fe  Fe11  1  0.356446  0.377378  0.000000  1
  Fe  Fe12  1  0.143554  0.877378  0.500000  1
  Fe  Fe13  1  0.856446  0.122622  0.500000  1
  Fe  Fe14  1  0.877378  0.856446  0.500000  1
  Fe  Fe15  1  0.122622  0.143554  0.500000  1
  Fe  Fe16  1  0.500000  0.000000  0.250000  1
  Fe  Fe17  1  0.000000  0.500000  0.250000  1
  Fe  Fe18  1  0.500000  0.000000  0.750000  1
  Fe  Fe19  1  0.000000  0.500000  0.750000  1
  Si  Si20  1  0.318542  0.028081  0.500000  1
  Si  Si21  1  0.681458  0.971919  0.500000  1
  Si  Si22  1  0.971919  0.318542  0.500000  1
  Si  Si23  1  0.028081  0.681458  0.500000  1
  Si  Si24  1  0.528081  0.818542  0.000000  1
  Si  Si25  1  0.818542  0.471919  0.000000  1
  Si  Si26  1  0.181458  0.528081  0.000000  1
  Si  Si27  1  0.471919  0.181458  0.000000  1
  Si  Si28  1  0.500000  0.500000  0.746366  1
  Si  Si29  1  0.000000  0.000000  0.753634  1
  Si  Si30  1  0.500000  0.500000  0.253634  1
  Si  Si31  1  0.000000  0.000000  0.246366  1
  Si  Si32  1  0.678013  0.178013  0.750000  1
  Si  Si33  1  0.678013  0.178013  0.250000  1
  Si  Si34  1  0.821987  0.678013  0.750000  1
  Si  Si35  1  0.321987  0.821987  0.750000  1
  Si  Si36  1  0.321987  0.821987  0.250000  1
  Si  Si37  1  0.821987  0.678013  0.250000  1
  Si  Si38  1  0.178013  0.321987  0.250000  1
  Si  Si39  1  0.178013  0.321987  0.750000  1
