# generated using pymatgen
data_Si5Ir3
_symmetry_space_group_name_H-M   'P 1'
_cell_length_a   6.47372530
_cell_length_b   14.30502917
_cell_length_c   11.67054400
_cell_angle_alpha   90.00000000
_cell_angle_beta   116.57773193
_cell_angle_gamma   90.00000000
_symmetry_Int_Tables_number   1
_chemical_formula_structural   Si5Ir3
_chemical_formula_sum   'Si40 Ir24'
_cell_volume   966.56493542
_cell_formula_units_Z   8
loop_
 _symmetry_equiv_pos_site_id
 _symmetry_equiv_pos_as_xyz
  1  'x, y, z'
loop_
 _atom_site_type_symbol
 _atom_site_label
 _atom_site_symmetry_multiplicity
 _atom_site_fract_x
 _atom_site_fract_y
 _atom_site_fract_z
 _atom_site_occupancy
  Si  Si0  1  0.053284  0.280080  0.192388  1
  Si  Si1  1  0.946716  0.780080  0.307612  1
  Si  Si2  1  0.946716  0.719920  0.807612  1
  Si  Si3  1  0.053284  0.219920  0.692388  1
  Si  Si4  1  0.883131  0.251100  0.856129  1
  Si  Si5  1  0.116869  0.751100  0.643871  1
  Si  Si6  1  0.116869  0.748900  0.143871  1
  Si  Si7  1  0.883131  0.248900  0.356129  1
  Si  Si8  1  0.757302  0.487992  0.705045  1
  Si  Si9  1  0.242698  0.987992  0.794955  1
  Si  Si10  1  0.242698  0.512008  0.294955  1
  Si  Si11  1  0.757302  0.012008  0.205045  1
  Si  Si12  1  0.452606  0.150079  0.909118  1
  Si  Si13  1  0.547394  0.650079  0.590882  1
  Si  Si14  1  0.547394  0.849921  0.090882  1
  Si  Si15  1  0.828022  0.443076  0.164607  1
  Si  Si16  1  0.452606  0.349921  0.409118  1
  Si  Si17  1  0.147440  0.936673  0.990566  1
  Si  Si18  1  0.147440  0.563327  0.490566  1
  Si  Si19  1  0.852560  0.063327  0.009434  1
  Si  Si20  1  0.360261  0.112846  0.108764  1
  Si  Si21  1  0.639739  0.612846  0.391236  1
  Si  Si22  1  0.639739  0.887154  0.891236  1
  Si  Si23  1  0.360261  0.387154  0.608764  1
  Si  Si24  1  0.426712  0.158398  0.567361  1
  Si  Si25  1  0.573288  0.658398  0.932639  1
  Si  Si26  1  0.573288  0.841602  0.432639  1
  Si  Si27  1  0.426712  0.341602  0.067361  1
  Si  Si28  1  0.243953  0.509931  0.076497  1
  Si  Si29  1  0.756047  0.009931  0.423503  1
  Si  Si30  1  0.756047  0.490069  0.923503  1
  Si  Si31  1  0.243953  0.990069  0.576497  1
  Si  Si32  1  0.364316  0.390551  0.827673  1
  Si  Si33  1  0.635684  0.890551  0.672327  1
  Si  Si34  1  0.635684  0.609449  0.172327  1
  Si  Si35  1  0.364316  0.109449  0.327673  1
  Si  Si36  1  0.828022  0.056924  0.664607  1
  Si  Si37  1  0.171978  0.556924  0.835393  1
  Si  Si38  1  0.171978  0.943076  0.335393  1
  Si  Si39  1  0.852560  0.436673  0.509434  1
  Ir  Ir40  1  0.733236  0.335508  0.993372  1
  Ir  Ir41  1  0.266764  0.835508  0.506628  1
  Ir  Ir42  1  0.266764  0.664492  0.006628  1
  Ir  Ir43  1  0.733236  0.164492  0.493372  1
  Ir  Ir44  1  0.736344  0.166528  0.133261  1
  Ir  Ir45  1  0.263656  0.666528  0.366739  1
  Ir  Ir46  1  0.263656  0.833472  0.866739  1
  Ir  Ir47  1  0.736344  0.333472  0.633261  1
  Ir  Ir48  1  0.581638  0.456523  0.272762  1
  Ir  Ir49  1  0.418362  0.956523  0.227238  1
  Ir  Ir50  1  0.418362  0.543477  0.727238  1
  Ir  Ir51  1  0.581638  0.043477  0.772762  1
  Ir  Ir52  1  0.451510  0.252412  0.244027  1
  Ir  Ir53  1  0.548490  0.752412  0.255973  1
  Ir  Ir54  1  0.548490  0.747588  0.755973  1
  Ir  Ir55  1  0.451510  0.247588  0.744027  1
  Ir  Ir56  1  0.066910  0.093611  0.396605  1
  Ir  Ir57  1  0.933090  0.593611  0.103395  1
  Ir  Ir58  1  0.933090  0.906389  0.603395  1
  Ir  Ir59  1  0.066910  0.406389  0.896605  1
  Ir  Ir60  1  0.927650  0.901804  0.111211  1
  Ir  Ir61  1  0.072350  0.401804  0.388789  1
  Ir  Ir62  1  0.072350  0.098196  0.888789  1
  Ir  Ir63  1  0.927650  0.598196  0.611211  1
