# generated using pymatgen
data_Hg6Sb5Br7
_symmetry_space_group_name_H-M   'P 1'
_cell_length_a   13.36882094
_cell_length_b   13.36882094
_cell_length_c   13.36882094
_cell_angle_alpha   90.00000000
_cell_angle_beta   90.00000000
_cell_angle_gamma   90.00000000
_symmetry_Int_Tables_number   1
_chemical_formula_structural   Hg6Sb5Br7
_chemical_formula_sum   'Hg24 Sb20 Br28'
_cell_volume   2389.34751343
_cell_formula_units_Z   4
loop_
 _symmetry_equiv_pos_site_id
 _symmetry_equiv_pos_as_xyz
  1  'x, y, z'
loop_
 _atom_site_type_symbol
 _atom_site_label
 _atom_site_symmetry_multiplicity
 _atom_site_fract_x
 _atom_site_fract_y
 _atom_site_fract_z
 _atom_site_occupancy
  Hg  Hg0  1  0.685504  0.299443  0.052121  1
  Hg  Hg1  1  0.185504  0.200557  0.947879  1
  Hg  Hg2  1  0.314496  0.799443  0.447879  1
  Hg  Hg3  1  0.200557  0.947879  0.185504  1
  Hg  Hg4  1  0.447879  0.314496  0.799443  1
  Hg  Hg5  1  0.947879  0.185504  0.200557  1
  Hg  Hg6  1  0.299443  0.052121  0.685504  1
  Hg  Hg7  1  0.052121  0.685504  0.299443  1
  Hg  Hg8  1  0.799443  0.447879  0.314496  1
  Hg  Hg9  1  0.700557  0.552121  0.814496  1
  Hg  Hg10  1  0.552121  0.814496  0.700557  1
  Hg  Hg11  1  0.814496  0.700557  0.552121  1
  Hg  Hg12  1  0.314496  0.700557  0.947879  1
  Hg  Hg13  1  0.814496  0.799443  0.052121  1
  Hg  Hg14  1  0.685504  0.200557  0.552121  1
  Hg  Hg15  1  0.799443  0.052121  0.814496  1
  Hg  Hg16  1  0.552121  0.685504  0.200557  1
  Hg  Hg17  1  0.052121  0.814496  0.799443  1
  Hg  Hg18  1  0.700557  0.947879  0.314496  1
  Hg  Hg19  1  0.947879  0.314496  0.700557  1
  Hg  Hg20  1  0.200557  0.552121  0.685504  1
  Hg  Hg21  1  0.299443  0.447879  0.185504  1
  Hg  Hg22  1  0.447879  0.185504  0.299443  1
  Hg  Hg23  1  0.185504  0.299443  0.447879  1
  Sb  Sb24  1  0.262146  0.237854  0.762146  1
  Sb  Sb25  1  0.237854  0.762146  0.262146  1
  Sb  Sb26  1  0.762146  0.262146  0.237854  1
  Sb  Sb27  1  0.737854  0.737854  0.737854  1
  Sb  Sb28  1  0.737854  0.762146  0.237854  1
  Sb  Sb29  1  0.762146  0.237854  0.737854  1
  Sb  Sb30  1  0.237854  0.737854  0.762146  1
  Sb  Sb31  1  0.262146  0.262146  0.262146  1
  Sb  Sb32  1  0.136221  0.363779  0.636221  1
  Sb  Sb33  1  0.363779  0.636221  0.136221  1
  Sb  Sb34  1  0.636221  0.136221  0.363779  1
  Sb  Sb35  1  0.863779  0.863779  0.863779  1
  Sb  Sb36  1  0.863779  0.636221  0.363779  1
  Sb  Sb37  1  0.636221  0.363779  0.863779  1
  Sb  Sb38  1  0.363779  0.863779  0.636221  1
  Sb  Sb39  1  0.136221  0.136221  0.136221  1
  Sb  Sb40  1  0.500000  0.500000  0.500000  1
  Sb  Sb41  1  0.000000  0.000000  0.500000  1
  Sb  Sb42  1  0.000000  0.500000  0.000000  1
  Sb  Sb43  1  0.500000  0.000000  0.000000  1
  Br  Br44  1  0.000000  0.500000  0.500000  1
  Br  Br45  1  0.500000  0.500000  0.000000  1
  Br  Br46  1  0.500000  0.000000  0.500000  1
  Br  Br47  1  0.000000  0.000000  0.000000  1
  Br  Br48  1  0.950317  0.202534  0.456019  1
  Br  Br49  1  0.450317  0.297466  0.543981  1
  Br  Br50  1  0.049683  0.702534  0.043981  1
  Br  Br51  1  0.297466  0.543981  0.450317  1
  Br  Br52  1  0.043981  0.049683  0.702534  1
  Br  Br53  1  0.543981  0.450317  0.297466  1
  Br  Br54  1  0.202534  0.456019  0.950317  1
  Br  Br55  1  0.456019  0.950317  0.202534  1
  Br  Br56  1  0.702534  0.043981  0.049683  1
  Br  Br57  1  0.797466  0.956019  0.549683  1
  Br  Br58  1  0.956019  0.549683  0.797466  1
  Br  Br59  1  0.549683  0.797466  0.956019  1
  Br  Br60  1  0.049683  0.797466  0.543981  1
  Br  Br61  1  0.549683  0.702534  0.456019  1
  Br  Br62  1  0.950317  0.297466  0.956019  1
  Br  Br63  1  0.702534  0.456019  0.549683  1
  Br  Br64  1  0.956019  0.950317  0.297466  1
  Br  Br65  1  0.456019  0.549683  0.702534  1
  Br  Br66  1  0.797466  0.543981  0.049683  1
  Br  Br67  1  0.543981  0.049683  0.797466  1
  Br  Br68  1  0.297466  0.956019  0.950317  1
  Br  Br69  1  0.202534  0.043981  0.450317  1
  Br  Br70  1  0.043981  0.450317  0.202534  1
  Br  Br71  1  0.450317  0.202534  0.043981  1
