# generated using pymatgen
data_K2TeS3
_symmetry_space_group_name_H-M   'P 1'
_cell_length_a   6.48703285
_cell_length_b   9.30436649
_cell_length_c   14.82337786
_cell_angle_alpha   90.00000000
_cell_angle_beta   114.93720794
_cell_angle_gamma   90.00000000
_symmetry_Int_Tables_number   1
_chemical_formula_structural   K2TeS3
_chemical_formula_sum   'K8 Te4 S12'
_cell_volume   811.29242520
_cell_formula_units_Z   4
loop_
 _symmetry_equiv_pos_site_id
 _symmetry_equiv_pos_as_xyz
  1  'x, y, z'
loop_
 _atom_site_type_symbol
 _atom_site_label
 _atom_site_symmetry_multiplicity
 _atom_site_fract_x
 _atom_site_fract_y
 _atom_site_fract_z
 _atom_site_occupancy
  K  K0  1  0.007039  0.112359  0.253097  1
  K  K1  1  0.007039  0.387641  0.753097  1
  K  K2  1  0.992961  0.887641  0.746903  1
  K  K3  1  0.992961  0.612359  0.246903  1
  K  K4  1  0.662918  0.368836  0.415893  1
  K  K5  1  0.337082  0.868836  0.084107  1
  K  K6  1  0.337082  0.631164  0.584107  1
  K  K7  1  0.662918  0.131164  0.915893  1
  Te  Te8  1  0.720685  0.682176  0.919201  1
  Te  Te9  1  0.279315  0.182176  0.580799  1
  Te  Te10  1  0.279315  0.317824  0.080799  1
  Te  Te11  1  0.720685  0.817824  0.419201  1
  S  S12  1  0.072621  0.857447  0.410797  1
  S  S13  1  0.072621  0.642553  0.910797  1
  S  S14  1  0.927379  0.142553  0.589203  1
  S  S15  1  0.927379  0.357447  0.089203  1
  S  S16  1  0.814557  0.663373  0.559379  1
  S  S17  1  0.185443  0.163373  0.940621  1
  S  S18  1  0.185443  0.336627  0.440621  1
  S  S19  1  0.814557  0.836627  0.059379  1
  S  S20  1  0.530119  0.659325  0.282672  1
  S  S21  1  0.469881  0.159325  0.217328  1
  S  S22  1  0.469881  0.340675  0.717328  1
  S  S23  1  0.530119  0.840675  0.782672  1
