# generated using pymatgen
data_TlGeI3
_symmetry_space_group_name_H-M   'P 1'
_cell_length_a   4.45466547
_cell_length_b   10.41024071
_cell_length_c   16.56718102
_cell_angle_alpha   90.00000000
_cell_angle_beta   90.00000000
_cell_angle_gamma   90.00000000
_symmetry_Int_Tables_number   1
_chemical_formula_structural   TlGeI3
_chemical_formula_sum   'Tl4 Ge4 I12'
_cell_volume   768.28876913
_cell_formula_units_Z   4
loop_
 _symmetry_equiv_pos_site_id
 _symmetry_equiv_pos_as_xyz
  1  'x, y, z'
loop_
 _atom_site_type_symbol
 _atom_site_label
 _atom_site_symmetry_multiplicity
 _atom_site_fract_x
 _atom_site_fract_y
 _atom_site_fract_z
 _atom_site_occupancy
  Tl  Tl0  1  0.250000  0.934480  0.326305  1
  Tl  Tl1  1  0.750000  0.065520  0.673695  1
  Tl  Tl2  1  0.250000  0.434480  0.173695  1
  Tl  Tl3  1  0.750000  0.565520  0.826305  1
  Ge  Ge4  1  0.250000  0.664955  0.558063  1
  Ge  Ge5  1  0.750000  0.335045  0.441937  1
  Ge  Ge6  1  0.250000  0.164955  0.941937  1
  Ge  Ge7  1  0.750000  0.835045  0.058063  1
  I  I8  1  0.750000  0.985022  0.888700  1
  I  I9  1  0.250000  0.014978  0.111300  1
  I  I10  1  0.750000  0.485022  0.611300  1
  I  I11  1  0.250000  0.514978  0.388700  1
  I  I12  1  0.750000  0.835185  0.491486  1
  I  I13  1  0.250000  0.164815  0.508514  1
  I  I14  1  0.750000  0.335185  0.008514  1
  I  I15  1  0.250000  0.664815  0.991486  1
  I  I16  1  0.750000  0.706097  0.211670  1
  I  I17  1  0.250000  0.293903  0.788330  1
  I  I18  1  0.750000  0.206097  0.288330  1
  I  I19  1  0.250000  0.793903  0.711670  1
