# generated using pymatgen
data_NbSiPd
_symmetry_space_group_name_H-M   'P 1'
_cell_length_a   3.79767713
_cell_length_b   6.48368330
_cell_length_c   7.49140930
_cell_angle_alpha   90.00000000
_cell_angle_beta   90.00000000
_cell_angle_gamma   90.00000000
_symmetry_Int_Tables_number   1
_chemical_formula_structural   NbSiPd
_chemical_formula_sum   'Nb4 Si4 Pd4'
_cell_volume   184.46049014
_cell_formula_units_Z   4
loop_
 _symmetry_equiv_pos_site_id
 _symmetry_equiv_pos_as_xyz
  1  'x, y, z'
loop_
 _atom_site_type_symbol
 _atom_site_label
 _atom_site_symmetry_multiplicity
 _atom_site_fract_x
 _atom_site_fract_y
 _atom_site_fract_z
 _atom_site_occupancy
  Nb  Nb0  1  0.750000  0.027580  0.834749  1
  Nb  Nb1  1  0.250000  0.472420  0.334749  1
  Nb  Nb2  1  0.750000  0.527580  0.665251  1
  Nb  Nb3  1  0.250000  0.972420  0.165251  1
  Si  Si4  1  0.250000  0.732657  0.870819  1
  Si  Si5  1  0.250000  0.232657  0.629181  1
  Si  Si6  1  0.750000  0.267343  0.129181  1
  Si  Si7  1  0.750000  0.767343  0.370819  1
  Pd  Pd8  1  0.250000  0.351533  0.937557  1
  Pd  Pd9  1  0.250000  0.851533  0.562443  1
  Pd  Pd10  1  0.750000  0.148467  0.437557  1
  Pd  Pd11  1  0.750000  0.648467  0.062443  1
