# generated using pymatgen
data_Sb2XeF14
_symmetry_space_group_name_H-M   'P 1'
_cell_length_a   8.22895747
_cell_length_b   8.49516295
_cell_length_c   9.81400881
_cell_angle_alpha   112.60988607
_cell_angle_beta   89.52802034
_cell_angle_gamma   112.15987600
_symmetry_Int_Tables_number   1
_chemical_formula_structural   Sb2XeF14
_chemical_formula_sum   'Sb4 Xe2 F28'
_cell_volume   578.99754123
_cell_formula_units_Z   2
loop_
 _symmetry_equiv_pos_site_id
 _symmetry_equiv_pos_as_xyz
  1  'x, y, z'
loop_
 _atom_site_type_symbol
 _atom_site_label
 _atom_site_symmetry_multiplicity
 _atom_site_fract_x
 _atom_site_fract_y
 _atom_site_fract_z
 _atom_site_occupancy
  Sb  Sb0  1  0.205784  0.359983  0.770736  1
  Sb  Sb1  1  0.794216  0.640017  0.229264  1
  Sb  Sb2  1  0.508976  0.126363  0.708431  1
  Sb  Sb3  1  0.491024  0.873637  0.291569  1
  Xe  Xe4  1  0.192335  0.294422  0.258859  1
  Xe  Xe5  1  0.807665  0.705578  0.741141  1
  F  F6  1  0.122175  0.376291  0.571607  1
  F  F7  1  0.877825  0.623709  0.428393  1
  F  F8  1  0.410525  0.562919  0.705653  1
  F  F9  1  0.589475  0.437081  0.294347  1
  F  F10  1  0.345251  0.889285  0.764315  1
  F  F11  1  0.654749  0.110715  0.235685  1
  F  F12  1  0.648814  0.805951  0.216849  1
  F  F13  1  0.351186  0.194049  0.783151  1
  F  F14  1  0.651023  0.803769  0.485777  1
  F  F15  1  0.348977  0.196231  0.514223  1
  F  F16  1  0.364014  0.618542  0.360713  1
  F  F17  1  0.635986  0.381458  0.639287  1
  F  F18  1  0.682865  0.681190  0.027827  1
  F  F19  1  0.317135  0.318810  0.972173  1
  F  F20  1  0.350846  0.921842  0.100487  1
  F  F21  1  0.649154  0.078158  0.899513  1
  F  F22  1  0.975597  0.862631  0.160785  1
  F  F23  1  0.024403  0.137369  0.839215  1
  F  F24  1  0.921707  0.487012  0.241213  1
  F  F25  1  0.078293  0.512988  0.758787  1
  F  F26  1  0.355445  0.938094  0.369613  1
  F  F27  1  0.644555  0.061906  0.630387  1
  F  F28  1  0.004624  0.722869  0.905663  1
  F  F29  1  0.995376  0.277131  0.094337  1
  F  F30  1  0.957326  0.957283  0.633261  1
  F  F31  1  0.042674  0.042717  0.366739  1
  F  F32  1  0.719057  0.456324  0.897723  1
  F  F33  1  0.280943  0.543676  0.102277  1
