# generated using pymatgen
data_ZrMnSi
_symmetry_space_group_name_H-M   'P 1'
_cell_length_a   3.70211143
_cell_length_b   6.59407100
_cell_length_c   7.64770836
_cell_angle_alpha   90.00000000
_cell_angle_beta   90.00000000
_cell_angle_gamma   90.00000000
_symmetry_Int_Tables_number   1
_chemical_formula_structural   ZrMnSi
_chemical_formula_sum   'Zr4 Mn4 Si4'
_cell_volume   186.69574651
_cell_formula_units_Z   4
loop_
 _symmetry_equiv_pos_site_id
 _symmetry_equiv_pos_as_xyz
  1  'x, y, z'
loop_
 _atom_site_type_symbol
 _atom_site_label
 _atom_site_symmetry_multiplicity
 _atom_site_fract_x
 _atom_site_fract_y
 _atom_site_fract_z
 _atom_site_occupancy
  Zr  Zr0  1  0.250000  0.526203  0.680114  1
  Zr  Zr1  1  0.250000  0.026203  0.819886  1
  Zr  Zr2  1  0.750000  0.973797  0.180114  1
  Zr  Zr3  1  0.750000  0.473797  0.319886  1
  Mn  Mn4  1  0.750000  0.361089  0.935178  1
  Mn  Mn5  1  0.250000  0.138911  0.435178  1
  Mn  Mn6  1  0.750000  0.861089  0.564822  1
  Mn  Mn7  1  0.250000  0.638911  0.064822  1
  Si  Si8  1  0.250000  0.273710  0.121338  1
  Si  Si9  1  0.250000  0.773710  0.378662  1
  Si  Si10  1  0.750000  0.726290  0.878662  1
  Si  Si11  1  0.750000  0.226290  0.621338  1
