# generated using pymatgen
data_ThTa2O7
_symmetry_space_group_name_H-M   'P 1'
_cell_length_a   8.05553903
_cell_length_b   8.05553903
_cell_length_c   8.41860600
_cell_angle_alpha   84.31346697
_cell_angle_beta   95.68653303
_cell_angle_gamma   151.87126920
_symmetry_Int_Tables_number   1
_chemical_formula_structural   ThTa2O7
_chemical_formula_sum   'Th2 Ta4 O14'
_cell_volume   256.20712950
_cell_formula_units_Z   2
loop_
 _symmetry_equiv_pos_site_id
 _symmetry_equiv_pos_as_xyz
  1  'x, y, z'
loop_
 _atom_site_type_symbol
 _atom_site_label
 _atom_site_symmetry_multiplicity
 _atom_site_fract_x
 _atom_site_fract_y
 _atom_site_fract_z
 _atom_site_occupancy
  Th  Th0  1  0.311773  0.688227  0.333491  1
  Th  Th1  1  0.688227  0.311773  0.666509  1
  Ta  Ta2  1  0.108150  0.891850  0.980190  1
  Ta  Ta3  1  0.891850  0.108150  0.019810  1
  Ta  Ta4  1  0.071290  0.928710  0.366990  1
  Ta  Ta5  1  0.928710  0.071290  0.633010  1
  O  O6  1  0.012586  0.987414  0.141416  1
  O  O7  1  0.987414  0.012586  0.858584  1
  O  O8  1  0.056369  0.943631  0.607964  1
  O  O9  1  0.943631  0.056369  0.392036  1
  O  O10  1  0.392463  0.607537  0.064177  1
  O  O11  1  0.607537  0.392463  0.935823  1
  O  O12  1  0.586078  0.413922  0.389309  1
  O  O13  1  0.413922  0.586078  0.610691  1
  O  O14  1  0.804700  0.195300  0.502231  1
  O  O15  1  0.195300  0.804700  0.497769  1
  O  O16  1  0.804193  0.195807  0.168216  1
  O  O17  1  0.195807  0.804193  0.831784  1
  O  O18  1  0.831990  0.168010  0.807626  1
  O  O19  1  0.168010  0.831990  0.192374  1
