# generated using pymatgen
data_Rb2CoI4
_symmetry_space_group_name_H-M   'P 1'
_cell_length_a   7.82300625
_cell_length_b   8.26010876
_cell_length_c   10.55108771
_cell_angle_alpha   90.00000000
_cell_angle_beta   109.39559147
_cell_angle_gamma   90.00000000
_symmetry_Int_Tables_number   1
_chemical_formula_structural   Rb2CoI4
_chemical_formula_sum   'Rb4 Co2 I8'
_cell_volume   643.10615634
_cell_formula_units_Z   2
loop_
 _symmetry_equiv_pos_site_id
 _symmetry_equiv_pos_as_xyz
  1  'x, y, z'
loop_
 _atom_site_type_symbol
 _atom_site_label
 _atom_site_symmetry_multiplicity
 _atom_site_fract_x
 _atom_site_fract_y
 _atom_site_fract_z
 _atom_site_occupancy
  Rb  Rb0  1  0.699938  0.250000  0.037534  1
  Rb  Rb1  1  0.300062  0.750000  0.962466  1
  Rb  Rb2  1  0.203154  0.750000  0.414463  1
  Rb  Rb3  1  0.796846  0.250000  0.585537  1
  Co  Co4  1  0.696510  0.750000  0.785588  1
  Co  Co5  1  0.303490  0.250000  0.214412  1
  I  I6  1  0.140192  0.250000  0.956421  1
  I  I7  1  0.859808  0.750000  0.043579  1
  I  I8  1  0.086534  0.250000  0.353384  1
  I  I9  1  0.913466  0.750000  0.646616  1
  I  I10  1  0.514604  0.001039  0.276775  1
  I  I11  1  0.485396  0.501039  0.723225  1
  I  I12  1  0.485396  0.998961  0.723225  1
  I  I13  1  0.514604  0.498961  0.276775  1
