# generated using pymatgen
data_CaPH3O4
_symmetry_space_group_name_H-M   'P 1'
_cell_length_a   7.74876171
_cell_length_b   6.79294674
_cell_length_c   7.97936917
_cell_angle_alpha   90.00000000
_cell_angle_beta   110.12190337
_cell_angle_gamma   90.00000000
_symmetry_Int_Tables_number   1
_chemical_formula_structural   CaPH3O4
_chemical_formula_sum   'Ca4 P4 H12 O16'
_cell_volume   394.37326298
_cell_formula_units_Z   4
loop_
 _symmetry_equiv_pos_site_id
 _symmetry_equiv_pos_as_xyz
  1  'x, y, z'
loop_
 _atom_site_type_symbol
 _atom_site_label
 _atom_site_symmetry_multiplicity
 _atom_site_fract_x
 _atom_site_fract_y
 _atom_site_fract_z
 _atom_site_occupancy
  Ca  Ca0  1  0.389765  0.871560  0.648105  1
  Ca  Ca1  1  0.610235  0.371560  0.851895  1
  Ca  Ca2  1  0.610235  0.128440  0.351895  1
  Ca  Ca3  1  0.389765  0.628440  0.148105  1
  P  P4  1  0.724159  0.866295  0.010984  1
  P  P5  1  0.275841  0.366295  0.489016  1
  P  P6  1  0.275841  0.133705  0.989016  1
  P  P7  1  0.724159  0.633705  0.510984  1
  H  H8  1  0.187135  0.945679  0.277657  1
  H  H9  1  0.812865  0.445679  0.222343  1
  H  H10  1  0.812865  0.054321  0.722343  1
  H  H11  1  0.187135  0.554321  0.777657  1
  H  H12  1  0.003475  0.918877  0.320708  1
  H  H13  1  0.996525  0.418877  0.179292  1
  H  H14  1  0.996525  0.081123  0.679292  1
  H  H15  1  0.003475  0.581123  0.820708  1
  H  H16  1  0.114095  0.226304  0.990754  1
  H  H17  1  0.885905  0.726304  0.509246  1
  H  H18  1  0.885905  0.773696  0.009246  1
  H  H19  1  0.114095  0.273696  0.490754  1
  O  O20  1  0.139202  0.904780  0.372493  1
  O  O21  1  0.567237  0.789540  0.458154  1
  O  O22  1  0.432763  0.210460  0.541846  1
  O  O23  1  0.567237  0.710460  0.958154  1
  O  O24  1  0.675551  0.475573  0.361480  1
  O  O25  1  0.324449  0.975573  0.138520  1
  O  O26  1  0.324449  0.524427  0.638520  1
  O  O27  1  0.675551  0.024427  0.861480  1
  O  O28  1  0.765509  0.552346  0.699624  1
  O  O29  1  0.234491  0.052346  0.800376  1
  O  O30  1  0.234491  0.447654  0.300376  1
  O  O31  1  0.765509  0.947654  0.199624  1
  O  O32  1  0.860798  0.095220  0.627507  1
  O  O33  1  0.139202  0.595220  0.872493  1
  O  O34  1  0.432763  0.289540  0.041846  1
  O  O35  1  0.860798  0.404780  0.127507  1
