# generated using pymatgen
data_Na3(GePt)4
_symmetry_space_group_name_H-M   'P 1'
_cell_length_a   6.68903987
_cell_length_b   6.68903987
_cell_length_c   6.68903987
_cell_angle_alpha   109.47122063
_cell_angle_beta   109.47122063
_cell_angle_gamma   109.47122063
_symmetry_Int_Tables_number   1
_chemical_formula_structural   Na3(GePt)4
_chemical_formula_sum   'Na3 Ge4 Pt4'
_cell_volume   230.39309704
_cell_formula_units_Z   1
loop_
 _symmetry_equiv_pos_site_id
 _symmetry_equiv_pos_as_xyz
  1  'x, y, z'
loop_
 _atom_site_type_symbol
 _atom_site_label
 _atom_site_symmetry_multiplicity
 _atom_site_fract_x
 _atom_site_fract_y
 _atom_site_fract_z
 _atom_site_occupancy
  Na  Na0  1  0.000000  0.500000  0.500000  1
  Na  Na1  1  0.500000  0.000000  0.500000  1
  Na  Na2  1  0.500000  0.500000  0.000000  1
  Ge  Ge3  1  1.000000  0.367036  0.000000  1
  Ge  Ge4  1  0.367036  0.000000  0.000000  1
  Ge  Ge5  1  1.000000  0.000000  0.367036  1
  Ge  Ge6  1  0.632964  0.632964  0.632964  1
  Pt  Pt7  1  1.000000  0.000000  0.722328  1
  Pt  Pt8  1  0.722328  0.000000  0.000000  1
  Pt  Pt9  1  0.277672  0.277672  0.277672  1
  Pt  Pt10  1  1.000000  0.722328  0.000000  1
