# generated using pymatgen
data_ThHg2
_symmetry_space_group_name_H-M   'P 1'
_cell_length_a   4.93033028
_cell_length_b   4.93033028
_cell_length_c   7.52155834
_cell_angle_alpha   90.00000000
_cell_angle_beta   90.00000000
_cell_angle_gamma   120.00000000
_symmetry_Int_Tables_number   1
_chemical_formula_structural   ThHg2
_chemical_formula_sum   'Th2 Hg4'
_cell_volume   158.33994391
_cell_formula_units_Z   2
loop_
 _symmetry_equiv_pos_site_id
 _symmetry_equiv_pos_as_xyz
  1  'x, y, z'
loop_
 _atom_site_type_symbol
 _atom_site_label
 _atom_site_symmetry_multiplicity
 _atom_site_fract_x
 _atom_site_fract_y
 _atom_site_fract_z
 _atom_site_occupancy
  Th  Th0  1  0.000000  0.000000  0.250000  1
  Th  Th1  1  0.000000  0.000000  0.750000  1
  Hg  Hg2  1  0.333333  0.666667  0.041552  1
  Hg  Hg3  1  0.666667  0.333333  0.541552  1
  Hg  Hg4  1  0.666667  0.333333  0.958448  1
  Hg  Hg5  1  0.333333  0.666667  0.458448  1
