# generated using pymatgen
data_AgN3
_symmetry_space_group_name_H-M   'P 1'
_cell_length_a   5.35029713
_cell_length_b   5.35029713
_cell_length_c   5.35029713
_cell_angle_alpha   119.21893736
_cell_angle_beta   106.99455312
_cell_angle_gamma   102.68384046
_symmetry_Int_Tables_number   1
_chemical_formula_structural   AgN3
_chemical_formula_sum   'Ag2 N6'
_cell_volume   115.16433803
_cell_formula_units_Z   2
loop_
 _symmetry_equiv_pos_site_id
 _symmetry_equiv_pos_as_xyz
  1  'x, y, z'
loop_
 _atom_site_type_symbol
 _atom_site_label
 _atom_site_symmetry_multiplicity
 _atom_site_fract_x
 _atom_site_fract_y
 _atom_site_fract_z
 _atom_site_occupancy
  Ag  Ag0  1  0.750000  0.500000  0.250000  1
  Ag  Ag1  1  0.250000  0.500000  0.750000  1
  N  N2  1  0.593416  0.280294  0.686879  1
  N  N3  1  0.906584  0.093463  0.186879  1
  N  N4  1  0.500000  0.000000  0.500000  1
  N  N5  1  0.000000  0.000000  0.000000  1
  N  N6  1  0.406584  0.719706  0.313121  1
  N  N7  1  0.093416  0.906537  0.813121  1
