# generated using pymatgen
data_LaSi2Ru
_symmetry_space_group_name_H-M   'P 1'
_cell_length_a   4.56491371
_cell_length_b   4.11216815
_cell_length_c   8.41499845
_cell_angle_alpha   90.00000000
_cell_angle_beta   102.32879988
_cell_angle_gamma   90.00000000
_symmetry_Int_Tables_number   1
_chemical_formula_structural   LaSi2Ru
_chemical_formula_sum   'La2 Si4 Ru2'
_cell_volume   154.32086379
_cell_formula_units_Z   2
loop_
 _symmetry_equiv_pos_site_id
 _symmetry_equiv_pos_as_xyz
  1  'x, y, z'
loop_
 _atom_site_type_symbol
 _atom_site_label
 _atom_site_symmetry_multiplicity
 _atom_site_fract_x
 _atom_site_fract_y
 _atom_site_fract_z
 _atom_site_occupancy
  La  La0  1  0.912271  0.250000  0.799371  1
  La  La1  1  0.087729  0.750000  0.200629  1
  Si  Si2  1  0.169084  0.250000  0.491605  1
  Si  Si3  1  0.830916  0.750000  0.508395  1
  Si  Si4  1  0.462280  0.750000  0.908990  1
  Si  Si5  1  0.537720  0.250000  0.091010  1
  Ru  Ru6  1  0.378627  0.750000  0.611218  1
  Ru  Ru7  1  0.621373  0.250000  0.388782  1
