# generated using pymatgen
data_CaNiN
_symmetry_space_group_name_H-M   'P 1'
_cell_length_a   3.55814881
_cell_length_b   3.55814881
_cell_length_c   7.06902361
_cell_angle_alpha   90.00000000
_cell_angle_beta   90.00000000
_cell_angle_gamma   90.00000000
_symmetry_Int_Tables_number   1
_chemical_formula_structural   CaNiN
_chemical_formula_sum   'Ca2 Ni2 N2'
_cell_volume   89.49682878
_cell_formula_units_Z   2
loop_
 _symmetry_equiv_pos_site_id
 _symmetry_equiv_pos_as_xyz
  1  'x, y, z'
loop_
 _atom_site_type_symbol
 _atom_site_label
 _atom_site_symmetry_multiplicity
 _atom_site_fract_x
 _atom_site_fract_y
 _atom_site_fract_z
 _atom_site_occupancy
  Ca  Ca0  1  0.000000  0.000000  0.750000  1
  Ca  Ca1  1  0.000000  0.000000  0.250000  1
  Ni  Ni2  1  0.500000  0.500000  0.000000  1
  Ni  Ni3  1  0.500000  0.500000  0.500000  1
  N  N4  1  0.500000  0.000000  0.500000  1
  N  N5  1  0.000000  0.500000  0.000000  1
