# generated using pymatgen
data_Nd2NCl3
_symmetry_space_group_name_H-M   'P 1'
_cell_length_a   6.29308475
_cell_length_b   6.91205574
_cell_length_c   13.55417966
_cell_angle_alpha   90.00000000
_cell_angle_beta   90.00000000
_cell_angle_gamma   90.00000000
_symmetry_Int_Tables_number   1
_chemical_formula_structural   Nd2NCl3
_chemical_formula_sum   'Nd8 N4 Cl12'
_cell_volume   589.58177479
_cell_formula_units_Z   4
loop_
 _symmetry_equiv_pos_site_id
 _symmetry_equiv_pos_as_xyz
  1  'x, y, z'
loop_
 _atom_site_type_symbol
 _atom_site_label
 _atom_site_symmetry_multiplicity
 _atom_site_fract_x
 _atom_site_fract_y
 _atom_site_fract_z
 _atom_site_occupancy
  Nd  Nd0  1  0.006461  0.325161  0.407888  1
  Nd  Nd1  1  0.506461  0.174839  0.092112  1
  Nd  Nd2  1  0.493539  0.325161  0.592112  1
  Nd  Nd3  1  0.993539  0.174839  0.907888  1
  Nd  Nd4  1  0.993539  0.674839  0.592112  1
  Nd  Nd5  1  0.493539  0.825161  0.907888  1
  Nd  Nd6  1  0.506461  0.674839  0.407888  1
  Nd  Nd7  1  0.006461  0.825161  0.092112  1
  N  N8  1  0.750000  0.492443  0.500000  1
  N  N9  1  0.250000  0.007557  0.000000  1
  N  N10  1  0.250000  0.507557  0.500000  1
  N  N11  1  0.750000  0.992443  0.000000  1
  Cl  Cl12  1  0.103653  0.361605  0.717880  1
  Cl  Cl13  1  0.603653  0.138395  0.782120  1
  Cl  Cl14  1  0.396347  0.361605  0.282120  1
  Cl  Cl15  1  0.896347  0.138395  0.217880  1
  Cl  Cl16  1  0.750000  0.501503  0.000000  1
  Cl  Cl17  1  0.250000  0.998497  0.500000  1
  Cl  Cl18  1  0.250000  0.498497  0.000000  1
  Cl  Cl19  1  0.750000  0.001503  0.500000  1
  Cl  Cl20  1  0.103653  0.861605  0.782120  1
  Cl  Cl21  1  0.603653  0.638395  0.717880  1
  Cl  Cl22  1  0.396347  0.861605  0.217880  1
  Cl  Cl23  1  0.896347  0.638395  0.282120  1
