# generated using pymatgen
data_Li3Ag2Ge3
_symmetry_space_group_name_H-M   'P 1'
_cell_length_a   6.43866410
_cell_length_b   6.43866410
_cell_length_c   6.43866410
_cell_angle_alpha   90.00000000
_cell_angle_beta   90.00000000
_cell_angle_gamma   90.00000000
_symmetry_Int_Tables_number   1
_chemical_formula_structural   Li3Ag2Ge3
_chemical_formula_sum   'Li6 Ag4 Ge6'
_cell_volume   266.92380473
_cell_formula_units_Z   2
loop_
 _symmetry_equiv_pos_site_id
 _symmetry_equiv_pos_as_xyz
  1  'x, y, z'
loop_
 _atom_site_type_symbol
 _atom_site_label
 _atom_site_symmetry_multiplicity
 _atom_site_fract_x
 _atom_site_fract_y
 _atom_site_fract_z
 _atom_site_occupancy
  Li  Li0  1  0.500000  0.500000  0.500000  1
  Li  Li1  1  0.000000  0.000000  0.000000  1
  Li  Li2  1  0.250000  0.750000  0.750000  1
  Li  Li3  1  0.750000  0.750000  0.250000  1
  Li  Li4  1  0.750000  0.250000  0.750000  1
  Li  Li5  1  0.250000  0.250000  0.250000  1
  Ag  Ag6  1  0.250000  0.750000  0.250000  1
  Ag  Ag7  1  0.750000  0.750000  0.750000  1
  Ag  Ag8  1  0.250000  0.250000  0.750000  1
  Ag  Ag9  1  0.750000  0.250000  0.250000  1
  Ge  Ge10  1  0.500000  0.000000  0.000000  1
  Ge  Ge11  1  0.500000  0.000000  0.500000  1
  Ge  Ge12  1  0.500000  0.500000  0.000000  1
  Ge  Ge13  1  0.000000  0.000000  0.500000  1
  Ge  Ge14  1  0.000000  0.500000  0.500000  1
  Ge  Ge15  1  0.000000  0.500000  0.000000  1
