# generated using pymatgen
data_RbVP2O7
_symmetry_space_group_name_H-M   'P 1'
_cell_length_a   7.65449043
_cell_length_b   10.23194012
_cell_length_c   8.40523438
_cell_angle_alpha   90.00000000
_cell_angle_beta   105.94166533
_cell_angle_gamma   90.00000000
_symmetry_Int_Tables_number   1
_chemical_formula_structural   RbVP2O7
_chemical_formula_sum   'Rb4 V4 P8 O28'
_cell_volume   632.98334978
_cell_formula_units_Z   4
loop_
 _symmetry_equiv_pos_site_id
 _symmetry_equiv_pos_as_xyz
  1  'x, y, z'
loop_
 _atom_site_type_symbol
 _atom_site_label
 _atom_site_symmetry_multiplicity
 _atom_site_fract_x
 _atom_site_fract_y
 _atom_site_fract_z
 _atom_site_occupancy
  Rb  Rb0  1  0.687472  0.684571  0.552343  1
  Rb  Rb1  1  0.312528  0.184571  0.947657  1
  Rb  Rb2  1  0.312528  0.315429  0.447657  1
  Rb  Rb3  1  0.687472  0.815429  0.052343  1
  V  V4  1  0.261479  0.601484  0.740748  1
  V  V5  1  0.738521  0.101484  0.759252  1
  V  V6  1  0.738521  0.398516  0.259252  1
  V  V7  1  0.261479  0.898516  0.240748  1
  P  P8  1  0.064883  0.867741  0.812466  1
  P  P9  1  0.935117  0.367741  0.687534  1
  P  P10  1  0.935117  0.132259  0.187534  1
  P  P11  1  0.064883  0.632259  0.312466  1
  P  P12  1  0.368079  0.902844  0.670170  1
  P  P13  1  0.631921  0.402844  0.829830  1
  P  P14  1  0.631921  0.097156  0.329830  1
  P  P15  1  0.368079  0.597156  0.170170  1
  O  O16  1  0.172595  0.944100  0.696307  1
  O  O17  1  0.827405  0.444100  0.803693  1
  O  O18  1  0.827405  0.055900  0.303693  1
  O  O19  1  0.172595  0.555900  0.196307  1
  O  O20  1  0.125929  0.427000  0.733681  1
  O  O21  1  0.874071  0.927000  0.766319  1
  O  O22  1  0.874071  0.573000  0.266319  1
  O  O23  1  0.125929  0.073000  0.233681  1
  O  O24  1  0.493566  0.498174  0.725433  1
  O  O25  1  0.506434  0.998174  0.774567  1
  O  O26  1  0.506434  0.501826  0.274567  1
  O  O27  1  0.493566  0.001826  0.225433  1
  O  O28  1  0.413043  0.762999  0.738694  1
  O  O29  1  0.586957  0.262999  0.761306  1
  O  O30  1  0.586957  0.237001  0.261306  1
  O  O31  1  0.413043  0.737001  0.238694  1
  O  O32  1  0.053007  0.776701  0.262129  1
  O  O33  1  0.946993  0.276701  0.237871  1
  O  O34  1  0.946993  0.223299  0.737871  1
  O  O35  1  0.053007  0.723299  0.762129  1
  O  O36  1  0.348272  0.588550  0.986579  1
  O  O37  1  0.651728  0.088550  0.513421  1
  O  O38  1  0.651728  0.411450  0.013421  1
  O  O39  1  0.348272  0.911450  0.486579  1
  O  O40  1  0.174484  0.896587  0.989912  1
  O  O41  1  0.825516  0.396587  0.510088  1
  O  O42  1  0.825516  0.103413  0.010088  1
  O  O43  1  0.174484  0.603413  0.489912  1
