# generated using pymatgen
data_CsV3(SeO6)2
_symmetry_space_group_name_H-M   'P 1'
_cell_length_a   7.19180411
_cell_length_b   7.19180411
_cell_length_c   12.29113497
_cell_angle_alpha   90.00000000
_cell_angle_beta   90.00000000
_cell_angle_gamma   120.00000000
_symmetry_Int_Tables_number   1
_chemical_formula_structural   CsV3(SeO6)2
_chemical_formula_sum   'Cs2 V6 Se4 O24'
_cell_volume   550.55196654
_cell_formula_units_Z   2
loop_
 _symmetry_equiv_pos_site_id
 _symmetry_equiv_pos_as_xyz
  1  'x, y, z'
loop_
 _atom_site_type_symbol
 _atom_site_label
 _atom_site_symmetry_multiplicity
 _atom_site_fract_x
 _atom_site_fract_y
 _atom_site_fract_z
 _atom_site_occupancy
  Cs  Cs0  1  0.666667  0.333333  0.472073  1
  Cs  Cs1  1  0.333333  0.666667  0.972073  1
  V  V2  1  0.873239  0.667161  0.794280  1
  V  V3  1  0.793923  0.126761  0.794280  1
  V  V4  1  0.667161  0.793923  0.294280  1
  V  V5  1  0.126761  0.332839  0.294280  1
  V  V6  1  0.332839  0.206077  0.794280  1
  V  V7  1  0.206077  0.873239  0.294280  1
  Se  Se8  1  0.000000  0.000000  0.582770  1
  Se  Se9  1  0.666667  0.333333  0.008808  1
  Se  Se10  1  0.333333  0.666667  0.508808  1
  Se  Se11  1  0.000000  0.000000  0.082770  1
  O  O12  1  0.249431  0.123404  0.323366  1
  O  O13  1  0.126027  0.249431  0.823366  1
  O  O14  1  0.123404  0.873973  0.823366  1
  O  O15  1  0.876596  0.126027  0.323366  1
  O  O16  1  0.873973  0.750569  0.323366  1
  O  O17  1  0.750569  0.876596  0.823366  1
  O  O18  1  0.457350  0.916407  0.270435  1
  O  O19  1  0.540943  0.457350  0.770435  1
  O  O20  1  0.916407  0.459057  0.770435  1
  O  O21  1  0.083593  0.540943  0.270435  1
  O  O22  1  0.459057  0.542650  0.270435  1
  O  O23  1  0.542650  0.083593  0.770435  1
  O  O24  1  0.798864  0.211733  0.950635  1
  O  O25  1  0.587131  0.798864  0.450635  1
  O  O26  1  0.211733  0.412869  0.450635  1
  O  O27  1  0.788267  0.587131  0.950635  1
  O  O28  1  0.412869  0.201136  0.950635  1
  O  O29  1  0.201136  0.788267  0.450635  1
  O  O30  1  0.878351  0.131648  0.642595  1
  O  O31  1  0.746703  0.878351  0.142595  1
  O  O32  1  0.131648  0.253297  0.142595  1
  O  O33  1  0.868352  0.746703  0.642595  1
  O  O34  1  0.253297  0.121649  0.642595  1
  O  O35  1  0.121649  0.868352  0.142595  1
