# generated using pymatgen
data_Na3TiP3NO9
_symmetry_space_group_name_H-M   'P 1'
_cell_length_a   9.62969704
_cell_length_b   9.62969704
_cell_length_c   9.62969704
_cell_angle_alpha   90.00000000
_cell_angle_beta   90.00000000
_cell_angle_gamma   90.00000000
_symmetry_Int_Tables_number   1
_chemical_formula_structural   Na3TiP3NO9
_chemical_formula_sum   'Na12 Ti4 P12 N4 O36'
_cell_volume   892.97206294
_cell_formula_units_Z   4
loop_
 _symmetry_equiv_pos_site_id
 _symmetry_equiv_pos_as_xyz
  1  'x, y, z'
loop_
 _atom_site_type_symbol
 _atom_site_label
 _atom_site_symmetry_multiplicity
 _atom_site_fract_x
 _atom_site_fract_y
 _atom_site_fract_z
 _atom_site_occupancy
  Na  Na0  1  0.741312  0.741312  0.741312  1
  Na  Na1  1  0.642429  0.857571  0.142429  1
  Na  Na2  1  0.357571  0.357571  0.357571  1
  Na  Na3  1  0.944421  0.944421  0.944421  1
  Na  Na4  1  0.555579  0.055579  0.444421  1
  Na  Na5  1  0.444421  0.555579  0.055579  1
  Na  Na6  1  0.055579  0.444421  0.555579  1
  Na  Na7  1  0.258688  0.241312  0.758688  1
  Na  Na8  1  0.142429  0.642429  0.857571  1
  Na  Na9  1  0.241312  0.758688  0.258688  1
  Na  Na10  1  0.758688  0.258688  0.241312  1
  Na  Na11  1  0.857571  0.142429  0.642429  1
  Ti  Ti12  1  0.331177  0.831177  0.668823  1
  Ti  Ti13  1  0.831177  0.668823  0.331177  1
  Ti  Ti14  1  0.168823  0.168823  0.168823  1
  Ti  Ti15  1  0.668823  0.331177  0.831177  1
  P  P16  1  0.583006  0.004031  0.836356  1
  P  P17  1  0.836356  0.583006  0.004031  1
  P  P18  1  0.663644  0.416994  0.504031  1
  P  P19  1  0.083006  0.495969  0.163644  1
  P  P20  1  0.163644  0.083006  0.495969  1
  P  P21  1  0.916994  0.995969  0.336356  1
  P  P22  1  0.416994  0.504031  0.663644  1
  P  P23  1  0.336356  0.916994  0.995969  1
  P  P24  1  0.504031  0.663644  0.416994  1
  P  P25  1  0.995969  0.336356  0.916994  1
  P  P26  1  0.004031  0.836356  0.583006  1
  P  P27  1  0.495969  0.163644  0.083006  1
  N  N28  1  0.050726  0.949274  0.449274  1
  N  N29  1  0.550726  0.550726  0.550726  1
  N  N30  1  0.949274  0.449274  0.050726  1
  N  N31  1  0.449274  0.050726  0.949274  1
  O  O32  1  0.124315  0.363107  0.242765  1
  O  O33  1  0.800035  0.062312  0.418364  1
  O  O34  1  0.081636  0.199965  0.562312  1
  O  O35  1  0.199965  0.562312  0.081636  1
  O  O36  1  0.581636  0.300035  0.437688  1
  O  O37  1  0.918364  0.699965  0.937688  1
  O  O38  1  0.699965  0.937688  0.918364  1
  O  O39  1  0.937688  0.918364  0.699965  1
  O  O40  1  0.363107  0.242765  0.124315  1
  O  O41  1  0.863107  0.257235  0.875685  1
  O  O42  1  0.636893  0.742765  0.375685  1
  O  O43  1  0.257235  0.875685  0.863107  1
  O  O44  1  0.478033  0.400803  0.770665  1
  O  O45  1  0.875685  0.863107  0.257235  1
  O  O46  1  0.242765  0.124315  0.363107  1
  O  O47  1  0.300035  0.437688  0.581636  1
  O  O48  1  0.742765  0.375685  0.636893  1
  O  O49  1  0.757235  0.624315  0.136893  1
  O  O50  1  0.624315  0.136893  0.757235  1
  O  O51  1  0.136893  0.757235  0.624315  1
  O  O52  1  0.599197  0.270665  0.021967  1
  O  O53  1  0.099197  0.229335  0.978033  1
  O  O54  1  0.400803  0.770665  0.478033  1
  O  O55  1  0.229335  0.978033  0.099197  1
  O  O56  1  0.562312  0.081636  0.199965  1
  O  O57  1  0.418364  0.800035  0.062312  1
  O  O58  1  0.437688  0.581636  0.300035  1
  O  O59  1  0.062312  0.418364  0.800035  1
  O  O60  1  0.900803  0.729335  0.521967  1
  O  O61  1  0.521967  0.900803  0.729335  1
  O  O62  1  0.729335  0.521967  0.900803  1
  O  O63  1  0.770665  0.478033  0.400803  1
  O  O64  1  0.021967  0.599197  0.270665  1
  O  O65  1  0.270665  0.021967  0.599197  1
  O  O66  1  0.978033  0.099197  0.229335  1
  O  O67  1  0.375685  0.636893  0.742765  1
