# generated using pymatgen
data_PH5NO3F
_symmetry_space_group_name_H-M   'P 1'
_cell_length_a   7.54341168
_cell_length_b   7.55254853
_cell_length_c   7.92849124
_cell_angle_alpha   83.25173822
_cell_angle_beta   83.93985331
_cell_angle_gamma   70.05154605
_symmetry_Int_Tables_number   1
_chemical_formula_structural   PH5NO3F
_chemical_formula_sum   'P4 H20 N4 O12 F4'
_cell_volume   420.61940640
_cell_formula_units_Z   4
loop_
 _symmetry_equiv_pos_site_id
 _symmetry_equiv_pos_as_xyz
  1  'x, y, z'
loop_
 _atom_site_type_symbol
 _atom_site_label
 _atom_site_symmetry_multiplicity
 _atom_site_fract_x
 _atom_site_fract_y
 _atom_site_fract_z
 _atom_site_occupancy
  P  P0  1  0.738523  0.738787  0.598008  1
  P  P1  1  0.261477  0.261213  0.401992  1
  P  P2  1  0.715659  0.234657  0.950291  1
  P  P3  1  0.284341  0.765343  0.049709  1
  H  H4  1  0.195975  0.752757  0.727890  1
  H  H5  1  0.804025  0.247243  0.272110  1
  H  H6  1  0.127100  0.768244  0.528191  1
  H  H7  1  0.872900  0.231756  0.471809  1
  H  H8  1  0.199228  0.941004  0.585571  1
  H  H9  1  0.800772  0.058996  0.414429  1
  H  H10  1  0.358776  0.721581  0.560532  1
  H  H11  1  0.641224  0.278419  0.439468  1
  H  H12  1  0.772489  0.594873  0.097011  1
  H  H13  1  0.227511  0.405127  0.902989  1
  H  H14  1  0.940970  0.697972  0.047365  1
  H  H15  1  0.059030  0.302028  0.952635  1
  H  H16  1  0.710713  0.835798  0.065545  1
  H  H17  1  0.289287  0.164202  0.934455  1
  H  H18  1  0.819966  0.724174  0.240125  1
  H  H19  1  0.180034  0.275826  0.759875  1
  H  H20  1  0.518051  0.891943  0.790409  1
  H  H21  1  0.481949  0.108057  0.209591  1
  H  H22  1  0.620326  0.457309  0.725501  1
  H  H23  1  0.379674  0.542691  0.274499  1
  N  N24  1  0.190335  0.288312  0.887879  1
  N  N25  1  0.809665  0.711688  0.112121  1
  N  N26  1  0.779932  0.204325  0.400456  1
  N  N27  1  0.220068  0.795675  0.599544  1
  O  O28  1  0.580761  0.364550  0.815015  1
  O  O29  1  0.184133  0.667232  0.956659  1
  O  O30  1  0.605154  0.915702  0.687303  1
  O  O31  1  0.394846  0.084298  0.312697  1
  O  O32  1  0.642232  0.597616  0.576151  1
  O  O33  1  0.357768  0.402384  0.423849  1
  O  O34  1  0.847575  0.803112  0.446739  1
  O  O35  1  0.152425  0.196888  0.553261  1
  O  O36  1  0.815867  0.332768  0.043341  1
  O  O37  1  0.385208  0.885600  0.943750  1
  O  O38  1  0.419239  0.635450  0.184985  1
  O  O39  1  0.614792  0.114400  0.056250  1
  F  F40  1  0.891755  0.633975  0.735968  1
  F  F41  1  0.120702  0.907009  0.163733  1
  F  F42  1  0.879298  0.092991  0.836267  1
  F  F43  1  0.108245  0.366025  0.264032  1
