# generated using pymatgen
data_Hg4As2Br3
_symmetry_space_group_name_H-M   'P 1'
_cell_length_a   13.02890005
_cell_length_b   13.02890005
_cell_length_c   13.02890005
_cell_angle_alpha   90.00000000
_cell_angle_beta   90.00000000
_cell_angle_gamma   90.00000000
_symmetry_Int_Tables_number   1
_chemical_formula_structural   Hg4As2Br3
_chemical_formula_sum   'Hg32 As16 Br24'
_cell_volume   2211.68492279
_cell_formula_units_Z   8
loop_
 _symmetry_equiv_pos_site_id
 _symmetry_equiv_pos_as_xyz
  1  'x, y, z'
loop_
 _atom_site_type_symbol
 _atom_site_label
 _atom_site_symmetry_multiplicity
 _atom_site_fract_x
 _atom_site_fract_y
 _atom_site_fract_z
 _atom_site_occupancy
  Hg  Hg0  1  0.032640  0.998767  0.254733  1
  Hg  Hg1  1  0.254733  0.032640  0.998767  1
  Hg  Hg2  1  0.998767  0.254733  0.032640  1
  Hg  Hg3  1  0.501233  0.745267  0.532640  1
  Hg  Hg4  1  0.754733  0.467360  0.001233  1
  Hg  Hg5  1  0.001233  0.754733  0.467360  1
  Hg  Hg6  1  0.245267  0.967360  0.498767  1
  Hg  Hg7  1  0.745267  0.532640  0.501233  1
  Hg  Hg8  1  0.498767  0.245267  0.967360  1
  Hg  Hg9  1  0.532640  0.501233  0.745267  1
  Hg  Hg10  1  0.967360  0.498767  0.245267  1
  Hg  Hg11  1  0.467360  0.001233  0.754733  1
  Hg  Hg12  1  0.967360  0.001233  0.745267  1
  Hg  Hg13  1  0.745267  0.967360  0.001233  1
  Hg  Hg14  1  0.001233  0.745267  0.967360  1
  Hg  Hg15  1  0.498767  0.254733  0.467360  1
  Hg  Hg16  1  0.245267  0.532640  0.998767  1
  Hg  Hg17  1  0.998767  0.245267  0.532640  1
  Hg  Hg18  1  0.754733  0.032640  0.501233  1
  Hg  Hg19  1  0.254733  0.467360  0.498767  1
  Hg  Hg20  1  0.501233  0.754733  0.032640  1
  Hg  Hg21  1  0.467360  0.498767  0.254733  1
  Hg  Hg22  1  0.032640  0.501233  0.754733  1
  Hg  Hg23  1  0.532640  0.998767  0.245267  1
  Hg  Hg24  1  0.222858  0.222858  0.222858  1
  Hg  Hg25  1  0.277142  0.777142  0.722858  1
  Hg  Hg26  1  0.722858  0.277142  0.777142  1
  Hg  Hg27  1  0.777142  0.722858  0.277142  1
  Hg  Hg28  1  0.777142  0.777142  0.777142  1
  Hg  Hg29  1  0.722858  0.222858  0.277142  1
  Hg  Hg30  1  0.277142  0.722858  0.222858  1
  Hg  Hg31  1  0.222858  0.277142  0.722858  1
  As  As32  1  0.445843  0.445843  0.445843  1
  As  As33  1  0.054157  0.554157  0.945843  1
  As  As34  1  0.945843  0.054157  0.554157  1
  As  As35  1  0.554157  0.945843  0.054157  1
  As  As36  1  0.554157  0.554157  0.554157  1
  As  As37  1  0.945843  0.445843  0.054157  1
  As  As38  1  0.054157  0.945843  0.445843  1
  As  As39  1  0.445843  0.054157  0.945843  1
  As  As40  1  0.108834  0.108834  0.108834  1
  As  As41  1  0.391166  0.891166  0.608834  1
  As  As42  1  0.608834  0.391166  0.891166  1
  As  As43  1  0.891166  0.608834  0.391166  1
  As  As44  1  0.891166  0.891166  0.891166  1
  As  As45  1  0.608834  0.108834  0.391166  1
  As  As46  1  0.391166  0.608834  0.108834  1
  As  As47  1  0.108834  0.391166  0.608834  1
  Br  Br48  1  0.185931  0.433288  0.266212  1
  Br  Br49  1  0.266212  0.185931  0.433288  1
  Br  Br50  1  0.433288  0.266212  0.185931  1
  Br  Br51  1  0.066712  0.733788  0.685931  1
  Br  Br52  1  0.766212  0.314069  0.566712  1
  Br  Br53  1  0.566712  0.766212  0.314069  1
  Br  Br54  1  0.233788  0.814069  0.933288  1
  Br  Br55  1  0.733788  0.685931  0.066712  1
  Br  Br56  1  0.933288  0.233788  0.814069  1
  Br  Br57  1  0.685931  0.066712  0.733788  1
  Br  Br58  1  0.814069  0.933288  0.233788  1
  Br  Br59  1  0.314069  0.566712  0.766212  1
  Br  Br60  1  0.814069  0.566712  0.733788  1
  Br  Br61  1  0.733788  0.814069  0.566712  1
  Br  Br62  1  0.566712  0.733788  0.814069  1
  Br  Br63  1  0.933288  0.266212  0.314069  1
  Br  Br64  1  0.233788  0.685931  0.433288  1
  Br  Br65  1  0.433288  0.233788  0.685931  1
  Br  Br66  1  0.766212  0.185931  0.066712  1
  Br  Br67  1  0.266212  0.314069  0.933288  1
  Br  Br68  1  0.066712  0.766212  0.185931  1
  Br  Br69  1  0.314069  0.933288  0.266212  1
  Br  Br70  1  0.185931  0.066712  0.766212  1
  Br  Br71  1  0.685931  0.433288  0.233788  1
