# generated using pymatgen
data_V2CdP2O9
_symmetry_space_group_name_H-M   'P 1'
_cell_length_a   6.40291412
_cell_length_b   7.45259723
_cell_length_c   14.56048323
_cell_angle_alpha   90.00000000
_cell_angle_beta   90.00000000
_cell_angle_gamma   90.00000000
_symmetry_Int_Tables_number   1
_chemical_formula_structural   V2CdP2O9
_chemical_formula_sum   'V8 Cd4 P8 O36'
_cell_volume   694.80208984
_cell_formula_units_Z   4
loop_
 _symmetry_equiv_pos_site_id
 _symmetry_equiv_pos_as_xyz
  1  'x, y, z'
loop_
 _atom_site_type_symbol
 _atom_site_label
 _atom_site_symmetry_multiplicity
 _atom_site_fract_x
 _atom_site_fract_y
 _atom_site_fract_z
 _atom_site_occupancy
  V  V0  1  0.500000  0.500000  0.500000  1
  V  V1  1  0.000000  0.500000  0.500000  1
  V  V2  1  0.250000  0.149704  0.378497  1
  V  V3  1  0.000000  0.000000  0.000000  1
  V  V4  1  0.250000  0.350296  0.878497  1
  V  V5  1  0.750000  0.649704  0.121503  1
  V  V6  1  0.750000  0.850296  0.621503  1
  V  V7  1  0.500000  0.000000  0.000000  1
  Cd  Cd8  1  0.750000  0.367240  0.722852  1
  Cd  Cd9  1  0.250000  0.632760  0.277148  1
  Cd  Cd10  1  0.250000  0.867240  0.777148  1
  Cd  Cd11  1  0.750000  0.132760  0.222852  1
  P  P12  1  0.750000  0.367172  0.933127  1
  P  P13  1  0.250000  0.632828  0.066873  1
  P  P14  1  0.250000  0.867172  0.566873  1
  P  P15  1  0.750000  0.132828  0.433127  1
  P  P16  1  0.250000  0.393580  0.693852  1
  P  P17  1  0.750000  0.606420  0.306148  1
  P  P18  1  0.750000  0.893580  0.806148  1
  P  P19  1  0.250000  0.106420  0.193852  1
  O  O20  1  0.549004  0.599473  0.367004  1
  O  O21  1  0.049004  0.400527  0.632996  1
  O  O22  1  0.450996  0.099473  0.132996  1
  O  O23  1  0.950996  0.900527  0.867004  1
  O  O24  1  0.450996  0.400527  0.632996  1
  O  O25  1  0.950996  0.599473  0.367004  1
  O  O26  1  0.549004  0.900527  0.867004  1
  O  O27  1  0.049004  0.099473  0.132996  1
  O  O28  1  0.750000  0.320086  0.481140  1
  O  O29  1  0.250000  0.679914  0.518860  1
  O  O30  1  0.250000  0.820086  0.018860  1
  O  O31  1  0.750000  0.179914  0.981140  1
  O  O32  1  0.250000  0.128410  0.952008  1
  O  O33  1  0.750000  0.871590  0.047992  1
  O  O34  1  0.750000  0.628410  0.547992  1
  O  O35  1  0.250000  0.371590  0.452008  1
  O  O36  1  0.250000  0.219680  0.753045  1
  O  O37  1  0.750000  0.780320  0.246955  1
  O  O38  1  0.750000  0.719680  0.746955  1
  O  O39  1  0.250000  0.280320  0.253045  1
  O  O40  1  0.939266  0.125776  0.365779  1
  O  O41  1  0.439266  0.874224  0.634221  1
  O  O42  1  0.060734  0.625776  0.134221  1
  O  O43  1  0.560734  0.374224  0.865779  1
  O  O44  1  0.060734  0.874224  0.634221  1
  O  O45  1  0.560734  0.125776  0.365779  1
  O  O46  1  0.939266  0.374224  0.865779  1
  O  O47  1  0.439266  0.625776  0.134221  1
  O  O48  1  0.250000  0.484093  0.997563  1
  O  O49  1  0.750000  0.047144  0.733136  1
  O  O50  1  0.750000  0.452856  0.233136  1
  O  O51  1  0.250000  0.547144  0.766864  1
  O  O52  1  0.250000  0.015907  0.497563  1
  O  O53  1  0.750000  0.984093  0.502437  1
  O  O54  1  0.750000  0.515907  0.002437  1
  O  O55  1  0.250000  0.952856  0.266864  1
