# generated using pymatgen
data_MgFe2P2(HO)18
_symmetry_space_group_name_H-M   'P 1'
_cell_length_a   5.39630684
_cell_length_b   7.27747501
_cell_length_c   10.33623663
_cell_angle_alpha   97.66260361
_cell_angle_beta   101.33520352
_cell_angle_gamma   111.05234860
_symmetry_Int_Tables_number   1
_chemical_formula_structural   MgFe2P2(HO)18
_chemical_formula_sum   'Mg1 Fe2 P2 H18 O18'
_cell_volume   362.09307398
_cell_formula_units_Z   1
loop_
 _symmetry_equiv_pos_site_id
 _symmetry_equiv_pos_as_xyz
  1  'x, y, z'
loop_
 _atom_site_type_symbol
 _atom_site_label
 _atom_site_symmetry_multiplicity
 _atom_site_fract_x
 _atom_site_fract_y
 _atom_site_fract_z
 _atom_site_occupancy
  Mg  Mg0  1  0.000000  0.000000  0.000000  1
  Fe  Fe1  1  0.500000  0.000000  0.500000  1
  Fe  Fe2  1  0.500000  0.500000  0.500000  1
  P  P3  1  0.980739  0.072899  0.326794  1
  P  P4  1  0.019261  0.927101  0.673206  1
  H  H5  1  0.904082  0.425779  0.733510  1
  H  H6  1  0.095918  0.574221  0.266490  1
  H  H7  1  0.077446  0.648601  0.817306  1
  H  H8  1  0.922554  0.351399  0.182694  1
  H  H9  1  0.537995  0.012758  0.121068  1
  H  H10  1  0.685976  0.038670  0.796178  1
  H  H11  1  0.165170  0.386131  0.945403  1
  H  H12  1  0.834830  0.613869  0.054597  1
  H  H13  1  0.322469  0.401698  0.094807  1
  H  H14  1  0.677531  0.598302  0.905193  1
  H  H15  1  0.692105  0.512609  0.268267  1
  H  H16  1  0.307895  0.487391  0.731733  1
  H  H17  1  0.610026  0.696185  0.315957  1
  H  H18  1  0.389974  0.303815  0.684043  1
  H  H19  1  0.843618  0.324491  0.482301  1
  H  H20  1  0.156382  0.675509  0.517699  1
  H  H21  1  0.462005  0.987242  0.878932  1
  H  H22  1  0.314024  0.961330  0.203822  1
  O  O23  1  0.233571  0.310212  0.005463  1
  O  O24  1  0.661788  0.029654  0.888277  1
  O  O25  1  0.338212  0.970346  0.111723  1
  O  O26  1  0.926542  0.490812  0.195401  1
  O  O27  1  0.073458  0.509188  0.804599  1
  O  O28  1  0.454880  0.455367  0.697801  1
  O  O29  1  0.668002  0.298330  0.507669  1
  O  O30  1  0.331998  0.701670  0.492331  1
  O  O31  1  0.712253  0.947993  0.364148  1
  O  O32  1  0.287747  0.052007  0.635852  1
  O  O33  1  0.095044  0.905160  0.821242  1
  O  O34  1  0.904956  0.094840  0.178758  1
  O  O35  1  0.883607  0.713965  0.576040  1
  O  O36  1  0.116393  0.286035  0.423960  1
  O  O37  1  0.820962  0.038410  0.658835  1
  O  O38  1  0.179038  0.961590  0.341165  1
  O  O39  1  0.766429  0.689788  0.994537  1
  O  O40  1  0.545120  0.544633  0.302199  1
