# generated using pymatgen
data_Fe2WO6
_symmetry_space_group_name_H-M   'P 1'
_cell_length_a   4.62486800
_cell_length_b   5.07373490
_cell_length_c   16.96556326
_cell_angle_alpha   90.00000000
_cell_angle_beta   90.00000000
_cell_angle_gamma   90.00000000
_symmetry_Int_Tables_number   1
_chemical_formula_structural   Fe2WO6
_chemical_formula_sum   'Fe8 W4 O24'
_cell_volume   398.10295075
_cell_formula_units_Z   4
loop_
 _symmetry_equiv_pos_site_id
 _symmetry_equiv_pos_as_xyz
  1  'x, y, z'
loop_
 _atom_site_type_symbol
 _atom_site_label
 _atom_site_symmetry_multiplicity
 _atom_site_fract_x
 _atom_site_fract_y
 _atom_site_fract_z
 _atom_site_occupancy
  Fe  Fe0  1  0.000000  0.250000  0.552800  1
  Fe  Fe1  1  0.500000  0.750000  0.947200  1
  Fe  Fe2  1  0.000000  0.750000  0.447200  1
  Fe  Fe3  1  0.500000  0.250000  0.052800  1
  Fe  Fe4  1  0.500000  0.250000  0.722319  1
  Fe  Fe5  1  0.000000  0.750000  0.777681  1
  Fe  Fe6  1  0.000000  0.250000  0.222319  1
  Fe  Fe7  1  0.500000  0.750000  0.277681  1
  W  W8  1  0.000000  0.250000  0.884343  1
  W  W9  1  0.500000  0.750000  0.615657  1
  W  W10  1  0.000000  0.750000  0.115657  1
  W  W11  1  0.500000  0.250000  0.384343  1
  O  O12  1  0.724892  0.416047  0.297256  1
  O  O13  1  0.224892  0.583953  0.202744  1
  O  O14  1  0.775108  0.916047  0.202744  1
  O  O15  1  0.275108  0.083953  0.297256  1
  O  O16  1  0.275108  0.583953  0.702744  1
  O  O17  1  0.775108  0.416047  0.797256  1
  O  O18  1  0.224892  0.083953  0.797256  1
  O  O19  1  0.724892  0.916047  0.702744  1
  O  O20  1  0.726547  0.930026  0.374105  1
  O  O21  1  0.226547  0.069974  0.125895  1
  O  O22  1  0.773453  0.430026  0.125895  1
  O  O23  1  0.273453  0.569974  0.374105  1
  O  O24  1  0.763759  0.906601  0.540902  1
  O  O25  1  0.263759  0.093399  0.959098  1
  O  O26  1  0.736241  0.406601  0.959098  1
  O  O27  1  0.236241  0.593399  0.540902  1
  O  O28  1  0.236241  0.093399  0.459098  1
  O  O29  1  0.736241  0.906601  0.040902  1
  O  O30  1  0.273453  0.069974  0.625895  1
  O  O31  1  0.763759  0.406601  0.459098  1
  O  O32  1  0.726547  0.430026  0.625895  1
  O  O33  1  0.226547  0.569974  0.874105  1
  O  O34  1  0.773453  0.930026  0.874105  1
  O  O35  1  0.263759  0.593399  0.040902  1
