# generated using pymatgen
data_FeP4
_symmetry_space_group_name_H-M   'P 1'
_cell_length_a   4.62006852
_cell_length_b   13.68801501
_cell_length_c   7.01798457
_cell_angle_alpha   90.00000000
_cell_angle_beta   101.49098577
_cell_angle_gamma   90.00000000
_symmetry_Int_Tables_number   1
_chemical_formula_structural   FeP4
_chemical_formula_sum   'Fe6 P24'
_cell_volume   434.91851983
_cell_formula_units_Z   6
loop_
 _symmetry_equiv_pos_site_id
 _symmetry_equiv_pos_as_xyz
  1  'x, y, z'
loop_
 _atom_site_type_symbol
 _atom_site_label
 _atom_site_symmetry_multiplicity
 _atom_site_fract_x
 _atom_site_fract_y
 _atom_site_fract_z
 _atom_site_occupancy
  Fe  Fe0  1  0.140860  0.670044  0.881410  1
  Fe  Fe1  1  0.859140  0.170044  0.618590  1
  Fe  Fe2  1  0.859140  0.329956  0.118590  1
  Fe  Fe3  1  0.140860  0.829956  0.381410  1
  Fe  Fe4  1  0.000000  0.500000  0.500000  1
  Fe  Fe5  1  0.000000  0.000000  0.000000  1
  P  P6  1  0.491790  0.780437  0.968448  1
  P  P7  1  0.508210  0.280437  0.531552  1
  P  P8  1  0.508210  0.219563  0.031552  1
  P  P9  1  0.491790  0.719563  0.468448  1
  P  P10  1  0.928449  0.774852  0.634941  1
  P  P11  1  0.071551  0.274852  0.865059  1
  P  P12  1  0.195190  0.054121  0.750580  1
  P  P13  1  0.804810  0.554121  0.749420  1
  P  P14  1  0.804810  0.945879  0.249420  1
  P  P15  1  0.195190  0.445879  0.250580  1
  P  P16  1  0.343866  0.893039  0.146763  1
  P  P17  1  0.656134  0.393039  0.353237  1
  P  P18  1  0.656134  0.106961  0.853237  1
  P  P19  1  0.343866  0.606961  0.646763  1
  P  P20  1  0.263432  0.112712  0.194936  1
  P  P21  1  0.736568  0.612712  0.305064  1
  P  P22  1  0.736568  0.887288  0.805064  1
  P  P23  1  0.263432  0.387288  0.694936  1
  P  P24  1  0.367851  0.555981  0.070207  1
  P  P25  1  0.632149  0.055981  0.429793  1
  P  P26  1  0.632149  0.444019  0.929793  1
  P  P27  1  0.367851  0.944019  0.570207  1
  P  P28  1  0.928449  0.725148  0.134941  1
  P  P29  1  0.071551  0.225148  0.365059  1
