# generated using pymatgen
data_Re(AgCl3)2
_symmetry_space_group_name_H-M   'P 1'
_cell_length_a   7.16688767
_cell_length_b   7.16688767
_cell_length_c   7.16688767
_cell_angle_alpha   56.06408532
_cell_angle_beta   56.06408532
_cell_angle_gamma   56.06408532
_symmetry_Int_Tables_number   1
_chemical_formula_structural   Re(AgCl3)2
_chemical_formula_sum   'Re1 Ag2 Cl6'
_cell_volume   236.57323275
_cell_formula_units_Z   1
loop_
 _symmetry_equiv_pos_site_id
 _symmetry_equiv_pos_as_xyz
  1  'x, y, z'
loop_
 _atom_site_type_symbol
 _atom_site_label
 _atom_site_symmetry_multiplicity
 _atom_site_fract_x
 _atom_site_fract_y
 _atom_site_fract_z
 _atom_site_occupancy
  Re  Re0  1  0.500000  0.500000  0.500000  1
  Ag  Ag1  1  0.765706  0.765706  0.765706  1
  Ag  Ag2  1  0.234294  0.234294  0.234294  1
  Cl  Cl3  1  0.725191  0.392461  0.152407  1
  Cl  Cl4  1  0.392461  0.152407  0.725191  1
  Cl  Cl5  1  0.152407  0.725191  0.392461  1
  Cl  Cl6  1  0.847593  0.274809  0.607539  1
  Cl  Cl7  1  0.607539  0.847593  0.274809  1
  Cl  Cl8  1  0.274809  0.607539  0.847593  1
