# generated using pymatgen
data_Na2MgCl4
_symmetry_space_group_name_H-M   'P 1'
_cell_length_a   3.84902391
_cell_length_b   6.98189150
_cell_length_c   12.00174252
_cell_angle_alpha   90.00000000
_cell_angle_beta   90.00000000
_cell_angle_gamma   90.00000000
_symmetry_Int_Tables_number   1
_chemical_formula_structural   Na2MgCl4
_chemical_formula_sum   'Na4 Mg2 Cl8'
_cell_volume   322.52843540
_cell_formula_units_Z   2
loop_
 _symmetry_equiv_pos_site_id
 _symmetry_equiv_pos_as_xyz
  1  'x, y, z'
loop_
 _atom_site_type_symbol
 _atom_site_label
 _atom_site_symmetry_multiplicity
 _atom_site_fract_x
 _atom_site_fract_y
 _atom_site_fract_z
 _atom_site_occupancy
  Na  Na0  1  0.500000  0.087281  0.682007  1
  Na  Na1  1  0.500000  0.912719  0.317993  1
  Na  Na2  1  0.500000  0.412719  0.182007  1
  Na  Na3  1  0.500000  0.587281  0.817993  1
  Mg  Mg4  1  0.000000  0.500000  0.500000  1
  Mg  Mg5  1  0.000000  0.000000  0.000000  1
  Cl  Cl6  1  0.000000  0.118884  0.195381  1
  Cl  Cl7  1  0.000000  0.881116  0.804619  1
  Cl  Cl8  1  0.000000  0.618884  0.304619  1
  Cl  Cl9  1  0.000000  0.381116  0.695381  1
  Cl  Cl10  1  0.500000  0.235255  0.957067  1
  Cl  Cl11  1  0.500000  0.764745  0.042933  1
  Cl  Cl12  1  0.500000  0.735255  0.542933  1
  Cl  Cl13  1  0.500000  0.264745  0.457067  1
