# generated using pymatgen
data_FeWN2
_symmetry_space_group_name_H-M   'P 1'
_cell_length_a   2.88911863
_cell_length_b   2.88911863
_cell_length_c   11.04944802
_cell_angle_alpha   90.00000000
_cell_angle_beta   90.00000000
_cell_angle_gamma   120.00000000
_symmetry_Int_Tables_number   1
_chemical_formula_structural   FeWN2
_chemical_formula_sum   'Fe2 W2 N4'
_cell_volume   79.87336168
_cell_formula_units_Z   2
loop_
 _symmetry_equiv_pos_site_id
 _symmetry_equiv_pos_as_xyz
  1  'x, y, z'
loop_
 _atom_site_type_symbol
 _atom_site_label
 _atom_site_symmetry_multiplicity
 _atom_site_fract_x
 _atom_site_fract_y
 _atom_site_fract_z
 _atom_site_occupancy
  Fe  Fe0  1  0.000000  0.000000  0.500000  1
  Fe  Fe1  1  0.000000  0.000000  0.000000  1
  W  W2  1  0.000000  0.000000  0.250000  1
  W  W3  1  0.000000  0.000000  0.750000  1
  N  N4  1  0.333333  0.666667  0.131523  1
  N  N5  1  0.666667  0.333333  0.631523  1
  N  N6  1  0.333333  0.666667  0.368477  1
  N  N7  1  0.666667  0.333333  0.868477  1
