# generated using pymatgen
data_CoSeO3
_symmetry_space_group_name_H-M   'P 1'
_cell_length_a   5.09180862
_cell_length_b   6.01505753
_cell_length_c   7.66077233
_cell_angle_alpha   90.00000000
_cell_angle_beta   90.00000000
_cell_angle_gamma   90.00000000
_symmetry_Int_Tables_number   1
_chemical_formula_structural   CoSeO3
_chemical_formula_sum   'Co4 Se4 O12'
_cell_volume   234.63047153
_cell_formula_units_Z   4
loop_
 _symmetry_equiv_pos_site_id
 _symmetry_equiv_pos_as_xyz
  1  'x, y, z'
loop_
 _atom_site_type_symbol
 _atom_site_label
 _atom_site_symmetry_multiplicity
 _atom_site_fract_x
 _atom_site_fract_y
 _atom_site_fract_z
 _atom_site_occupancy
  Co  Co0  1  0.500000  0.000000  0.500000  1
  Co  Co1  1  0.500000  0.000000  0.000000  1
  Co  Co2  1  0.000000  0.500000  0.000000  1
  Co  Co3  1  0.000000  0.500000  0.500000  1
  Se  Se4  1  0.017258  0.977523  0.750000  1
  Se  Se5  1  0.482742  0.477523  0.750000  1
  Se  Se6  1  0.517258  0.522477  0.250000  1
  Se  Se7  1  0.982742  0.022477  0.250000  1
  O  O8  1  0.135772  0.814722  0.575931  1
  O  O9  1  0.635772  0.685278  0.075931  1
  O  O10  1  0.864228  0.185278  0.075931  1
  O  O11  1  0.823451  0.430858  0.750000  1
  O  O12  1  0.135772  0.814722  0.924069  1
  O  O13  1  0.676549  0.930858  0.750000  1
  O  O14  1  0.864228  0.185278  0.424069  1
  O  O15  1  0.364228  0.314722  0.575931  1
  O  O16  1  0.364228  0.314722  0.924069  1
  O  O17  1  0.176549  0.569142  0.250000  1
  O  O18  1  0.635772  0.685278  0.424069  1
  O  O19  1  0.323451  0.069142  0.250000  1
