# generated using pymatgen
data_Ca2B5H2ClO10
_symmetry_space_group_name_H-M   'P 1'
_cell_length_a   6.32379168
_cell_length_b   6.54845572
_cell_length_c   6.64598002
_cell_angle_alpha   73.86830043
_cell_angle_beta   61.91677259
_cell_angle_gamma   61.51572595
_symmetry_Int_Tables_number   1
_chemical_formula_structural   Ca2B5H2ClO10
_chemical_formula_sum   'Ca2 B5 H2 Cl1 O10'
_cell_volume   212.91582327
_cell_formula_units_Z   1
loop_
 _symmetry_equiv_pos_site_id
 _symmetry_equiv_pos_as_xyz
  1  'x, y, z'
loop_
 _atom_site_type_symbol
 _atom_site_label
 _atom_site_symmetry_multiplicity
 _atom_site_fract_x
 _atom_site_fract_y
 _atom_site_fract_z
 _atom_site_occupancy
  Ca  Ca0  1  0.898406  0.451889  0.442633  1
  Ca  Ca1  1  0.996135  0.005266  0.999406  1
  B  B2  1  0.527557  0.475408  0.130739  1
  B  B3  1  0.398370  0.329026  0.910996  1
  B  B4  1  0.931459  0.549850  0.972485  1
  B  B5  1  0.518551  0.880688  0.995402  1
  B  B6  1  0.287751  0.449215  0.579699  1
  H  H7  1  0.579532  0.970521  0.462991  1
  H  H8  1  0.823113  0.928984  0.509483  1
  Cl  Cl9  1  0.184245  0.988476  0.530904  1
  O  O10  1  0.772604  0.886908  0.412866  1
  O  O11  1  0.326191  0.450050  0.359309  1
  O  O12  1  0.413300  0.722938  0.040127  1
  O  O13  1  0.775619  0.420873  0.144189  1
  O  O14  1  0.592548  0.309105  0.979091  1
  O  O15  1  0.365921  0.105734  0.948766  1
  O  O16  1  0.480930  0.395247  0.653444  1
  O  O17  1  0.139997  0.505791  0.034334  1
  O  O18  1  0.766142  0.807408  0.985272  1
  O  O19  1  0.030430  0.487423  0.734966  1
