# generated using pymatgen
data_Li4H4Rh
_symmetry_space_group_name_H-M   'P 1'
_cell_length_a   4.89547366
_cell_length_b   4.89547366
_cell_length_c   4.89547366
_cell_angle_alpha   100.01981620
_cell_angle_beta   100.01981620
_cell_angle_gamma   130.69426070
_symmetry_Int_Tables_number   1
_chemical_formula_structural   Li4H4Rh
_chemical_formula_sum   'Li4 H4 Rh1'
_cell_volume   80.84640468
_cell_formula_units_Z   1
loop_
 _symmetry_equiv_pos_site_id
 _symmetry_equiv_pos_as_xyz
  1  'x, y, z'
loop_
 _atom_site_type_symbol
 _atom_site_label
 _atom_site_symmetry_multiplicity
 _atom_site_fract_x
 _atom_site_fract_y
 _atom_site_fract_z
 _atom_site_occupancy
  Li  Li0  1  0.218043  0.613002  0.831045  1
  Li  Li1  1  0.781957  0.386998  0.168955  1
  Li  Li2  1  0.386998  0.218043  0.605041  1
  Li  Li3  1  0.613002  0.781957  0.394959  1
  H  H4  1  0.265264  0.932526  0.197789  1
  H  H5  1  0.734736  0.067474  0.802211  1
  H  H6  1  0.067474  0.265264  0.332738  1
  H  H7  1  0.932526  0.734736  0.667262  1
  Rh  Rh8  1  0.000000  0.000000  0.000000  1
