# generated using pymatgen
data_Pr(ClO4)3
_symmetry_space_group_name_H-M   'P 1'
_cell_length_a   9.55786061
_cell_length_b   9.55786061
_cell_length_c   5.90392248
_cell_angle_alpha   90.00000000
_cell_angle_beta   90.00000000
_cell_angle_gamma   120.00000000
_symmetry_Int_Tables_number   1
_chemical_formula_structural   Pr(ClO4)3
_chemical_formula_sum   'Pr2 Cl6 O24'
_cell_volume   467.08149681
_cell_formula_units_Z   2
loop_
 _symmetry_equiv_pos_site_id
 _symmetry_equiv_pos_as_xyz
  1  'x, y, z'
loop_
 _atom_site_type_symbol
 _atom_site_label
 _atom_site_symmetry_multiplicity
 _atom_site_fract_x
 _atom_site_fract_y
 _atom_site_fract_z
 _atom_site_occupancy
  Pr  Pr0  1  0.333333  0.666667  0.750000  1
  Pr  Pr1  1  0.666667  0.333333  0.250000  1
  Cl  Cl2  1  0.707095  0.614587  0.750000  1
  Cl  Cl3  1  0.092507  0.707095  0.250000  1
  Cl  Cl4  1  0.614587  0.907493  0.250000  1
  Cl  Cl5  1  0.385413  0.092507  0.750000  1
  Cl  Cl6  1  0.907493  0.292905  0.750000  1
  Cl  Cl7  1  0.292905  0.385413  0.250000  1
  O  O8  1  0.806752  0.785197  0.750000  1
  O  O9  1  0.021555  0.806752  0.250000  1
  O  O10  1  0.785197  0.978445  0.250000  1
  O  O11  1  0.214803  0.021555  0.750000  1
  O  O12  1  0.978445  0.193248  0.750000  1
  O  O13  1  0.193248  0.214803  0.250000  1
  O  O14  1  0.803931  0.259432  0.549541  1
  O  O15  1  0.544499  0.803931  0.049541  1
  O  O16  1  0.465930  0.437415  0.250000  1
  O  O17  1  0.028515  0.465930  0.750000  1
  O  O18  1  0.437415  0.971485  0.750000  1
  O  O19  1  0.562585  0.028515  0.250000  1
  O  O20  1  0.971485  0.534070  0.250000  1
  O  O21  1  0.534070  0.562585  0.750000  1
  O  O22  1  0.803931  0.259432  0.950459  1
  O  O23  1  0.544499  0.803931  0.450459  1
  O  O24  1  0.259432  0.455501  0.450459  1
  O  O25  1  0.740568  0.544499  0.950459  1
  O  O26  1  0.455501  0.196069  0.950459  1
  O  O27  1  0.196069  0.740568  0.450459  1
  O  O28  1  0.196069  0.740568  0.049541  1
  O  O29  1  0.455501  0.196069  0.549541  1
  O  O30  1  0.740568  0.544499  0.549541  1
  O  O31  1  0.259432  0.455501  0.049541  1
