# generated using pymatgen
data_ZnH20Se2(NO7)2
_symmetry_space_group_name_H-M   'P 1'
_cell_length_a   6.51136369
_cell_length_b   12.74705598
_cell_length_c   9.39710563
_cell_angle_alpha   90.00000000
_cell_angle_beta   106.43283452
_cell_angle_gamma   90.00000000
_symmetry_Int_Tables_number   1
_chemical_formula_structural   ZnH20Se2(NO7)2
_chemical_formula_sum   'Zn2 H40 Se4 N4 O28'
_cell_volume   748.10644927
_cell_formula_units_Z   2
loop_
 _symmetry_equiv_pos_site_id
 _symmetry_equiv_pos_as_xyz
  1  'x, y, z'
loop_
 _atom_site_type_symbol
 _atom_site_label
 _atom_site_symmetry_multiplicity
 _atom_site_fract_x
 _atom_site_fract_y
 _atom_site_fract_z
 _atom_site_occupancy
  Zn  Zn0  1  0.000000  0.000000  0.000000  1
  Zn  Zn1  1  0.000000  0.500000  0.500000  1
  H  H2  1  0.544726  0.179446  0.427727  1
  H  H3  1  0.943900  0.596985  0.237620  1
  H  H4  1  0.056100  0.096985  0.262380  1
  H  H5  1  0.056100  0.403015  0.762380  1
  H  H6  1  0.800874  0.329038  0.930415  1
  H  H7  1  0.199126  0.829038  0.569585  1
  H  H8  1  0.199126  0.670962  0.069585  1
  H  H9  1  0.800874  0.170962  0.430415  1
  H  H10  1  0.625760  0.419338  0.831623  1
  H  H11  1  0.374240  0.919338  0.668377  1
  H  H12  1  0.374240  0.580662  0.168377  1
  H  H13  1  0.625760  0.080662  0.331623  1
  H  H14  1  0.611014  0.293526  0.770185  1
  H  H15  1  0.388986  0.793526  0.729815  1
  H  H16  1  0.388986  0.706474  0.229815  1
  H  H17  1  0.611014  0.206474  0.270185  1
  H  H18  1  0.544726  0.320554  0.927727  1
  H  H19  1  0.455274  0.820554  0.572273  1
  H  H20  1  0.455274  0.679446  0.072273  1
  H  H21  1  0.104889  0.879027  0.251491  1
  H  H22  1  0.005730  0.685206  0.362350  1
  H  H23  1  0.994270  0.185206  0.137650  1
  H  H24  1  0.994270  0.314794  0.637650  1
  H  H25  1  0.005730  0.814794  0.862350  1
  H  H26  1  0.320457  0.584806  0.715197  1
  H  H27  1  0.679543  0.084806  0.784803  1
  H  H28  1  0.679543  0.415194  0.284803  1
  H  H29  1  0.320457  0.915194  0.215197  1
  H  H30  1  0.104889  0.620973  0.751491  1
  H  H31  1  0.895111  0.120973  0.748509  1
  H  H32  1  0.676186  0.858504  0.975384  1
  H  H33  1  0.323814  0.358504  0.524616  1
  H  H34  1  0.323814  0.141496  0.024616  1
  H  H35  1  0.676186  0.641496  0.475384  1
  H  H36  1  0.668931  0.943009  0.097688  1
  H  H37  1  0.331069  0.443009  0.402312  1
  H  H38  1  0.331069  0.056991  0.902312  1
  H  H39  1  0.668931  0.556991  0.597688  1
  H  H40  1  0.895111  0.379027  0.248509  1
  H  H41  1  0.943900  0.903015  0.737620  1
  Se  Se42  1  0.740255  0.867487  0.413471  1
  Se  Se43  1  0.259745  0.367487  0.086529  1
  Se  Se44  1  0.740255  0.632513  0.913471  1
  Se  Se45  1  0.259745  0.132513  0.586529  1
  N  N46  1  0.645633  0.340526  0.863733  1
  N  N47  1  0.645633  0.159474  0.363733  1
  N  N48  1  0.354367  0.840526  0.636267  1
  N  N49  1  0.354367  0.659474  0.136267  1
  O  O50  1  0.170428  0.607681  0.670342  1
  O  O51  1  0.292939  0.066739  0.996505  1
  O  O52  1  0.292939  0.433261  0.496505  1
  O  O53  1  0.707061  0.933261  0.003495  1
  O  O54  1  0.031594  0.179497  0.613401  1
  O  O55  1  0.968406  0.679497  0.886599  1
  O  O56  1  0.036869  0.888280  0.840083  1
  O  O57  1  0.963131  0.388280  0.659917  1
  O  O58  1  0.963131  0.111720  0.159917  1
  O  O59  1  0.036869  0.611720  0.340083  1
  O  O60  1  0.968406  0.820503  0.386599  1
  O  O61  1  0.031594  0.320503  0.113401  1
  O  O62  1  0.390577  0.055682  0.729581  1
  O  O63  1  0.609423  0.555682  0.770419  1
  O  O64  1  0.829572  0.107681  0.829658  1
  O  O65  1  0.707061  0.566739  0.503495  1
  O  O66  1  0.170428  0.892319  0.170342  1
  O  O67  1  0.609423  0.944318  0.270419  1
  O  O68  1  0.210368  0.437105  0.931249  1
  O  O69  1  0.789632  0.937105  0.568751  1
  O  O70  1  0.789632  0.562895  0.068751  1
  O  O71  1  0.210368  0.062895  0.431249  1
  O  O72  1  0.424088  0.266662  0.078029  1
  O  O73  1  0.575912  0.766662  0.421971  1
  O  O74  1  0.575912  0.733338  0.921971  1
  O  O75  1  0.424088  0.233338  0.578029  1
  O  O76  1  0.390577  0.444318  0.229581  1
  O  O77  1  0.829572  0.392319  0.329658  1
