# generated using pymatgen
data_SiBi2O5
_symmetry_space_group_name_H-M   'P 1'
_cell_length_a   8.18956856
_cell_length_b   8.18956856
_cell_length_c   5.39235500
_cell_angle_alpha   90.00000000
_cell_angle_beta   90.00000000
_cell_angle_gamma   140.35862634
_symmetry_Int_Tables_number   1
_chemical_formula_structural   SiBi2O5
_chemical_formula_sum   'Si2 Bi4 O10'
_cell_volume   230.73194815
_cell_formula_units_Z   2
loop_
 _symmetry_equiv_pos_site_id
 _symmetry_equiv_pos_as_xyz
  1  'x, y, z'
loop_
 _atom_site_type_symbol
 _atom_site_label
 _atom_site_symmetry_multiplicity
 _atom_site_fract_x
 _atom_site_fract_y
 _atom_site_fract_z
 _atom_site_occupancy
  Si  Si0  1  0.676926  0.676926  0.304544  1
  Si  Si1  1  0.323074  0.323074  0.804544  1
  Bi  Bi2  1  0.946623  0.614736  0.739076  1
  Bi  Bi3  1  0.053377  0.385264  0.239076  1
  Bi  Bi4  1  0.385264  0.053377  0.239076  1
  Bi  Bi5  1  0.614736  0.946623  0.739076  1
  O  O6  1  0.759214  0.261346  0.512149  1
  O  O7  1  0.240786  0.738654  0.012149  1
  O  O8  1  0.738654  0.240786  0.012149  1
  O  O9  1  0.261346  0.759214  0.512149  1
  O  O10  1  0.915241  0.733858  0.328787  1
  O  O11  1  0.084759  0.266142  0.828787  1
  O  O12  1  0.470141  0.470141  0.533431  1
  O  O13  1  0.529859  0.529859  0.033431  1
  O  O14  1  0.733858  0.915241  0.328787  1
  O  O15  1  0.266142  0.084759  0.828787  1
