# generated using pymatgen
data_Sn15Os3O14
_symmetry_space_group_name_H-M   'P 1'
_cell_length_a   7.26012691
_cell_length_b   7.26012691
_cell_length_c   13.15431373
_cell_angle_alpha   74.05184034
_cell_angle_beta   105.94815966
_cell_angle_gamma   120.42704493
_symmetry_Int_Tables_number   1
_chemical_formula_structural   Sn15Os3O14
_chemical_formula_sum   'Sn15 Os3 O14'
_cell_volume   567.11014473
_cell_formula_units_Z   1
loop_
 _symmetry_equiv_pos_site_id
 _symmetry_equiv_pos_as_xyz
  1  'x, y, z'
loop_
 _atom_site_type_symbol
 _atom_site_label
 _atom_site_symmetry_multiplicity
 _atom_site_fract_x
 _atom_site_fract_y
 _atom_site_fract_z
 _atom_site_occupancy
  Sn  Sn0  1  0.329176  0.146632  0.911180  1
  Sn  Sn1  1  0.423365  0.095154  0.653275  1
  Sn  Sn2  1  0.904846  0.576635  0.653275  1
  Sn  Sn3  1  0.985569  0.014431  0.380956  1
  Sn  Sn4  1  0.090587  0.429297  0.162050  1
  Sn  Sn5  1  0.570703  0.909413  0.162050  1
  Sn  Sn6  1  0.849682  0.150318  0.919689  1
  Sn  Sn7  1  0.557335  0.442665  0.127433  1
  Sn  Sn8  1  0.904569  0.095431  0.658989  1
  Sn  Sn9  1  0.995401  0.489075  0.425542  1
  Sn  Sn10  1  0.510925  0.004599  0.425542  1
  Sn  Sn11  1  0.512919  0.487081  0.420897  1
  Sn  Sn12  1  0.097464  0.902536  0.177401  1
  Sn  Sn13  1  0.853368  0.670824  0.911180  1
  Sn  Sn14  1  0.321125  0.678875  0.888791  1
  Os  Os15  1  0.711416  0.288584  0.034876  1
  Os  Os16  1  0.115908  0.884092  0.768836  1
  Os  Os17  1  0.302192  0.697808  0.305582  1
  O  O18  1  0.775382  0.224618  0.748201  1
  O  O19  1  0.764055  0.743504  0.184292  1
  O  O20  1  0.256496  0.235945  0.184292  1
  O  O21  1  0.023481  0.424872  0.593250  1
  O  O22  1  0.575128  0.976519  0.593250  1
  O  O23  1  0.655542  0.344458  0.367613  1
  O  O24  1  0.575887  0.424113  0.589509  1
  O  O25  1  0.375950  0.624050  0.057598  1
  O  O26  1  0.876641  0.123359  0.473561  1
  O  O27  1  0.042254  0.957746  0.009719  1
  O  O28  1  0.305509  0.123623  0.467237  1
  O  O29  1  0.876377  0.694491  0.467237  1
  O  O30  1  0.182419  0.352961  0.885113  1
  O  O31  1  0.647039  0.817581  0.885113  1
