# generated using pymatgen
data_K2PrBr5
_symmetry_space_group_name_H-M   'P 1'
_cell_length_a   8.64896751
_cell_length_b   9.28755764
_cell_length_c   13.70237996
_cell_angle_alpha   90.00000000
_cell_angle_beta   90.00000000
_cell_angle_gamma   90.00000000
_symmetry_Int_Tables_number   1
_chemical_formula_structural   K2PrBr5
_chemical_formula_sum   'K8 Pr4 Br20'
_cell_volume   1100.68182149
_cell_formula_units_Z   4
loop_
 _symmetry_equiv_pos_site_id
 _symmetry_equiv_pos_as_xyz
  1  'x, y, z'
loop_
 _atom_site_type_symbol
 _atom_site_label
 _atom_site_symmetry_multiplicity
 _atom_site_fract_x
 _atom_site_fract_y
 _atom_site_fract_z
 _atom_site_occupancy
  K  K0  1  0.443320  0.505189  0.672325  1
  K  K1  1  0.943320  0.494811  0.827675  1
  K  K2  1  0.556680  0.005189  0.327675  1
  K  K3  1  0.056680  0.994811  0.172325  1
  K  K4  1  0.556680  0.494811  0.327675  1
  K  K5  1  0.056680  0.505189  0.172325  1
  K  K6  1  0.443320  0.994811  0.672325  1
  K  K7  1  0.943320  0.005189  0.827675  1
  Pr  Pr8  1  0.921995  0.750000  0.505888  1
  Pr  Pr9  1  0.578005  0.750000  0.005888  1
  Pr  Pr10  1  0.078005  0.250000  0.494112  1
  Pr  Pr11  1  0.421995  0.250000  0.994112  1
  Br  Br12  1  0.575182  0.750000  0.507565  1
  Br  Br13  1  0.333049  0.954986  0.924234  1
  Br  Br14  1  0.833049  0.045014  0.575766  1
  Br  Br15  1  0.666951  0.454986  0.075766  1
  Br  Br16  1  0.075182  0.250000  0.992435  1
  Br  Br17  1  0.660189  0.750000  0.795207  1
  Br  Br18  1  0.924818  0.750000  0.007565  1
  Br  Br19  1  0.424818  0.250000  0.492435  1
  Br  Br20  1  0.123109  0.750000  0.681517  1
  Br  Br21  1  0.160189  0.250000  0.704793  1
  Br  Br22  1  0.339811  0.250000  0.204793  1
  Br  Br23  1  0.839811  0.750000  0.295207  1
  Br  Br24  1  0.666951  0.045014  0.075766  1
  Br  Br25  1  0.623109  0.250000  0.818483  1
  Br  Br26  1  0.876891  0.250000  0.318483  1
  Br  Br27  1  0.376891  0.750000  0.181517  1
  Br  Br28  1  0.833049  0.454986  0.575766  1
  Br  Br29  1  0.333049  0.545014  0.924234  1
  Br  Br30  1  0.166951  0.954986  0.424234  1
  Br  Br31  1  0.166951  0.545014  0.424234  1
