# generated using pymatgen
data_Li8GeO6
_symmetry_space_group_name_H-M   'P 1'
_cell_length_a   5.56608505
_cell_length_b   5.56608505
_cell_length_c   10.85079119
_cell_angle_alpha   90.00000000
_cell_angle_beta   90.00000000
_cell_angle_gamma   120.00000000
_symmetry_Int_Tables_number   1
_chemical_formula_structural   Li8GeO6
_chemical_formula_sum   'Li16 Ge2 O12'
_cell_volume   291.13318659
_cell_formula_units_Z   2
loop_
 _symmetry_equiv_pos_site_id
 _symmetry_equiv_pos_as_xyz
  1  'x, y, z'
loop_
 _atom_site_type_symbol
 _atom_site_label
 _atom_site_symmetry_multiplicity
 _atom_site_fract_x
 _atom_site_fract_y
 _atom_site_fract_z
 _atom_site_occupancy
  Li  Li0  1  0.000000  0.311316  0.270133  1
  Li  Li1  1  0.688684  0.000000  0.770133  1
  Li  Li2  1  0.333333  0.666667  0.410616  1
  Li  Li3  1  0.666667  0.333333  0.910616  1
  Li  Li4  1  0.333333  0.666667  0.910616  1
  Li  Li5  1  0.666667  0.333333  0.410616  1
  Li  Li6  1  0.397832  0.000000  0.630248  1
  Li  Li7  1  0.397832  0.397832  0.130248  1
  Li  Li8  1  0.000000  0.602168  0.130248  1
  Li  Li9  1  0.000000  0.397832  0.630248  1
  Li  Li10  1  0.602168  0.602168  0.630248  1
  Li  Li11  1  0.602168  0.000000  0.130248  1
  Li  Li12  1  0.311316  0.000000  0.270133  1
  Li  Li13  1  0.688684  0.688684  0.270133  1
  Li  Li14  1  0.000000  0.688684  0.770133  1
  Li  Li15  1  0.311316  0.311316  0.770133  1
  Ge  Ge16  1  0.000000  0.000000  0.499645  1
  Ge  Ge17  1  0.000000  0.000000  0.999645  1
  O  O18  1  0.000000  0.304956  0.452558  1
  O  O19  1  0.695044  0.695044  0.452558  1
  O  O20  1  0.000000  0.000000  0.167124  1
  O  O21  1  0.000000  0.000000  0.667124  1
  O  O22  1  0.333333  0.666667  0.219041  1
  O  O23  1  0.666667  0.333333  0.719041  1
  O  O24  1  0.333333  0.666667  0.719041  1
  O  O25  1  0.695044  0.000000  0.952558  1
  O  O26  1  0.304956  0.000000  0.452558  1
  O  O27  1  0.304956  0.304956  0.952558  1
  O  O28  1  0.000000  0.695044  0.952558  1
  O  O29  1  0.666667  0.333333  0.219041  1
