# generated using pymatgen
data_Ba(AuF4)2
_symmetry_space_group_name_H-M   'P 1'
_cell_length_a   8.08425698
_cell_length_b   8.08425698
_cell_length_c   8.08425698
_cell_angle_alpha   103.45257095
_cell_angle_beta   103.45257095
_cell_angle_gamma   122.32487530
_symmetry_Int_Tables_number   1
_chemical_formula_structural   Ba(AuF4)2
_chemical_formula_sum   'Ba2 Au4 F16'
_cell_volume   391.10359766
_cell_formula_units_Z   2
loop_
 _symmetry_equiv_pos_site_id
 _symmetry_equiv_pos_as_xyz
  1  'x, y, z'
loop_
 _atom_site_type_symbol
 _atom_site_label
 _atom_site_symmetry_multiplicity
 _atom_site_fract_x
 _atom_site_fract_y
 _atom_site_fract_z
 _atom_site_occupancy
  Ba  Ba0  1  0.000000  0.000000  0.000000  1
  Ba  Ba1  1  0.750000  0.250000  0.500000  1
  Au  Au2  1  0.849517  0.789569  0.384569  1
  Au  Au3  1  0.210431  0.595000  0.059948  1
  Au  Au4  1  0.405000  0.464948  0.615431  1
  Au  Au5  1  0.535052  0.150483  0.940052  1
  F  F6  1  0.119707  0.723259  0.918827  1
  F  F7  1  0.799120  0.880293  0.603552  1
  F  F8  1  0.276741  0.195568  0.396448  1
  F  F9  1  0.804432  0.200880  0.081173  1
  F  F10  1  0.498866  0.219124  0.172963  1
  F  F11  1  0.674097  0.501134  0.720258  1
  F  F12  1  0.369238  0.856871  0.294190  1
  F  F13  1  0.924952  0.630762  0.487633  1
  F  F14  1  0.143129  0.437319  0.512367  1
  F  F15  1  0.562681  0.075048  0.705810  1
  F  F16  1  0.542217  0.731383  0.840386  1
  F  F17  1  0.298169  0.457783  0.189166  1
  F  F18  1  0.268617  0.109004  0.810834  1
  F  F19  1  0.890996  0.701831  0.159614  1
  F  F20  1  0.046161  0.325903  0.827037  1
  F  F21  1  0.780876  0.953839  0.279742  1
