# generated using pymatgen
data_CaSe2O5
_symmetry_space_group_name_H-M   'P 1'
_cell_length_a   6.62248773
_cell_length_b   10.36621436
_cell_length_c   14.88214634
_cell_angle_alpha   90.00000000
_cell_angle_beta   90.00000000
_cell_angle_gamma   90.00000000
_symmetry_Int_Tables_number   1
_chemical_formula_structural   CaSe2O5
_chemical_formula_sum   'Ca8 Se16 O40'
_cell_volume   1021.66124231
_cell_formula_units_Z   8
loop_
 _symmetry_equiv_pos_site_id
 _symmetry_equiv_pos_as_xyz
  1  'x, y, z'
loop_
 _atom_site_type_symbol
 _atom_site_label
 _atom_site_symmetry_multiplicity
 _atom_site_fract_x
 _atom_site_fract_y
 _atom_site_fract_z
 _atom_site_occupancy
  Ca  Ca0  1  0.555598  0.359664  0.593261  1
  Ca  Ca1  1  0.055598  0.640336  0.906739  1
  Ca  Ca2  1  0.944402  0.859664  0.406739  1
  Ca  Ca3  1  0.444402  0.140336  0.093261  1
  Ca  Ca4  1  0.444402  0.640336  0.406739  1
  Ca  Ca5  1  0.944402  0.359664  0.093261  1
  Ca  Ca6  1  0.055598  0.140336  0.593261  1
  Ca  Ca7  1  0.555598  0.859664  0.906739  1
  Se  Se8  1  0.889409  0.135942  0.270756  1
  Se  Se9  1  0.389409  0.864058  0.229244  1
  Se  Se10  1  0.610591  0.635942  0.729244  1
  Se  Se11  1  0.110591  0.364058  0.770756  1
  Se  Se12  1  0.110591  0.864058  0.729244  1
  Se  Se13  1  0.610591  0.135942  0.770756  1
  Se  Se14  1  0.389409  0.364058  0.270756  1
  Se  Se15  1  0.889409  0.635942  0.229244  1
  Se  Se16  1  0.853302  0.375226  0.417323  1
  Se  Se17  1  0.353302  0.624774  0.082677  1
  Se  Se18  1  0.646698  0.875226  0.582677  1
  Se  Se19  1  0.146698  0.124774  0.917323  1
  Se  Se20  1  0.146698  0.624774  0.582677  1
  Se  Se21  1  0.646698  0.375226  0.917323  1
  Se  Se22  1  0.353302  0.124774  0.417323  1
  Se  Se23  1  0.853302  0.875226  0.082677  1
  O  O24  1  0.756237  0.191774  0.180590  1
  O  O25  1  0.256237  0.808226  0.319410  1
  O  O26  1  0.743763  0.691774  0.819410  1
  O  O27  1  0.243763  0.308226  0.680590  1
  O  O28  1  0.243763  0.808226  0.819410  1
  O  O29  1  0.743763  0.191774  0.680590  1
  O  O30  1  0.256237  0.308226  0.180590  1
  O  O31  1  0.756237  0.691774  0.319410  1
  O  O32  1  0.788899  0.990376  0.293557  1
  O  O33  1  0.288899  0.009624  0.206443  1
  O  O34  1  0.711101  0.490376  0.706443  1
  O  O35  1  0.211101  0.509624  0.793557  1
  O  O36  1  0.211101  0.009624  0.706443  1
  O  O37  1  0.711101  0.990376  0.793557  1
  O  O38  1  0.288899  0.509624  0.293557  1
  O  O39  1  0.898760  0.319391  0.522976  1
  O  O40  1  0.788899  0.490376  0.206443  1
  O  O41  1  0.252899  0.773119  0.135105  1
  O  O42  1  0.747101  0.726881  0.635105  1
  O  O43  1  0.247101  0.273119  0.864895  1
  O  O44  1  0.247101  0.773119  0.635105  1
  O  O45  1  0.747101  0.226881  0.864895  1
  O  O46  1  0.252899  0.273119  0.364895  1
  O  O47  1  0.752899  0.726881  0.135105  1
  O  O48  1  0.625415  0.945398  0.062417  1
  O  O49  1  0.125415  0.054602  0.437583  1
  O  O50  1  0.874585  0.445398  0.937583  1
  O  O51  1  0.374585  0.554602  0.562417  1
  O  O52  1  0.374585  0.054602  0.937583  1
  O  O53  1  0.874585  0.945398  0.562417  1
  O  O54  1  0.125415  0.554602  0.062417  1
  O  O55  1  0.625415  0.445398  0.437583  1
  O  O56  1  0.898760  0.819391  0.977024  1
  O  O57  1  0.398760  0.180609  0.522976  1
  O  O58  1  0.601240  0.319391  0.022976  1
  O  O59  1  0.101240  0.680609  0.477024  1
  O  O60  1  0.101240  0.180609  0.022976  1
  O  O61  1  0.601240  0.819391  0.477024  1
  O  O62  1  0.398760  0.680609  0.977024  1
  O  O63  1  0.752899  0.226881  0.364895  1
