# generated using pymatgen
data_CeBPt3
_symmetry_space_group_name_H-M   'P 1'
_cell_length_a   3.97759313
_cell_length_b   3.97759313
_cell_length_c   5.21260103
_cell_angle_alpha   90.00000000
_cell_angle_beta   90.00000000
_cell_angle_gamma   90.00000000
_symmetry_Int_Tables_number   1
_chemical_formula_structural   CeBPt3
_chemical_formula_sum   'Ce1 B1 Pt3'
_cell_volume   82.46984897
_cell_formula_units_Z   1
loop_
 _symmetry_equiv_pos_site_id
 _symmetry_equiv_pos_as_xyz
  1  'x, y, z'
loop_
 _atom_site_type_symbol
 _atom_site_label
 _atom_site_symmetry_multiplicity
 _atom_site_fract_x
 _atom_site_fract_y
 _atom_site_fract_z
 _atom_site_occupancy
  Ce  Ce0  1  0.000000  0.000000  0.979304  1
  B  B1  1  0.500000  0.500000  0.711928  1
  Pt  Pt2  1  0.000000  0.500000  0.514646  1
  Pt  Pt3  1  0.500000  0.500000  0.121375  1
  Pt  Pt4  1  0.500000  0.000000  0.514646  1
