# generated using pymatgen
data_Re3(TeI)7
_symmetry_space_group_name_H-M   'P 1'
_cell_length_a   11.16040357
_cell_length_b   11.23665129
_cell_length_c   12.43574878
_cell_angle_alpha   86.70143266
_cell_angle_beta   105.01387358
_cell_angle_gamma   118.10454717
_symmetry_Int_Tables_number   1
_chemical_formula_structural   Re3(TeI)7
_chemical_formula_sum   'Re6 Te14 I14'
_cell_volume   1324.85692922
_cell_formula_units_Z   2
loop_
 _symmetry_equiv_pos_site_id
 _symmetry_equiv_pos_as_xyz
  1  'x, y, z'
loop_
 _atom_site_type_symbol
 _atom_site_label
 _atom_site_symmetry_multiplicity
 _atom_site_fract_x
 _atom_site_fract_y
 _atom_site_fract_z
 _atom_site_occupancy
  Re  Re0  1  0.938532  0.117645  0.911801  1
  Re  Re1  1  0.061468  0.882355  0.088199  1
  Re  Re2  1  0.844105  0.845875  0.907759  1
  Re  Re3  1  0.155895  0.154125  0.092241  1
  Re  Re4  1  0.113801  0.015723  0.901841  1
  Re  Re5  1  0.886199  0.984277  0.098159  1
  Te  Te6  1  0.848653  0.287544  0.800881  1
  Te  Te7  1  0.151347  0.712456  0.199119  1
  Te  Te8  1  0.623881  0.617125  0.797215  1
  Te  Te9  1  0.376119  0.382875  0.202785  1
  Te  Te10  1  0.292310  0.042912  0.778924  1
  Te  Te11  1  0.707690  0.957088  0.221076  1
  Te  Te12  1  0.669415  0.948014  0.917267  1
  Te  Te13  1  0.330585  0.051986  0.082733  1
  Te  Te14  1  0.018776  0.743710  0.897049  1
  Te  Te15  1  0.981224  0.256290  0.102951  1
  Te  Te16  1  0.897124  0.978892  0.722466  1
  Te  Te17  1  0.102876  0.021108  0.277534  1
  Te  Te18  1  0.207727  0.286809  0.904694  1
  Te  Te19  1  0.792273  0.713191  0.095306  1
  I  I20  1  0.390769  0.874610  0.368569  1
  I  I21  1  0.609231  0.125390  0.631431  1
  I  I22  1  0.982129  0.595561  0.354841  1
  I  I23  1  0.017871  0.404439  0.645159  1
  I  I24  1  0.359840  0.689222  0.057781  1
  I  I25  1  0.640160  0.310778  0.942219  1
  I  I26  1  0.702632  0.548165  0.623758  1
  I  I27  1  0.297368  0.451835  0.376242  1
  I  I28  1  0.143851  0.828030  0.611011  1
  I  I29  1  0.856149  0.171970  0.388989  1
  I  I30  1  0.288479  0.231343  0.623499  1
  I  I31  1  0.711521  0.768657  0.376501  1
  I  I32  1  0.433547  0.692777  0.657087  1
  I  I33  1  0.566453  0.307223  0.342913  1
