# generated using pymatgen
data_Zr2Ni7
_symmetry_space_group_name_H-M   'P 1'
_cell_length_a   4.73733161
_cell_length_b   4.73733161
_cell_length_c   6.28948953
_cell_angle_alpha   82.12991376
_cell_angle_beta   97.87008624
_cell_angle_gamma   59.35718060
_symmetry_Int_Tables_number   1
_chemical_formula_structural   Zr2Ni7
_chemical_formula_sum   'Zr2 Ni7'
_cell_volume   116.70448606
_cell_formula_units_Z   1
loop_
 _symmetry_equiv_pos_site_id
 _symmetry_equiv_pos_as_xyz
  1  'x, y, z'
loop_
 _atom_site_type_symbol
 _atom_site_label
 _atom_site_symmetry_multiplicity
 _atom_site_fract_x
 _atom_site_fract_y
 _atom_site_fract_z
 _atom_site_occupancy
  Zr  Zr0  1  0.392911  0.607089  0.228293  1
  Zr  Zr1  1  0.607089  0.392911  0.771707  1
  Ni  Ni2  1  0.000000  0.000000  0.500000  1
  Ni  Ni3  1  0.039375  0.292345  0.156409  1
  Ni  Ni4  1  0.292345  0.039375  0.843591  1
  Ni  Ni5  1  0.960625  0.707655  0.843591  1
  Ni  Ni6  1  0.707655  0.960625  0.156409  1
  Ni  Ni7  1  0.000000  0.500000  0.500000  1
  Ni  Ni8  1  0.500000  1.000000  0.500000  1
