# generated using pymatgen
data_BaTbO3
_symmetry_space_group_name_H-M   'P 1'
_cell_length_a   6.25740981
_cell_length_b   6.32394237
_cell_length_c   8.80163732
_cell_angle_alpha   90.00000000
_cell_angle_beta   90.00000000
_cell_angle_gamma   90.00000000
_symmetry_Int_Tables_number   1
_chemical_formula_structural   BaTbO3
_chemical_formula_sum   'Ba4 Tb4 O12'
_cell_volume   348.29398262
_cell_formula_units_Z   4
loop_
 _symmetry_equiv_pos_site_id
 _symmetry_equiv_pos_as_xyz
  1  'x, y, z'
loop_
 _atom_site_type_symbol
 _atom_site_label
 _atom_site_symmetry_multiplicity
 _atom_site_fract_x
 _atom_site_fract_y
 _atom_site_fract_z
 _atom_site_occupancy
  Ba  Ba0  1  0.994901  0.011134  0.250000  1
  Ba  Ba1  1  0.494901  0.488866  0.250000  1
  Ba  Ba2  1  0.505099  0.511134  0.750000  1
  Ba  Ba3  1  0.005099  0.988866  0.750000  1
  Tb  Tb4  1  0.000000  0.500000  0.000000  1
  Tb  Tb5  1  0.500000  0.000000  0.500000  1
  Tb  Tb6  1  0.500000  0.000000  0.000000  1
  Tb  Tb7  1  0.000000  0.500000  0.500000  1
  O  O8  1  0.755043  0.755072  0.547308  1
  O  O9  1  0.255043  0.744928  0.952692  1
  O  O10  1  0.744957  0.255072  0.452692  1
  O  O11  1  0.244957  0.244928  0.047308  1
  O  O12  1  0.244957  0.244928  0.452692  1
  O  O13  1  0.744957  0.255072  0.047308  1
  O  O14  1  0.255043  0.744928  0.547308  1
  O  O15  1  0.755043  0.755072  0.952692  1
  O  O16  1  0.503467  0.918990  0.250000  1
  O  O17  1  0.003467  0.581010  0.250000  1
  O  O18  1  0.996533  0.418990  0.750000  1
  O  O19  1  0.496533  0.081010  0.750000  1
