# generated using pymatgen
data_YSi3Ni5
_symmetry_space_group_name_H-M   'P 1'
_cell_length_a   3.79180179
_cell_length_b   6.63138639
_cell_length_c   18.71870978
_cell_angle_alpha   90.00000000
_cell_angle_beta   90.00000000
_cell_angle_gamma   90.00000000
_symmetry_Int_Tables_number   1
_chemical_formula_structural   YSi3Ni5
_chemical_formula_sum   'Y4 Si12 Ni20'
_cell_volume   470.68013766
_cell_formula_units_Z   4
loop_
 _symmetry_equiv_pos_site_id
 _symmetry_equiv_pos_as_xyz
  1  'x, y, z'
loop_
 _atom_site_type_symbol
 _atom_site_label
 _atom_site_symmetry_multiplicity
 _atom_site_fract_x
 _atom_site_fract_y
 _atom_site_fract_z
 _atom_site_occupancy
  Y  Y0  1  0.250000  0.622894  0.643699  1
  Y  Y1  1  0.750000  0.377106  0.356301  1
  Y  Y2  1  0.750000  0.122894  0.856301  1
  Y  Y3  1  0.250000  0.877106  0.143699  1
  Si  Si4  1  0.250000  0.844111  0.925554  1
  Si  Si5  1  0.750000  0.155889  0.074446  1
  Si  Si6  1  0.750000  0.344111  0.574446  1
  Si  Si7  1  0.250000  0.655889  0.425554  1
  Si  Si8  1  0.750000  0.621608  0.762617  1
  Si  Si9  1  0.250000  0.378392  0.237383  1
  Si  Si10  1  0.250000  0.418277  0.914242  1
  Si  Si11  1  0.750000  0.581723  0.085758  1
  Si  Si12  1  0.750000  0.918277  0.585758  1
  Si  Si13  1  0.250000  0.081723  0.414242  1
  Si  Si14  1  0.250000  0.121608  0.737383  1
  Si  Si15  1  0.750000  0.878392  0.262617  1
  Ni  Ni16  1  0.250000  0.133386  0.994702  1
  Ni  Ni17  1  0.750000  0.384262  0.984984  1
  Ni  Ni18  1  0.750000  0.115738  0.484984  1
  Ni  Ni19  1  0.250000  0.615738  0.015016  1
  Ni  Ni20  1  0.250000  0.356946  0.115024  1
  Ni  Ni21  1  0.750000  0.643054  0.884976  1
  Ni  Ni22  1  0.750000  0.856946  0.384976  1
  Ni  Ni23  1  0.250000  0.143054  0.615024  1
  Ni  Ni24  1  0.250000  0.069285  0.293549  1
  Ni  Ni25  1  0.750000  0.930715  0.706451  1
  Ni  Ni26  1  0.750000  0.569285  0.206451  1
  Ni  Ni27  1  0.250000  0.430715  0.793549  1
  Ni  Ni28  1  0.750000  0.633386  0.505298  1
  Ni  Ni29  1  0.250000  0.366614  0.494702  1
  Ni  Ni30  1  0.250000  0.814364  0.800422  1
  Ni  Ni31  1  0.750000  0.185636  0.199578  1
  Ni  Ni32  1  0.750000  0.314364  0.699578  1
  Ni  Ni33  1  0.250000  0.685636  0.300422  1
  Ni  Ni34  1  0.250000  0.884262  0.515016  1
  Ni  Ni35  1  0.750000  0.866614  0.005298  1
