# generated using pymatgen
data_Mo9Se11
_symmetry_space_group_name_H-M   'P 1'
_cell_length_a   9.02403749
_cell_length_b   9.02403749
_cell_length_c   11.17894854
_cell_angle_alpha   90.00000000
_cell_angle_beta   90.00000000
_cell_angle_gamma   95.79067035
_symmetry_Int_Tables_number   1
_chemical_formula_structural   Mo9Se11
_chemical_formula_sum   'Mo18 Se22'
_cell_volume   905.69282250
_cell_formula_units_Z   2
loop_
 _symmetry_equiv_pos_site_id
 _symmetry_equiv_pos_as_xyz
  1  'x, y, z'
loop_
 _atom_site_type_symbol
 _atom_site_label
 _atom_site_symmetry_multiplicity
 _atom_site_fract_x
 _atom_site_fract_y
 _atom_site_fract_z
 _atom_site_occupancy
  Mo  Mo0  1  0.900688  0.481586  0.629777  1
  Mo  Mo1  1  0.099312  0.518414  0.129777  1
  Mo  Mo2  1  0.481586  0.900688  0.370223  1
  Mo  Mo3  1  0.518414  0.099312  0.870223  1
  Mo  Mo4  1  0.099312  0.518414  0.370223  1
  Mo  Mo5  1  0.900688  0.481586  0.870223  1
  Mo  Mo6  1  0.518414  0.099312  0.629777  1
  Mo  Mo7  1  0.481586  0.900688  0.129777  1
  Mo  Mo8  1  0.927163  0.692999  0.250000  1
  Mo  Mo9  1  0.072837  0.307001  0.750000  1
  Mo  Mo10  1  0.692999  0.927163  0.750000  1
  Mo  Mo11  1  0.307001  0.072837  0.250000  1
  Mo  Mo12  1  0.646935  0.353065  0.750000  1
  Mo  Mo13  1  0.353065  0.646935  0.250000  1
  Mo  Mo14  1  0.177990  0.822010  0.371511  1
  Mo  Mo15  1  0.822010  0.177990  0.871511  1
  Mo  Mo16  1  0.822010  0.177990  0.628489  1
  Mo  Mo17  1  0.177990  0.822010  0.128489  1
  Se  Se18  1  0.871558  0.413888  0.250000  1
  Se  Se19  1  0.128442  0.586112  0.750000  1
  Se  Se20  1  0.413888  0.871558  0.750000  1
  Se  Se21  1  0.586112  0.128442  0.250000  1
  Se  Se22  1  0.708076  0.944085  0.518244  1
  Se  Se23  1  0.291924  0.055915  0.018244  1
  Se  Se24  1  0.944085  0.708076  0.481756  1
  Se  Se25  1  0.055915  0.291924  0.981756  1
  Se  Se26  1  0.291924  0.055915  0.481756  1
  Se  Se27  1  0.708076  0.944085  0.981756  1
  Se  Se28  1  0.055915  0.291924  0.518244  1
  Se  Se29  1  0.944085  0.708076  0.018244  1
  Se  Se30  1  0.279454  0.366109  0.250000  1
  Se  Se31  1  0.720546  0.633891  0.750000  1
  Se  Se32  1  0.366109  0.279454  0.750000  1
  Se  Se33  1  0.633891  0.720546  0.250000  1
  Se  Se34  1  0.345650  0.654350  0.482360  1
  Se  Se35  1  0.654350  0.345650  0.982360  1
  Se  Se36  1  0.012139  0.987861  0.250000  1
  Se  Se37  1  0.987861  0.012139  0.750000  1
  Se  Se38  1  0.345650  0.654350  0.017640  1
  Se  Se39  1  0.654350  0.345650  0.517640  1
