# generated using pymatgen
data_Tl4Sn5S12
_symmetry_space_group_name_H-M   'P 1'
_cell_length_a   7.50399246
_cell_length_b   9.87483602
_cell_length_c   17.36787746
_cell_angle_alpha   104.99746174
_cell_angle_beta   90.12190139
_cell_angle_gamma   111.92491341
_symmetry_Int_Tables_number   1
_chemical_formula_structural   Tl4Sn5S12
_chemical_formula_sum   'Tl8 Sn10 S24'
_cell_volume   1146.19862997
_cell_formula_units_Z   2
loop_
 _symmetry_equiv_pos_site_id
 _symmetry_equiv_pos_as_xyz
  1  'x, y, z'
loop_
 _atom_site_type_symbol
 _atom_site_label
 _atom_site_symmetry_multiplicity
 _atom_site_fract_x
 _atom_site_fract_y
 _atom_site_fract_z
 _atom_site_occupancy
  Tl  Tl0  1  0.312608  0.059645  0.701983  1
  Tl  Tl1  1  0.687392  0.940355  0.298017  1
  Tl  Tl2  1  0.101407  0.607880  0.854664  1
  Tl  Tl3  1  0.898593  0.392120  0.145336  1
  Tl  Tl4  1  0.417406  0.540221  0.612654  1
  Tl  Tl5  1  0.582594  0.459779  0.387346  1
  Tl  Tl6  1  0.624624  0.660579  0.856832  1
  Tl  Tl7  1  0.375376  0.339421  0.143168  1
  Sn  Sn8  1  0.683147  0.991872  0.582497  1
  Sn  Sn9  1  0.316853  0.008128  0.417503  1
  Sn  Sn10  1  0.017771  0.726346  0.597244  1
  Sn  Sn11  1  0.982229  0.273654  0.402756  1
  Sn  Sn12  1  0.884462  0.301812  0.729986  1
  Sn  Sn13  1  0.115538  0.698188  0.270014  1
  Sn  Sn14  1  0.687589  0.179848  0.947510  1
  Sn  Sn15  1  0.312411  0.820152  0.052490  1
  Sn  Sn16  1  0.184713  0.177198  0.942123  1
  Sn  Sn17  1  0.815287  0.822802  0.057877  1
  S  S18  1  0.471583  0.154180  0.521906  1
  S  S19  1  0.528417  0.845820  0.478094  1
  S  S20  1  0.012132  0.162002  0.545553  1
  S  S21  1  0.987868  0.837998  0.454447  1
  S  S22  1  0.730512  0.041139  0.721501  1
  S  S23  1  0.269488  0.958861  0.278499  1
  S  S24  1  0.330362  0.770470  0.672821  1
  S  S25  1  0.669638  0.229530  0.327179  1
  S  S26  1  0.881979  0.458793  0.592704  1
  S  S27  1  0.118021  0.541207  0.407296  1
  S  S28  1  0.810437  0.768843  0.670682  1
  S  S29  1  0.189563  0.231157  0.329318  1
  S  S30  1  0.210461  0.354168  0.798137  1
  S  S31  1  0.789539  0.645832  0.201863  1
  S  S32  1  0.337429  0.006246  0.908014  1
  S  S33  1  0.662571  0.993754  0.091986  1
  S  S34  1  0.693425  0.360549  0.803253  1
  S  S35  1  0.306575  0.639451  0.196747  1
  S  S36  1  0.961895  0.671624  0.007984  1
  S  S37  1  0.038105  0.328376  0.992016  1
  S  S38  1  0.469958  0.661919  0.016852  1
  S  S39  1  0.530042  0.338081  0.983148  1
  S  S40  1  0.170354  0.994430  0.087592  1
  S  S41  1  0.829646  0.005570  0.912408  1
