# generated using pymatgen
data_Sn2P3O10
_symmetry_space_group_name_H-M   'P 1'
_cell_length_a   5.16487567
_cell_length_b   9.46127924
_cell_length_c   9.41183900
_cell_angle_alpha   90.00000000
_cell_angle_beta   102.27315131
_cell_angle_gamma   90.00000000
_symmetry_Int_Tables_number   1
_chemical_formula_structural   Sn2P3O10
_chemical_formula_sum   'Sn4 P6 O20'
_cell_volume   449.41065593
_cell_formula_units_Z   2
loop_
 _symmetry_equiv_pos_site_id
 _symmetry_equiv_pos_as_xyz
  1  'x, y, z'
loop_
 _atom_site_type_symbol
 _atom_site_label
 _atom_site_symmetry_multiplicity
 _atom_site_fract_x
 _atom_site_fract_y
 _atom_site_fract_z
 _atom_site_occupancy
  Sn  Sn0  1  0.048204  0.956873  0.340682  1
  Sn  Sn1  1  0.048204  0.543127  0.340682  1
  Sn  Sn2  1  0.951796  0.456873  0.659318  1
  Sn  Sn3  1  0.951796  0.043127  0.659318  1
  P  P4  1  0.263323  0.750000  0.852678  1
  P  P5  1  0.487214  0.250000  0.409409  1
  P  P6  1  0.551475  0.250000  0.820824  1
  P  P7  1  0.448525  0.750000  0.179176  1
  P  P8  1  0.512786  0.750000  0.590591  1
  P  P9  1  0.736677  0.250000  0.147322  1
  O  O10  1  0.105565  0.886153  0.831158  1
  O  O11  1  0.105565  0.613847  0.831158  1
  O  O12  1  0.253635  0.250000  0.746472  1
  O  O13  1  0.343325  0.385575  0.430281  1
  O  O14  1  0.343325  0.114425  0.430281  1
  O  O15  1  0.232801  0.750000  0.489654  1
  O  O16  1  0.306111  0.886249  0.207005  1
  O  O17  1  0.306111  0.613751  0.207005  1
  O  O18  1  0.457412  0.750000  0.008619  1
  O  O19  1  0.485186  0.750000  0.758754  1
  O  O20  1  0.514814  0.250000  0.241246  1
  O  O21  1  0.542588  0.250000  0.991381  1
  O  O22  1  0.693889  0.386249  0.792995  1
  O  O23  1  0.693889  0.113751  0.792995  1
  O  O24  1  0.767199  0.250000  0.510346  1
  O  O25  1  0.656675  0.885575  0.569719  1
  O  O26  1  0.656675  0.614425  0.569719  1
  O  O27  1  0.746365  0.750000  0.253528  1
  O  O28  1  0.894435  0.386153  0.168842  1
  O  O29  1  0.894435  0.113847  0.168842  1
