# generated using pymatgen
data_La5Ti5O17
_symmetry_space_group_name_H-M   'P 1'
_cell_length_a   3.96781550
_cell_length_b   5.54592699
_cell_length_c   31.76261116
_cell_angle_alpha   90.00000000
_cell_angle_beta   90.00000000
_cell_angle_gamma   90.00000000
_symmetry_Int_Tables_number   1
_chemical_formula_structural   La5Ti5O17
_chemical_formula_sum   'La10 Ti10 O34'
_cell_volume   698.94308914
_cell_formula_units_Z   2
loop_
 _symmetry_equiv_pos_site_id
 _symmetry_equiv_pos_as_xyz
  1  'x, y, z'
loop_
 _atom_site_type_symbol
 _atom_site_label
 _atom_site_symmetry_multiplicity
 _atom_site_fract_x
 _atom_site_fract_y
 _atom_site_fract_z
 _atom_site_occupancy
  La  La0  1  0.000000  0.238648  0.112456  1
  La  La1  1  0.500000  0.761352  0.612456  1
  La  La2  1  0.000000  0.755741  0.205469  1
  La  La3  1  0.500000  0.244259  0.705469  1
  La  La4  1  0.000000  0.270539  0.297796  1
  La  La5  1  0.500000  0.729461  0.797796  1
  La  La6  1  0.000000  0.674224  0.420357  1
  La  La7  1  0.500000  0.325776  0.920357  1
  La  La8  1  0.500000  0.172649  0.490231  1
  La  La9  1  0.000000  0.827351  0.990231  1
  Ti  Ti10  1  0.500000  0.289286  0.028707  1
  Ti  Ti11  1  0.000000  0.710714  0.528707  1
  Ti  Ti12  1  0.500000  0.760397  0.114518  1
  Ti  Ti13  1  0.000000  0.239603  0.614518  1
  Ti  Ti14  1  0.500000  0.257396  0.205138  1
  Ti  Ti15  1  0.000000  0.742604  0.705138  1
  Ti  Ti16  1  0.500000  0.750648  0.296411  1
  Ti  Ti17  1  0.000000  0.249352  0.796411  1
  Ti  Ti18  1  0.500000  0.216348  0.382002  1
  Ti  Ti19  1  0.000000  0.783652  0.882002  1
  O  O20  1  0.000000  0.249688  0.034123  1
  O  O21  1  0.500000  0.750312  0.534123  1
  O  O22  1  0.500000  0.975337  0.070487  1
  O  O23  1  0.000000  0.024663  0.570487  1
  O  O24  1  0.500000  0.454420  0.084866  1
  O  O25  1  0.000000  0.545580  0.584866  1
  O  O26  1  0.000000  0.751527  0.123027  1
  O  O27  1  0.500000  0.248473  0.623027  1
  O  O28  1  0.500000  0.056566  0.153871  1
  O  O29  1  0.000000  0.943434  0.653871  1
  O  O30  1  0.500000  0.558354  0.171853  1
  O  O31  1  0.000000  0.441646  0.671853  1
  O  O32  1  0.000000  0.260115  0.204981  1
  O  O33  1  0.500000  0.739885  0.704981  1
  O  O34  1  0.500000  0.962727  0.239012  1
  O  O35  1  0.000000  0.037273  0.739012  1
  O  O36  1  0.500000  0.462099  0.256502  1
  O  O37  1  0.000000  0.537901  0.756502  1
  O  O38  1  0.000000  0.763785  0.287704  1
  O  O39  1  0.500000  0.236215  0.787704  1
  O  O40  1  0.500000  0.066499  0.981673  1
  O  O41  1  0.000000  0.933501  0.481673  1
  O  O42  1  0.500000  0.553628  0.993854  1
  O  O43  1  0.000000  0.446372  0.493854  1
  O  O44  1  0.000000  0.048448  0.916542  1
  O  O45  1  0.500000  0.951552  0.416542  1
  O  O46  1  0.000000  0.562781  0.929134  1
  O  O47  1  0.500000  0.437219  0.429134  1
  O  O48  1  0.500000  0.741345  0.876279  1
  O  O49  1  0.000000  0.258655  0.376279  1
  O  O50  1  0.000000  0.461844  0.840487  1
  O  O51  1  0.500000  0.538156  0.340487  1
  O  O52  1  0.000000  0.940384  0.825518  1
  O  O53  1  0.500000  0.059616  0.325518  1
