# generated using pymatgen
data_Fe2O3
_symmetry_space_group_name_H-M   'P 1'
_cell_length_a   5.48378753
_cell_length_b   5.48378753
_cell_length_c   5.48378753
_cell_angle_alpha   55.86490413
_cell_angle_beta   55.86490413
_cell_angle_gamma   55.86490413
_symmetry_Int_Tables_number   1
_chemical_formula_structural   Fe2O3
_chemical_formula_sum   'Fe4 O6'
_cell_volume   105.43004786
_cell_formula_units_Z   2
loop_
 _symmetry_equiv_pos_site_id
 _symmetry_equiv_pos_as_xyz
  1  'x, y, z'
loop_
 _atom_site_type_symbol
 _atom_site_label
 _atom_site_symmetry_multiplicity
 _atom_site_fract_x
 _atom_site_fract_y
 _atom_site_fract_z
 _atom_site_occupancy
  Fe  Fe0  1  0.646578  0.646578  0.646578  1
  Fe  Fe1  1  0.853422  0.853422  0.853422  1
  Fe  Fe2  1  0.353422  0.353422  0.353422  1
  Fe  Fe3  1  0.146578  0.146578  0.146578  1
  O  O4  1  0.053264  0.750000  0.446736  1
  O  O5  1  0.446736  0.053264  0.750000  1
  O  O6  1  0.250000  0.553264  0.946736  1
  O  O7  1  0.553264  0.946736  0.250000  1
  O  O8  1  0.946736  0.250000  0.553264  1
  O  O9  1  0.750000  0.446736  0.053264  1
