# generated using pymatgen
data_B5H9
_symmetry_space_group_name_H-M   'P 1'
_cell_length_a   10.54069410
_cell_length_b   10.54069410
_cell_length_c   10.38275226
_cell_angle_alpha   90.00000000
_cell_angle_beta   90.00000000
_cell_angle_gamma   90.00000000
_symmetry_Int_Tables_number   1
_chemical_formula_structural   B5H9
_chemical_formula_sum   'B40 H72'
_cell_volume   1153.58848254
_cell_formula_units_Z   8
loop_
 _symmetry_equiv_pos_site_id
 _symmetry_equiv_pos_as_xyz
  1  'x, y, z'
loop_
 _atom_site_type_symbol
 _atom_site_label
 _atom_site_symmetry_multiplicity
 _atom_site_fract_x
 _atom_site_fract_y
 _atom_site_fract_z
 _atom_site_occupancy
  B  B0  1  0.821900  0.375164  0.069997  1
  B  B1  1  0.375164  0.178100  0.319997  1
  B  B2  1  0.624836  0.821900  0.819997  1
  B  B3  1  0.178100  0.624836  0.569997  1
  B  B4  1  0.336864  0.647421  0.513911  1
  B  B5  1  0.647421  0.663136  0.763911  1
  B  B6  1  0.352579  0.336864  0.263911  1
  B  B7  1  0.663136  0.352579  0.013911  1
  B  B8  1  0.298199  0.805613  0.466165  1
  B  B9  1  0.805613  0.701801  0.716165  1
  B  B10  1  0.194387  0.298199  0.216165  1
  B  B11  1  0.701801  0.194387  0.966165  1
  B  B12  1  0.139306  0.783416  0.522044  1
  B  B13  1  0.783416  0.860694  0.772044  1
  B  B14  1  0.216584  0.139306  0.272044  1
  B  B15  1  0.860694  0.216584  0.022044  1
  B  B16  1  0.266537  0.751104  0.616283  1
  B  B17  1  0.751104  0.733463  0.866283  1
  B  B18  1  0.248896  0.266537  0.366283  1
  B  B19  1  0.733463  0.248896  0.116283  1
  B  B20  1  0.723249  0.218622  0.566927  1
  B  B21  1  0.218622  0.276751  0.816927  1
  B  B22  1  0.781378  0.723249  0.316927  1
  B  B23  1  0.276751  0.781378  0.066927  1
  B  B24  1  0.885210  0.199351  0.519609  1
  B  B25  1  0.199351  0.114790  0.769609  1
  B  B26  1  0.800649  0.885210  0.269609  1
  B  B27  1  0.114790  0.800649  0.019609  1
  B  B28  1  0.885920  0.356936  0.455995  1
  B  B29  1  0.356936  0.114080  0.705995  1
  B  B30  1  0.643064  0.885920  0.205995  1
  B  B31  1  0.114080  0.643064  0.955995  1
  B  B32  1  0.724027  0.376223  0.502798  1
  B  B33  1  0.376223  0.275973  0.752798  1
  B  B34  1  0.623777  0.724027  0.252798  1
  B  B35  1  0.275973  0.623777  0.002798  1
  B  B36  1  0.836322  0.325641  0.607944  1
  B  B37  1  0.325641  0.163678  0.857944  1
  B  B38  1  0.674359  0.836322  0.357944  1
  B  B39  1  0.163678  0.674359  0.107944  1
  H  H40  1  0.094610  0.669731  0.482226  1
  H  H41  1  0.669731  0.905390  0.732226  1
  H  H42  1  0.330269  0.094610  0.232226  1
  H  H43  1  0.905390  0.330269  0.982226  1
  H  H44  1  0.244535  0.566591  0.475751  1
  H  H45  1  0.566591  0.755465  0.725751  1
  H  H46  1  0.433409  0.244535  0.225751  1
  H  H47  1  0.755465  0.433409  0.975751  1
  H  H48  1  0.335759  0.703746  0.397064  1
  H  H49  1  0.703746  0.664241  0.647064  1
  H  H50  1  0.296254  0.335759  0.147064  1
  H  H51  1  0.664241  0.296254  0.897064  1
  H  H52  1  0.185862  0.806282  0.403136  1
  H  H53  1  0.806282  0.814138  0.653136  1
  H  H54  1  0.193718  0.185862  0.153136  1
  H  H55  1  0.814138  0.193718  0.903136  1
  H  H56  1  0.125282  0.544488  0.630215  1
  H  H57  1  0.544488  0.874718  0.880215  1
  H  H58  1  0.455512  0.125282  0.380215  1
  H  H59  1  0.874718  0.455512  0.130215  1
  H  H60  1  0.129782  0.634167  0.209479  1
  H  H61  1  0.634167  0.870218  0.459479  1
  H  H62  1  0.365833  0.129782  0.959479  1
  H  H63  1  0.870218  0.365833  0.709479  1
  H  H64  1  0.348163  0.536888  0.005942  1
  H  H65  1  0.536888  0.651837  0.255942  1
  H  H66  1  0.463112  0.348163  0.755942  1
  H  H67  1  0.651837  0.463112  0.505942  1
  H  H68  1  0.034516  0.574158  0.914709  1
  H  H69  1  0.574158  0.965484  0.164709  1
  H  H70  1  0.425842  0.034516  0.664709  1
  H  H71  1  0.965484  0.425842  0.414709  1
  H  H72  1  0.035919  0.879238  0.039076  1
  H  H73  1  0.879238  0.964081  0.289076  1
  H  H74  1  0.120762  0.035919  0.789076  1
  H  H75  1  0.964081  0.120762  0.539076  1
  H  H76  1  0.348945  0.841241  0.130856  1
  H  H77  1  0.841241  0.651055  0.380856  1
  H  H78  1  0.158759  0.348945  0.880856  1
  H  H79  1  0.651055  0.158759  0.630856  1
  H  H80  1  0.220507  0.623748  0.885794  1
  H  H81  1  0.623748  0.779493  0.135794  1
  H  H82  1  0.376252  0.220507  0.635794  1
  H  H83  1  0.779493  0.376252  0.385794  1
  H  H84  1  0.098210  0.757257  0.898530  1
  H  H85  1  0.757257  0.901790  0.148530  1
  H  H86  1  0.242743  0.098210  0.648530  1
  H  H87  1  0.901790  0.242743  0.398530  1
  H  H88  1  0.221703  0.861973  0.982736  1
  H  H89  1  0.861973  0.778297  0.232736  1
  H  H90  1  0.138027  0.221703  0.732736  1
  H  H91  1  0.778297  0.138027  0.482736  1
  H  H92  1  0.343629  0.728032  0.970139  1
  H  H93  1  0.728032  0.656371  0.220139  1
  H  H94  1  0.271968  0.343629  0.720139  1
  H  H95  1  0.656371  0.271968  0.470139  1
  H  H96  1  0.432522  0.587895  0.521956  1
  H  H97  1  0.587895  0.567478  0.771956  1
  H  H98  1  0.412105  0.432522  0.271956  1
  H  H99  1  0.567478  0.412105  0.021956  1
  H  H100  1  0.357890  0.894388  0.429781  1
  H  H101  1  0.894388  0.642110  0.679781  1
  H  H102  1  0.105612  0.357890  0.179781  1
  H  H103  1  0.642110  0.105612  0.929781  1
  H  H104  1  0.050619  0.851756  0.537723  1
  H  H105  1  0.851756  0.949381  0.787723  1
  H  H106  1  0.148244  0.050619  0.287723  1
  H  H107  1  0.949381  0.148244  0.037723  1
  H  H108  1  0.297153  0.789824  0.719413  1
  H  H109  1  0.789824  0.702847  0.969413  1
  H  H110  1  0.210176  0.297153  0.469413  1
  H  H111  1  0.702847  0.210176  0.219413  1
