# generated using pymatgen
data_LiCuPO4
_symmetry_space_group_name_H-M   'P 1'
_cell_length_a   4.74166843
_cell_length_b   6.03761328
_cell_length_c   10.10222790
_cell_angle_alpha   90.00000000
_cell_angle_beta   90.00000000
_cell_angle_gamma   90.00000000
_symmetry_Int_Tables_number   1
_chemical_formula_structural   LiCuPO4
_chemical_formula_sum   'Li4 Cu4 P4 O16'
_cell_volume   289.21021998
_cell_formula_units_Z   4
loop_
 _symmetry_equiv_pos_site_id
 _symmetry_equiv_pos_as_xyz
  1  'x, y, z'
loop_
 _atom_site_type_symbol
 _atom_site_label
 _atom_site_symmetry_multiplicity
 _atom_site_fract_x
 _atom_site_fract_y
 _atom_site_fract_z
 _atom_site_occupancy
  Li  Li0  1  0.000000  0.000000  0.000000  1
  Li  Li1  1  0.500000  0.000000  0.500000  1
  Li  Li2  1  0.000000  0.500000  0.000000  1
  Li  Li3  1  0.500000  0.500000  0.500000  1
  Cu  Cu4  1  0.022387  0.750000  0.281868  1
  Cu  Cu5  1  0.477613  0.750000  0.781868  1
  Cu  Cu6  1  0.977613  0.250000  0.718132  1
  Cu  Cu7  1  0.522387  0.250000  0.218132  1
  P  P8  1  0.574855  0.750000  0.096158  1
  P  P9  1  0.925145  0.750000  0.596158  1
  P  P10  1  0.425145  0.250000  0.903842  1
  P  P11  1  0.074855  0.250000  0.403842  1
  O  O12  1  0.749791  0.250000  0.901080  1
  O  O13  1  0.212402  0.454982  0.333192  1
  O  O14  1  0.712402  0.545018  0.166808  1
  O  O15  1  0.787598  0.954982  0.666808  1
  O  O16  1  0.287598  0.045018  0.833192  1
  O  O17  1  0.787598  0.545018  0.666808  1
  O  O18  1  0.287598  0.454982  0.833192  1
  O  O19  1  0.212402  0.045018  0.333192  1
  O  O20  1  0.250209  0.750000  0.098920  1
  O  O21  1  0.750209  0.250000  0.401080  1
  O  O22  1  0.712402  0.954982  0.166808  1
  O  O23  1  0.249791  0.750000  0.598920  1
  O  O24  1  0.698276  0.750000  0.952578  1
  O  O25  1  0.301724  0.250000  0.047422  1
  O  O26  1  0.198276  0.250000  0.547422  1
  O  O27  1  0.801724  0.750000  0.452578  1
