# generated using pymatgen
data_In3Co
_symmetry_space_group_name_H-M   'P 1'
_cell_length_a   6.89937206
_cell_length_b   6.89937206
_cell_length_c   7.14483314
_cell_angle_alpha   90.00000000
_cell_angle_beta   90.00000000
_cell_angle_gamma   90.00000000
_symmetry_Int_Tables_number   1
_chemical_formula_structural   In3Co
_chemical_formula_sum   'In12 Co4'
_cell_volume   340.10359455
_cell_formula_units_Z   4
loop_
 _symmetry_equiv_pos_site_id
 _symmetry_equiv_pos_as_xyz
  1  'x, y, z'
loop_
 _atom_site_type_symbol
 _atom_site_label
 _atom_site_symmetry_multiplicity
 _atom_site_fract_x
 _atom_site_fract_y
 _atom_site_fract_z
 _atom_site_occupancy
  In  In0  1  0.000000  0.500000  0.000000  1
  In  In1  1  0.000000  0.500000  0.500000  1
  In  In2  1  0.500000  0.000000  0.500000  1
  In  In3  1  0.500000  0.000000  0.000000  1
  In  In4  1  0.154169  0.154169  0.255885  1
  In  In5  1  0.345831  0.654169  0.755885  1
  In  In6  1  0.654169  0.345831  0.755885  1
  In  In7  1  0.654169  0.345831  0.244115  1
  In  In8  1  0.345831  0.654169  0.244115  1
  In  In9  1  0.845831  0.845831  0.255885  1
  In  In10  1  0.154169  0.154169  0.744115  1
  In  In11  1  0.845831  0.845831  0.744115  1
  Co  Co12  1  0.348967  0.348967  0.000000  1
  Co  Co13  1  0.151033  0.848967  0.500000  1
  Co  Co14  1  0.848967  0.151033  0.500000  1
  Co  Co15  1  0.651033  0.651033  0.000000  1
