# generated using pymatgen
data_KHCN2
_symmetry_space_group_name_H-M   'P 1'
_cell_length_a   7.19562145
_cell_length_b   9.13555435
_cell_length_c   9.17149583
_cell_angle_alpha   90.00000000
_cell_angle_beta   90.00000000
_cell_angle_gamma   90.00000000
_symmetry_Int_Tables_number   1
_chemical_formula_structural   KHCN2
_chemical_formula_sum   'K8 H8 C8 N16'
_cell_volume   602.89736586
_cell_formula_units_Z   8
loop_
 _symmetry_equiv_pos_site_id
 _symmetry_equiv_pos_as_xyz
  1  'x, y, z'
loop_
 _atom_site_type_symbol
 _atom_site_label
 _atom_site_symmetry_multiplicity
 _atom_site_fract_x
 _atom_site_fract_y
 _atom_site_fract_z
 _atom_site_occupancy
  K  K0  1  0.740679  0.103888  0.511057  1
  K  K1  1  0.240679  0.396112  0.488943  1
  K  K2  1  0.259321  0.603888  0.988943  1
  K  K3  1  0.759321  0.896112  0.011057  1
  K  K4  1  0.515355  0.250980  0.144832  1
  K  K5  1  0.015355  0.249020  0.855168  1
  K  K6  1  0.484645  0.750980  0.355168  1
  K  K7  1  0.984645  0.749020  0.644832  1
  H  H8  1  0.071556  0.555412  0.256876  1
  H  H9  1  0.571556  0.944588  0.743124  1
  H  H10  1  0.928444  0.055412  0.243124  1
  H  H11  1  0.428444  0.444588  0.756876  1
  H  H12  1  0.826045  0.468431  0.677619  1
  H  H13  1  0.326045  0.031569  0.322381  1
  H  H14  1  0.173955  0.968431  0.822381  1
  H  H15  1  0.673955  0.531569  0.177619  1
  C  C16  1  0.774930  0.556289  0.980992  1
  C  C17  1  0.274930  0.943711  0.019008  1
  C  C18  1  0.225070  0.056289  0.519008  1
  C  C19  1  0.725070  0.443711  0.480992  1
  C  C20  1  0.522616  0.250555  0.808597  1
  C  C21  1  0.022616  0.249445  0.191403  1
  C  C22  1  0.477384  0.750555  0.691403  1
  C  C23  1  0.977384  0.749445  0.308597  1
  N  N24  1  0.642052  0.566033  0.073421  1
  N  N25  1  0.142052  0.933967  0.926579  1
  N  N26  1  0.357948  0.066033  0.426579  1
  N  N27  1  0.857948  0.433967  0.573421  1
  N  N28  1  0.889405  0.554778  0.885432  1
  N  N29  1  0.389405  0.945222  0.114568  1
  N  N30  1  0.110595  0.054778  0.614568  1
  N  N31  1  0.610595  0.445222  0.385432  1
  N  N32  1  0.389511  0.342214  0.793072  1
  N  N33  1  0.889511  0.157786  0.206928  1
  N  N34  1  0.610489  0.842214  0.706928  1
  N  N35  1  0.110489  0.657786  0.293072  1
  N  N36  1  0.635668  0.155769  0.829785  1
  N  N37  1  0.135668  0.344231  0.170215  1
  N  N38  1  0.364332  0.655769  0.670215  1
  N  N39  1  0.864332  0.844231  0.329785  1
