# generated using pymatgen
data_Co2(GeS)3
_symmetry_space_group_name_H-M   'P 1'
_cell_length_a   8.05881439
_cell_length_b   8.05881439
_cell_length_c   8.05881439
_cell_angle_alpha   89.92499022
_cell_angle_beta   89.92499022
_cell_angle_gamma   89.92499022
_symmetry_Int_Tables_number   1
_chemical_formula_structural   Co2(GeS)3
_chemical_formula_sum   'Co8 Ge12 S12'
_cell_volume   523.37424130
_cell_formula_units_Z   4
loop_
 _symmetry_equiv_pos_site_id
 _symmetry_equiv_pos_as_xyz
  1  'x, y, z'
loop_
 _atom_site_type_symbol
 _atom_site_label
 _atom_site_symmetry_multiplicity
 _atom_site_fract_x
 _atom_site_fract_y
 _atom_site_fract_z
 _atom_site_occupancy
  Co  Co0  1  0.755930  0.258964  0.253485  1
  Co  Co1  1  0.244070  0.741036  0.746515  1
  Co  Co2  1  0.253485  0.755930  0.258964  1
  Co  Co3  1  0.746515  0.244070  0.741036  1
  Co  Co4  1  0.258964  0.253485  0.755930  1
  Co  Co5  1  0.756209  0.756209  0.756209  1
  Co  Co6  1  0.741036  0.746515  0.244070  1
  Co  Co7  1  0.243791  0.243791  0.243791  1
  Ge  Ge8  1  0.848157  0.998387  0.334217  1
  Ge  Ge9  1  0.151843  0.001613  0.665783  1
  Ge  Ge10  1  0.348600  0.500464  0.165361  1
  Ge  Ge11  1  0.165361  0.348600  0.500464  1
  Ge  Ge12  1  0.500464  0.165361  0.348600  1
  Ge  Ge13  1  0.334217  0.848157  0.998387  1
  Ge  Ge14  1  0.651400  0.499536  0.834639  1
  Ge  Ge15  1  0.834639  0.651400  0.499536  1
  Ge  Ge16  1  0.001613  0.665783  0.151843  1
  Ge  Ge17  1  0.998387  0.334217  0.848157  1
  Ge  Ge18  1  0.665783  0.151843  0.001612  1
  Ge  Ge19  1  0.499536  0.834639  0.651400  1
  S  S20  1  0.851742  0.996621  0.654226  1
  S  S21  1  0.844651  0.351168  0.500063  1
  S  S22  1  0.003379  0.345774  0.148258  1
  S  S23  1  0.654226  0.851742  0.996621  1
  S  S24  1  0.996621  0.654226  0.851742  1
  S  S25  1  0.155349  0.648832  0.499937  1
  S  S26  1  0.499937  0.155349  0.648832  1
  S  S27  1  0.351168  0.500063  0.844651  1
  S  S28  1  0.648832  0.499937  0.155349  1
  S  S29  1  0.345774  0.148258  0.003379  1
  S  S30  1  0.500063  0.844651  0.351168  1
  S  S31  1  0.148258  0.003379  0.345774  1
