# generated using pymatgen
data_Ca3Ga4O9
_symmetry_space_group_name_H-M   'P 1'
_cell_length_a   11.17379282
_cell_length_b   11.17379282
_cell_length_c   5.37284329
_cell_angle_alpha   90.00000000
_cell_angle_beta   90.00000000
_cell_angle_gamma   99.00450312
_symmetry_Int_Tables_number   1
_chemical_formula_structural   Ca3Ga4O9
_chemical_formula_sum   'Ca9 Ga12 O27'
_cell_volume   662.55192794
_cell_formula_units_Z   3
loop_
 _symmetry_equiv_pos_site_id
 _symmetry_equiv_pos_as_xyz
  1  'x, y, z'
loop_
 _atom_site_type_symbol
 _atom_site_label
 _atom_site_symmetry_multiplicity
 _atom_site_fract_x
 _atom_site_fract_y
 _atom_site_fract_z
 _atom_site_occupancy
  Ca  Ca0  1  0.000000  0.000000  0.002187  1
  Ca  Ca1  1  0.597646  0.402354  0.908183  1
  Ca  Ca2  1  0.402354  0.597646  0.908183  1
  Ca  Ca3  1  0.920334  0.338653  0.967941  1
  Ca  Ca4  1  0.079666  0.661347  0.967941  1
  Ca  Ca5  1  0.661347  0.079666  0.967941  1
  Ca  Ca6  1  0.338653  0.920334  0.967941  1
  Ca  Ca7  1  0.240315  0.240315  0.953928  1
  Ca  Ca8  1  0.759685  0.759685  0.953928  1
  Ga  Ga9  1  0.797117  0.984637  0.487064  1
  Ga  Ga10  1  0.984637  0.797117  0.487064  1
  Ga  Ga11  1  0.015363  0.202883  0.487064  1
  Ga  Ga12  1  0.202883  0.015363  0.487064  1
  Ga  Ga13  1  0.865866  0.535038  0.440702  1
  Ga  Ga14  1  0.134134  0.464962  0.440702  1
  Ga  Ga15  1  0.464962  0.134134  0.440702  1
  Ga  Ga16  1  0.535038  0.865866  0.440702  1
  Ga  Ga17  1  0.388148  0.388148  0.393489  1
  Ga  Ga18  1  0.611852  0.611852  0.393489  1
  Ga  Ga19  1  0.737695  0.262305  0.471848  1
  Ga  Ga20  1  0.262305  0.737695  0.471848  1
  O  O21  1  0.500000  0.000000  0.242403  1
  O  O22  1  0.000000  0.500000  0.242403  1
  O  O23  1  0.584869  0.754890  0.227588  1
  O  O24  1  0.415131  0.245110  0.227588  1
  O  O25  1  0.245110  0.415131  0.227588  1
  O  O26  1  0.754890  0.584869  0.227588  1
  O  O27  1  0.271394  0.728606  0.135084  1
  O  O28  1  0.728606  0.271394  0.135084  1
  O  O29  1  0.202885  0.023956  0.151931  1
  O  O30  1  0.797115  0.976044  0.151931  1
  O  O31  1  0.976044  0.797115  0.151931  1
  O  O32  1  0.023956  0.202885  0.151931  1
  O  O33  1  0.500000  0.500000  0.221982  1
  O  O34  1  0.653901  0.932999  0.663261  1
  O  O35  1  0.346099  0.067001  0.663261  1
  O  O36  1  0.067001  0.346099  0.663261  1
  O  O37  1  0.932999  0.653901  0.663261  1
  O  O38  1  0.153852  0.846148  0.598035  1
  O  O39  1  0.846148  0.153852  0.598035  1
  O  O40  1  0.404973  0.796173  0.641511  1
  O  O41  1  0.595027  0.203827  0.641511  1
  O  O42  1  0.391910  0.391910  0.732283  1
  O  O43  1  0.608090  0.608090  0.732283  1
  O  O44  1  0.102840  0.102840  0.661127  1
  O  O45  1  0.897160  0.897160  0.661127  1
  O  O46  1  0.796173  0.404973  0.641511  1
  O  O47  1  0.203827  0.595027  0.641511  1
