# generated using pymatgen
data_VPO4F
_symmetry_space_group_name_H-M   'P 1'
_cell_length_a   5.21074024
_cell_length_b   5.21938655
_cell_length_c   7.34843435
_cell_angle_alpha   107.53154266
_cell_angle_beta   108.78057325
_cell_angle_gamma   95.94824175
_symmetry_Int_Tables_number   1
_chemical_formula_structural   VPO4F
_chemical_formula_sum   'V2 P2 O8 F2'
_cell_volume   175.91415314
_cell_formula_units_Z   2
loop_
 _symmetry_equiv_pos_site_id
 _symmetry_equiv_pos_as_xyz
  1  'x, y, z'
loop_
 _atom_site_type_symbol
 _atom_site_label
 _atom_site_symmetry_multiplicity
 _atom_site_fract_x
 _atom_site_fract_y
 _atom_site_fract_z
 _atom_site_occupancy
  V  V0  1  0.000000  0.000000  0.000000  1
  V  V1  1  0.500000  0.500000  0.500000  1
  P  P2  1  0.886939  0.570578  0.238198  1
  P  P3  1  0.113061  0.429422  0.761802  1
  O  O4  1  0.184004  0.747152  0.883853  1
  O  O5  1  0.159041  0.275560  0.912508  1
  O  O6  1  0.815434  0.339534  0.600590  1
  O  O7  1  0.324045  0.374347  0.653267  1
  O  O8  1  0.840959  0.724440  0.087492  1
  O  O9  1  0.184566  0.660466  0.399410  1
  O  O10  1  0.675955  0.625653  0.346733  1
  O  O11  1  0.815996  0.252848  0.116147  1
  F  F12  1  0.679851  0.848338  0.735253  1
  F  F13  1  0.320149  0.151662  0.264747  1
