# generated using pymatgen
data_LaIn2Pd
_symmetry_space_group_name_H-M   'P 1'
_cell_length_a   5.92346815
_cell_length_b   5.92346815
_cell_length_c   7.61864249
_cell_angle_alpha   90.00000000
_cell_angle_beta   90.00000000
_cell_angle_gamma   133.19404576
_symmetry_Int_Tables_number   1
_chemical_formula_structural   LaIn2Pd
_chemical_formula_sum   'La2 In4 Pd2'
_cell_volume   194.88612719
_cell_formula_units_Z   2
loop_
 _symmetry_equiv_pos_site_id
 _symmetry_equiv_pos_as_xyz
  1  'x, y, z'
loop_
 _atom_site_type_symbol
 _atom_site_label
 _atom_site_symmetry_multiplicity
 _atom_site_fract_x
 _atom_site_fract_y
 _atom_site_fract_z
 _atom_site_occupancy
  La  La0  1  0.424479  0.575521  0.250000  1
  La  La1  1  0.575521  0.424479  0.750000  1
  In  In2  1  0.860899  0.139101  0.550866  1
  In  In3  1  0.139101  0.860899  0.449134  1
  In  In4  1  0.860899  0.139101  0.949134  1
  In  In5  1  0.139101  0.860899  0.050866  1
  Pd  Pd6  1  0.292668  0.707332  0.750000  1
  Pd  Pd7  1  0.707332  0.292668  0.250000  1
