# generated using pymatgen
data_Li5Sb2P5O18
_symmetry_space_group_name_H-M   'P 1'
_cell_length_a   6.84592333
_cell_length_b   9.50811891
_cell_length_c   11.12789486
_cell_angle_alpha   98.16353809
_cell_angle_beta   89.93068222
_cell_angle_gamma   91.30722346
_symmetry_Int_Tables_number   1
_chemical_formula_structural   Li5Sb2P5O18
_chemical_formula_sum   'Li10 Sb4 P10 O36'
_cell_volume   716.80734784
_cell_formula_units_Z   2
loop_
 _symmetry_equiv_pos_site_id
 _symmetry_equiv_pos_as_xyz
  1  'x, y, z'
loop_
 _atom_site_type_symbol
 _atom_site_label
 _atom_site_symmetry_multiplicity
 _atom_site_fract_x
 _atom_site_fract_y
 _atom_site_fract_z
 _atom_site_occupancy
  Li  Li0  1  0.019217  0.032572  0.868218  1
  Li  Li1  1  0.817707  0.114142  0.351676  1
  Li  Li2  1  0.139518  0.225964  0.665556  1
  Li  Li3  1  0.583957  0.275978  0.599897  1
  Li  Li4  1  0.329189  0.377288  0.855874  1
  Li  Li5  1  0.670811  0.622712  0.144126  1
  Li  Li6  1  0.416043  0.724022  0.400103  1
  Li  Li7  1  0.860482  0.774036  0.334444  1
  Li  Li8  1  0.182293  0.885858  0.648324  1
  Li  Li9  1  0.980783  0.967428  0.131782  1
  Sb  Sb10  1  0.655237  0.243039  0.051777  1
  Sb  Sb11  1  0.216656  0.363799  0.399837  1
  Sb  Sb12  1  0.783344  0.636201  0.600163  1
  Sb  Sb13  1  0.344763  0.756961  0.948223  1
  P  P14  1  0.475272  0.072045  0.784914  1
  P  P15  1  0.219906  0.008958  0.399785  1
  P  P16  1  0.180812  0.267197  0.098520  1
  P  P17  1  0.855070  0.419539  0.834283  1
  P  P18  1  0.692665  0.420749  0.332590  1
  P  P19  1  0.307335  0.579251  0.667410  1
  P  P20  1  0.144930  0.580461  0.165717  1
  P  P21  1  0.819188  0.732803  0.901480  1
  P  P22  1  0.780094  0.991042  0.600215  1
  P  P23  1  0.524728  0.927955  0.215086  1
  O  O24  1  0.955749  0.024338  0.685034  1
  O  O25  1  0.630053  0.091779  0.888042  1
  O  O26  1  0.418328  0.026732  0.324220  1
  O  O27  1  0.702812  0.016809  0.187435  1
  O  O28  1  0.742597  0.104243  0.520257  1
  O  O29  1  0.420311  0.209530  0.737343  1
  O  O30  1  0.206931  0.163062  0.473568  1
  O  O31  1  0.033151  0.154161  0.043704  1
  O  O32  1  0.036628  0.331578  0.829077  1
  O  O33  1  0.260109  0.242438  0.222278  1
  O  O34  1  0.704620  0.391491  0.935055  1
  O  O35  1  0.856470  0.313651  0.333513  1
  O  O36  1  0.357128  0.283957  0.011854  1
  O  O37  1  0.752967  0.419530  0.712388  1
  O  O38  1  0.522251  0.363907  0.411696  1
  O  O39  1  0.249504  0.425641  0.608606  1
  O  O40  1  0.623527  0.433281  0.201124  1
  O  O41  1  0.069516  0.416461  0.115513  1
  O  O42  1  0.930484  0.583539  0.884487  1
  O  O43  1  0.376473  0.566719  0.798876  1
  O  O44  1  0.750496  0.574359  0.391394  1
  O  O45  1  0.477749  0.636093  0.588304  1
  O  O46  1  0.247033  0.580470  0.287612  1
  O  O47  1  0.642872  0.716043  0.988146  1
  O  O48  1  0.143530  0.686349  0.666487  1
  O  O49  1  0.295380  0.608509  0.064945  1
  O  O50  1  0.739891  0.757562  0.777722  1
  O  O51  1  0.963372  0.668422  0.170923  1
  O  O52  1  0.966849  0.845839  0.956296  1
  O  O53  1  0.793069  0.836938  0.526432  1
  O  O54  1  0.579689  0.790470  0.262657  1
  O  O55  1  0.257403  0.895757  0.479743  1
  O  O56  1  0.297188  0.983191  0.812565  1
  O  O57  1  0.581672  0.973268  0.675780  1
  O  O58  1  0.369947  0.908221  0.111958  1
  O  O59  1  0.044251  0.975662  0.314966  1
