# generated using pymatgen
data_LiCeSn2
_symmetry_space_group_name_H-M   'P 1'
_cell_length_a   9.76164427
_cell_length_b   9.76164427
_cell_length_c   4.58097352
_cell_angle_alpha   90.00000000
_cell_angle_beta   90.00000000
_cell_angle_gamma   153.15107945
_symmetry_Int_Tables_number   1
_chemical_formula_structural   LiCeSn2
_chemical_formula_sum   'Li2 Ce2 Sn4'
_cell_volume   197.14948265
_cell_formula_units_Z   2
loop_
 _symmetry_equiv_pos_site_id
 _symmetry_equiv_pos_as_xyz
  1  'x, y, z'
loop_
 _atom_site_type_symbol
 _atom_site_label
 _atom_site_symmetry_multiplicity
 _atom_site_fract_x
 _atom_site_fract_y
 _atom_site_fract_z
 _atom_site_occupancy
  Li  Li0  1  0.323359  0.676641  0.750000  1
  Li  Li1  1  0.676641  0.323359  0.250000  1
  Ce  Ce2  1  0.893664  0.106336  0.250000  1
  Ce  Ce3  1  0.106336  0.893664  0.750000  1
  Sn  Sn4  1  0.250422  0.749578  0.250000  1
  Sn  Sn5  1  0.749578  0.250422  0.750000  1
  Sn  Sn6  1  0.455799  0.544201  0.750000  1
  Sn  Sn7  1  0.544201  0.455799  0.250000  1
