# generated using pymatgen
data_Sr3Al2(HO)12
_symmetry_space_group_name_H-M   'P 1'
_cell_length_a   11.43461222
_cell_length_b   11.43461222
_cell_length_c   11.43461222
_cell_angle_alpha   109.47122063
_cell_angle_beta   109.47122063
_cell_angle_gamma   109.47122063
_symmetry_Int_Tables_number   1
_chemical_formula_structural   Sr3Al2(HO)12
_chemical_formula_sum   'Sr12 Al8 H48 O48'
_cell_volume   1150.91283238
_cell_formula_units_Z   4
loop_
 _symmetry_equiv_pos_site_id
 _symmetry_equiv_pos_as_xyz
  1  'x, y, z'
loop_
 _atom_site_type_symbol
 _atom_site_label
 _atom_site_symmetry_multiplicity
 _atom_site_fract_x
 _atom_site_fract_y
 _atom_site_fract_z
 _atom_site_occupancy
  Sr  Sr0  1  0.375000  0.750000  0.125000  1
  Sr  Sr1  1  0.125000  0.250000  0.375000  1
  Sr  Sr2  1  0.375000  0.125000  0.250000  1
  Sr  Sr3  1  0.250000  0.375000  0.125000  1
  Sr  Sr4  1  0.125000  0.375000  0.750000  1
  Sr  Sr5  1  0.750000  0.125000  0.375000  1
  Sr  Sr6  1  0.750000  0.625000  0.875000  1
  Sr  Sr7  1  0.625000  0.250000  0.875000  1
  Sr  Sr8  1  0.875000  0.750000  0.625000  1
  Sr  Sr9  1  0.625000  0.875000  0.750000  1
  Sr  Sr10  1  0.875000  0.625000  0.250000  1
  Sr  Sr11  1  0.250000  0.875000  0.625000  1
  Al  Al12  1  0.000000  0.000000  0.000000  1
  Al  Al13  1  1.000000  0.500000  0.000000  1
  Al  Al14  1  1.000000  1.000000  0.500000  1
  Al  Al15  1  0.500000  1.000000  0.000000  1
  Al  Al16  1  1.000000  0.500000  0.500000  1
  Al  Al17  1  0.500000  1.000000  0.500000  1
  Al  Al18  1  0.500000  0.500000  0.000000  1
  Al  Al19  1  0.500000  0.500000  0.500000  1
  H  H20  1  0.112022  0.552799  0.361285  1
  H  H21  1  0.947201  0.059223  0.808486  1
  H  H22  1  0.138715  0.691514  0.750737  1
  H  H23  1  0.387978  0.749263  0.440777  1
  H  H24  1  0.387978  0.138715  0.947201  1
  H  H25  1  0.749263  0.440777  0.387978  1
  H  H26  1  0.691514  0.440777  0.552799  1
  H  H27  1  0.440777  0.387978  0.749263  1
  H  H28  1  0.808486  0.361285  0.749263  1
  H  H29  1  0.059223  0.750737  0.112022  1
  H  H30  1  0.750737  0.112022  0.059223  1
  H  H31  1  0.947201  0.387978  0.138715  1
  H  H32  1  0.440777  0.552799  0.691514  1
  H  H33  1  0.749263  0.808486  0.361285  1
  H  H34  1  0.138715  0.947201  0.387978  1
  H  H35  1  0.552799  0.691514  0.440777  1
  H  H36  1  0.361285  0.749263  0.808486  1
  H  H37  1  0.808486  0.947201  0.059223  1
  H  H38  1  0.691514  0.750737  0.138715  1
  H  H39  1  0.750737  0.138715  0.691514  1
  H  H40  1  0.059223  0.808486  0.947201  1
  H  H41  1  0.112022  0.059223  0.750737  1
  H  H42  1  0.887978  0.447201  0.638715  1
  H  H43  1  0.052799  0.940777  0.191514  1
  H  H44  1  0.861285  0.308486  0.249263  1
  H  H45  1  0.612022  0.250737  0.559223  1
  H  H46  1  0.612022  0.861285  0.052799  1
  H  H47  1  0.250737  0.559223  0.612022  1
  H  H48  1  0.308486  0.559223  0.447201  1
  H  H49  1  0.559223  0.612022  0.250737  1
  H  H50  1  0.191514  0.638715  0.250737  1
  H  H51  1  0.940777  0.249263  0.887978  1
  H  H52  1  0.249263  0.887978  0.940777  1
  H  H53  1  0.052799  0.612022  0.861285  1
  H  H54  1  0.559223  0.447201  0.308486  1
  H  H55  1  0.250737  0.191514  0.638715  1
  H  H56  1  0.861285  0.052799  0.612022  1
  H  H57  1  0.447201  0.308486  0.559223  1
  H  H58  1  0.638715  0.250737  0.191514  1
  H  H59  1  0.191514  0.052799  0.940777  1
  H  H60  1  0.308486  0.249263  0.861285  1
  H  H61  1  0.249263  0.861285  0.308486  1
  H  H62  1  0.447201  0.638715  0.887978  1
  H  H63  1  0.638715  0.887978  0.447201  1
  H  H64  1  0.940777  0.191514  0.052799  1
  H  H65  1  0.887978  0.940777  0.249263  1
  H  H66  1  0.552799  0.361285  0.112022  1
  H  H67  1  0.361285  0.112022  0.552799  1
  O  O68  1  0.924047  0.107987  0.587470  1
  O  O69  1  0.587470  0.924047  0.107987  1
  O  O70  1  0.912530  0.020517  0.336577  1
  O  O71  1  0.392013  0.575953  0.912530  1
  O  O72  1  0.479483  0.587470  0.163423  1
  O  O73  1  0.107987  0.020517  0.183940  1
  O  O74  1  0.575953  0.912530  0.392013  1
  O  O75  1  0.163423  0.479483  0.587470  1
  O  O76  1  0.020517  0.183940  0.107987  1
  O  O77  1  0.924047  0.316060  0.336577  1
  O  O78  1  0.392013  0.316060  0.479483  1
  O  O79  1  0.912530  0.392013  0.575953  1
  O  O80  1  0.163423  0.183940  0.575953  1
  O  O81  1  0.587470  0.163423  0.479483  1
  O  O82  1  0.575953  0.163423  0.183940  1
  O  O83  1  0.183940  0.107987  0.020517  1
  O  O84  1  0.183940  0.575953  0.163423  1
  O  O85  1  0.107987  0.587470  0.924047  1
  O  O86  1  0.020517  0.336577  0.912530  1
  O  O87  1  0.316060  0.479483  0.392013  1
  O  O88  1  0.336577  0.912530  0.020517  1
  O  O89  1  0.316060  0.336577  0.924047  1
  O  O90  1  0.683940  0.520517  0.607987  1
  O  O91  1  0.979483  0.663423  0.087470  1
  O  O92  1  0.892013  0.412530  0.075953  1
  O  O93  1  0.816060  0.424047  0.836577  1
  O  O94  1  0.816060  0.892013  0.979483  1
  O  O95  1  0.424047  0.836577  0.816060  1
  O  O96  1  0.412530  0.836577  0.520517  1
  O  O97  1  0.836577  0.816060  0.424047  1
  O  O98  1  0.087470  0.607987  0.424047  1
  O  O99  1  0.663423  0.075953  0.683940  1
  O  O100  1  0.075953  0.683940  0.663423  1
  O  O101  1  0.979483  0.816060  0.892013  1
  O  O102  1  0.836577  0.520517  0.412530  1
  O  O103  1  0.424047  0.087470  0.607987  1
  O  O104  1  0.892013  0.979483  0.816060  1
  O  O105  1  0.520517  0.412530  0.836577  1
  O  O106  1  0.607987  0.424047  0.087470  1
  O  O107  1  0.087470  0.979483  0.663423  1
  O  O108  1  0.412530  0.075953  0.892013  1
  O  O109  1  0.075953  0.892013  0.412530  1
  O  O110  1  0.520517  0.607987  0.683940  1
  O  O111  1  0.607987  0.683940  0.520517  1
  O  O112  1  0.663423  0.087470  0.979483  1
  O  O113  1  0.683940  0.663423  0.075953  1
  O  O114  1  0.479483  0.392013  0.316060  1
  O  O115  1  0.336577  0.924047  0.316060  1
