# generated using pymatgen
data_Cd7P10
_symmetry_space_group_name_H-M   'P 1'
_cell_length_a   18.18194524
_cell_length_b   14.15424374
_cell_length_c   11.88464415
_cell_angle_alpha   88.12561978
_cell_angle_beta   51.08342324
_cell_angle_gamma   40.79095698
_symmetry_Int_Tables_number   1
_chemical_formula_structural   Cd7P10
_chemical_formula_sum   'Cd14 P20'
_cell_volume   762.94454886
_cell_formula_units_Z   2
loop_
 _symmetry_equiv_pos_site_id
 _symmetry_equiv_pos_as_xyz
  1  'x, y, z'
loop_
 _atom_site_type_symbol
 _atom_site_label
 _atom_site_symmetry_multiplicity
 _atom_site_fract_x
 _atom_site_fract_y
 _atom_site_fract_z
 _atom_site_occupancy
  Cd  Cd0  1  0.976874  0.926107  0.517185  1
  Cd  Cd1  1  0.579835  0.517185  0.926107  1
  Cd  Cd2  1  0.732815  0.670165  0.273126  1
  Cd  Cd3  1  0.323893  0.273126  0.670165  1
  Cd  Cd4  1  0.261080  0.574123  0.976857  1
  Cd  Cd5  1  0.187940  0.976857  0.574123  1
  Cd  Cd6  1  0.273143  0.062060  0.988920  1
  Cd  Cd7  1  0.675877  0.988920  0.062060  1
  Cd  Cd8  1  0.752298  0.823182  0.482474  1
  Cd  Cd9  1  0.942046  0.482474  0.823182  1
  Cd  Cd10  1  0.767526  0.307954  0.497702  1
  Cd  Cd11  1  0.426818  0.497702  0.307954  1
  Cd  Cd12  1  0.255425  0.244575  0.244575  1
  Cd  Cd13  1  0.005425  0.994575  0.994575  1
  P  P14  1  0.620335  0.251825  0.462912  1
  P  P15  1  0.664928  0.462912  0.251825  1
  P  P16  1  0.787088  0.585072  0.629665  1
  P  P17  1  0.998175  0.629665  0.585072  1
  P  P18  1  0.810440  0.929202  0.277129  1
  P  P19  1  0.983229  0.277129  0.929202  1
  P  P20  1  0.972871  0.266771  0.439560  1
  P  P21  1  0.320798  0.439560  0.266771  1
  P  P22  1  0.221875  0.774548  0.112620  1
  P  P23  1  0.890957  0.112620  0.774548  1
  P  P24  1  0.137380  0.359043  0.028125  1
  P  P25  1  0.475452  0.028125  0.359043  1
  P  P26  1  0.520768  0.247178  0.911487  1
  P  P27  1  0.320567  0.911487  0.247178  1
  P  P28  1  0.273546  0.597787  0.654008  1
  P  P29  1  0.474658  0.654008  0.597787  1
  P  P30  1  0.595992  0.775342  0.976454  1
  P  P31  1  0.652213  0.976454  0.775342  1
  P  P32  1  0.002822  0.729233  0.929433  1
  P  P33  1  0.338513  0.929433  0.729232  1
