# generated using pymatgen
data_CaV2P2O9
_symmetry_space_group_name_H-M   'P 1'
_cell_length_a   6.54399914
_cell_length_b   7.47301994
_cell_length_c   14.36389038
_cell_angle_alpha   90.00000000
_cell_angle_beta   90.00000000
_cell_angle_gamma   90.00000000
_symmetry_Int_Tables_number   1
_chemical_formula_structural   CaV2P2O9
_chemical_formula_sum   'Ca4 V8 P8 O36'
_cell_volume   702.44359443
_cell_formula_units_Z   4
loop_
 _symmetry_equiv_pos_site_id
 _symmetry_equiv_pos_as_xyz
  1  'x, y, z'
loop_
 _atom_site_type_symbol
 _atom_site_label
 _atom_site_symmetry_multiplicity
 _atom_site_fract_x
 _atom_site_fract_y
 _atom_site_fract_z
 _atom_site_occupancy
  Ca  Ca0  1  0.250000  0.888387  0.278567  1
  Ca  Ca1  1  0.250000  0.611613  0.778567  1
  Ca  Ca2  1  0.750000  0.388387  0.221433  1
  Ca  Ca3  1  0.750000  0.111613  0.721433  1
  V  V4  1  0.250000  0.351614  0.381165  1
  V  V5  1  0.750000  0.648386  0.618835  1
  V  V6  1  0.750000  0.851614  0.118835  1
  V  V7  1  0.250000  0.148386  0.881165  1
  V  V8  1  0.000000  0.000000  0.500000  1
  V  V9  1  0.000000  0.500000  0.000000  1
  V  V10  1  0.500000  0.500000  0.000000  1
  V  V11  1  0.500000  0.000000  0.500000  1
  P  P12  1  0.750000  0.359442  0.432897  1
  P  P13  1  0.250000  0.640558  0.567103  1
  P  P14  1  0.250000  0.859442  0.067103  1
  P  P15  1  0.750000  0.140558  0.932897  1
  P  P16  1  0.250000  0.388910  0.191925  1
  P  P17  1  0.250000  0.111090  0.691925  1
  P  P18  1  0.750000  0.888910  0.308075  1
  P  P19  1  0.750000  0.611090  0.808075  1
  O  O20  1  0.554278  0.605320  0.869730  1
  O  O21  1  0.054278  0.394680  0.130270  1
  O  O22  1  0.445722  0.105320  0.630270  1
  O  O23  1  0.945722  0.894680  0.369730  1
  O  O24  1  0.445722  0.394680  0.130270  1
  O  O25  1  0.945722  0.605320  0.869730  1
  O  O26  1  0.554278  0.894680  0.369730  1
  O  O27  1  0.054278  0.105320  0.630270  1
  O  O28  1  0.750000  0.327141  0.982340  1
  O  O29  1  0.250000  0.672859  0.017660  1
  O  O30  1  0.250000  0.827141  0.517660  1
  O  O31  1  0.750000  0.172859  0.482340  1
  O  O32  1  0.250000  0.124298  0.445740  1
  O  O33  1  0.750000  0.875702  0.554260  1
  O  O34  1  0.750000  0.624298  0.054260  1
  O  O35  1  0.250000  0.375702  0.945740  1
  O  O36  1  0.250000  0.215415  0.251693  1
  O  O37  1  0.750000  0.784585  0.748307  1
  O  O38  1  0.750000  0.715415  0.248307  1
  O  O39  1  0.250000  0.284585  0.751693  1
  O  O40  1  0.935374  0.130473  0.866880  1
  O  O41  1  0.435374  0.869527  0.133120  1
  O  O42  1  0.064626  0.630473  0.633120  1
  O  O43  1  0.564626  0.369527  0.366880  1
  O  O44  1  0.064626  0.869527  0.133120  1
  O  O45  1  0.564626  0.130473  0.866880  1
  O  O46  1  0.935374  0.369527  0.366880  1
  O  O47  1  0.435374  0.630473  0.633120  1
  O  O48  1  0.250000  0.498574  0.491634  1
  O  O49  1  0.750000  0.041182  0.234257  1
  O  O50  1  0.750000  0.458818  0.734257  1
  O  O51  1  0.250000  0.541182  0.265743  1
  O  O52  1  0.250000  0.001426  0.991634  1
  O  O53  1  0.750000  0.998574  0.008366  1
  O  O54  1  0.750000  0.501426  0.508366  1
  O  O55  1  0.250000  0.958818  0.765743  1
