# generated using pymatgen
data_MnNbP
_symmetry_space_group_name_H-M   'P 1'
_cell_length_a   3.58868912
_cell_length_b   6.18586169
_cell_length_c   7.16927524
_cell_angle_alpha   90.00000000
_cell_angle_beta   90.00000000
_cell_angle_gamma   90.00000000
_symmetry_Int_Tables_number   1
_chemical_formula_structural   MnNbP
_chemical_formula_sum   'Mn4 Nb4 P4'
_cell_volume   159.15170564
_cell_formula_units_Z   4
loop_
 _symmetry_equiv_pos_site_id
 _symmetry_equiv_pos_as_xyz
  1  'x, y, z'
loop_
 _atom_site_type_symbol
 _atom_site_label
 _atom_site_symmetry_multiplicity
 _atom_site_fract_x
 _atom_site_fract_y
 _atom_site_fract_z
 _atom_site_occupancy
  Mn  Mn0  1  0.750000  0.859701  0.558438  1
  Mn  Mn1  1  0.250000  0.140299  0.441562  1
  Mn  Mn2  1  0.750000  0.359701  0.941562  1
  Mn  Mn3  1  0.250000  0.640299  0.058438  1
  Nb  Nb4  1  0.250000  0.528098  0.674273  1
  Nb  Nb5  1  0.750000  0.471902  0.325727  1
  Nb  Nb6  1  0.250000  0.028098  0.825727  1
  Nb  Nb7  1  0.750000  0.971902  0.174273  1
  P  P8  1  0.250000  0.272668  0.127326  1
  P  P9  1  0.750000  0.727332  0.872674  1
  P  P10  1  0.250000  0.772668  0.372674  1
  P  P11  1  0.750000  0.227332  0.627326  1
