# generated using pymatgen
data_CsAlH24(SeO10)2
_symmetry_space_group_name_H-M   'P 1'
_cell_length_a   12.67850488
_cell_length_b   12.67850488
_cell_length_c   12.67850488
_cell_angle_alpha   90.00000000
_cell_angle_beta   90.00000000
_cell_angle_gamma   90.00000000
_symmetry_Int_Tables_number   1
_chemical_formula_structural   CsAlH24(SeO10)2
_chemical_formula_sum   'Cs4 Al4 H96 Se8 O80'
_cell_volume   2037.99975008
_cell_formula_units_Z   4
loop_
 _symmetry_equiv_pos_site_id
 _symmetry_equiv_pos_as_xyz
  1  'x, y, z'
loop_
 _atom_site_type_symbol
 _atom_site_label
 _atom_site_symmetry_multiplicity
 _atom_site_fract_x
 _atom_site_fract_y
 _atom_site_fract_z
 _atom_site_occupancy
  Cs  Cs0  1  0.500000  0.000000  0.000000  1
  Cs  Cs1  1  0.000000  0.000000  0.500000  1
  Cs  Cs2  1  0.000000  0.500000  0.000000  1
  Cs  Cs3  1  0.500000  0.500000  0.500000  1
  Al  Al4  1  0.000000  0.500000  0.500000  1
  Al  Al5  1  0.000000  0.000000  0.000000  1
  Al  Al6  1  0.500000  0.000000  0.500000  1
  Al  Al7  1  0.500000  0.500000  0.000000  1
  H  H8  1  0.700128  0.024635  0.450971  1
  H  H9  1  0.200128  0.475365  0.549029  1
  H  H10  1  0.299872  0.524635  0.049029  1
  H  H11  1  0.475365  0.549029  0.200128  1
  H  H12  1  0.049029  0.299872  0.524635  1
  H  H13  1  0.549029  0.200128  0.475365  1
  H  H14  1  0.024635  0.450971  0.700128  1
  H  H15  1  0.450971  0.700128  0.024635  1
  H  H16  1  0.524635  0.049029  0.299872  1
  H  H17  1  0.975365  0.950971  0.799872  1
  H  H18  1  0.950971  0.799872  0.975365  1
  H  H19  1  0.799872  0.975365  0.950971  1
  H  H20  1  0.299872  0.975365  0.549029  1
  H  H21  1  0.799872  0.524635  0.450971  1
  H  H22  1  0.700128  0.475365  0.950971  1
  H  H23  1  0.524635  0.450971  0.799872  1
  H  H24  1  0.950971  0.700128  0.475365  1
  H  H25  1  0.450971  0.799872  0.524635  1
  H  H26  1  0.975365  0.549029  0.299872  1
  H  H27  1  0.549029  0.299872  0.975365  1
  H  H28  1  0.475365  0.950971  0.700128  1
  H  H29  1  0.024635  0.049029  0.200128  1
  H  H30  1  0.049029  0.200128  0.024635  1
  H  H31  1  0.200128  0.024635  0.049029  1
  H  H32  1  0.685310  0.034397  0.579149  1
  H  H33  1  0.185310  0.465603  0.420851  1
  H  H34  1  0.314690  0.534397  0.920851  1
  H  H35  1  0.465603  0.420851  0.185310  1
  H  H36  1  0.920851  0.314690  0.534397  1
  H  H37  1  0.420851  0.185310  0.465603  1
  H  H38  1  0.034397  0.579149  0.685310  1
  H  H39  1  0.579149  0.685310  0.034397  1
  H  H40  1  0.534397  0.920851  0.314690  1
  H  H41  1  0.965603  0.079149  0.814690  1
  H  H42  1  0.079149  0.814690  0.965603  1
  H  H43  1  0.814690  0.965603  0.079149  1
  H  H44  1  0.314690  0.965603  0.420851  1
  H  H45  1  0.814690  0.534397  0.579149  1
  H  H46  1  0.685310  0.465603  0.079149  1
  H  H47  1  0.534397  0.579149  0.814690  1
  H  H48  1  0.079149  0.685310  0.465603  1
  H  H49  1  0.579149  0.814690  0.534397  1
  H  H50  1  0.965603  0.420851  0.314690  1
  H  H51  1  0.420851  0.314690  0.965603  1
  H  H52  1  0.465603  0.079149  0.685310  1
  H  H53  1  0.034397  0.920851  0.185310  1
  H  H54  1  0.920851  0.185310  0.034397  1
  H  H55  1  0.616171  0.167194  0.222140  1
  H  H56  1  0.497232  0.198731  0.226185  1
  H  H57  1  0.997232  0.301269  0.773815  1
  H  H58  1  0.502768  0.698731  0.273815  1
  H  H59  1  0.301269  0.773815  0.997232  1
  H  H60  1  0.273815  0.502768  0.698731  1
  H  H61  1  0.773815  0.997232  0.301269  1
  H  H62  1  0.198731  0.226185  0.497232  1
  H  H63  1  0.226185  0.497232  0.198731  1
  H  H64  1  0.698731  0.273815  0.502768  1
  H  H65  1  0.801269  0.726185  0.002768  1
  H  H66  1  0.726185  0.002768  0.801269  1
  H  H67  1  0.002768  0.801269  0.726185  1
  H  H68  1  0.502768  0.801269  0.773815  1
  H  H69  1  0.002768  0.698731  0.226185  1
  H  H70  1  0.497232  0.301269  0.726185  1
  H  H71  1  0.698731  0.226185  0.002768  1
  H  H72  1  0.726185  0.497232  0.301269  1
  H  H73  1  0.226185  0.002768  0.698731  1
  H  H74  1  0.801269  0.773815  0.502768  1
  H  H75  1  0.773815  0.502768  0.801269  1
  H  H76  1  0.301269  0.726185  0.497232  1
  H  H77  1  0.198731  0.273815  0.997232  1
  H  H78  1  0.273815  0.997232  0.198731  1
  H  H79  1  0.997232  0.198731  0.273815  1
  H  H80  1  0.116171  0.167194  0.277860  1
  H  H81  1  0.277860  0.116171  0.167194  1
  H  H82  1  0.167194  0.277860  0.116171  1
  H  H83  1  0.332806  0.722140  0.616171  1
  H  H84  1  0.777860  0.383829  0.832806  1
  H  H85  1  0.832806  0.777860  0.383829  1
  H  H86  1  0.222140  0.883829  0.667194  1
  H  H87  1  0.722140  0.616171  0.332806  1
  H  H88  1  0.667194  0.222140  0.883829  1
  H  H89  1  0.616171  0.332806  0.722140  1
  H  H90  1  0.883829  0.667194  0.222140  1
  H  H91  1  0.383829  0.832806  0.777860  1
  H  H92  1  0.883829  0.832806  0.722140  1
  H  H93  1  0.722140  0.883829  0.832806  1
  H  H94  1  0.832806  0.722140  0.883829  1
  H  H95  1  0.667194  0.277860  0.383829  1
  H  H96  1  0.222140  0.616171  0.167194  1
  H  H97  1  0.167194  0.222140  0.616171  1
  H  H98  1  0.777860  0.116171  0.332806  1
  H  H99  1  0.277860  0.383829  0.667194  1
  H  H100  1  0.332806  0.777860  0.116171  1
  H  H101  1  0.383829  0.667194  0.277860  1
  H  H102  1  0.116171  0.332806  0.777860  1
  H  H103  1  0.185310  0.034397  0.920851  1
  Se  Se104  1  0.309276  0.190724  0.809276  1
  Se  Se105  1  0.809276  0.190724  0.690724  1
  Se  Se106  1  0.190724  0.690724  0.809276  1
  Se  Se107  1  0.309276  0.309276  0.309276  1
  Se  Se108  1  0.690724  0.809276  0.190724  1
  Se  Se109  1  0.690724  0.690724  0.690724  1
  Se  Se110  1  0.190724  0.809276  0.309276  1
  Se  Se111  1  0.809276  0.309276  0.190724  1
  O  O112  1  0.544441  0.137269  0.213447  1
  O  O113  1  0.044441  0.362731  0.786553  1
  O  O114  1  0.455559  0.637269  0.286553  1
  O  O115  1  0.362731  0.786553  0.044441  1
  O  O116  1  0.286553  0.455559  0.637269  1
  O  O117  1  0.786553  0.044441  0.362731  1
  O  O118  1  0.137269  0.213447  0.544441  1
  O  O119  1  0.213447  0.544441  0.137269  1
  O  O120  1  0.637269  0.286553  0.455559  1
  O  O121  1  0.862731  0.713447  0.955559  1
  O  O122  1  0.713447  0.955559  0.862731  1
  O  O123  1  0.955559  0.862731  0.713447  1
  O  O124  1  0.455559  0.862731  0.786553  1
  O  O125  1  0.955559  0.637269  0.213447  1
  O  O126  1  0.544441  0.362731  0.713447  1
  O  O127  1  0.637269  0.213447  0.955559  1
  O  O128  1  0.713447  0.544441  0.362731  1
  O  O129  1  0.213447  0.955559  0.637269  1
  O  O130  1  0.862731  0.786553  0.455559  1
  O  O131  1  0.786553  0.455559  0.862731  1
  O  O132  1  0.362731  0.713447  0.544441  1
  O  O133  1  0.137269  0.286553  0.044441  1
  O  O134  1  0.286553  0.044441  0.137269  1
  O  O135  1  0.044441  0.137269  0.286553  1
  O  O136  1  0.149339  0.012519  0.987621  1
  O  O137  1  0.987621  0.149339  0.012519  1
  O  O138  1  0.012519  0.987621  0.149339  1
  O  O139  1  0.487481  0.012379  0.649339  1
  O  O140  1  0.487621  0.350661  0.987481  1
  O  O141  1  0.987481  0.487621  0.350661  1
  O  O142  1  0.512379  0.850661  0.512519  1
  O  O143  1  0.012379  0.649339  0.487481  1
  O  O144  1  0.512519  0.512379  0.850661  1
  O  O145  1  0.649339  0.487481  0.012379  1
  O  O146  1  0.850661  0.512519  0.512379  1
  O  O147  1  0.350661  0.987481  0.487621  1
  O  O148  1  0.850661  0.987481  0.012379  1
  O  O149  1  0.012379  0.850661  0.987481  1
  O  O150  1  0.987481  0.012379  0.850661  1
  O  O151  1  0.512519  0.987621  0.350661  1
  O  O152  1  0.512379  0.649339  0.012519  1
  O  O153  1  0.012519  0.512379  0.649339  1
  O  O154  1  0.487621  0.149339  0.487481  1
  O  O155  1  0.987621  0.350661  0.512519  1
  O  O156  1  0.487481  0.487621  0.149339  1
  O  O157  1  0.350661  0.512519  0.987621  1
  O  O158  1  0.149339  0.487481  0.487621  1
  O  O159  1  0.649339  0.012519  0.512379  1
  O  O160  1  0.815390  0.258421  0.068931  1
  O  O161  1  0.315390  0.241579  0.931069  1
  O  O162  1  0.184610  0.758421  0.431069  1
  O  O163  1  0.241579  0.931069  0.315390  1
  O  O164  1  0.431069  0.184610  0.758421  1
  O  O165  1  0.931069  0.315390  0.241579  1
  O  O166  1  0.258421  0.068931  0.815390  1
  O  O167  1  0.068931  0.815390  0.258421  1
  O  O168  1  0.758421  0.431069  0.184610  1
  O  O169  1  0.741579  0.568931  0.684610  1
  O  O170  1  0.568931  0.684610  0.741579  1
  O  O171  1  0.684610  0.741579  0.568931  1
  O  O172  1  0.184610  0.741579  0.931069  1
  O  O173  1  0.684610  0.758421  0.068931  1
  O  O174  1  0.815390  0.241579  0.568931  1
  O  O175  1  0.758421  0.068931  0.684610  1
  O  O176  1  0.568931  0.815390  0.241579  1
  O  O177  1  0.068931  0.684610  0.758421  1
  O  O178  1  0.741579  0.931069  0.184610  1
  O  O179  1  0.931069  0.184610  0.741579  1
  O  O180  1  0.241579  0.568931  0.815390  1
  O  O181  1  0.258421  0.431069  0.315390  1
  O  O182  1  0.431069  0.315390  0.258421  1
  O  O183  1  0.315390  0.258421  0.431069  1
  O  O184  1  0.232528  0.232528  0.232528  1
  O  O185  1  0.267472  0.732528  0.232528  1
  O  O186  1  0.732528  0.232528  0.267472  1
  O  O187  1  0.767472  0.767472  0.767472  1
  O  O188  1  0.767472  0.732528  0.267472  1
  O  O189  1  0.732528  0.267472  0.767472  1
  O  O190  1  0.267472  0.767472  0.732528  1
  O  O191  1  0.232528  0.267472  0.732528  1
