# generated using pymatgen
data_SmInRh
_symmetry_space_group_name_H-M   'P 1'
_cell_length_a   7.59256171
_cell_length_b   7.59256171
_cell_length_c   4.02333598
_cell_angle_alpha   90.00000000
_cell_angle_beta   90.00000000
_cell_angle_gamma   120.00000000
_symmetry_Int_Tables_number   1
_chemical_formula_structural   SmInRh
_chemical_formula_sum   'Sm3 In3 Rh3'
_cell_volume   200.86006260
_cell_formula_units_Z   3
loop_
 _symmetry_equiv_pos_site_id
 _symmetry_equiv_pos_as_xyz
  1  'x, y, z'
loop_
 _atom_site_type_symbol
 _atom_site_label
 _atom_site_symmetry_multiplicity
 _atom_site_fract_x
 _atom_site_fract_y
 _atom_site_fract_z
 _atom_site_occupancy
  Sm  Sm0  1  0.000000  0.409170  0.500000  1
  Sm  Sm1  1  0.590830  0.590830  0.500000  1
  Sm  Sm2  1  0.409170  0.000000  0.500000  1
  In  In3  1  0.253094  0.253094  0.000000  1
  In  In4  1  0.000000  0.746906  0.000000  1
  In  In5  1  0.746906  0.000000  0.000000  1
  Rh  Rh6  1  0.333333  0.666667  0.000000  1
  Rh  Rh7  1  0.000000  0.000000  0.500000  1
  Rh  Rh8  1  0.666667  0.333333  0.000000  1
