# generated using pymatgen
data_CaIn2Pt
_symmetry_space_group_name_H-M   'P 1'
_cell_length_a   5.71725418
_cell_length_b   5.71725418
_cell_length_c   7.95823033
_cell_angle_alpha   90.00000000
_cell_angle_beta   90.00000000
_cell_angle_gamma   134.17485556
_symmetry_Int_Tables_number   1
_chemical_formula_structural   CaIn2Pt
_chemical_formula_sum   'Ca2 In4 Pt2'
_cell_volume   186.56998343
_cell_formula_units_Z   2
loop_
 _symmetry_equiv_pos_site_id
 _symmetry_equiv_pos_as_xyz
  1  'x, y, z'
loop_
 _atom_site_type_symbol
 _atom_site_label
 _atom_site_symmetry_multiplicity
 _atom_site_fract_x
 _atom_site_fract_y
 _atom_site_fract_z
 _atom_site_occupancy
  Ca  Ca0  1  0.932765  0.067235  0.750000  1
  Ca  Ca1  1  0.067235  0.932765  0.250000  1
  In  In2  1  0.643954  0.356046  0.948545  1
  In  In3  1  0.643954  0.356046  0.551455  1
  In  In4  1  0.356046  0.643954  0.051455  1
  In  In5  1  0.356046  0.643954  0.448545  1
  Pt  Pt6  1  0.217344  0.782656  0.750000  1
  Pt  Pt7  1  0.782656  0.217344  0.250000  1
