# generated using pymatgen
data_Sr7(H6Cl)2
_symmetry_space_group_name_H-M   'P 1'
_cell_length_a   9.99830700
_cell_length_b   9.99830700
_cell_length_c   3.95357337
_cell_angle_alpha   90.00000000
_cell_angle_beta   90.00000000
_cell_angle_gamma   120.00000000
_symmetry_Int_Tables_number   1
_chemical_formula_structural   Sr7(H6Cl)2
_chemical_formula_sum   'Sr7 H12 Cl2'
_cell_volume   342.27357428
_cell_formula_units_Z   1
loop_
 _symmetry_equiv_pos_site_id
 _symmetry_equiv_pos_as_xyz
  1  'x, y, z'
loop_
 _atom_site_type_symbol
 _atom_site_label
 _atom_site_symmetry_multiplicity
 _atom_site_fract_x
 _atom_site_fract_y
 _atom_site_fract_z
 _atom_site_occupancy
  Sr  Sr0  1  0.267681  0.216969  0.500000  1
  Sr  Sr1  1  0.559658  0.638199  0.000000  1
  Sr  Sr2  1  0.361801  0.921459  0.000000  1
  Sr  Sr3  1  0.078541  0.440342  0.000000  1
  Sr  Sr4  1  0.666667  0.333333  0.000000  1
  Sr  Sr5  1  0.949288  0.732319  0.500000  1
  Sr  Sr6  1  0.783031  0.050712  0.500000  1
  H  H7  1  0.563528  0.117860  0.500000  1
  H  H8  1  0.882140  0.445667  0.500000  1
  H  H9  1  0.554333  0.436472  0.500000  1
  H  H10  1  0.715664  0.772775  0.500000  1
  H  H11  1  0.227225  0.942889  0.500000  1
  H  H12  1  0.057111  0.284336  0.500000  1
  H  H13  1  0.823827  0.214292  0.000000  1
  H  H14  1  0.785708  0.609535  0.000000  1
  H  H15  1  0.390465  0.176173  0.000000  1
  H  H16  1  0.301515  0.393339  0.000000  1
  H  H17  1  0.091824  0.698485  0.000000  1
  H  H18  1  0.606661  0.908176  0.000000  1
  Cl  Cl19  1  0.000000  0.000000  0.000000  1
  Cl  Cl20  1  0.333333  0.666667  0.500000  1
