# generated using pymatgen
data_Cu2PbO2
_symmetry_space_group_name_H-M   'P 1'
_cell_length_a   5.88267587
_cell_length_b   5.88267587
_cell_length_c   6.08686993
_cell_angle_alpha   61.75416782
_cell_angle_beta   118.24583218
_cell_angle_gamma   89.00754491
_symmetry_Int_Tables_number   1
_chemical_formula_structural   Cu2PbO2
_chemical_formula_sum   'Cu4 Pb2 O4'
_cell_volume   155.36140983
_cell_formula_units_Z   2
loop_
 _symmetry_equiv_pos_site_id
 _symmetry_equiv_pos_as_xyz
  1  'x, y, z'
loop_
 _atom_site_type_symbol
 _atom_site_label
 _atom_site_symmetry_multiplicity
 _atom_site_fract_x
 _atom_site_fract_y
 _atom_site_fract_z
 _atom_site_occupancy
  Cu  Cu0  1  0.500000  0.500000  0.000000  1
  Cu  Cu1  1  0.500000  0.500000  0.500000  1
  Cu  Cu2  1  0.500000  0.000000  0.500000  1
  Cu  Cu3  1  1.000000  0.500000  0.000000  1
  Pb  Pb4  1  0.872586  0.872586  0.250000  1
  Pb  Pb5  1  0.127414  0.127414  0.750000  1
  O  O6  1  0.284726  0.855625  0.291092  1
  O  O7  1  0.855625  0.284726  0.208908  1
  O  O8  1  0.715274  0.144375  0.708908  1
  O  O9  1  0.144375  0.715274  0.791092  1
