# generated using pymatgen
data_SmH3(CO2)3
_symmetry_space_group_name_H-M   'P 1'
_cell_length_a   6.27869297
_cell_length_b   6.27869297
_cell_length_c   6.27869297
_cell_angle_alpha   115.44565778
_cell_angle_beta   115.44565778
_cell_angle_gamma   115.44565778
_symmetry_Int_Tables_number   1
_chemical_formula_structural   SmH3(CO2)3
_chemical_formula_sum   'Sm1 H3 C3 O6'
_cell_volume   132.73059198
_cell_formula_units_Z   1
loop_
 _symmetry_equiv_pos_site_id
 _symmetry_equiv_pos_as_xyz
  1  'x, y, z'
loop_
 _atom_site_type_symbol
 _atom_site_label
 _atom_site_symmetry_multiplicity
 _atom_site_fract_x
 _atom_site_fract_y
 _atom_site_fract_z
 _atom_site_occupancy
  Sm  Sm0  1  0.841006  0.841006  0.841006  1
  H  H1  1  0.982503  0.466382  0.466382  1
  H  H2  1  0.466382  0.982503  0.466382  1
  H  H3  1  0.466382  0.466382  0.982503  1
  C  C4  1  0.227660  0.227660  0.687983  1
  C  C5  1  0.687983  0.227660  0.227660  1
  C  C6  1  0.227660  0.687983  0.227660  1
  O  O7  1  0.503259  0.249408  0.249408  1
  O  O8  1  0.954493  0.954493  0.556128  1
  O  O9  1  0.954493  0.556128  0.954493  1
  O  O10  1  0.249408  0.249408  0.503259  1
  O  O11  1  0.249408  0.503259  0.249408  1
  O  O12  1  0.556128  0.954493  0.954493  1
