# generated using pymatgen
data_Zr3GeO8
_symmetry_space_group_name_H-M   'P 1'
_cell_length_a   6.41236975
_cell_length_b   6.41236975
_cell_length_c   6.41236975
_cell_angle_alpha   133.40036615
_cell_angle_beta   133.40036615
_cell_angle_gamma   68.02609294
_symmetry_Int_Tables_number   1
_chemical_formula_structural   Zr3GeO8
_chemical_formula_sum   'Zr3 Ge1 O8'
_cell_volume   136.77591012
_cell_formula_units_Z   1
loop_
 _symmetry_equiv_pos_site_id
 _symmetry_equiv_pos_as_xyz
  1  'x, y, z'
loop_
 _atom_site_type_symbol
 _atom_site_label
 _atom_site_symmetry_multiplicity
 _atom_site_fract_x
 _atom_site_fract_y
 _atom_site_fract_z
 _atom_site_occupancy
  Zr  Zr0  1  0.250000  0.750000  0.500000  1
  Zr  Zr1  1  0.750000  0.250000  0.500000  1
  Zr  Zr2  1  0.000000  0.000000  1.000000  1
  Ge  Ge3  1  0.500000  0.500000  0.000000  1
  O  O4  1  0.375053  0.802198  0.000000  1
  O  O5  1  0.197802  0.197802  0.572856  1
  O  O6  1  0.624947  0.624947  0.427144  1
  O  O7  1  0.802198  0.375053  1.000000  1
  O  O8  1  0.035915  0.644350  1.000000  1
  O  O9  1  0.355650  0.355650  0.391565  1
  O  O10  1  0.964085  0.964085  0.608435  1
  O  O11  1  0.644350  0.035915  0.000000  1
