# generated using pymatgen
data_ZrSbPd
_symmetry_space_group_name_H-M   'P 1'
_cell_length_a   4.34686881
_cell_length_b   6.88171970
_cell_length_c   8.04462504
_cell_angle_alpha   90.00000000
_cell_angle_beta   90.00000000
_cell_angle_gamma   90.00000000
_symmetry_Int_Tables_number   1
_chemical_formula_structural   ZrSbPd
_chemical_formula_sum   'Zr4 Sb4 Pd4'
_cell_volume   240.64637223
_cell_formula_units_Z   4
loop_
 _symmetry_equiv_pos_site_id
 _symmetry_equiv_pos_as_xyz
  1  'x, y, z'
loop_
 _atom_site_type_symbol
 _atom_site_label
 _atom_site_symmetry_multiplicity
 _atom_site_fract_x
 _atom_site_fract_y
 _atom_site_fract_z
 _atom_site_occupancy
  Zr  Zr0  1  0.750000  0.480855  0.693919  1
  Zr  Zr1  1  0.250000  0.519145  0.306081  1
  Zr  Zr2  1  0.750000  0.980855  0.806081  1
  Zr  Zr3  1  0.250000  0.019145  0.193919  1
  Sb  Sb4  1  0.750000  0.733994  0.108163  1
  Sb  Sb5  1  0.250000  0.266006  0.891837  1
  Sb  Sb6  1  0.750000  0.233994  0.391837  1
  Sb  Sb7  1  0.250000  0.766006  0.608163  1
  Pd  Pd8  1  0.750000  0.337030  0.072361  1
  Pd  Pd9  1  0.250000  0.662970  0.927639  1
  Pd  Pd10  1  0.750000  0.837030  0.427639  1
  Pd  Pd11  1  0.250000  0.162970  0.572361  1
