# generated using pymatgen
data_Ba3CuRu2O9
_symmetry_space_group_name_H-M   'P 1'
_cell_length_a   5.92164170
_cell_length_b   5.92164170
_cell_length_c   14.40244539
_cell_angle_alpha   90.00000000
_cell_angle_beta   90.00000000
_cell_angle_gamma   121.76733801
_symmetry_Int_Tables_number   1
_chemical_formula_structural   Ba3CuRu2O9
_chemical_formula_sum   'Ba6 Cu2 Ru4 O18'
_cell_volume   429.37622001
_cell_formula_units_Z   2
loop_
 _symmetry_equiv_pos_site_id
 _symmetry_equiv_pos_as_xyz
  1  'x, y, z'
loop_
 _atom_site_type_symbol
 _atom_site_label
 _atom_site_symmetry_multiplicity
 _atom_site_fract_x
 _atom_site_fract_y
 _atom_site_fract_z
 _atom_site_occupancy
  Ba  Ba0  1  0.678111  0.321889  0.594527  1
  Ba  Ba1  1  0.321889  0.678111  0.405473  1
  Ba  Ba2  1  0.321889  0.678111  0.094527  1
  Ba  Ba3  1  0.678111  0.321889  0.905473  1
  Ba  Ba4  1  0.982779  0.017221  0.250000  1
  Ba  Ba5  1  0.017221  0.982779  0.750000  1
  Cu  Cu6  1  0.000000  0.000000  0.500000  1
  Cu  Cu7  1  0.000000  0.000000  0.000000  1
  Ru  Ru8  1  0.648176  0.351824  0.347851  1
  Ru  Ru9  1  0.351824  0.648176  0.652149  1
  Ru  Ru10  1  0.351824  0.648176  0.847851  1
  Ru  Ru11  1  0.648176  0.351824  0.152149  1
  O  O12  1  0.819963  0.687503  0.410632  1
  O  O13  1  0.687503  0.819963  0.589368  1
  O  O14  1  0.180037  0.312497  0.910632  1
  O  O15  1  0.312497  0.180037  0.089368  1
  O  O16  1  0.180037  0.312497  0.589368  1
  O  O17  1  0.312497  0.180037  0.410632  1
  O  O18  1  0.819963  0.687503  0.089368  1
  O  O19  1  0.687503  0.819963  0.910632  1
  O  O20  1  0.197151  0.802849  0.581166  1
  O  O21  1  0.802849  0.197151  0.418834  1
  O  O22  1  0.802849  0.197151  0.081166  1
  O  O23  1  0.197151  0.802849  0.918834  1
  O  O24  1  0.501674  0.498326  0.750000  1
  O  O25  1  0.498326  0.501674  0.250000  1
  O  O26  1  0.501845  0.948710  0.750000  1
  O  O27  1  0.948710  0.501845  0.250000  1
  O  O28  1  0.498155  0.051290  0.250000  1
  O  O29  1  0.051290  0.498155  0.750000  1
