# generated using pymatgen
data_ZrBi2
_symmetry_space_group_name_H-M   'P 1'
_cell_length_a   4.06119603
_cell_length_b   10.41295148
_cell_length_c   15.69211875
_cell_angle_alpha   90.00000000
_cell_angle_beta   90.00000000
_cell_angle_gamma   90.00000000
_symmetry_Int_Tables_number   1
_chemical_formula_structural   ZrBi2
_chemical_formula_sum   'Zr8 Bi16'
_cell_volume   663.60459374
_cell_formula_units_Z   8
loop_
 _symmetry_equiv_pos_site_id
 _symmetry_equiv_pos_as_xyz
  1  'x, y, z'
loop_
 _atom_site_type_symbol
 _atom_site_label
 _atom_site_symmetry_multiplicity
 _atom_site_fract_x
 _atom_site_fract_y
 _atom_site_fract_z
 _atom_site_occupancy
  Zr  Zr0  1  0.500000  0.663019  0.993810  1
  Zr  Zr1  1  0.500000  0.336981  0.006190  1
  Zr  Zr2  1  0.000000  0.163019  0.506190  1
  Zr  Zr3  1  0.000000  0.836981  0.493810  1
  Zr  Zr4  1  0.000000  0.977127  0.751383  1
  Zr  Zr5  1  0.000000  0.022873  0.248617  1
  Zr  Zr6  1  0.500000  0.477127  0.748617  1
  Zr  Zr7  1  0.500000  0.522873  0.251383  1
  Bi  Bi8  1  0.000000  0.876874  0.942947  1
  Bi  Bi9  1  0.000000  0.123126  0.057053  1
  Bi  Bi10  1  0.500000  0.376874  0.557053  1
  Bi  Bi11  1  0.500000  0.623126  0.442947  1
  Bi  Bi12  1  0.000000  0.653697  0.650193  1
  Bi  Bi13  1  0.000000  0.346303  0.349807  1
  Bi  Bi14  1  0.500000  0.153697  0.849807  1
  Bi  Bi15  1  0.500000  0.846303  0.150193  1
  Bi  Bi16  1  0.500000  0.764982  0.799919  1
  Bi  Bi17  1  0.500000  0.235018  0.200081  1
  Bi  Bi18  1  0.000000  0.264982  0.700081  1
  Bi  Bi19  1  0.000000  0.735018  0.299919  1
  Bi  Bi20  1  0.500000  0.987077  0.605921  1
  Bi  Bi21  1  0.500000  0.012923  0.394079  1
  Bi  Bi22  1  0.000000  0.487077  0.894079  1
  Bi  Bi23  1  0.000000  0.512923  0.105921  1
