# generated using pymatgen
data_NpSi2
_symmetry_space_group_name_H-M   'P 1'
_cell_length_a   7.64967545
_cell_length_b   7.64967545
_cell_length_c   7.64967545
_cell_angle_alpha   150.21540501
_cell_angle_beta   150.21540501
_cell_angle_gamma   42.62530368
_symmetry_Int_Tables_number   1
_chemical_formula_structural   NpSi2
_chemical_formula_sum   'Np2 Si4'
_cell_volume   110.17919532
_cell_formula_units_Z   2
loop_
 _symmetry_equiv_pos_site_id
 _symmetry_equiv_pos_as_xyz
  1  'x, y, z'
loop_
 _atom_site_type_symbol
 _atom_site_label
 _atom_site_symmetry_multiplicity
 _atom_site_fract_x
 _atom_site_fract_y
 _atom_site_fract_z
 _atom_site_occupancy
  Np  Np0  1  0.500000  0.500000  0.000000  1
  Np  Np1  1  0.250000  0.750000  0.500000  1
  Si  Si2  1  0.832186  0.332186  0.500000  1
  Si  Si3  1  0.082186  0.082186  0.000000  1
  Si  Si4  1  0.667814  0.167814  0.500000  1
  Si  Si5  1  0.917814  0.917814  0.000000  1
