# generated using pymatgen
data_U2Cr30P19
_symmetry_space_group_name_H-M   'P 1'
_cell_length_a   14.56591528
_cell_length_b   14.56591528
_cell_length_c   3.44059250
_cell_angle_alpha   90.00000000
_cell_angle_beta   90.00000000
_cell_angle_gamma   120.00000000
_symmetry_Int_Tables_number   1
_chemical_formula_structural   U2Cr30P19
_chemical_formula_sum   'U2 Cr30 P19'
_cell_volume   632.17807427
_cell_formula_units_Z   1
loop_
 _symmetry_equiv_pos_site_id
 _symmetry_equiv_pos_as_xyz
  1  'x, y, z'
loop_
 _atom_site_type_symbol
 _atom_site_label
 _atom_site_symmetry_multiplicity
 _atom_site_fract_x
 _atom_site_fract_y
 _atom_site_fract_z
 _atom_site_occupancy
  U  U0  1  0.000000  0.000000  0.500000  1
  U  U1  1  0.333333  0.666667  0.000000  1
  Cr  Cr2  1  0.156465  0.981401  0.000000  1
  Cr  Cr3  1  0.058198  0.523767  0.000000  1
  Cr  Cr4  1  0.465569  0.941802  0.000000  1
  Cr  Cr5  1  0.476233  0.534431  0.000000  1
  Cr  Cr6  1  0.276027  0.146527  0.500000  1
  Cr  Cr7  1  0.824936  0.843535  0.000000  1
  Cr  Cr8  1  0.853473  0.129500  0.500000  1
  Cr  Cr9  1  0.847402  0.443824  0.000000  1
  Cr  Cr10  1  0.596422  0.152598  0.000000  1
  Cr  Cr11  1  0.556176  0.403578  0.000000  1
  Cr  Cr12  1  0.524027  0.248209  0.500000  1
  Cr  Cr13  1  0.724182  0.475973  0.500000  1
  Cr  Cr14  1  0.751791  0.275818  0.500000  1
  Cr  Cr15  1  0.509344  0.822632  0.500000  1
  Cr  Cr16  1  0.177368  0.686712  0.500000  1
  Cr  Cr17  1  0.313288  0.490656  0.500000  1
  Cr  Cr18  1  0.730917  0.917808  0.500000  1
  Cr  Cr19  1  0.082192  0.813109  0.500000  1
  Cr  Cr20  1  0.186891  0.269083  0.500000  1
  Cr  Cr21  1  0.602302  0.745648  0.000000  1
  Cr  Cr22  1  0.254352  0.856655  0.000000  1
  Cr  Cr23  1  0.143345  0.397698  0.000000  1
  Cr  Cr24  1  0.690258  0.619296  0.000000  1
  Cr  Cr25  1  0.380704  0.070962  0.000000  1
  Cr  Cr26  1  0.929038  0.309742  0.000000  1
  Cr  Cr27  1  0.644791  0.044990  0.500000  1
  Cr  Cr28  1  0.955010  0.599801  0.500000  1
  Cr  Cr29  1  0.400199  0.355209  0.500000  1
  Cr  Cr30  1  0.870500  0.723973  0.500000  1
  Cr  Cr31  1  0.018599  0.175064  0.000000  1
  P  P32  1  0.666667  0.333333  0.000000  1
  P  P33  1  0.937902  0.423204  0.500000  1
  P  P34  1  0.398756  0.240424  0.000000  1
  P  P35  1  0.759576  0.158332  0.000000  1
  P  P36  1  0.841668  0.601244  0.000000  1
  P  P37  1  0.170569  0.521917  0.500000  1
  P  P38  1  0.478083  0.648652  0.500000  1
  P  P39  1  0.351348  0.829431  0.500000  1
  P  P40  1  0.162480  0.145523  0.000000  1
  P  P41  1  0.854477  0.016956  0.000000  1
  P  P42  1  0.983044  0.837520  0.000000  1
  P  P43  1  0.028402  0.284064  0.500000  1
  P  P44  1  0.715936  0.744338  0.500000  1
  P  P45  1  0.255662  0.971598  0.500000  1
  P  P46  1  0.300408  0.380248  0.000000  1
  P  P47  1  0.619752  0.920160  0.000000  1
  P  P48  1  0.079840  0.699592  0.000000  1
  P  P49  1  0.576796  0.514698  0.500000  1
  P  P50  1  0.485302  0.062098  0.500000  1
