# generated using pymatgen
data_CoB
_symmetry_space_group_name_H-M   'P 1'
_cell_length_a   3.06477004
_cell_length_b   3.92169576
_cell_length_c   5.16898313
_cell_angle_alpha   90.00000000
_cell_angle_beta   90.00000000
_cell_angle_gamma   90.00000000
_symmetry_Int_Tables_number   1
_chemical_formula_structural   CoB
_chemical_formula_sum   'Co4 B4'
_cell_volume   62.12650276
_cell_formula_units_Z   4
loop_
 _symmetry_equiv_pos_site_id
 _symmetry_equiv_pos_as_xyz
  1  'x, y, z'
loop_
 _atom_site_type_symbol
 _atom_site_label
 _atom_site_symmetry_multiplicity
 _atom_site_fract_x
 _atom_site_fract_y
 _atom_site_fract_z
 _atom_site_occupancy
  Co  Co0  1  0.250000  0.372702  0.677228  1
  Co  Co1  1  0.750000  0.627298  0.322772  1
  Co  Co2  1  0.750000  0.872702  0.822772  1
  Co  Co3  1  0.250000  0.127298  0.177228  1
  B  B4  1  0.250000  0.875997  0.531999  1
  B  B5  1  0.750000  0.124003  0.468001  1
  B  B6  1  0.750000  0.375997  0.968001  1
  B  B7  1  0.250000  0.624003  0.031999  1
