# generated using pymatgen
data_InTe
_symmetry_space_group_name_H-M   'P 1'
_cell_length_a   7.09032190
_cell_length_b   7.09032190
_cell_length_c   7.09032190
_cell_angle_alpha   105.05290957
_cell_angle_beta   105.05290957
_cell_angle_gamma   118.72316999
_symmetry_Int_Tables_number   1
_chemical_formula_structural   InTe
_chemical_formula_sum   'In4 Te4'
_cell_volume   268.95170453
_cell_formula_units_Z   4
loop_
 _symmetry_equiv_pos_site_id
 _symmetry_equiv_pos_as_xyz
  1  'x, y, z'
loop_
 _atom_site_type_symbol
 _atom_site_label
 _atom_site_symmetry_multiplicity
 _atom_site_fract_x
 _atom_site_fract_y
 _atom_site_fract_z
 _atom_site_occupancy
  In  In0  1  0.250000  0.250000  0.000000  1
  In  In1  1  0.750000  0.750000  0.000000  1
  In  In2  1  0.250000  0.750000  0.500000  1
  In  In3  1  0.750000  0.250000  0.500000  1
  Te  Te4  1  0.182042  0.682042  0.864084  1
  Te  Te5  1  0.317958  0.182042  0.500000  1
  Te  Te6  1  0.682042  0.817958  0.500000  1
  Te  Te7  1  0.817958  0.317958  0.135916  1
