# generated using pymatgen
data_Nb3ICl6
_symmetry_space_group_name_H-M   'P 1'
_cell_length_a   12.89166338
_cell_length_b   12.89166338
_cell_length_c   12.89166338
_cell_angle_alpha   90.00000000
_cell_angle_beta   90.00000000
_cell_angle_gamma   90.00000000
_symmetry_Int_Tables_number   1
_chemical_formula_structural   Nb3ICl6
_chemical_formula_sum   'Nb24 I8 Cl48'
_cell_volume   2142.52979824
_cell_formula_units_Z   8
loop_
 _symmetry_equiv_pos_site_id
 _symmetry_equiv_pos_as_xyz
  1  'x, y, z'
loop_
 _atom_site_type_symbol
 _atom_site_label
 _atom_site_symmetry_multiplicity
 _atom_site_fract_x
 _atom_site_fract_y
 _atom_site_fract_z
 _atom_site_occupancy
  Nb  Nb0  1  0.559101  0.042639  0.142912  1
  Nb  Nb1  1  0.142912  0.559101  0.042639  1
  Nb  Nb2  1  0.042639  0.142912  0.559101  1
  Nb  Nb3  1  0.457361  0.857088  0.059101  1
  Nb  Nb4  1  0.642912  0.940899  0.957361  1
  Nb  Nb5  1  0.957361  0.642912  0.940899  1
  Nb  Nb6  1  0.357088  0.440899  0.542639  1
  Nb  Nb7  1  0.857088  0.059101  0.457361  1
  Nb  Nb8  1  0.542639  0.357088  0.440899  1
  Nb  Nb9  1  0.059101  0.457361  0.857088  1
  Nb  Nb10  1  0.440899  0.542639  0.357088  1
  Nb  Nb11  1  0.940899  0.957361  0.642912  1
  Nb  Nb12  1  0.440899  0.957361  0.857088  1
  Nb  Nb13  1  0.857088  0.440899  0.957361  1
  Nb  Nb14  1  0.957361  0.857088  0.440899  1
  Nb  Nb15  1  0.542639  0.142912  0.940899  1
  Nb  Nb16  1  0.357088  0.059101  0.042639  1
  Nb  Nb17  1  0.042639  0.357088  0.059101  1
  Nb  Nb18  1  0.642912  0.559101  0.457361  1
  Nb  Nb19  1  0.142912  0.940899  0.542639  1
  Nb  Nb20  1  0.457361  0.642912  0.559101  1
  Nb  Nb21  1  0.940899  0.542639  0.142912  1
  Nb  Nb22  1  0.559101  0.457361  0.642912  1
  Nb  Nb23  1  0.059101  0.042639  0.357088  1
  I  I24  1  0.129885  0.129885  0.129885  1
  I  I25  1  0.370115  0.870115  0.629885  1
  I  I26  1  0.629885  0.370115  0.870115  1
  I  I27  1  0.870115  0.629885  0.370115  1
  I  I28  1  0.870115  0.870115  0.870115  1
  I  I29  1  0.629885  0.129885  0.370115  1
  I  I30  1  0.370115  0.629885  0.129885  1
  I  I31  1  0.129885  0.370115  0.629885  1
  Cl  Cl32  1  0.621003  0.217277  0.098811  1
  Cl  Cl33  1  0.098811  0.621003  0.217277  1
  Cl  Cl34  1  0.217277  0.098811  0.621003  1
  Cl  Cl35  1  0.282723  0.901189  0.121003  1
  Cl  Cl36  1  0.598811  0.878997  0.782723  1
  Cl  Cl37  1  0.782723  0.598811  0.878997  1
  Cl  Cl38  1  0.401189  0.378997  0.717277  1
  Cl  Cl39  1  0.901189  0.121003  0.282723  1
  Cl  Cl40  1  0.717277  0.401189  0.378997  1
  Cl  Cl41  1  0.121003  0.282723  0.901189  1
  Cl  Cl42  1  0.378997  0.717277  0.401189  1
  Cl  Cl43  1  0.878997  0.782723  0.598811  1
  Cl  Cl44  1  0.378997  0.782723  0.901189  1
  Cl  Cl45  1  0.901189  0.378997  0.782723  1
  Cl  Cl46  1  0.782723  0.901189  0.378997  1
  Cl  Cl47  1  0.717277  0.098811  0.878997  1
  Cl  Cl48  1  0.401189  0.121003  0.217277  1
  Cl  Cl49  1  0.217277  0.401189  0.121003  1
  Cl  Cl50  1  0.598811  0.621003  0.282723  1
  Cl  Cl51  1  0.098811  0.878997  0.717277  1
  Cl  Cl52  1  0.282723  0.598811  0.621003  1
  Cl  Cl53  1  0.878997  0.717277  0.098811  1
  Cl  Cl54  1  0.621003  0.282723  0.598811  1
  Cl  Cl55  1  0.121003  0.217277  0.401189  1
  Cl  Cl56  1  0.739020  0.979468  0.118109  1
  Cl  Cl57  1  0.118109  0.739020  0.979468  1
  Cl  Cl58  1  0.979468  0.118109  0.739020  1
  Cl  Cl59  1  0.520532  0.881891  0.239020  1
  Cl  Cl60  1  0.618109  0.760980  0.020532  1
  Cl  Cl61  1  0.020532  0.618109  0.760980  1
  Cl  Cl62  1  0.381891  0.260980  0.479468  1
  Cl  Cl63  1  0.881891  0.239020  0.520532  1
  Cl  Cl64  1  0.479468  0.381891  0.260980  1
  Cl  Cl65  1  0.239020  0.520532  0.881891  1
  Cl  Cl66  1  0.260980  0.479468  0.381891  1
  Cl  Cl67  1  0.760980  0.020532  0.618109  1
  Cl  Cl68  1  0.260980  0.020532  0.881891  1
  Cl  Cl69  1  0.881891  0.260980  0.020532  1
  Cl  Cl70  1  0.020532  0.881891  0.260980  1
  Cl  Cl71  1  0.479468  0.118109  0.760980  1
  Cl  Cl72  1  0.381891  0.239020  0.979468  1
  Cl  Cl73  1  0.979468  0.381891  0.239020  1
  Cl  Cl74  1  0.618109  0.739020  0.520532  1
  Cl  Cl75  1  0.118109  0.760980  0.479468  1
  Cl  Cl76  1  0.520532  0.618109  0.739020  1
  Cl  Cl77  1  0.760980  0.479468  0.118109  1
  Cl  Cl78  1  0.739020  0.520532  0.618109  1
  Cl  Cl79  1  0.239020  0.979468  0.381891  1
