# generated using pymatgen
data_PdF2
_symmetry_space_group_name_H-M   'P 1'
_cell_length_a   5.36994729
_cell_length_b   5.36994729
_cell_length_c   5.36994729
_cell_angle_alpha   90.00000000
_cell_angle_beta   90.00000000
_cell_angle_gamma   90.00000000
_symmetry_Int_Tables_number   1
_chemical_formula_structural   PdF2
_chemical_formula_sum   'Pd4 F8'
_cell_volume   154.84959307
_cell_formula_units_Z   4
loop_
 _symmetry_equiv_pos_site_id
 _symmetry_equiv_pos_as_xyz
  1  'x, y, z'
loop_
 _atom_site_type_symbol
 _atom_site_label
 _atom_site_symmetry_multiplicity
 _atom_site_fract_x
 _atom_site_fract_y
 _atom_site_fract_z
 _atom_site_occupancy
  Pd  Pd0  1  0.000000  0.500000  0.500000  1
  Pd  Pd1  1  0.500000  0.500000  0.000000  1
  Pd  Pd2  1  0.500000  0.000000  0.500000  1
  Pd  Pd3  1  0.000000  0.000000  0.000000  1
  F  F4  1  0.342827  0.157173  0.842827  1
  F  F5  1  0.157173  0.842827  0.342827  1
  F  F6  1  0.842827  0.342827  0.157173  1
  F  F7  1  0.657173  0.657173  0.657173  1
  F  F8  1  0.342827  0.342827  0.342827  1
  F  F9  1  0.157173  0.657173  0.842827  1
  F  F10  1  0.842827  0.157173  0.657173  1
  F  F11  1  0.657173  0.842827  0.157173  1
