# generated using pymatgen
data_FeB
_symmetry_space_group_name_H-M   'P 1'
_cell_length_a   2.94861205
_cell_length_b   3.99755395
_cell_length_c   5.40819510
_cell_angle_alpha   90.00000000
_cell_angle_beta   90.00000000
_cell_angle_gamma   90.00000000
_symmetry_Int_Tables_number   1
_chemical_formula_structural   FeB
_chemical_formula_sum   'Fe4 B4'
_cell_volume   63.74767061
_cell_formula_units_Z   4
loop_
 _symmetry_equiv_pos_site_id
 _symmetry_equiv_pos_as_xyz
  1  'x, y, z'
loop_
 _atom_site_type_symbol
 _atom_site_label
 _atom_site_symmetry_multiplicity
 _atom_site_fract_x
 _atom_site_fract_y
 _atom_site_fract_z
 _atom_site_occupancy
  Fe  Fe0  1  0.250000  0.379927  0.678145  1
  Fe  Fe1  1  0.750000  0.620073  0.321855  1
  Fe  Fe2  1  0.750000  0.879927  0.821855  1
  Fe  Fe3  1  0.250000  0.120073  0.178145  1
  B  B4  1  0.250000  0.881326  0.534234  1
  B  B5  1  0.750000  0.118674  0.465766  1
  B  B6  1  0.750000  0.381326  0.965766  1
  B  B7  1  0.250000  0.618674  0.034234  1
