# generated using pymatgen
data_Ca3SiO5
_symmetry_space_group_name_H-M   'P 1'
_cell_length_a   9.52731280
_cell_length_b   9.52731280
_cell_length_c   9.52731280
_cell_angle_alpha   43.68760822
_cell_angle_beta   43.68760822
_cell_angle_gamma   43.68760822
_symmetry_Int_Tables_number   1
_chemical_formula_structural   Ca3SiO5
_chemical_formula_sum   'Ca9 Si3 O15'
_cell_volume   374.50462683
_cell_formula_units_Z   3
loop_
 _symmetry_equiv_pos_site_id
 _symmetry_equiv_pos_as_xyz
  1  'x, y, z'
loop_
 _atom_site_type_symbol
 _atom_site_label
 _atom_site_symmetry_multiplicity
 _atom_site_fract_x
 _atom_site_fract_y
 _atom_site_fract_z
 _atom_site_occupancy
  Ca  Ca0  1  0.737638  0.737638  0.213178  1
  Ca  Ca1  1  0.737638  0.213178  0.737638  1
  Ca  Ca2  1  0.213178  0.737638  0.737638  1
  Ca  Ca3  1  0.941946  0.941946  0.467923  1
  Ca  Ca4  1  0.941946  0.467923  0.941946  1
  Ca  Ca5  1  0.467923  0.941946  0.941946  1
  Ca  Ca6  1  0.504998  0.504998  0.980498  1
  Ca  Ca7  1  0.504998  0.980498  0.504998  1
  Ca  Ca8  1  0.980498  0.504998  0.504998  1
  Si  Si9  1  0.232049  0.232049  0.232049  1
  Si  Si10  1  0.444738  0.444738  0.444738  1
  Si  Si11  1  0.010939  0.010939  0.010939  1
  O  O12  1  0.864128  0.864128  0.246191  1
  O  O13  1  0.864128  0.246191  0.864128  1
  O  O14  1  0.246191  0.864128  0.864128  1
  O  O15  1  0.592963  0.592963  0.215600  1
  O  O16  1  0.592963  0.215600  0.592963  1
  O  O17  1  0.215600  0.592963  0.592963  1
  O  O18  1  0.130249  0.130249  0.505660  1
  O  O19  1  0.130249  0.505660  0.130249  1
  O  O20  1  0.505660  0.130249  0.130249  1
  O  O21  1  0.379554  0.379554  0.379554  1
  O  O22  1  0.725237  0.725237  0.725237  1
  O  O23  1  0.074290  0.074290  0.074290  1
  O  O24  1  0.169156  0.169156  0.169156  1
  O  O25  1  0.598039  0.598039  0.598039  1
  O  O26  1  0.849604  0.849604  0.849604  1
