# generated using pymatgen
data_LaNb5O14
_symmetry_space_group_name_H-M   'P 1'
_cell_length_a   3.92979882
_cell_length_b   12.66321022
_cell_length_c   20.45992871
_cell_angle_alpha   90.00000000
_cell_angle_beta   90.00000000
_cell_angle_gamma   90.00000000
_symmetry_Int_Tables_number   1
_chemical_formula_structural   LaNb5O14
_chemical_formula_sum   'La4 Nb20 O56'
_cell_volume   1018.16520348
_cell_formula_units_Z   4
loop_
 _symmetry_equiv_pos_site_id
 _symmetry_equiv_pos_as_xyz
  1  'x, y, z'
loop_
 _atom_site_type_symbol
 _atom_site_label
 _atom_site_symmetry_multiplicity
 _atom_site_fract_x
 _atom_site_fract_y
 _atom_site_fract_z
 _atom_site_occupancy
  La  La0  1  0.004044  0.750000  0.000000  1
  La  La1  1  0.995956  0.250000  0.500000  1
  La  La2  1  0.995956  0.250000  0.000000  1
  La  La3  1  0.004044  0.750000  0.500000  1
  Nb  Nb4  1  0.548721  0.999631  0.750000  1
  Nb  Nb5  1  0.548721  0.500369  0.250000  1
  Nb  Nb6  1  0.451279  0.499631  0.750000  1
  Nb  Nb7  1  0.451279  0.000369  0.250000  1
  Nb  Nb8  1  0.466387  0.725637  0.155760  1
  Nb  Nb9  1  0.466387  0.774363  0.844240  1
  Nb  Nb10  1  0.533613  0.225637  0.344240  1
  Nb  Nb11  1  0.533613  0.274363  0.655760  1
  Nb  Nb12  1  0.533613  0.274363  0.844240  1
  Nb  Nb13  1  0.533613  0.225637  0.155760  1
  Nb  Nb14  1  0.466387  0.774363  0.655760  1
  Nb  Nb15  1  0.466387  0.725637  0.344240  1
  Nb  Nb16  1  0.500926  0.958270  0.077176  1
  Nb  Nb17  1  0.500926  0.541730  0.922824  1
  Nb  Nb18  1  0.499074  0.458270  0.422824  1
  Nb  Nb19  1  0.499074  0.041730  0.577176  1
  Nb  Nb20  1  0.499074  0.041730  0.922824  1
  Nb  Nb21  1  0.499074  0.458270  0.077176  1
  Nb  Nb22  1  0.500926  0.541730  0.577176  1
  Nb  Nb23  1  0.500926  0.958270  0.422824  1
  O  O24  1  0.515330  0.824692  0.750000  1
  O  O25  1  0.515330  0.675308  0.250000  1
  O  O26  1  0.484670  0.324692  0.750000  1
  O  O27  1  0.484670  0.175308  0.250000  1
  O  O28  1  0.012718  0.995962  0.750000  1
  O  O29  1  0.012718  0.504038  0.250000  1
  O  O30  1  0.987282  0.495962  0.750000  1
  O  O31  1  0.987282  0.004038  0.250000  1
  O  O32  1  0.507464  0.087463  0.026953  1
  O  O33  1  0.507464  0.412537  0.973047  1
  O  O34  1  0.492536  0.587463  0.473047  1
  O  O35  1  0.492536  0.912537  0.526953  1
  O  O36  1  0.492536  0.912537  0.973047  1
  O  O37  1  0.492536  0.587463  0.026953  1
  O  O38  1  0.507464  0.412537  0.526953  1
  O  O39  1  0.507464  0.087463  0.473047  1
  O  O40  1  0.497338  0.057876  0.153834  1
  O  O41  1  0.497338  0.442124  0.846166  1
  O  O42  1  0.502662  0.557876  0.346166  1
  O  O43  1  0.480690  0.869823  0.314467  1
  O  O44  1  0.502662  0.942124  0.653834  1
  O  O45  1  0.502662  0.557876  0.153834  1
  O  O46  1  0.497338  0.442124  0.653834  1
  O  O47  1  0.497338  0.057876  0.346166  1
  O  O48  1  0.997165  0.709091  0.362273  1
  O  O49  1  0.997165  0.790909  0.637727  1
  O  O50  1  0.002835  0.209091  0.137727  1
  O  O51  1  0.002835  0.290909  0.862273  1
  O  O52  1  0.002835  0.290909  0.637727  1
  O  O53  1  0.002835  0.209091  0.362273  1
  O  O54  1  0.997165  0.790909  0.862273  1
  O  O55  1  0.997165  0.709091  0.137727  1
  O  O56  1  0.505857  0.709060  0.566807  1
  O  O57  1  0.505857  0.790940  0.433193  1
  O  O58  1  0.494143  0.209060  0.933193  1
  O  O59  1  0.494143  0.290940  0.066807  1
  O  O60  1  0.494143  0.290940  0.433193  1
  O  O61  1  0.494143  0.209060  0.566807  1
  O  O62  1  0.505857  0.790940  0.066807  1
  O  O63  1  0.505857  0.709060  0.933193  1
  O  O64  1  0.000572  0.566165  0.573579  1
  O  O65  1  0.000572  0.933835  0.426421  1
  O  O66  1  0.999428  0.066165  0.926421  1
  O  O67  1  0.999428  0.433835  0.073579  1
  O  O68  1  0.999428  0.433835  0.426421  1
  O  O69  1  0.999428  0.066165  0.573579  1
  O  O70  1  0.000572  0.933835  0.073579  1
  O  O71  1  0.000572  0.566165  0.926421  1
  O  O72  1  0.480690  0.869823  0.185533  1
  O  O73  1  0.480690  0.630177  0.814467  1
  O  O74  1  0.519310  0.369823  0.314467  1
  O  O75  1  0.519310  0.130177  0.685533  1
  O  O76  1  0.519310  0.130177  0.814467  1
  O  O77  1  0.519310  0.369823  0.185533  1
  O  O78  1  0.480690  0.630177  0.685533  1
  O  O79  1  0.502662  0.942124  0.846166  1
