# generated using pymatgen
data_BaVSe3
_symmetry_space_group_name_H-M   'P 1'
_cell_length_a   7.02663185
_cell_length_b   7.02663185
_cell_length_c   6.02202333
_cell_angle_alpha   90.00000000
_cell_angle_beta   90.00000000
_cell_angle_gamma   120.00000000
_symmetry_Int_Tables_number   1
_chemical_formula_structural   BaVSe3
_chemical_formula_sum   'Ba2 V2 Se6'
_cell_volume   257.49420861
_cell_formula_units_Z   2
loop_
 _symmetry_equiv_pos_site_id
 _symmetry_equiv_pos_as_xyz
  1  'x, y, z'
loop_
 _atom_site_type_symbol
 _atom_site_label
 _atom_site_symmetry_multiplicity
 _atom_site_fract_x
 _atom_site_fract_y
 _atom_site_fract_z
 _atom_site_occupancy
  Ba  Ba0  1  0.666667  0.333333  0.250000  1
  Ba  Ba1  1  0.333333  0.666667  0.750000  1
  V  V2  1  0.000000  0.000000  0.500000  1
  V  V3  1  0.000000  0.000000  0.000000  1
  Se  Se4  1  0.166569  0.833431  0.250000  1
  Se  Se5  1  0.833431  0.666862  0.750000  1
  Se  Se6  1  0.166569  0.333138  0.250000  1
  Se  Se7  1  0.833431  0.166569  0.750000  1
  Se  Se8  1  0.333138  0.166569  0.750000  1
  Se  Se9  1  0.666862  0.833431  0.250000  1
