# generated using pymatgen
data_CsFeP2O7
_symmetry_space_group_name_H-M   'P 1'
_cell_length_a   7.80870013
_cell_length_b   10.11283912
_cell_length_c   8.51503516
_cell_angle_alpha   90.00000000
_cell_angle_beta   104.96328352
_cell_angle_gamma   90.00000000
_symmetry_Int_Tables_number   1
_chemical_formula_structural   CsFeP2O7
_chemical_formula_sum   'Cs4 Fe4 P8 O28'
_cell_volume   649.61574721
_cell_formula_units_Z   4
loop_
 _symmetry_equiv_pos_site_id
 _symmetry_equiv_pos_as_xyz
  1  'x, y, z'
loop_
 _atom_site_type_symbol
 _atom_site_label
 _atom_site_symmetry_multiplicity
 _atom_site_fract_x
 _atom_site_fract_y
 _atom_site_fract_z
 _atom_site_occupancy
  Cs  Cs0  1  0.698119  0.205953  0.537984  1
  Cs  Cs1  1  0.301881  0.705953  0.962016  1
  Cs  Cs2  1  0.301881  0.794047  0.462016  1
  Cs  Cs3  1  0.698119  0.294047  0.037984  1
  Fe  Fe4  1  0.259367  0.101108  0.742064  1
  Fe  Fe5  1  0.740633  0.601108  0.757936  1
  Fe  Fe6  1  0.740633  0.898892  0.257936  1
  Fe  Fe7  1  0.259367  0.398892  0.242064  1
  P  P8  1  0.922116  0.874872  0.681011  1
  P  P9  1  0.077884  0.374872  0.818989  1
  P  P10  1  0.077884  0.125128  0.318989  1
  P  P11  1  0.922116  0.625128  0.181011  1
  P  P12  1  0.369332  0.093069  0.166409  1
  P  P13  1  0.630668  0.593069  0.333591  1
  P  P14  1  0.630668  0.906931  0.833591  1
  P  P15  1  0.369332  0.406931  0.666409  1
  O  O16  1  0.931906  0.728655  0.732294  1
  O  O17  1  0.068094  0.228655  0.767706  1
  O  O18  1  0.068094  0.271345  0.267706  1
  O  O19  1  0.931906  0.771345  0.232294  1
  O  O20  1  0.108641  0.934492  0.728641  1
  O  O21  1  0.891359  0.434492  0.771359  1
  O  O22  1  0.891359  0.065508  0.271359  1
  O  O23  1  0.108641  0.565508  0.228641  1
  O  O24  1  0.820281  0.899881  0.505520  1
  O  O25  1  0.179719  0.399881  0.994480  1
  O  O26  1  0.179719  0.100119  0.494480  1
  O  O27  1  0.820281  0.600119  0.005520  1
  O  O28  1  0.185602  0.045720  0.206693  1
  O  O29  1  0.814398  0.545720  0.293307  1
  O  O30  1  0.814398  0.954280  0.793307  1
  O  O31  1  0.185602  0.454280  0.706693  1
  O  O32  1  0.513901  0.499150  0.764517  1
  O  O33  1  0.486099  0.999150  0.735483  1
  O  O34  1  0.486099  0.500850  0.235483  1
  O  O35  1  0.513901  0.000850  0.264517  1
  O  O36  1  0.406671  0.264594  0.729887  1
  O  O37  1  0.593329  0.764594  0.770113  1
  O  O38  1  0.593329  0.735406  0.270113  1
  O  O39  1  0.406671  0.235406  0.229887  1
  O  O40  1  0.339799  0.419371  0.484209  1
  O  O41  1  0.660201  0.919371  0.015791  1
  O  O42  1  0.660201  0.580629  0.515791  1
  O  O43  1  0.339799  0.080629  0.984209  1
