# generated using pymatgen
data_AgH5S2O9
_symmetry_space_group_name_H-M   'P 1'
_cell_length_a   7.41014569
_cell_length_b   13.30717479
_cell_length_c   8.28320654
_cell_angle_alpha   90.00000000
_cell_angle_beta   107.72294623
_cell_angle_gamma   90.00000000
_symmetry_Int_Tables_number   1
_chemical_formula_structural   AgH5S2O9
_chemical_formula_sum   'Ag4 H20 S8 O36'
_cell_volume   778.02608514
_cell_formula_units_Z   4
loop_
 _symmetry_equiv_pos_site_id
 _symmetry_equiv_pos_as_xyz
  1  'x, y, z'
loop_
 _atom_site_type_symbol
 _atom_site_label
 _atom_site_symmetry_multiplicity
 _atom_site_fract_x
 _atom_site_fract_y
 _atom_site_fract_z
 _atom_site_occupancy
  Ag  Ag0  1  0.896627  0.038429  0.221525  1
  Ag  Ag1  1  0.103373  0.538429  0.278475  1
  Ag  Ag2  1  0.103373  0.961571  0.778475  1
  Ag  Ag3  1  0.896627  0.461571  0.721525  1
  H  H4  1  0.312520  0.772494  0.045152  1
  H  H5  1  0.687480  0.272494  0.454848  1
  H  H6  1  0.687480  0.227506  0.954848  1
  H  H7  1  0.312520  0.727506  0.545152  1
  H  H8  1  0.454353  0.701382  0.204545  1
  H  H9  1  0.545647  0.201382  0.295455  1
  H  H10  1  0.545647  0.298618  0.795455  1
  H  H11  1  0.454353  0.798618  0.704545  1
  H  H12  1  0.466190  0.828618  0.217099  1
  H  H13  1  0.533810  0.328618  0.282901  1
  H  H14  1  0.533810  0.171382  0.782901  1
  H  H15  1  0.466190  0.671382  0.717099  1
  H  H16  1  0.859037  0.778821  0.045669  1
  H  H17  1  0.140963  0.278821  0.454331  1
  H  H18  1  0.140963  0.221179  0.954331  1
  H  H19  1  0.859037  0.721179  0.545669  1
  H  H20  1  0.364773  0.067950  0.477089  1
  H  H21  1  0.635227  0.567950  0.022911  1
  H  H22  1  0.635227  0.932050  0.522911  1
  H  H23  1  0.364773  0.432050  0.977089  1
  S  S24  1  0.993654  0.694614  0.888421  1
  S  S25  1  0.006346  0.194614  0.611579  1
  S  S26  1  0.006346  0.305386  0.111579  1
  S  S27  1  0.993654  0.805386  0.388421  1
  S  S28  1  0.396271  0.019570  0.234915  1
  S  S29  1  0.603729  0.519570  0.265085  1
  S  S30  1  0.603729  0.980430  0.765085  1
  S  S31  1  0.396271  0.480430  0.734915  1
  O  O32  1  0.441804  0.767698  0.139209  1
  O  O33  1  0.558196  0.267698  0.360791  1
  O  O34  1  0.558196  0.232302  0.860791  1
  O  O35  1  0.441804  0.732302  0.639209  1
  O  O36  1  0.819453  0.741815  0.931989  1
  O  O37  1  0.180547  0.241815  0.568011  1
  O  O38  1  0.180547  0.258185  0.068011  1
  O  O39  1  0.819453  0.758185  0.431989  1
  O  O40  1  0.132161  0.777087  0.896781  1
  O  O41  1  0.867839  0.277087  0.603219  1
  O  O42  1  0.867839  0.222913  0.103219  1
  O  O43  1  0.132161  0.722913  0.396781  1
  O  O44  1  0.075782  0.614047  0.007495  1
  O  O45  1  0.924218  0.114047  0.492505  1
  O  O46  1  0.924218  0.385953  0.992505  1
  O  O47  1  0.075782  0.885953  0.507495  1
  O  O48  1  0.910433  0.656385  0.714352  1
  O  O49  1  0.089567  0.156385  0.785648  1
  O  O50  1  0.089567  0.343615  0.285648  1
  O  O51  1  0.910433  0.843615  0.214352  1
  O  O52  1  0.285340  0.066457  0.352926  1
  O  O53  1  0.714660  0.566457  0.147074  1
  O  O54  1  0.714660  0.933543  0.647074  1
  O  O55  1  0.285340  0.433543  0.852926  1
  O  O56  1  0.531701  0.095596  0.213412  1
  O  O57  1  0.468299  0.595596  0.286588  1
  O  O58  1  0.468299  0.904404  0.786588  1
  O  O59  1  0.531701  0.404404  0.713412  1
  O  O60  1  0.500018  0.929636  0.326578  1
  O  O61  1  0.499982  0.429636  0.173422  1
  O  O62  1  0.499982  0.070364  0.673422  1
  O  O63  1  0.500018  0.570364  0.826578  1
  O  O64  1  0.249119  0.992234  0.081529  1
  O  O65  1  0.750881  0.492234  0.418471  1
  O  O66  1  0.750881  0.007766  0.918471  1
  O  O67  1  0.249119  0.507766  0.581529  1
