# generated using pymatgen
data_Fe3W3C
_symmetry_space_group_name_H-M   'P 1'
_cell_length_a   7.83168664
_cell_length_b   7.83168664
_cell_length_c   7.83168664
_cell_angle_alpha   60.00000000
_cell_angle_beta   60.00000000
_cell_angle_gamma   60.00000000
_symmetry_Int_Tables_number   1
_chemical_formula_structural   Fe3W3C
_chemical_formula_sum   'Fe12 W12 C4'
_cell_volume   339.66508706
_cell_formula_units_Z   4
loop_
 _symmetry_equiv_pos_site_id
 _symmetry_equiv_pos_as_xyz
  1  'x, y, z'
loop_
 _atom_site_type_symbol
 _atom_site_label
 _atom_site_symmetry_multiplicity
 _atom_site_fract_x
 _atom_site_fract_y
 _atom_site_fract_z
 _atom_site_occupancy
  Fe  Fe0  1  0.422694  0.422694  0.731917  1
  Fe  Fe1  1  0.518083  0.827306  0.827306  1
  Fe  Fe2  1  0.422694  0.422694  0.422694  1
  Fe  Fe3  1  0.422694  0.731917  0.422694  1
  Fe  Fe4  1  0.731917  0.422694  0.422694  1
  Fe  Fe5  1  0.827306  0.518083  0.827306  1
  Fe  Fe6  1  0.625000  0.125000  0.625000  1
  Fe  Fe7  1  0.827306  0.827306  0.827306  1
  Fe  Fe8  1  0.827306  0.827306  0.518083  1
  Fe  Fe9  1  0.125000  0.625000  0.625000  1
  Fe  Fe10  1  0.625000  0.625000  0.625000  1
  Fe  Fe11  1  0.625000  0.625000  0.125000  1
  W  W12  1  0.203323  0.796677  0.203323  1
  W  W13  1  0.203323  0.203323  0.796677  1
  W  W14  1  0.046677  0.453323  0.046677  1
  W  W15  1  0.796677  0.796677  0.203323  1
  W  W16  1  0.453323  0.046677  0.453323  1
  W  W17  1  0.453323  0.453323  0.046677  1
  W  W18  1  0.046677  0.046677  0.453323  1
  W  W19  1  0.796677  0.203323  0.203323  1
  W  W20  1  0.796677  0.203323  0.796677  1
  W  W21  1  0.453323  0.046677  0.046677  1
  W  W22  1  0.046677  0.453323  0.453323  1
  W  W23  1  0.203323  0.796677  0.796677  1
  C  C24  1  0.125000  0.125000  0.625000  1
  C  C25  1  0.125000  0.625000  0.125000  1
  C  C26  1  0.125000  0.125000  0.125000  1
  C  C27  1  0.625000  0.125000  0.125000  1
