# generated using pymatgen
data_Li2Cu(PO3)4
_symmetry_space_group_name_H-M   'P 1'
_cell_length_a   8.26966104
_cell_length_b   8.26966104
_cell_length_c   7.52399090
_cell_angle_alpha   88.02399524
_cell_angle_beta   91.97600476
_cell_angle_gamma   67.18182719
_symmetry_Int_Tables_number   1
_chemical_formula_structural   Li2Cu(PO3)4
_chemical_formula_sum   'Li4 Cu2 P8 O24'
_cell_volume   473.35516587
_cell_formula_units_Z   2
loop_
 _symmetry_equiv_pos_site_id
 _symmetry_equiv_pos_as_xyz
  1  'x, y, z'
loop_
 _atom_site_type_symbol
 _atom_site_label
 _atom_site_symmetry_multiplicity
 _atom_site_fract_x
 _atom_site_fract_y
 _atom_site_fract_z
 _atom_site_occupancy
  Li  Li0  1  0.513843  0.178283  0.691765  1
  Li  Li1  1  0.486157  0.821717  0.308235  1
  Li  Li2  1  0.178283  0.513843  0.808235  1
  Li  Li3  1  0.821717  0.486157  0.191765  1
  Cu  Cu4  1  0.131109  0.131109  0.250000  1
  Cu  Cu5  1  0.868891  0.868891  0.750000  1
  P  P6  1  0.227043  0.437226  0.386972  1
  P  P7  1  0.224681  0.926877  0.683675  1
  P  P8  1  0.926877  0.224681  0.816325  1
  P  P9  1  0.775319  0.073123  0.316325  1
  P  P10  1  0.772957  0.562774  0.613028  1
  P  P11  1  0.073123  0.775319  0.183675  1
  P  P12  1  0.562774  0.772957  0.886972  1
  P  P13  1  0.437226  0.227043  0.113028  1
  O  O14  1  0.878100  0.878100  0.250000  1
  O  O15  1  0.171021  0.896323  0.173476  1
  O  O16  1  0.828979  0.103677  0.826524  1
  O  O17  1  0.896323  0.171021  0.326524  1
  O  O18  1  0.935434  0.324533  0.975283  1
  O  O19  1  0.675467  0.064566  0.475283  1
  O  O20  1  0.844057  0.354758  0.641962  1
  O  O21  1  0.645242  0.155943  0.141962  1
  O  O22  1  0.913964  0.625291  0.680912  1
  O  O23  1  0.374709  0.086036  0.180912  1
  O  O24  1  0.388414  0.301433  0.926000  1
  O  O25  1  0.617304  0.617304  0.750000  1
  O  O26  1  0.121900  0.121900  0.750000  1
  O  O27  1  0.064566  0.675467  0.024717  1
  O  O28  1  0.301433  0.388414  0.574000  1
  O  O29  1  0.698567  0.611586  0.426000  1
  O  O30  1  0.382696  0.382696  0.250000  1
  O  O31  1  0.611586  0.698567  0.074000  1
  O  O32  1  0.625291  0.913964  0.819088  1
  O  O33  1  0.086036  0.374709  0.319088  1
  O  O34  1  0.354758  0.844057  0.858038  1
  O  O35  1  0.155943  0.645242  0.358038  1
  O  O36  1  0.324533  0.935434  0.524717  1
  O  O37  1  0.103677  0.828979  0.673476  1
