# generated using pymatgen
data_NiI2
_symmetry_space_group_name_H-M   'P 1'
_cell_length_a   7.24477811
_cell_length_b   7.24477811
_cell_length_c   7.24477811
_cell_angle_alpha   31.63910316
_cell_angle_beta   31.63910316
_cell_angle_gamma   31.63910316
_symmetry_Int_Tables_number   1
_chemical_formula_structural   NiI2
_chemical_formula_sum   'Ni1 I2'
_cell_volume   92.91509834
_cell_formula_units_Z   1
loop_
 _symmetry_equiv_pos_site_id
 _symmetry_equiv_pos_as_xyz
  1  'x, y, z'
loop_
 _atom_site_type_symbol
 _atom_site_label
 _atom_site_symmetry_multiplicity
 _atom_site_fract_x
 _atom_site_fract_y
 _atom_site_fract_z
 _atom_site_occupancy
  Ni  Ni0  1  0.000000  0.000000  0.000000  1
  I  I1  1  0.739565  0.739565  0.739565  1
  I  I2  1  0.260435  0.260435  0.260435  1
