# generated using pymatgen
data_Li2CoCl4
_symmetry_space_group_name_H-M   'P 1'
_cell_length_a   6.30663321
_cell_length_b   6.30663321
_cell_length_c   3.62745026
_cell_angle_alpha   90.00000000
_cell_angle_beta   90.00000000
_cell_angle_gamma   109.38782632
_symmetry_Int_Tables_number   1
_chemical_formula_structural   Li2CoCl4
_chemical_formula_sum   'Li2 Co1 Cl4'
_cell_volume   136.09536111
_cell_formula_units_Z   1
loop_
 _symmetry_equiv_pos_site_id
 _symmetry_equiv_pos_as_xyz
  1  'x, y, z'
loop_
 _atom_site_type_symbol
 _atom_site_label
 _atom_site_symmetry_multiplicity
 _atom_site_fract_x
 _atom_site_fract_y
 _atom_site_fract_z
 _atom_site_occupancy
  Li  Li0  1  0.000000  0.500000  0.500000  1
  Li  Li1  1  0.500000  0.000000  0.500000  1
  Co  Co2  1  0.000000  0.000000  0.000000  1
  Cl  Cl3  1  0.227904  0.227904  0.500000  1
  Cl  Cl4  1  0.762800  0.237200  0.000000  1
  Cl  Cl5  1  0.772096  0.772096  0.500000  1
  Cl  Cl6  1  0.237200  0.762800  1.000000  1
