# generated using pymatgen
data_Ba2GdCl7
_symmetry_space_group_name_H-M   'P 1'
_cell_length_a   6.95889814
_cell_length_b   15.76147239
_cell_length_c   10.69881846
_cell_angle_alpha   90.00000000
_cell_angle_beta   90.76492135
_cell_angle_gamma   90.00000000
_symmetry_Int_Tables_number   1
_chemical_formula_structural   Ba2GdCl7
_chemical_formula_sum   'Ba8 Gd4 Cl28'
_cell_volume   1173.36837793
_cell_formula_units_Z   4
loop_
 _symmetry_equiv_pos_site_id
 _symmetry_equiv_pos_as_xyz
  1  'x, y, z'
loop_
 _atom_site_type_symbol
 _atom_site_label
 _atom_site_symmetry_multiplicity
 _atom_site_fract_x
 _atom_site_fract_y
 _atom_site_fract_z
 _atom_site_occupancy
  Ba  Ba0  1  0.267468  0.060728  0.175588  1
  Ba  Ba1  1  0.732532  0.560728  0.324412  1
  Ba  Ba2  1  0.732532  0.939272  0.824412  1
  Ba  Ba3  1  0.267468  0.439272  0.675588  1
  Ba  Ba4  1  0.732232  0.279367  0.950086  1
  Ba  Ba5  1  0.267768  0.779367  0.549914  1
  Ba  Ba6  1  0.267768  0.720633  0.049914  1
  Ba  Ba7  1  0.732232  0.220633  0.450086  1
  Gd  Gd8  1  0.216756  0.127271  0.716997  1
  Gd  Gd9  1  0.783244  0.627271  0.783003  1
  Gd  Gd10  1  0.783244  0.872729  0.283003  1
  Gd  Gd11  1  0.216756  0.372729  0.216997  1
  Cl  Cl12  1  0.290418  0.140902  0.469295  1
  Cl  Cl13  1  0.709582  0.640902  0.030705  1
  Cl  Cl14  1  0.709582  0.859098  0.530705  1
  Cl  Cl15  1  0.290418  0.359098  0.969295  1
  Cl  Cl16  1  0.868784  0.071087  0.623924  1
  Cl  Cl17  1  0.131216  0.571087  0.876076  1
  Cl  Cl18  1  0.131216  0.928913  0.376076  1
  Cl  Cl19  1  0.868784  0.428913  0.123924  1
  Cl  Cl20  1  0.300683  0.959520  0.709876  1
  Cl  Cl21  1  0.699317  0.459520  0.790124  1
  Cl  Cl22  1  0.699317  0.040480  0.290124  1
  Cl  Cl23  1  0.300683  0.540480  0.209876  1
  Cl  Cl24  1  0.999225  0.396067  0.428944  1
  Cl  Cl25  1  0.000775  0.896067  0.071056  1
  Cl  Cl26  1  0.000775  0.603933  0.571056  1
  Cl  Cl27  1  0.999225  0.103933  0.928944  1
  Cl  Cl28  1  0.489477  0.241941  0.196993  1
  Cl  Cl29  1  0.510523  0.741941  0.303007  1
  Cl  Cl30  1  0.510523  0.758059  0.803007  1
  Cl  Cl31  1  0.489477  0.258059  0.696993  1
  Cl  Cl32  1  0.999037  0.226079  0.204835  1
  Cl  Cl33  1  0.000963  0.726079  0.295165  1
  Cl  Cl34  1  0.000963  0.773921  0.795165  1
  Cl  Cl35  1  0.999037  0.273921  0.704835  1
  Cl  Cl36  1  0.487516  0.395220  0.415013  1
  Cl  Cl37  1  0.512484  0.895220  0.084987  1
  Cl  Cl38  1  0.512484  0.604780  0.584987  1
  Cl  Cl39  1  0.487516  0.104780  0.915013  1
