# generated using pymatgen
data_BaH6Cl2O11
_symmetry_space_group_name_H-M   'P 1'
_cell_length_a   7.43277395
_cell_length_b   7.43277395
_cell_length_c   9.81676847
_cell_angle_alpha   90.00000000
_cell_angle_beta   90.00000000
_cell_angle_gamma   120.00000000
_symmetry_Int_Tables_number   1
_chemical_formula_structural   BaH6Cl2O11
_chemical_formula_sum   'Ba2 H12 Cl4 O22'
_cell_volume   469.67887809
_cell_formula_units_Z   2
loop_
 _symmetry_equiv_pos_site_id
 _symmetry_equiv_pos_as_xyz
  1  'x, y, z'
loop_
 _atom_site_type_symbol
 _atom_site_label
 _atom_site_symmetry_multiplicity
 _atom_site_fract_x
 _atom_site_fract_y
 _atom_site_fract_z
 _atom_site_occupancy
  Ba  Ba0  1  0.000000  0.000000  0.500000  1
  Ba  Ba1  1  0.000000  0.000000  0.000000  1
  H  H2  1  0.726399  0.693775  0.750000  1
  H  H3  1  0.032624  0.726399  0.250000  1
  H  H4  1  0.693775  0.967376  0.250000  1
  H  H5  1  0.306225  0.032624  0.750000  1
  H  H6  1  0.967376  0.273601  0.750000  1
  H  H7  1  0.273601  0.306225  0.250000  1
  H  H8  1  0.813713  0.207799  0.250000  1
  H  H9  1  0.186287  0.792201  0.750000  1
  H  H10  1  0.207799  0.394086  0.750000  1
  H  H11  1  0.394086  0.186287  0.250000  1
  H  H12  1  0.605914  0.813713  0.750000  1
  H  H13  1  0.792201  0.605914  0.250000  1
  Cl  Cl14  1  0.333333  0.666667  0.466198  1
  Cl  Cl15  1  0.666667  0.333333  0.966198  1
  Cl  Cl16  1  0.666667  0.333333  0.533802  1
  Cl  Cl17  1  0.333333  0.666667  0.033802  1
  O  O18  1  0.731821  0.189344  0.583909  1
  O  O19  1  0.542477  0.731821  0.083909  1
  O  O20  1  0.268179  0.810656  0.083909  1
  O  O21  1  0.810656  0.542477  0.583909  1
  O  O22  1  0.457523  0.268179  0.583909  1
  O  O23  1  0.268179  0.810656  0.416091  1
  O  O24  1  0.542477  0.731821  0.416091  1
  O  O25  1  0.457523  0.268179  0.916091  1
  O  O26  1  0.731821  0.189344  0.916091  1
  O  O27  1  0.189344  0.457523  0.416091  1
  O  O28  1  0.253196  0.165422  0.250000  1
  O  O29  1  0.087774  0.253196  0.750000  1
  O  O30  1  0.165422  0.912226  0.750000  1
  O  O31  1  0.834578  0.087774  0.250000  1
  O  O32  1  0.912226  0.746804  0.250000  1
  O  O33  1  0.746804  0.834578  0.750000  1
  O  O34  1  0.333333  0.666667  0.614724  1
  O  O35  1  0.666667  0.333333  0.114724  1
  O  O36  1  0.666667  0.333333  0.385276  1
  O  O37  1  0.333333  0.666667  0.885276  1
  O  O38  1  0.810656  0.542477  0.916091  1
  O  O39  1  0.189344  0.457523  0.083909  1
