# generated using pymatgen
data_K4P3
_symmetry_space_group_name_H-M   'P 1'
_cell_length_a   6.24523814
_cell_length_b   6.24523814
_cell_length_c   15.05198976
_cell_angle_alpha   90.00000000
_cell_angle_beta   90.00000000
_cell_angle_gamma   132.59659831
_symmetry_Int_Tables_number   1
_chemical_formula_structural   K4P3
_chemical_formula_sum   'K8 P6'
_cell_volume   432.16613124
_cell_formula_units_Z   2
loop_
 _symmetry_equiv_pos_site_id
 _symmetry_equiv_pos_as_xyz
  1  'x, y, z'
loop_
 _atom_site_type_symbol
 _atom_site_label
 _atom_site_symmetry_multiplicity
 _atom_site_fract_x
 _atom_site_fract_y
 _atom_site_fract_z
 _atom_site_occupancy
  K  K0  1  0.195106  0.804894  0.111384  1
  K  K1  1  0.804894  0.195106  0.888616  1
  K  K2  1  0.195106  0.804894  0.388616  1
  K  K3  1  0.804894  0.195106  0.611384  1
  K  K4  1  0.481957  0.518043  0.250000  1
  K  K5  1  0.518043  0.481957  0.750000  1
  K  K6  1  0.500000  0.500000  0.000000  1
  K  K7  1  0.500000  0.500000  0.500000  1
  P  P8  1  0.113605  0.886395  0.625058  1
  P  P9  1  0.886395  0.113605  0.374942  1
  P  P10  1  0.886395  0.113605  0.125058  1
  P  P11  1  0.113605  0.886395  0.874942  1
  P  P12  1  0.787803  0.212197  0.250000  1
  P  P13  1  0.212197  0.787803  0.750000  1
