# generated using pymatgen
data_HoCoO3
_symmetry_space_group_name_H-M   'P 1'
_cell_length_a   5.21474926
_cell_length_b   5.73538015
_cell_length_c   7.32890420
_cell_angle_alpha   90.00000000
_cell_angle_beta   90.00000000
_cell_angle_gamma   90.00000000
_symmetry_Int_Tables_number   1
_chemical_formula_structural   HoCoO3
_chemical_formula_sum   'Ho4 Co4 O12'
_cell_volume   219.19703984
_cell_formula_units_Z   4
loop_
 _symmetry_equiv_pos_site_id
 _symmetry_equiv_pos_as_xyz
  1  'x, y, z'
loop_
 _atom_site_type_symbol
 _atom_site_label
 _atom_site_symmetry_multiplicity
 _atom_site_fract_x
 _atom_site_fract_y
 _atom_site_fract_z
 _atom_site_occupancy
  Ho  Ho0  1  0.024537  0.914355  0.750000  1
  Ho  Ho1  1  0.524537  0.585645  0.250000  1
  Ho  Ho2  1  0.475463  0.414355  0.750000  1
  Ho  Ho3  1  0.975463  0.085645  0.250000  1
  Co  Co4  1  0.500000  0.000000  0.500000  1
  Co  Co5  1  0.000000  0.500000  0.500000  1
  Co  Co6  1  0.000000  0.500000  0.000000  1
  Co  Co7  1  0.500000  0.000000  0.000000  1
  O  O8  1  0.698132  0.316808  0.447250  1
  O  O9  1  0.198132  0.183192  0.552750  1
  O  O10  1  0.801868  0.816808  0.052750  1
  O  O11  1  0.301868  0.683192  0.947250  1
  O  O12  1  0.301868  0.683192  0.552750  1
  O  O13  1  0.801868  0.816808  0.447250  1
  O  O14  1  0.198132  0.183192  0.947250  1
  O  O15  1  0.698132  0.316808  0.052750  1
  O  O16  1  0.112249  0.468099  0.250000  1
  O  O17  1  0.612249  0.031901  0.750000  1
  O  O18  1  0.887751  0.531901  0.750000  1
  O  O19  1  0.387751  0.968099  0.250000  1
