# generated using pymatgen
data_H10SO8
_symmetry_space_group_name_H-M   'P 1'
_cell_length_a   7.51310186
_cell_length_b   7.51310186
_cell_length_c   6.46602028
_cell_angle_alpha   90.00000000
_cell_angle_beta   90.00000000
_cell_angle_gamma   90.00000000
_symmetry_Int_Tables_number   1
_chemical_formula_structural   H10SO8
_chemical_formula_sum   'H20 S2 O16'
_cell_volume   364.98550409
_cell_formula_units_Z   2
loop_
 _symmetry_equiv_pos_site_id
 _symmetry_equiv_pos_as_xyz
  1  'x, y, z'
loop_
 _atom_site_type_symbol
 _atom_site_label
 _atom_site_symmetry_multiplicity
 _atom_site_fract_x
 _atom_site_fract_y
 _atom_site_fract_z
 _atom_site_occupancy
  H  H0  1  0.000000  0.500000  0.090938  1
  H  H1  1  0.500000  0.000000  0.909062  1
  H  H2  1  0.500000  0.000000  0.409062  1
  H  H3  1  0.000000  0.500000  0.590938  1
  H  H4  1  0.852367  0.308135  0.105156  1
  H  H5  1  0.147633  0.691865  0.105156  1
  H  H6  1  0.308135  0.147633  0.894844  1
  H  H7  1  0.691865  0.852367  0.894844  1
  H  H8  1  0.808135  0.352367  0.605156  1
  H  H9  1  0.647633  0.808135  0.394844  1
  H  H10  1  0.352367  0.191865  0.394844  1
  H  H11  1  0.191865  0.647633  0.605156  1
  H  H12  1  0.767913  0.494026  0.188492  1
  H  H13  1  0.232087  0.505974  0.188492  1
  H  H14  1  0.494026  0.232087  0.811508  1
  H  H15  1  0.505974  0.767913  0.811508  1
  H  H16  1  0.994026  0.267913  0.688492  1
  H  H17  1  0.732087  0.994026  0.311508  1
  H  H18  1  0.005974  0.732087  0.688492  1
  H  H19  1  0.267913  0.005974  0.311508  1
  S  S20  1  0.500000  0.500000  0.500000  1
  S  S21  1  0.000000  0.000000  0.000000  1
  O  O22  1  0.849822  0.440821  0.082953  1
  O  O23  1  0.150178  0.559179  0.082953  1
  O  O24  1  0.440821  0.150178  0.917047  1
  O  O25  1  0.559179  0.849822  0.917047  1
  O  O26  1  0.940821  0.349822  0.582953  1
  O  O27  1  0.650178  0.940821  0.417047  1
  O  O28  1  0.349822  0.059179  0.417047  1
  O  O29  1  0.059179  0.650178  0.582953  1
  O  O30  1  0.590508  0.363674  0.631298  1
  O  O31  1  0.409492  0.636326  0.631298  1
  O  O32  1  0.363674  0.409492  0.368702  1
  O  O33  1  0.636326  0.590508  0.368702  1
  O  O34  1  0.863674  0.090508  0.131298  1
  O  O35  1  0.909492  0.863674  0.868702  1
  O  O36  1  0.090508  0.136326  0.868702  1
  O  O37  1  0.136326  0.909492  0.131298  1
