# generated using pymatgen
data_In3Pd5
_symmetry_space_group_name_H-M   'P 1'
_cell_length_a   4.24582248
_cell_length_b   5.77263914
_cell_length_c   11.27670845
_cell_angle_alpha   90.00000000
_cell_angle_beta   90.00000000
_cell_angle_gamma   90.00000000
_symmetry_Int_Tables_number   1
_chemical_formula_structural   In3Pd5
_chemical_formula_sum   'In6 Pd10'
_cell_volume   276.38762504
_cell_formula_units_Z   2
loop_
 _symmetry_equiv_pos_site_id
 _symmetry_equiv_pos_as_xyz
  1  'x, y, z'
loop_
 _atom_site_type_symbol
 _atom_site_label
 _atom_site_symmetry_multiplicity
 _atom_site_fract_x
 _atom_site_fract_y
 _atom_site_fract_z
 _atom_site_occupancy
  In  In0  1  0.500000  0.317675  0.859210  1
  In  In1  1  0.500000  0.817675  0.640790  1
  In  In2  1  0.000000  0.500000  0.500000  1
  In  In3  1  0.000000  0.000000  0.000000  1
  In  In4  1  0.500000  0.682325  0.140790  1
  In  In5  1  0.500000  0.182325  0.359210  1
  Pd  Pd6  1  0.500000  0.706632  0.386750  1
  Pd  Pd7  1  0.500000  0.293368  0.613250  1
  Pd  Pd8  1  0.000000  0.060691  0.756636  1
  Pd  Pd9  1  0.500000  0.793368  0.886750  1
  Pd  Pd10  1  0.000000  0.439309  0.256636  1
  Pd  Pd11  1  0.000000  0.939309  0.243364  1
  Pd  Pd12  1  0.000000  0.560691  0.743364  1
  Pd  Pd13  1  0.000000  0.500000  0.000000  1
  Pd  Pd14  1  0.000000  0.000000  0.500000  1
  Pd  Pd15  1  0.500000  0.206632  0.113250  1
