# generated using pymatgen
data_Bi2WO6
_symmetry_space_group_name_H-M   'P 1'
_cell_length_a   9.00038883
_cell_length_b   9.00038883
_cell_length_c   5.50005871
_cell_angle_alpha   90.00000000
_cell_angle_beta   90.00000000
_cell_angle_gamma   144.13044508
_symmetry_Int_Tables_number   1
_chemical_formula_structural   Bi2WO6
_chemical_formula_sum   'Bi4 W2 O12'
_cell_volume   261.06243459
_cell_formula_units_Z   2
loop_
 _symmetry_equiv_pos_site_id
 _symmetry_equiv_pos_as_xyz
  1  'x, y, z'
loop_
 _atom_site_type_symbol
 _atom_site_label
 _atom_site_symmetry_multiplicity
 _atom_site_fract_x
 _atom_site_fract_y
 _atom_site_fract_z
 _atom_site_occupancy
  Bi  Bi0  1  0.279022  0.628088  0.025016  1
  Bi  Bi1  1  0.628088  0.279022  0.974984  1
  Bi  Bi2  1  0.779022  0.128088  0.474984  1
  Bi  Bi3  1  0.128088  0.779022  0.525016  1
  W  W4  1  0.510867  0.510867  0.500000  1
  W  W5  1  0.010867  0.010867  1.000000  1
  O  O6  1  0.461066  0.672794  0.407504  1
  O  O7  1  0.672794  0.461066  0.592496  1
  O  O8  1  0.961066  0.172794  0.092496  1
  O  O9  1  0.172794  0.961066  0.907504  1
  O  O10  1  0.812390  0.764884  0.244965  1
  O  O11  1  0.764884  0.812390  0.755035  1
  O  O12  1  0.980563  0.480326  0.762034  1
  O  O13  1  0.480326  0.980563  0.237966  1
  O  O14  1  0.480563  0.980326  0.737966  1
  O  O15  1  0.980326  0.480563  0.262034  1
  O  O16  1  0.264884  0.312390  0.744965  1
  O  O17  1  0.312390  0.264884  0.255035  1
