# generated using pymatgen
data_CuGe5Pb3O14
_symmetry_space_group_name_H-M   'P 1'
_cell_length_a   10.00597209
_cell_length_b   10.00597209
_cell_length_c   10.55061522
_cell_angle_alpha   59.15984842
_cell_angle_beta   120.84015158
_cell_angle_gamma   131.19181058
_symmetry_Int_Tables_number   1
_chemical_formula_structural   CuGe5Pb3O14
_chemical_formula_sum   'Cu2 Ge10 Pb6 O28'
_cell_volume   656.97578200
_cell_formula_units_Z   2
loop_
 _symmetry_equiv_pos_site_id
 _symmetry_equiv_pos_as_xyz
  1  'x, y, z'
loop_
 _atom_site_type_symbol
 _atom_site_label
 _atom_site_symmetry_multiplicity
 _atom_site_fract_x
 _atom_site_fract_y
 _atom_site_fract_z
 _atom_site_occupancy
  Cu  Cu0  1  0.000000  0.000000  0.500000  1
  Cu  Cu1  1  0.000000  0.000000  0.000000  1
  Ge  Ge2  1  0.155071  0.480036  0.865626  1
  Ge  Ge3  1  0.480036  0.155071  0.634374  1
  Ge  Ge4  1  0.581248  0.828487  0.845415  1
  Ge  Ge5  1  0.828487  0.581248  0.654585  1
  Ge  Ge6  1  0.418752  0.171513  0.154585  1
  Ge  Ge7  1  0.171513  0.418752  0.345415  1
  Ge  Ge8  1  0.784309  0.784309  0.750000  1
  Ge  Ge9  1  0.215691  0.215691  0.250000  1
  Ge  Ge10  1  0.844929  0.519964  0.134374  1
  Ge  Ge11  1  0.519964  0.844929  0.365626  1
  Pb  Pb12  1  0.844005  0.217107  0.561078  1
  Pb  Pb13  1  0.217107  0.844005  0.938922  1
  Pb  Pb14  1  0.155995  0.782893  0.438922  1
  Pb  Pb15  1  0.782893  0.155995  0.061078  1
  Pb  Pb16  1  0.352089  0.352089  0.750000  1
  Pb  Pb17  1  0.647911  0.647911  0.250000  1
  O  O18  1  0.572272  0.877730  0.214231  1
  O  O19  1  0.877730  0.572272  0.285769  1
  O  O20  1  0.427728  0.122270  0.785769  1
  O  O21  1  0.122270  0.427728  0.714231  1
  O  O22  1  0.451939  0.997830  0.319666  1
  O  O23  1  0.997830  0.451939  0.180334  1
  O  O24  1  0.548061  0.002170  0.680334  1
  O  O25  1  0.002170  0.548061  0.819666  1
  O  O26  1  0.562175  0.672785  0.792697  1
  O  O27  1  0.672785  0.562175  0.707303  1
  O  O28  1  0.437825  0.327215  0.207303  1
  O  O29  1  0.327215  0.437825  0.292697  1
  O  O30  1  0.004011  0.132431  0.287294  1
  O  O31  1  0.132431  0.004011  0.212706  1
  O  O32  1  0.995989  0.867569  0.712706  1
  O  O33  1  0.867569  0.995989  0.787294  1
  O  O34  1  0.318516  0.624391  0.413737  1
  O  O35  1  0.624391  0.318516  0.086263  1
  O  O36  1  0.750769  0.904006  0.013288  1
  O  O37  1  0.904006  0.750769  0.486712  1
  O  O38  1  0.249231  0.095994  0.986712  1
  O  O39  1  0.095994  0.249231  0.513288  1
  O  O40  1  0.096880  0.292569  0.029788  1
  O  O41  1  0.292569  0.096880  0.470212  1
  O  O42  1  0.903120  0.707431  0.970212  1
  O  O43  1  0.707431  0.903120  0.529788  1
  O  O44  1  0.375609  0.681484  0.913737  1
  O  O45  1  0.681484  0.375609  0.586263  1
