# generated using pymatgen
data_LiScI3
_symmetry_space_group_name_H-M   'P 1'
_cell_length_a   7.48567035
_cell_length_b   7.48567035
_cell_length_c   6.70449035
_cell_angle_alpha   90.00000000
_cell_angle_beta   90.00000000
_cell_angle_gamma   120.00000000
_symmetry_Int_Tables_number   1
_chemical_formula_structural   LiScI3
_chemical_formula_sum   'Li2 Sc2 I6'
_cell_volume   325.35523422
_cell_formula_units_Z   2
loop_
 _symmetry_equiv_pos_site_id
 _symmetry_equiv_pos_as_xyz
  1  'x, y, z'
loop_
 _atom_site_type_symbol
 _atom_site_label
 _atom_site_symmetry_multiplicity
 _atom_site_fract_x
 _atom_site_fract_y
 _atom_site_fract_z
 _atom_site_occupancy
  Li  Li0  1  0.666667  0.333333  0.500000  1
  Li  Li1  1  0.666667  0.333333  0.000000  1
  Sc  Sc2  1  0.333333  0.666667  0.000000  1
  Sc  Sc3  1  0.333333  0.666667  0.500000  1
  I  I4  1  0.002520  0.339203  0.750000  1
  I  I5  1  0.336683  0.997480  0.750000  1
  I  I6  1  0.660797  0.663317  0.750000  1
  I  I7  1  0.660797  0.997480  0.250000  1
  I  I8  1  0.002520  0.663317  0.250000  1
  I  I9  1  0.336683  0.339203  0.250000  1
