# generated using pymatgen
data_Na2O2
_symmetry_space_group_name_H-M   'P 1'
_cell_length_a   6.27944383
_cell_length_b   6.27944383
_cell_length_c   4.50693686
_cell_angle_alpha   90.00000000
_cell_angle_beta   90.00000000
_cell_angle_gamma   120.00000000
_symmetry_Int_Tables_number   1
_chemical_formula_structural   Na2O2
_chemical_formula_sum   'Na6 O6'
_cell_volume   153.90561541
_cell_formula_units_Z   3
loop_
 _symmetry_equiv_pos_site_id
 _symmetry_equiv_pos_as_xyz
  1  'x, y, z'
loop_
 _atom_site_type_symbol
 _atom_site_label
 _atom_site_symmetry_multiplicity
 _atom_site_fract_x
 _atom_site_fract_y
 _atom_site_fract_z
 _atom_site_occupancy
  Na  Na0  1  0.000000  0.699801  0.500000  1
  Na  Na1  1  0.300199  0.300199  0.500000  1
  Na  Na2  1  0.699801  0.000000  0.500000  1
  Na  Na3  1  0.000000  0.365556  0.000000  1
  Na  Na4  1  0.634444  0.634444  0.000000  1
  Na  Na5  1  0.365556  0.000000  0.000000  1
  O  O6  1  0.666667  0.333333  0.327586  1
  O  O7  1  0.666667  0.333333  0.672414  1
  O  O8  1  0.333333  0.666667  0.672414  1
  O  O9  1  0.333333  0.666667  0.327586  1
  O  O10  1  0.000000  0.000000  0.829456  1
  O  O11  1  0.000000  0.000000  0.170544  1
