# generated using pymatgen
data_Cs4BiSbCl12
_symmetry_space_group_name_H-M   'P 1'
_cell_length_a   13.31879386
_cell_length_b   13.31879386
_cell_length_c   13.31879386
_cell_angle_alpha   131.95358937
_cell_angle_beta   131.95358937
_cell_angle_gamma   70.30233731
_symmetry_Int_Tables_number   1
_chemical_formula_structural   Cs4BiSbCl12
_chemical_formula_sum   'Cs8 Bi2 Sb2 Cl24'
_cell_volume   1280.65136642
_cell_formula_units_Z   2
loop_
 _symmetry_equiv_pos_site_id
 _symmetry_equiv_pos_as_xyz
  1  'x, y, z'
loop_
 _atom_site_type_symbol
 _atom_site_label
 _atom_site_symmetry_multiplicity
 _atom_site_fract_x
 _atom_site_fract_y
 _atom_site_fract_z
 _atom_site_occupancy
  Cs  Cs0  1  0.875000  0.344638  0.969638  1
  Cs  Cs1  1  0.094638  0.125000  0.469638  1
  Cs  Cs2  1  0.375000  0.344638  0.469638  1
  Cs  Cs3  1  0.094638  0.625000  0.969638  1
  Cs  Cs4  1  0.375000  0.905362  0.030362  1
  Cs  Cs5  1  0.655362  0.625000  0.530362  1
  Cs  Cs6  1  0.875000  0.905362  0.530362  1
  Cs  Cs7  1  0.655362  0.125000  0.030362  1
  Bi  Bi8  1  0.000000  0.000000  0.000000  1
  Bi  Bi9  1  0.750000  0.250000  0.500000  1
  Sb  Sb10  1  0.500000  0.500000  0.000000  1
  Sb  Sb11  1  0.250000  0.750000  0.500000  1
  Cl  Cl12  1  0.247409  0.995492  0.251917  1
  Cl  Cl13  1  0.004508  0.752591  0.748083  1
  Cl  Cl14  1  0.874639  0.874639  0.000000  1
  Cl  Cl15  1  0.624639  0.124639  0.500000  1
  Cl  Cl16  1  0.875361  0.375361  0.500000  1
  Cl  Cl17  1  0.125361  0.125361  0.000000  1
  Cl  Cl18  1  0.611073  0.611073  0.000000  1
  Cl  Cl19  1  0.361073  0.861073  0.500000  1
  Cl  Cl20  1  0.138927  0.638927  0.500000  1
  Cl  Cl21  1  0.388927  0.388927  0.000000  1
  Cl  Cl22  1  0.723945  0.500499  0.223446  1
  Cl  Cl23  1  0.250499  0.527053  0.276554  1
  Cl  Cl24  1  0.004508  0.256424  0.251917  1
  Cl  Cl25  1  0.026055  0.749501  0.276554  1
  Cl  Cl26  1  0.472947  0.749501  0.723446  1
  Cl  Cl27  1  0.499501  0.722947  0.223446  1
  Cl  Cl28  1  0.499501  0.276055  0.776554  1
  Cl  Cl29  1  0.277053  0.500499  0.776554  1
  Cl  Cl30  1  0.250499  0.973945  0.723446  1
  Cl  Cl31  1  0.745492  0.993576  0.248083  1
  Cl  Cl32  1  0.745492  0.497409  0.751917  1
  Cl  Cl33  1  0.502591  0.254508  0.248083  1
  Cl  Cl34  1  0.006424  0.254508  0.751917  1
  Cl  Cl35  1  0.743576  0.995492  0.748083  1
