# generated using pymatgen
data_Mo6PbSe8
_symmetry_space_group_name_H-M   'P 1'
_cell_length_a   6.89929023
_cell_length_b   6.89929023
_cell_length_c   6.89929023
_cell_angle_alpha   89.15505651
_cell_angle_beta   89.15505651
_cell_angle_gamma   89.15505651
_symmetry_Int_Tables_number   1
_chemical_formula_structural   Mo6PbSe8
_chemical_formula_sum   'Mo6 Pb1 Se8'
_cell_volume   328.30154641
_cell_formula_units_Z   1
loop_
 _symmetry_equiv_pos_site_id
 _symmetry_equiv_pos_as_xyz
  1  'x, y, z'
loop_
 _atom_site_type_symbol
 _atom_site_label
 _atom_site_symmetry_multiplicity
 _atom_site_fract_x
 _atom_site_fract_y
 _atom_site_fract_z
 _atom_site_occupancy
  Mo  Mo0  1  0.560499  0.422071  0.240357  1
  Mo  Mo1  1  0.422071  0.240357  0.560499  1
  Mo  Mo2  1  0.240357  0.560499  0.422071  1
  Mo  Mo3  1  0.439501  0.577929  0.759643  1
  Mo  Mo4  1  0.577929  0.759643  0.439501  1
  Mo  Mo5  1  0.759643  0.439501  0.577929  1
  Pb  Pb6  1  0.000000  0.000000  0.000000  1
  Se  Se7  1  0.243222  0.243222  0.243222  1
  Se  Se8  1  0.756778  0.756778  0.756778  1
  Se  Se9  1  0.122130  0.381388  0.745841  1
  Se  Se10  1  0.381388  0.745841  0.122130  1
  Se  Se11  1  0.745841  0.122130  0.381388  1
  Se  Se12  1  0.877870  0.618612  0.254159  1
  Se  Se13  1  0.618612  0.254159  0.877870  1
  Se  Se14  1  0.254159  0.877870  0.618612  1
