# generated using pymatgen
data_Sm3Si2ClO8
_symmetry_space_group_name_H-M   'P 1'
_cell_length_a   6.32324538
_cell_length_b   7.07480750
_cell_length_c   18.16531840
_cell_angle_alpha   90.00000000
_cell_angle_beta   90.00000000
_cell_angle_gamma   90.00000000
_symmetry_Int_Tables_number   1
_chemical_formula_structural   Sm3Si2ClO8
_chemical_formula_sum   'Sm12 Si8 Cl4 O32'
_cell_volume   812.63903069
_cell_formula_units_Z   4
loop_
 _symmetry_equiv_pos_site_id
 _symmetry_equiv_pos_as_xyz
  1  'x, y, z'
loop_
 _atom_site_type_symbol
 _atom_site_label
 _atom_site_symmetry_multiplicity
 _atom_site_fract_x
 _atom_site_fract_y
 _atom_site_fract_z
 _atom_site_occupancy
  Sm  Sm0  1  0.873114  0.477182  0.409391  1
  Sm  Sm1  1  0.373114  0.022818  0.590609  1
  Sm  Sm2  1  0.626886  0.977182  0.090609  1
  Sm  Sm3  1  0.126886  0.522818  0.909391  1
  Sm  Sm4  1  0.126886  0.522818  0.590609  1
  Sm  Sm5  1  0.626886  0.977182  0.409391  1
  Sm  Sm6  1  0.373114  0.022818  0.909391  1
  Sm  Sm7  1  0.873114  0.477182  0.090609  1
  Sm  Sm8  1  0.884670  0.805830  0.750000  1
  Sm  Sm9  1  0.384670  0.694170  0.250000  1
  Sm  Sm10  1  0.615330  0.305830  0.750000  1
  Sm  Sm11  1  0.115330  0.194170  0.250000  1
  Si  Si12  1  0.378898  0.467565  0.099934  1
  Si  Si13  1  0.878898  0.032435  0.900066  1
  Si  Si14  1  0.121102  0.967565  0.400066  1
  Si  Si15  1  0.621102  0.532435  0.599934  1
  Si  Si16  1  0.378898  0.467565  0.400066  1
  Si  Si17  1  0.878898  0.032435  0.599934  1
  Si  Si18  1  0.121102  0.967565  0.099934  1
  Si  Si19  1  0.621102  0.532435  0.900066  1
  Cl  Cl20  1  0.761992  0.444934  0.250000  1
  Cl  Cl21  1  0.261992  0.055066  0.750000  1
  Cl  Cl22  1  0.738008  0.944934  0.250000  1
  Cl  Cl23  1  0.238008  0.555066  0.750000  1
  O  O24  1  0.213934  0.482234  0.468914  1
  O  O25  1  0.713934  0.017766  0.531086  1
  O  O26  1  0.286066  0.982234  0.031086  1
  O  O27  1  0.786066  0.517766  0.968914  1
  O  O28  1  0.786066  0.517766  0.531086  1
  O  O29  1  0.286066  0.982234  0.468914  1
  O  O30  1  0.713934  0.017766  0.968914  1
  O  O31  1  0.213934  0.482234  0.031086  1
  O  O32  1  0.225276  0.454776  0.325068  1
  O  O33  1  0.725276  0.045224  0.674932  1
  O  O34  1  0.274724  0.954776  0.174932  1
  O  O35  1  0.774724  0.545224  0.825068  1
  O  O36  1  0.774724  0.545224  0.674932  1
  O  O37  1  0.274724  0.954776  0.325068  1
  O  O38  1  0.725276  0.045224  0.825068  1
  O  O39  1  0.225276  0.454776  0.174932  1
  O  O40  1  0.550878  0.296629  0.405414  1
  O  O41  1  0.050878  0.203371  0.594586  1
  O  O42  1  0.949122  0.796629  0.094586  1
  O  O43  1  0.449122  0.703371  0.905414  1
  O  O44  1  0.449122  0.703371  0.594586  1
  O  O45  1  0.949122  0.796629  0.405414  1
  O  O46  1  0.050878  0.203371  0.905414  1
  O  O47  1  0.550878  0.296629  0.094586  1
  O  O48  1  0.970133  0.154540  0.118562  1
  O  O49  1  0.470133  0.345460  0.881438  1
  O  O50  1  0.529867  0.654540  0.381438  1
  O  O51  1  0.029867  0.845460  0.618562  1
  O  O52  1  0.029867  0.845460  0.881438  1
  O  O53  1  0.529867  0.654540  0.118562  1
  O  O54  1  0.470133  0.345460  0.618562  1
  O  O55  1  0.970133  0.154540  0.381438  1
