# generated using pymatgen
data_AlFeO3
_symmetry_space_group_name_H-M   'P 1'
_cell_length_a   5.04411590
_cell_length_b   8.66920590
_cell_length_c   9.37697853
_cell_angle_alpha   90.00000000
_cell_angle_beta   90.00000000
_cell_angle_gamma   90.00000000
_symmetry_Int_Tables_number   1
_chemical_formula_structural   AlFeO3
_chemical_formula_sum   'Al8 Fe8 O24'
_cell_volume   410.04101204
_cell_formula_units_Z   8
loop_
 _symmetry_equiv_pos_site_id
 _symmetry_equiv_pos_as_xyz
  1  'x, y, z'
loop_
 _atom_site_type_symbol
 _atom_site_label
 _atom_site_symmetry_multiplicity
 _atom_site_fract_x
 _atom_site_fract_y
 _atom_site_fract_z
 _atom_site_occupancy
  Al  Al0  1  0.818233  0.836777  0.303332  1
  Al  Al1  1  0.181767  0.163223  0.803332  1
  Al  Al2  1  0.681767  0.336777  0.803332  1
  Al  Al3  1  0.318233  0.663223  0.303332  1
  Al  Al4  1  0.168772  0.845380  0.002023  1
  Al  Al5  1  0.831228  0.154620  0.502023  1
  Al  Al6  1  0.331228  0.345380  0.502023  1
  Al  Al7  1  0.668772  0.654620  0.002023  1
  Fe  Fe8  1  0.667761  0.970867  0.801314  1
  Fe  Fe9  1  0.332239  0.029133  0.301314  1
  Fe  Fe10  1  0.832239  0.470867  0.301314  1
  Fe  Fe11  1  0.167761  0.529133  0.801314  1
  Fe  Fe12  1  0.184255  0.850664  0.581037  1
  Fe  Fe13  1  0.815745  0.149336  0.081037  1
  Fe  Fe14  1  0.315745  0.350664  0.081037  1
  Fe  Fe15  1  0.684255  0.649336  0.581037  1
  O  O16  1  0.500361  0.825513  0.943500  1
  O  O17  1  0.499639  0.174487  0.443500  1
  O  O18  1  0.999639  0.325513  0.443500  1
  O  O19  1  0.000361  0.674487  0.943500  1
  O  O20  1  0.836153  0.831010  0.671856  1
  O  O21  1  0.163847  0.168990  0.171856  1
  O  O22  1  0.663847  0.331010  0.171856  1
  O  O23  1  0.336153  0.668990  0.671856  1
  O  O24  1  0.146218  0.834047  0.194634  1
  O  O25  1  0.853782  0.165953  0.694634  1
  O  O26  1  0.353782  0.334047  0.694634  1
  O  O27  1  0.646218  0.665953  0.194634  1
  O  O28  1  0.665553  0.992374  0.201606  1
  O  O29  1  0.334447  0.007626  0.701606  1
  O  O30  1  0.834447  0.492374  0.701606  1
  O  O31  1  0.165553  0.507626  0.201606  1
  O  O32  1  0.480639  0.820381  0.415902  1
  O  O33  1  0.519361  0.179619  0.915902  1
  O  O34  1  0.019361  0.320381  0.915902  1
  O  O35  1  0.980639  0.679619  0.415902  1
  O  O36  1  0.496908  0.510211  0.429166  1
  O  O37  1  0.003092  0.010211  0.929166  1
  O  O38  1  0.503092  0.489789  0.929166  1
  O  O39  1  0.996908  0.989789  0.429166  1
