# generated using pymatgen
data_CuH2SeO5
_symmetry_space_group_name_H-M   'P 1'
_cell_length_a   5.18170039
_cell_length_b   5.68607927
_cell_length_c   7.66367374
_cell_angle_alpha   101.45685369
_cell_angle_beta   106.57626920
_cell_angle_gamma   98.72382074
_symmetry_Int_Tables_number   1
_chemical_formula_structural   CuH2SeO5
_chemical_formula_sum   'Cu2 H4 Se2 O10'
_cell_volume   206.82026108
_cell_formula_units_Z   2
loop_
 _symmetry_equiv_pos_site_id
 _symmetry_equiv_pos_as_xyz
  1  'x, y, z'
loop_
 _atom_site_type_symbol
 _atom_site_label
 _atom_site_symmetry_multiplicity
 _atom_site_fract_x
 _atom_site_fract_y
 _atom_site_fract_z
 _atom_site_occupancy
  Cu  Cu0  1  0.000000  0.000000  0.000000  1
  Cu  Cu1  1  0.500000  0.500000  0.500000  1
  H  H2  1  0.906266  0.466149  0.758063  1
  H  H3  1  0.093734  0.533851  0.241937  1
  H  H4  1  0.027072  0.670772  0.664256  1
  H  H5  1  0.972928  0.329228  0.335744  1
  Se  Se6  1  0.572808  0.877908  0.231562  1
  Se  Se7  1  0.427192  0.122092  0.768438  1
  O  O8  1  0.678714  0.822794  0.041154  1
  O  O9  1  0.321286  0.177206  0.958846  1
  O  O10  1  0.221169  0.813619  0.155491  1
  O  O11  1  0.778831  0.186381  0.844509  1
  O  O12  1  0.703229  0.161450  0.369861  1
  O  O13  1  0.296771  0.838550  0.630139  1
  O  O14  1  0.668655  0.665832  0.346686  1
  O  O15  1  0.331345  0.334168  0.653314  1
  O  O16  1  0.132787  0.393641  0.295773  1
  O  O17  1  0.867213  0.606359  0.704227  1
