# generated using pymatgen
data_H4SO5
_symmetry_space_group_name_H-M   'P 1'
_cell_length_a   7.47829415
_cell_length_b   7.06954516
_cell_length_c   8.19670517
_cell_angle_alpha   90.00000000
_cell_angle_beta   107.90330327
_cell_angle_gamma   90.00000000
_symmetry_Int_Tables_number   1
_chemical_formula_structural   H4SO5
_chemical_formula_sum   'H16 S4 O20'
_cell_volume   412.36056140
_cell_formula_units_Z   4
loop_
 _symmetry_equiv_pos_site_id
 _symmetry_equiv_pos_as_xyz
  1  'x, y, z'
loop_
 _atom_site_type_symbol
 _atom_site_label
 _atom_site_symmetry_multiplicity
 _atom_site_fract_x
 _atom_site_fract_y
 _atom_site_fract_z
 _atom_site_occupancy
  H  H0  1  0.765105  0.336834  0.705065  1
  H  H1  1  0.234895  0.836834  0.794935  1
  H  H2  1  0.234895  0.663166  0.294935  1
  H  H3  1  0.765105  0.163166  0.205065  1
  H  H4  1  0.280209  0.877450  0.222702  1
  H  H5  1  0.719791  0.377450  0.277298  1
  H  H6  1  0.585746  0.203568  0.587500  1
  H  H7  1  0.414254  0.703568  0.912500  1
  H  H8  1  0.414254  0.796432  0.412500  1
  H  H9  1  0.585746  0.296432  0.087500  1
  H  H10  1  0.886568  0.816758  0.392983  1
  H  H11  1  0.113432  0.316758  0.107017  1
  H  H12  1  0.113432  0.183242  0.607017  1
  H  H13  1  0.886568  0.683242  0.892983  1
  H  H14  1  0.719791  0.122550  0.777298  1
  H  H15  1  0.280209  0.622550  0.722702  1
  S  S16  1  0.746459  0.653119  0.538808  1
  S  S17  1  0.253541  0.153119  0.961192  1
  S  S18  1  0.253541  0.346881  0.461192  1
  S  S19  1  0.746459  0.846881  0.038808  1
  O  O20  1  0.668591  0.509088  0.408233  1
  O  O21  1  0.924417  0.754173  0.006508  1
  O  O22  1  0.075583  0.245827  0.993492  1
  O  O23  1  0.924417  0.745827  0.506508  1
  O  O24  1  0.720411  0.297065  0.174086  1
  O  O25  1  0.279589  0.797065  0.325914  1
  O  O26  1  0.279589  0.702935  0.825914  1
  O  O27  1  0.720411  0.202935  0.674086  1
  O  O28  1  0.331409  0.490912  0.591767  1
  O  O29  1  0.668591  0.990912  0.908233  1
  O  O30  1  0.611838  0.805323  0.535361  1
  O  O31  1  0.388162  0.305323  0.964639  1
  O  O32  1  0.388162  0.194677  0.464639  1
  O  O33  1  0.611838  0.694677  0.035361  1
  O  O34  1  0.824621  0.566679  0.711207  1
  O  O35  1  0.175379  0.066679  0.788793  1
  O  O36  1  0.175379  0.433321  0.288793  1
  O  O37  1  0.824621  0.933321  0.211207  1
  O  O38  1  0.075583  0.254173  0.493492  1
  O  O39  1  0.331409  0.009088  0.091767  1
