# generated using pymatgen
data_HfSnRh
_symmetry_space_group_name_H-M   'P 1'
_cell_length_a   7.38848149
_cell_length_b   7.38848149
_cell_length_c   7.24159561
_cell_angle_alpha   90.00000000
_cell_angle_beta   90.00000000
_cell_angle_gamma   120.00000000
_symmetry_Int_Tables_number   1
_chemical_formula_structural   HfSnRh
_chemical_formula_sum   'Hf6 Sn6 Rh6'
_cell_volume   342.35390059
_cell_formula_units_Z   6
loop_
 _symmetry_equiv_pos_site_id
 _symmetry_equiv_pos_as_xyz
  1  'x, y, z'
loop_
 _atom_site_type_symbol
 _atom_site_label
 _atom_site_symmetry_multiplicity
 _atom_site_fract_x
 _atom_site_fract_y
 _atom_site_fract_z
 _atom_site_occupancy
  Hf  Hf0  1  0.017942  0.405870  0.750000  1
  Hf  Hf1  1  0.594130  0.612072  0.750000  1
  Hf  Hf2  1  0.387928  0.982058  0.750000  1
  Hf  Hf3  1  0.982058  0.387928  0.250000  1
  Hf  Hf4  1  0.612072  0.594130  0.250000  1
  Hf  Hf5  1  0.405870  0.017942  0.250000  1
  Sn  Sn6  1  0.270637  0.270637  0.500000  1
  Sn  Sn7  1  0.000000  0.729363  0.500000  1
  Sn  Sn8  1  0.000000  0.729363  0.000000  1
  Sn  Sn9  1  0.729363  0.000000  0.500000  1
  Sn  Sn10  1  0.729363  0.000000  0.000000  1
  Sn  Sn11  1  0.270637  0.270637  0.000000  1
  Rh  Rh12  1  0.333333  0.666667  0.463873  1
  Rh  Rh13  1  0.666667  0.333333  0.536127  1
  Rh  Rh14  1  0.333333  0.666667  0.036127  1
  Rh  Rh15  1  0.000000  0.000000  0.750000  1
  Rh  Rh16  1  0.000000  0.000000  0.250000  1
  Rh  Rh17  1  0.666667  0.333333  0.963873  1
