# generated using pymatgen
data_YAl3
_symmetry_space_group_name_H-M   'P 1'
_cell_length_a   7.91809583
_cell_length_b   7.91809583
_cell_length_c   7.91809583
_cell_angle_alpha   46.08701682
_cell_angle_beta   46.08701682
_cell_angle_gamma   46.08701682
_symmetry_Int_Tables_number   1
_chemical_formula_structural   YAl3
_chemical_formula_sum   'Y3 Al9'
_cell_volume   235.03825582
_cell_formula_units_Z   3
loop_
 _symmetry_equiv_pos_site_id
 _symmetry_equiv_pos_as_xyz
  1  'x, y, z'
loop_
 _atom_site_type_symbol
 _atom_site_label
 _atom_site_symmetry_multiplicity
 _atom_site_fract_x
 _atom_site_fract_y
 _atom_site_fract_z
 _atom_site_occupancy
  Y  Y0  1  0.218112  0.218112  0.218112  1
  Y  Y1  1  0.781888  0.781888  0.781888  1
  Y  Y2  1  1.000000  1.000000  0.000000  1
  Al  Al3  1  0.297219  0.736630  0.297219  1
  Al  Al4  1  0.736630  0.297219  0.297219  1
  Al  Al5  1  0.297219  0.297219  0.736630  1
  Al  Al6  1  0.500000  1.000000  0.500000  1
  Al  Al7  1  0.500000  0.500000  1.000000  1
  Al  Al8  1  1.000000  0.500000  0.500000  1
  Al  Al9  1  0.263370  0.702781  0.702781  1
  Al  Al10  1  0.702781  0.263370  0.702781  1
  Al  Al11  1  0.702781  0.702781  0.263370  1
