# generated using pymatgen
data_SrH2I2O7
_symmetry_space_group_name_H-M   'P 1'
_cell_length_a   7.66337241
_cell_length_b   7.66337241
_cell_length_c   8.99054923
_cell_angle_alpha   55.77590895
_cell_angle_beta   124.22409105
_cell_angle_gamma   118.04432061
_symmetry_Int_Tables_number   1
_chemical_formula_structural   SrH2I2O7
_chemical_formula_sum   'Sr2 H4 I4 O14'
_cell_volume   351.71619257
_cell_formula_units_Z   2
loop_
 _symmetry_equiv_pos_site_id
 _symmetry_equiv_pos_as_xyz
  1  'x, y, z'
loop_
 _atom_site_type_symbol
 _atom_site_label
 _atom_site_symmetry_multiplicity
 _atom_site_fract_x
 _atom_site_fract_y
 _atom_site_fract_z
 _atom_site_occupancy
  Sr  Sr0  1  0.160010  0.160010  0.750000  1
  Sr  Sr1  1  0.839990  0.839990  0.250000  1
  H  H2  1  0.261105  0.206273  0.192094  1
  H  H3  1  0.206273  0.261105  0.307906  1
  H  H4  1  0.738895  0.793727  0.807906  1
  H  H5  1  0.793727  0.738895  0.692094  1
  I  I6  1  0.341714  0.713845  0.327440  1
  I  I7  1  0.713845  0.341714  0.172560  1
  I  I8  1  0.286155  0.658286  0.827440  1
  I  I9  1  0.658286  0.286155  0.672560  1
  O  O10  1  0.161369  0.161369  0.250000  1
  O  O11  1  0.838631  0.838631  0.750000  1
  O  O12  1  0.764050  0.405997  0.363221  1
  O  O13  1  0.405997  0.764050  0.136779  1
  O  O14  1  0.235950  0.594003  0.636779  1
  O  O15  1  0.594003  0.235950  0.863221  1
  O  O16  1  0.413718  0.257422  0.070328  1
  O  O17  1  0.257422  0.413718  0.429672  1
  O  O18  1  0.586282  0.742578  0.929672  1
  O  O19  1  0.742578  0.586282  0.570328  1
  O  O20  1  0.780398  0.077586  0.328005  1
  O  O21  1  0.077586  0.780398  0.171995  1
  O  O22  1  0.219602  0.922414  0.671995  1
  O  O23  1  0.922414  0.219602  0.828005  1
