# generated using pymatgen
data_Li2CoPCO7
_symmetry_space_group_name_H-M   'P 1'
_cell_length_a   5.08359008
_cell_length_b   6.24716985
_cell_length_c   8.53173737
_cell_angle_alpha   90.00000000
_cell_angle_beta   93.62251009
_cell_angle_gamma   90.00000000
_symmetry_Int_Tables_number   1
_chemical_formula_structural   Li2CoPCO7
_chemical_formula_sum   'Li4 Co2 P2 C2 O14'
_cell_volume   270.40998241
_cell_formula_units_Z   2
loop_
 _symmetry_equiv_pos_site_id
 _symmetry_equiv_pos_as_xyz
  1  'x, y, z'
loop_
 _atom_site_type_symbol
 _atom_site_label
 _atom_site_symmetry_multiplicity
 _atom_site_fract_x
 _atom_site_fract_y
 _atom_site_fract_z
 _atom_site_occupancy
  Li  Li0  1  0.776758  0.014168  0.219188  1
  Li  Li1  1  0.223242  0.985832  0.780812  1
  Li  Li2  1  0.223242  0.514168  0.780812  1
  Li  Li3  1  0.776758  0.485832  0.219188  1
  Co  Co4  1  0.785734  0.750000  0.655455  1
  Co  Co5  1  0.214266  0.250000  0.344545  1
  P  P6  1  0.716655  0.250000  0.573983  1
  P  P7  1  0.283345  0.750000  0.426017  1
  C  C8  1  0.730120  0.750000  0.943348  1
  C  C9  1  0.269880  0.250000  0.056652  1
  O  O10  1  0.180652  0.946356  0.329139  1
  O  O11  1  0.961529  0.750000  0.882998  1
  O  O12  1  0.471409  0.250000  0.162386  1
  O  O13  1  0.528591  0.750000  0.837614  1
  O  O14  1  0.180652  0.553644  0.329139  1
  O  O15  1  0.173104  0.750000  0.590851  1
  O  O16  1  0.038471  0.250000  0.117002  1
  O  O17  1  0.819348  0.446356  0.670861  1
  O  O18  1  0.819348  0.053644  0.670861  1
  O  O19  1  0.410319  0.250000  0.556342  1
  O  O20  1  0.702264  0.750000  0.089453  1
  O  O21  1  0.297736  0.250000  0.910547  1
  O  O22  1  0.589681  0.750000  0.443658  1
  O  O23  1  0.826896  0.250000  0.409149  1
