# generated using pymatgen
data_SrRuO3
_symmetry_space_group_name_H-M   'P 1'
_cell_length_a   5.61489461
_cell_length_b   5.66034621
_cell_length_c   7.92849781
_cell_angle_alpha   90.00000000
_cell_angle_beta   90.00000000
_cell_angle_gamma   90.00000000
_symmetry_Int_Tables_number   1
_chemical_formula_structural   SrRuO3
_chemical_formula_sum   'Sr4 Ru4 O12'
_cell_volume   251.98547911
_cell_formula_units_Z   4
loop_
 _symmetry_equiv_pos_site_id
 _symmetry_equiv_pos_as_xyz
  1  'x, y, z'
loop_
 _atom_site_type_symbol
 _atom_site_label
 _atom_site_symmetry_multiplicity
 _atom_site_fract_x
 _atom_site_fract_y
 _atom_site_fract_z
 _atom_site_occupancy
  Sr  Sr0  1  0.476032  0.496454  0.250000  1
  Sr  Sr1  1  0.976032  0.003546  0.250000  1
  Sr  Sr2  1  0.523968  0.503546  0.750000  1
  Sr  Sr3  1  0.023968  0.996454  0.750000  1
  Ru  Ru4  1  0.500000  0.000000  0.000000  1
  Ru  Ru5  1  0.000000  0.500000  0.500000  1
  Ru  Ru6  1  0.500000  0.000000  0.500000  1
  Ru  Ru7  1  0.000000  0.500000  0.000000  1
  O  O8  1  0.218212  0.218471  0.032198  1
  O  O9  1  0.718212  0.281529  0.467802  1
  O  O10  1  0.781788  0.781529  0.532198  1
  O  O11  1  0.281788  0.718471  0.967802  1
  O  O12  1  0.781788  0.781529  0.967802  1
  O  O13  1  0.281788  0.718471  0.532198  1
  O  O14  1  0.218212  0.218471  0.467802  1
  O  O15  1  0.718212  0.281529  0.032198  1
  O  O16  1  0.005475  0.561344  0.250000  1
  O  O17  1  0.505475  0.938656  0.250000  1
  O  O18  1  0.994525  0.438656  0.750000  1
  O  O19  1  0.494525  0.061344  0.750000  1
