# generated using pymatgen
data_EuBr2
_symmetry_space_group_name_H-M   'P 1'
_cell_length_a   11.62054233
_cell_length_b   11.62054233
_cell_length_c   7.20128830
_cell_angle_alpha   90.00000000
_cell_angle_beta   90.00000000
_cell_angle_gamma   90.00000000
_symmetry_Int_Tables_number   1
_chemical_formula_structural   EuBr2
_chemical_formula_sum   'Eu10 Br20'
_cell_volume   972.44039728
_cell_formula_units_Z   10
loop_
 _symmetry_equiv_pos_site_id
 _symmetry_equiv_pos_as_xyz
  1  'x, y, z'
loop_
 _atom_site_type_symbol
 _atom_site_label
 _atom_site_symmetry_multiplicity
 _atom_site_fract_x
 _atom_site_fract_y
 _atom_site_fract_z
 _atom_site_occupancy
  Eu  Eu0  1  0.500000  0.000000  0.147789  1
  Eu  Eu1  1  0.000000  0.500000  0.852211  1
  Eu  Eu2  1  0.836630  0.852218  0.751553  1
  Eu  Eu3  1  0.352218  0.663370  0.751553  1
  Eu  Eu4  1  0.647782  0.336630  0.751553  1
  Eu  Eu5  1  0.163370  0.147782  0.751553  1
  Eu  Eu6  1  0.663370  0.647782  0.248447  1
  Eu  Eu7  1  0.147782  0.836630  0.248447  1
  Eu  Eu8  1  0.852218  0.163370  0.248447  1
  Eu  Eu9  1  0.336630  0.352218  0.248447  1
  Br  Br10  1  0.000000  0.000000  0.500000  1
  Br  Br11  1  0.500000  0.500000  0.500000  1
  Br  Br12  1  0.000000  0.000000  0.000000  1
  Br  Br13  1  0.500000  0.500000  0.000000  1
  Br  Br14  1  0.707104  0.089439  0.902922  1
  Br  Br15  1  0.589439  0.792896  0.902922  1
  Br  Br16  1  0.410561  0.207104  0.902922  1
  Br  Br17  1  0.292896  0.910561  0.902922  1
  Br  Br18  1  0.792896  0.410561  0.097078  1
  Br  Br19  1  0.910561  0.707104  0.097078  1
  Br  Br20  1  0.209174  0.402309  0.622866  1
  Br  Br21  1  0.902309  0.290826  0.622866  1
  Br  Br22  1  0.097691  0.709174  0.622866  1
  Br  Br23  1  0.790826  0.597691  0.622866  1
  Br  Br24  1  0.290826  0.097691  0.377134  1
  Br  Br25  1  0.597691  0.209174  0.377134  1
  Br  Br26  1  0.402309  0.790826  0.377134  1
  Br  Br27  1  0.709174  0.902309  0.377134  1
  Br  Br28  1  0.207104  0.589439  0.097078  1
  Br  Br29  1  0.089439  0.292896  0.097078  1
