# generated using pymatgen
data_Ba5Co5O14
_symmetry_space_group_name_H-M   'P 1'
_cell_length_a   5.72978130
_cell_length_b   5.72978130
_cell_length_c   11.95749312
_cell_angle_alpha   90.00000000
_cell_angle_beta   90.00000000
_cell_angle_gamma   120.00000000
_symmetry_Int_Tables_number   1
_chemical_formula_structural   Ba5Co5O14
_chemical_formula_sum   'Ba5 Co5 O14'
_cell_volume   339.97490661
_cell_formula_units_Z   1
loop_
 _symmetry_equiv_pos_site_id
 _symmetry_equiv_pos_as_xyz
  1  'x, y, z'
loop_
 _atom_site_type_symbol
 _atom_site_label
 _atom_site_symmetry_multiplicity
 _atom_site_fract_x
 _atom_site_fract_y
 _atom_site_fract_z
 _atom_site_occupancy
  Ba  Ba0  1  0.666667  0.333333  0.581215  1
  Ba  Ba1  1  0.333333  0.666667  0.418785  1
  Ba  Ba2  1  0.666667  0.333333  0.227200  1
  Ba  Ba3  1  0.333333  0.666667  0.772800  1
  Ba  Ba4  1  0.000000  0.000000  0.000000  1
  Co  Co5  1  0.666667  0.333333  0.859125  1
  Co  Co6  1  0.333333  0.666667  0.140875  1
  Co  Co7  1  0.000000  0.000000  0.706470  1
  Co  Co8  1  0.000000  0.000000  0.293530  1
  Co  Co9  1  0.000000  0.000000  0.500000  1
  O  O10  1  0.852971  0.147029  0.398366  1
  O  O11  1  0.852971  0.705942  0.398366  1
  O  O12  1  0.294058  0.147029  0.398366  1
  O  O13  1  0.705942  0.852971  0.601634  1
  O  O14  1  0.147029  0.294058  0.601634  1
  O  O15  1  0.147029  0.852971  0.601634  1
  O  O16  1  0.837646  0.162354  0.802907  1
  O  O17  1  0.837646  0.675292  0.802907  1
  O  O18  1  0.324708  0.162354  0.802907  1
  O  O19  1  0.675292  0.837646  0.197093  1
  O  O20  1  0.333333  0.666667  0.995159  1
  O  O21  1  0.666667  0.333333  0.004841  1
  O  O22  1  0.162354  0.837646  0.197093  1
  O  O23  1  0.162354  0.324708  0.197093  1
