# generated using pymatgen
data_K4Sb2O3
_symmetry_space_group_name_H-M   'P 1'
_cell_length_a   6.36970324
_cell_length_b   6.36970324
_cell_length_c   14.58473350
_cell_angle_alpha   90.00000000
_cell_angle_beta   90.00000000
_cell_angle_gamma   120.00000000
_symmetry_Int_Tables_number   1
_chemical_formula_structural   K4Sb2O3
_chemical_formula_sum   'K8 Sb4 O6'
_cell_volume   512.46891598
_cell_formula_units_Z   2
loop_
 _symmetry_equiv_pos_site_id
 _symmetry_equiv_pos_as_xyz
  1  'x, y, z'
loop_
 _atom_site_type_symbol
 _atom_site_label
 _atom_site_symmetry_multiplicity
 _atom_site_fract_x
 _atom_site_fract_y
 _atom_site_fract_z
 _atom_site_occupancy
  K  K0  1  0.000000  0.000000  0.266876  1
  K  K1  1  0.333333  0.666667  0.393545  1
  K  K2  1  0.333333  0.666667  0.055141  1
  K  K3  1  0.666667  0.333333  0.555141  1
  K  K4  1  0.000000  0.000000  0.502822  1
  K  K5  1  0.000000  0.000000  0.002822  1
  K  K6  1  0.666667  0.333333  0.893545  1
  K  K7  1  0.000000  0.000000  0.766876  1
  Sb  Sb8  1  0.333333  0.666667  0.640080  1
  Sb  Sb9  1  0.666667  0.333333  0.140080  1
  Sb  Sb10  1  0.666667  0.333333  0.329679  1
  Sb  Sb11  1  0.333333  0.666667  0.829679  1
  O  O12  1  0.821998  0.643996  0.390085  1
  O  O13  1  0.178002  0.821998  0.890085  1
  O  O14  1  0.643996  0.821998  0.890085  1
  O  O15  1  0.356004  0.178002  0.390085  1
  O  O16  1  0.821998  0.178002  0.390085  1
  O  O17  1  0.178002  0.356004  0.890085  1
