# generated using pymatgen
data_Cu4P2O9
_symmetry_space_group_name_H-M   'P 1'
_cell_length_a   6.38098051
_cell_length_b   8.15510383
_cell_length_c   13.63420194
_cell_angle_alpha   90.00000000
_cell_angle_beta   90.00000000
_cell_angle_gamma   90.00000000
_symmetry_Int_Tables_number   1
_chemical_formula_structural   Cu4P2O9
_chemical_formula_sum   'Cu16 P8 O36'
_cell_volume   709.49058237
_cell_formula_units_Z   4
loop_
 _symmetry_equiv_pos_site_id
 _symmetry_equiv_pos_as_xyz
  1  'x, y, z'
loop_
 _atom_site_type_symbol
 _atom_site_label
 _atom_site_symmetry_multiplicity
 _atom_site_fract_x
 _atom_site_fract_y
 _atom_site_fract_z
 _atom_site_occupancy
  Cu  Cu0  1  0.250000  0.144898  0.947935  1
  Cu  Cu1  1  0.750000  0.855102  0.052065  1
  Cu  Cu2  1  0.250000  0.644898  0.552065  1
  Cu  Cu3  1  0.750000  0.355102  0.447935  1
  Cu  Cu4  1  0.250000  0.437169  0.087918  1
  Cu  Cu5  1  0.750000  0.562831  0.912082  1
  Cu  Cu6  1  0.250000  0.937169  0.412082  1
  Cu  Cu7  1  0.750000  0.062831  0.587918  1
  Cu  Cu8  1  0.992767  0.647326  0.342884  1
  Cu  Cu9  1  0.492767  0.352674  0.657116  1
  Cu  Cu10  1  0.507233  0.147326  0.157116  1
  Cu  Cu11  1  0.007233  0.852674  0.842884  1
  Cu  Cu12  1  0.007233  0.352674  0.657116  1
  Cu  Cu13  1  0.507233  0.647326  0.342884  1
  Cu  Cu14  1  0.492767  0.852674  0.842884  1
  Cu  Cu15  1  0.992767  0.147326  0.157116  1
  P  P16  1  0.750000  0.649943  0.584836  1
  P  P17  1  0.250000  0.350057  0.415164  1
  P  P18  1  0.750000  0.149943  0.915164  1
  P  P19  1  0.250000  0.850057  0.084836  1
  P  P20  1  0.750000  0.496764  0.156818  1
  P  P21  1  0.250000  0.503236  0.843182  1
  P  P22  1  0.750000  0.996764  0.343182  1
  P  P23  1  0.250000  0.003236  0.656818  1
  O  O24  1  0.250000  0.202135  0.093774  1
  O  O25  1  0.750000  0.797865  0.906226  1
  O  O26  1  0.250000  0.702135  0.406226  1
  O  O27  1  0.750000  0.297865  0.593774  1
  O  O28  1  0.550378  0.887896  0.348764  1
  O  O29  1  0.050378  0.112104  0.651236  1
  O  O30  1  0.949622  0.387896  0.151236  1
  O  O31  1  0.449622  0.612104  0.848764  1
  O  O32  1  0.449622  0.112104  0.651236  1
  O  O33  1  0.949622  0.887896  0.348764  1
  O  O34  1  0.050378  0.612104  0.848764  1
  O  O35  1  0.550378  0.387896  0.151236  1
  O  O36  1  0.250000  0.902667  0.755486  1
  O  O37  1  0.750000  0.097333  0.244514  1
  O  O38  1  0.452596  0.914591  0.137445  1
  O  O39  1  0.250000  0.402667  0.744514  1
  O  O40  1  0.250000  0.881650  0.569678  1
  O  O41  1  0.750000  0.118350  0.430322  1
  O  O42  1  0.250000  0.381650  0.930322  1
  O  O43  1  0.750000  0.618350  0.069678  1
  O  O44  1  0.547404  0.085409  0.862555  1
  O  O45  1  0.047404  0.914591  0.137445  1
  O  O46  1  0.952596  0.585409  0.637445  1
  O  O47  1  0.452596  0.414591  0.362555  1
  O  O48  1  0.750000  0.834570  0.589752  1
  O  O49  1  0.250000  0.165430  0.410248  1
  O  O50  1  0.750000  0.334570  0.910248  1
  O  O51  1  0.250000  0.665430  0.089752  1
  O  O52  1  0.750000  0.590077  0.475558  1
  O  O53  1  0.250000  0.409923  0.524442  1
  O  O54  1  0.750000  0.090077  0.024442  1
  O  O55  1  0.250000  0.909923  0.975558  1
  O  O56  1  0.547404  0.585409  0.637445  1
  O  O57  1  0.047404  0.414591  0.362555  1
  O  O58  1  0.952596  0.085409  0.862555  1
  O  O59  1  0.750000  0.597333  0.255486  1
