# generated using pymatgen
data_TlCdI3
_symmetry_space_group_name_H-M   'P 1'
_cell_length_a   4.49742107
_cell_length_b   10.39580718
_cell_length_c   16.63770365
_cell_angle_alpha   90.00000000
_cell_angle_beta   90.00000000
_cell_angle_gamma   90.00000000
_symmetry_Int_Tables_number   1
_chemical_formula_structural   TlCdI3
_chemical_formula_sum   'Tl4 Cd4 I12'
_cell_volume   777.88455797
_cell_formula_units_Z   4
loop_
 _symmetry_equiv_pos_site_id
 _symmetry_equiv_pos_as_xyz
  1  'x, y, z'
loop_
 _atom_site_type_symbol
 _atom_site_label
 _atom_site_symmetry_multiplicity
 _atom_site_fract_x
 _atom_site_fract_y
 _atom_site_fract_z
 _atom_site_occupancy
  Tl  Tl0  1  0.250000  0.952597  0.824654  1
  Tl  Tl1  1  0.750000  0.047403  0.175346  1
  Tl  Tl2  1  0.250000  0.452597  0.675346  1
  Tl  Tl3  1  0.750000  0.547403  0.324654  1
  Cd  Cd4  1  0.250000  0.667771  0.054047  1
  Cd  Cd5  1  0.750000  0.332229  0.945953  1
  Cd  Cd6  1  0.250000  0.167771  0.445953  1
  Cd  Cd7  1  0.750000  0.832229  0.554047  1
  I  I8  1  0.750000  0.981257  0.394700  1
  I  I9  1  0.250000  0.018743  0.605300  1
  I  I10  1  0.750000  0.481257  0.105300  1
  I  I11  1  0.250000  0.518743  0.894700  1
  I  I12  1  0.750000  0.835893  0.989706  1
  I  I13  1  0.250000  0.164107  0.010294  1
  I  I14  1  0.750000  0.335893  0.510294  1
  I  I15  1  0.250000  0.664107  0.489705  1
  I  I16  1  0.750000  0.710152  0.712094  1
  I  I17  1  0.250000  0.289848  0.287906  1
  I  I18  1  0.750000  0.210152  0.787906  1
  I  I19  1  0.250000  0.789848  0.212094  1
