# generated using pymatgen
data_Mn(SbO3)2
_symmetry_space_group_name_H-M   'P 1'
_cell_length_a   8.94801812
_cell_length_b   8.94801812
_cell_length_c   4.80551702
_cell_angle_alpha   90.00000000
_cell_angle_beta   90.00000000
_cell_angle_gamma   120.00000000
_symmetry_Int_Tables_number   1
_chemical_formula_structural   Mn(SbO3)2
_chemical_formula_sum   'Mn3 Sb6 O18'
_cell_volume   333.21493712
_cell_formula_units_Z   3
loop_
 _symmetry_equiv_pos_site_id
 _symmetry_equiv_pos_as_xyz
  1  'x, y, z'
loop_
 _atom_site_type_symbol
 _atom_site_label
 _atom_site_symmetry_multiplicity
 _atom_site_fract_x
 _atom_site_fract_y
 _atom_site_fract_z
 _atom_site_occupancy
  Mn  Mn0  1  0.366838  0.366838  0.000000  1
  Mn  Mn1  1  0.000000  0.633162  0.000000  1
  Mn  Mn2  1  0.633162  0.000000  0.000000  1
  Sb  Sb3  1  0.000000  0.304988  0.500000  1
  Sb  Sb4  1  0.695012  0.695012  0.500000  1
  Sb  Sb5  1  0.304988  0.000000  0.500000  1
  Sb  Sb6  1  0.666667  0.333333  0.490906  1
  Sb  Sb7  1  0.333333  0.666667  0.509094  1
  Sb  Sb8  1  0.000000  0.000000  0.000000  1
  O  O9  1  0.778997  0.224611  0.717215  1
  O  O10  1  0.775389  0.554386  0.717215  1
  O  O11  1  0.445614  0.221003  0.717215  1
  O  O12  1  0.554386  0.775389  0.282785  1
  O  O13  1  0.221003  0.445614  0.282785  1
  O  O14  1  0.224611  0.778997  0.282785  1
  O  O15  1  0.589094  0.471976  0.269226  1
  O  O16  1  0.528024  0.117118  0.269226  1
  O  O17  1  0.882882  0.410906  0.269226  1
  O  O18  1  0.103295  0.889752  0.763826  1
  O  O19  1  0.110248  0.213544  0.763826  1
  O  O20  1  0.786456  0.896705  0.763826  1
  O  O21  1  0.213544  0.110248  0.236174  1
  O  O22  1  0.117118  0.528024  0.730774  1
  O  O23  1  0.889752  0.103295  0.236174  1
  O  O24  1  0.471976  0.589094  0.730774  1
  O  O25  1  0.410906  0.882882  0.730774  1
  O  O26  1  0.896705  0.786456  0.236174  1
