# generated using pymatgen
data_La(FeAs3)4
_symmetry_space_group_name_H-M   'P 1'
_cell_length_a   7.24265029
_cell_length_b   7.24265029
_cell_length_c   7.24265029
_cell_angle_alpha   109.47122063
_cell_angle_beta   109.47122063
_cell_angle_gamma   109.47122063
_symmetry_Int_Tables_number   1
_chemical_formula_structural   La(FeAs3)4
_chemical_formula_sum   'La1 Fe4 As12'
_cell_volume   292.46281625
_cell_formula_units_Z   1
loop_
 _symmetry_equiv_pos_site_id
 _symmetry_equiv_pos_as_xyz
  1  'x, y, z'
loop_
 _atom_site_type_symbol
 _atom_site_label
 _atom_site_symmetry_multiplicity
 _atom_site_fract_x
 _atom_site_fract_y
 _atom_site_fract_z
 _atom_site_occupancy
  La  La0  1  0.000000  0.000000  0.000000  1
  Fe  Fe1  1  0.500000  0.500000  0.500000  1
  Fe  Fe2  1  0.500000  1.000000  0.000000  1
  Fe  Fe3  1  1.000000  0.500000  0.000000  1
  Fe  Fe4  1  1.000000  1.000000  0.500000  1
  As  As5  1  0.499174  0.843173  0.656001  1
  As  As6  1  0.500826  0.156827  0.343999  1
  As  As7  1  0.156827  0.656001  0.812827  1
  As  As8  1  0.343999  0.187172  0.843173  1
  As  As9  1  0.843173  0.656001  0.499174  1
  As  As10  1  0.656001  0.812827  0.156827  1
  As  As11  1  0.843173  0.343999  0.187172  1
  As  As12  1  0.656001  0.499174  0.843173  1
  As  As13  1  0.343999  0.500826  0.156827  1
  As  As14  1  0.156827  0.343999  0.500826  1
  As  As15  1  0.812827  0.156827  0.656001  1
  As  As16  1  0.187172  0.843173  0.343999  1
