# generated using pymatgen
data_Li2CuPCO7
_symmetry_space_group_name_H-M   'P 1'
_cell_length_a   5.01673833
_cell_length_b   6.28543187
_cell_length_c   8.45313114
_cell_angle_alpha   90.00000000
_cell_angle_beta   92.83909607
_cell_angle_gamma   90.00000000
_symmetry_Int_Tables_number   1
_chemical_formula_structural   Li2CuPCO7
_chemical_formula_sum   'Li4 Cu2 P2 C2 O14'
_cell_volume   266.22006585
_cell_formula_units_Z   2
loop_
 _symmetry_equiv_pos_site_id
 _symmetry_equiv_pos_as_xyz
  1  'x, y, z'
loop_
 _atom_site_type_symbol
 _atom_site_label
 _atom_site_symmetry_multiplicity
 _atom_site_fract_x
 _atom_site_fract_y
 _atom_site_fract_z
 _atom_site_occupancy
  Li  Li0  1  0.776841  0.996084  0.244315  1
  Li  Li1  1  0.223159  0.003916  0.755685  1
  Li  Li2  1  0.223159  0.496084  0.755685  1
  Li  Li3  1  0.776841  0.503916  0.244315  1
  Cu  Cu4  1  0.789272  0.750000  0.650820  1
  Cu  Cu5  1  0.210728  0.250000  0.349180  1
  P  P6  1  0.714936  0.250000  0.579104  1
  P  P7  1  0.285064  0.750000  0.420896  1
  C  C8  1  0.732909  0.750000  0.944769  1
  C  C9  1  0.267091  0.250000  0.055231  1
  O  O10  1  0.531241  0.750000  0.840586  1
  O  O11  1  0.965920  0.750000  0.883740  1
  O  O12  1  0.468759  0.250000  0.159414  1
  O  O13  1  0.174651  0.942526  0.324466  1
  O  O14  1  0.174651  0.557474  0.324466  1
  O  O15  1  0.185921  0.750000  0.591950  1
  O  O16  1  0.814079  0.250000  0.408050  1
  O  O17  1  0.825349  0.442526  0.675534  1
  O  O18  1  0.825349  0.057474  0.675534  1
  O  O19  1  0.403123  0.250000  0.566716  1
  O  O20  1  0.703770  0.750000  0.092439  1
  O  O21  1  0.296230  0.250000  0.907561  1
  O  O22  1  0.596877  0.750000  0.433284  1
  O  O23  1  0.034080  0.250000  0.116260  1
