# generated using pymatgen
data_K2HgH2Cl4O
_symmetry_space_group_name_H-M   'P 1'
_cell_length_a   8.48214623
_cell_length_b   9.04082460
_cell_length_c   11.92697554
_cell_angle_alpha   90.00000000
_cell_angle_beta   90.00000000
_cell_angle_gamma   90.00000000
_symmetry_Int_Tables_number   1
_chemical_formula_structural   K2HgH2Cl4O
_chemical_formula_sum   'K8 Hg4 H8 Cl16 O4'
_cell_volume   914.62723130
_cell_formula_units_Z   4
loop_
 _symmetry_equiv_pos_site_id
 _symmetry_equiv_pos_as_xyz
  1  'x, y, z'
loop_
 _atom_site_type_symbol
 _atom_site_label
 _atom_site_symmetry_multiplicity
 _atom_site_fract_x
 _atom_site_fract_y
 _atom_site_fract_z
 _atom_site_occupancy
  K  K0  1  0.607191  0.500000  0.196911  1
  K  K1  1  0.107191  0.500000  0.303089  1
  K  K2  1  0.392809  0.500000  0.803089  1
  K  K3  1  0.892809  0.500000  0.696911  1
  K  K4  1  0.579890  0.000000  0.155093  1
  K  K5  1  0.079890  0.000000  0.344907  1
  K  K6  1  0.420110  0.000000  0.844907  1
  K  K7  1  0.920110  0.000000  0.655093  1
  Hg  Hg8  1  0.500000  0.224842  0.500000  1
  Hg  Hg9  1  0.000000  0.775158  0.000000  1
  Hg  Hg10  1  0.500000  0.775158  0.500000  1
  Hg  Hg11  1  0.000000  0.224842  0.000000  1
  H  H12  1  0.586314  0.299737  0.977350  1
  H  H13  1  0.086314  0.700263  0.522650  1
  H  H14  1  0.413686  0.299737  0.022650  1
  H  H15  1  0.913686  0.700263  0.477350  1
  H  H16  1  0.413686  0.700263  0.022650  1
  H  H17  1  0.913686  0.299737  0.477350  1
  H  H18  1  0.586314  0.700263  0.977350  1
  H  H19  1  0.086314  0.299737  0.522650  1
  Cl  Cl20  1  0.798461  0.000000  0.924084  1
  Cl  Cl21  1  0.298461  0.000000  0.575916  1
  Cl  Cl22  1  0.201539  0.000000  0.075916  1
  Cl  Cl23  1  0.701539  0.000000  0.424084  1
  Cl  Cl24  1  0.737717  0.500000  0.940286  1
  Cl  Cl25  1  0.237717  0.500000  0.559714  1
  Cl  Cl26  1  0.262283  0.500000  0.059714  1
  Cl  Cl27  1  0.762283  0.500000  0.440286  1
  Cl  Cl28  1  0.115327  0.254317  0.814125  1
  Cl  Cl29  1  0.615327  0.745683  0.685875  1
  Cl  Cl30  1  0.884673  0.254317  0.185875  1
  Cl  Cl31  1  0.384673  0.745683  0.314125  1
  Cl  Cl32  1  0.884673  0.745683  0.185875  1
  Cl  Cl33  1  0.384673  0.254317  0.314125  1
  Cl  Cl34  1  0.115327  0.745683  0.814125  1
  Cl  Cl35  1  0.615327  0.254317  0.685875  1
  O  O36  1  0.500000  0.232804  0.000000  1
  O  O37  1  0.000000  0.767196  0.500000  1
  O  O38  1  0.500000  0.767196  0.000000  1
  O  O39  1  0.000000  0.232804  0.500000  1
