# generated using pymatgen
data_Ba2EuCl7
_symmetry_space_group_name_H-M   'P 1'
_cell_length_a   7.04579590
_cell_length_b   15.76922278
_cell_length_c   10.75191471
_cell_angle_alpha   90.00000000
_cell_angle_beta   91.26976512
_cell_angle_gamma   90.00000000
_symmetry_Int_Tables_number   1
_chemical_formula_structural   Ba2EuCl7
_chemical_formula_sum   'Ba8 Eu4 Cl28'
_cell_volume   1194.31668767
_cell_formula_units_Z   4
loop_
 _symmetry_equiv_pos_site_id
 _symmetry_equiv_pos_as_xyz
  1  'x, y, z'
loop_
 _atom_site_type_symbol
 _atom_site_label
 _atom_site_symmetry_multiplicity
 _atom_site_fract_x
 _atom_site_fract_y
 _atom_site_fract_z
 _atom_site_occupancy
  Ba  Ba0  1  0.729100  0.222298  0.448157  1
  Ba  Ba1  1  0.270900  0.722298  0.051843  1
  Ba  Ba2  1  0.270900  0.777702  0.551843  1
  Ba  Ba3  1  0.729100  0.277702  0.948157  1
  Ba  Ba4  1  0.272419  0.061640  0.172421  1
  Ba  Ba5  1  0.727581  0.561640  0.327579  1
  Ba  Ba6  1  0.727581  0.938360  0.827579  1
  Ba  Ba7  1  0.272419  0.438360  0.672421  1
  Eu  Eu8  1  0.214474  0.373830  0.215371  1
  Eu  Eu9  1  0.785526  0.873830  0.284629  1
  Eu  Eu10  1  0.785526  0.626170  0.784629  1
  Eu  Eu11  1  0.214474  0.126170  0.715371  1
  Cl  Cl12  1  0.291097  0.141276  0.464177  1
  Cl  Cl13  1  0.708903  0.641276  0.035823  1
  Cl  Cl14  1  0.708903  0.858724  0.535823  1
  Cl  Cl15  1  0.291097  0.358724  0.964177  1
  Cl  Cl16  1  0.858257  0.069833  0.623457  1
  Cl  Cl17  1  0.141743  0.569833  0.876543  1
  Cl  Cl18  1  0.141743  0.930167  0.376543  1
  Cl  Cl19  1  0.858257  0.430167  0.123457  1
  Cl  Cl20  1  0.304101  0.955798  0.709403  1
  Cl  Cl21  1  0.695899  0.455798  0.790597  1
  Cl  Cl22  1  0.695899  0.044202  0.290597  1
  Cl  Cl23  1  0.304101  0.544202  0.209403  1
  Cl  Cl24  1  0.997501  0.396201  0.430077  1
  Cl  Cl25  1  0.002499  0.896201  0.069923  1
  Cl  Cl26  1  0.002499  0.603799  0.569923  1
  Cl  Cl27  1  0.997501  0.103799  0.930077  1
  Cl  Cl28  1  0.492412  0.241106  0.193635  1
  Cl  Cl29  1  0.507588  0.741106  0.306365  1
  Cl  Cl30  1  0.507588  0.758894  0.806365  1
  Cl  Cl31  1  0.492412  0.258894  0.693635  1
  Cl  Cl32  1  0.996429  0.224671  0.204083  1
  Cl  Cl33  1  0.003571  0.724671  0.295917  1
  Cl  Cl34  1  0.003571  0.775329  0.795917  1
  Cl  Cl35  1  0.996429  0.275329  0.704083  1
  Cl  Cl36  1  0.491548  0.396230  0.417507  1
  Cl  Cl37  1  0.508452  0.896230  0.082493  1
  Cl  Cl38  1  0.508452  0.603770  0.582493  1
  Cl  Cl39  1  0.491548  0.103770  0.917507  1
