# generated using pymatgen
data_CrH8C4(S2N3)2
_symmetry_space_group_name_H-M   'P 1'
_cell_length_a   4.11164353
_cell_length_b   7.64496168
_cell_length_c   10.30421566
_cell_angle_alpha   92.82334527
_cell_angle_beta   100.52205947
_cell_angle_gamma   99.65239843
_symmetry_Int_Tables_number   1
_chemical_formula_structural   CrH8C4(S2N3)2
_chemical_formula_sum   'Cr1 H8 C4 S4 N6'
_cell_volume   312.87358716
_cell_formula_units_Z   1
loop_
 _symmetry_equiv_pos_site_id
 _symmetry_equiv_pos_as_xyz
  1  'x, y, z'
loop_
 _atom_site_type_symbol
 _atom_site_label
 _atom_site_symmetry_multiplicity
 _atom_site_fract_x
 _atom_site_fract_y
 _atom_site_fract_z
 _atom_site_occupancy
  Cr  Cr0  1  0.000000  0.000000  0.000000  1
  H  H1  1  0.330491  0.916541  0.283418  1
  H  H2  1  0.669509  0.083459  0.716582  1
  H  H3  1  0.496293  0.767692  0.391249  1
  H  H4  1  0.503707  0.232308  0.608751  1
  H  H5  1  0.566852  0.466462  0.126112  1
  H  H6  1  0.433148  0.533538  0.873888  1
  H  H7  1  0.620494  0.501255  0.297322  1
  H  H8  1  0.379506  0.498745  0.702678  1
  C  C9  1  0.439144  0.699178  0.191389  1
  C  C10  1  0.560856  0.300822  0.808611  1
  C  C11  1  0.950547  0.823504  0.711511  1
  C  C12  1  0.049453  0.176496  0.288489  1
  S  S13  1  0.336304  0.762791  0.032375  1
  S  S14  1  0.663696  0.237209  0.967625  1
  S  S15  1  0.977087  0.714330  0.577097  1
  S  S16  1  0.022913  0.285670  0.422903  1
  N  N17  1  0.411694  0.798782  0.297205  1
  N  N18  1  0.588306  0.201218  0.702795  1
  N  N19  1  0.553091  0.546425  0.206566  1
  N  N20  1  0.446909  0.453575  0.793434  1
  N  N21  1  0.932901  0.904426  0.811310  1
  N  N22  1  0.067099  0.095574  0.188690  1
