# generated using pymatgen
data_TlH4NCl4
_symmetry_space_group_name_H-M   'P 1'
_cell_length_a   9.46317189
_cell_length_b   9.46317189
_cell_length_c   9.46317189
_cell_angle_alpha   135.26251013
_cell_angle_beta   135.26251013
_cell_angle_gamma   65.12259061
_symmetry_Int_Tables_number   1
_chemical_formula_structural   TlH4NCl4
_chemical_formula_sum   'Tl2 H8 N2 Cl8'
_cell_volume   413.77376146
_cell_formula_units_Z   2
loop_
 _symmetry_equiv_pos_site_id
 _symmetry_equiv_pos_as_xyz
  1  'x, y, z'
loop_
 _atom_site_type_symbol
 _atom_site_label
 _atom_site_symmetry_multiplicity
 _atom_site_fract_x
 _atom_site_fract_y
 _atom_site_fract_z
 _atom_site_occupancy
  Tl  Tl0  1  0.750000  0.250000  0.500000  1
  Tl  Tl1  1  0.000000  0.000000  0.000000  1
  H  H2  1  0.575209  0.432168  0.082609  1
  H  H3  1  0.182168  0.599559  0.356959  1
  H  H4  1  0.242601  0.825209  0.643041  1
  H  H5  1  0.349559  0.492601  0.917391  1
  H  H6  1  0.174791  0.817832  0.417391  1
  H  H7  1  0.567832  0.650441  0.143041  1
  H  H8  1  0.507399  0.424791  0.856959  1
  H  H9  1  0.400441  0.757399  0.582609  1
  N  N10  1  0.500000  0.500000  0.000000  1
  N  N11  1  0.250000  0.750000  0.500000  1
  Cl  Cl12  1  0.594803  0.491032  0.413353  1
  Cl  Cl13  1  0.155197  0.758968  0.086647  1
  Cl  Cl14  1  0.672321  0.068549  0.913353  1
  Cl  Cl15  1  0.508968  0.922321  0.103772  1
  Cl  Cl16  1  0.931451  0.844803  0.603772  1
  Cl  Cl17  1  0.241032  0.327679  0.396228  1
  Cl  Cl18  1  0.077679  0.181451  0.586647  1
  Cl  Cl19  1  0.818549  0.405197  0.896228  1
