# generated using pymatgen
data_Rb6Sn2S7
_symmetry_space_group_name_H-M   'P 1'
_cell_length_a   10.13666230
_cell_length_b   13.71384867
_cell_length_c   15.15346431
_cell_angle_alpha   90.00000000
_cell_angle_beta   90.00000000
_cell_angle_gamma   90.00000000
_symmetry_Int_Tables_number   1
_chemical_formula_structural   Rb6Sn2S7
_chemical_formula_sum   'Rb24 Sn8 S28'
_cell_volume   2106.52327286
_cell_formula_units_Z   4
loop_
 _symmetry_equiv_pos_site_id
 _symmetry_equiv_pos_as_xyz
  1  'x, y, z'
loop_
 _atom_site_type_symbol
 _atom_site_label
 _atom_site_symmetry_multiplicity
 _atom_site_fract_x
 _atom_site_fract_y
 _atom_site_fract_z
 _atom_site_occupancy
  Rb  Rb0  1  0.937457  0.180477  0.881032  1
  Rb  Rb1  1  0.970667  0.839060  0.189795  1
  Rb  Rb2  1  0.470667  0.660940  0.810205  1
  Rb  Rb3  1  0.029333  0.339060  0.310205  1
  Rb  Rb4  1  0.529333  0.160940  0.689795  1
  Rb  Rb5  1  0.719776  0.860923  0.939004  1
  Rb  Rb6  1  0.219776  0.639077  0.060996  1
  Rb  Rb7  1  0.280224  0.360923  0.560996  1
  Rb  Rb8  1  0.857745  0.430135  0.085300  1
  Rb  Rb9  1  0.357745  0.069865  0.914700  1
  Rb  Rb10  1  0.142255  0.930135  0.414700  1
  Rb  Rb11  1  0.642255  0.569865  0.585300  1
  Rb  Rb12  1  0.855393  0.347984  0.643563  1
  Rb  Rb13  1  0.355393  0.152016  0.356437  1
  Rb  Rb14  1  0.144607  0.847984  0.856437  1
  Rb  Rb15  1  0.644607  0.652016  0.143563  1
  Rb  Rb16  1  0.780224  0.139077  0.439004  1
  Rb  Rb17  1  0.750203  0.884138  0.627991  1
  Rb  Rb18  1  0.062543  0.680477  0.618968  1
  Rb  Rb19  1  0.562543  0.819523  0.381032  1
  Rb  Rb20  1  0.749797  0.115862  0.127991  1
  Rb  Rb21  1  0.249797  0.384138  0.872009  1
  Rb  Rb22  1  0.250203  0.615862  0.372009  1
  Rb  Rb23  1  0.437457  0.319523  0.118968  1
  Sn  Sn24  1  0.875916  0.605493  0.381389  1
  Sn  Sn25  1  0.922446  0.606677  0.862097  1
  Sn  Sn26  1  0.422446  0.893323  0.137903  1
  Sn  Sn27  1  0.077554  0.106677  0.637903  1
  Sn  Sn28  1  0.577554  0.393323  0.362097  1
  Sn  Sn29  1  0.624084  0.394507  0.881389  1
  Sn  Sn30  1  0.124084  0.105493  0.118611  1
  Sn  Sn31  1  0.375916  0.894507  0.618611  1
  S  S32  1  0.618867  0.229790  0.936713  1
  S  S33  1  0.118867  0.270210  0.063287  1
  S  S34  1  0.381133  0.729790  0.563287  1
  S  S35  1  0.881133  0.770210  0.436713  1
  S  S36  1  0.597035  0.328480  0.507727  1
  S  S37  1  0.097035  0.171520  0.492273  1
  S  S38  1  0.402965  0.828480  0.992273  1
  S  S39  1  0.902965  0.671520  0.007727  1
  S  S40  1  0.706520  0.304111  0.257368  1
  S  S41  1  0.206520  0.195889  0.742632  1
  S  S42  1  0.293480  0.804111  0.242632  1
  S  S43  1  0.793480  0.695889  0.757368  1
  S  S44  1  0.848162  0.103862  0.677228  1
  S  S45  1  0.348162  0.396138  0.322772  1
  S  S46  1  0.151838  0.603862  0.822772  1
  S  S47  1  0.651838  0.896138  0.177228  1
  S  S48  1  0.976169  0.496980  0.487030  1
  S  S49  1  0.476169  0.003020  0.512970  1
  S  S50  1  0.023831  0.996980  0.012970  1
  S  S51  1  0.523831  0.503020  0.987030  1
  S  S52  1  0.528901  0.411246  0.738290  1
  S  S53  1  0.028901  0.088754  0.261710  1
  S  S54  1  0.471099  0.911246  0.761710  1
  S  S55  1  0.971099  0.588754  0.238290  1
  S  S56  1  0.868533  0.427352  0.862614  1
  S  S57  1  0.631467  0.572648  0.362614  1
  S  S58  1  0.131467  0.927352  0.637386  1
  S  S59  1  0.368533  0.072648  0.137386  1
