# generated using pymatgen
data_Ba4Y2Cu6O13
_symmetry_space_group_name_H-M   'P 1'
_cell_length_a   3.90917534
_cell_length_b   7.72063977
_cell_length_c   11.97204504
_cell_angle_alpha   90.00000000
_cell_angle_beta   90.00000000
_cell_angle_gamma   90.00000000
_symmetry_Int_Tables_number   1
_chemical_formula_structural   Ba4Y2Cu6O13
_chemical_formula_sum   'Ba4 Y2 Cu6 O13'
_cell_volume   361.33229717
_cell_formula_units_Z   1
loop_
 _symmetry_equiv_pos_site_id
 _symmetry_equiv_pos_as_xyz
  1  'x, y, z'
loop_
 _atom_site_type_symbol
 _atom_site_label
 _atom_site_symmetry_multiplicity
 _atom_site_fract_x
 _atom_site_fract_y
 _atom_site_fract_z
 _atom_site_occupancy
  Ba  Ba0  1  0.500000  0.242769  0.187700  1
  Ba  Ba1  1  0.500000  0.757231  0.812300  1
  Ba  Ba2  1  0.500000  0.757231  0.187700  1
  Ba  Ba3  1  0.500000  0.242769  0.812300  1
  Y  Y4  1  0.500000  0.749023  0.500000  1
  Y  Y5  1  0.500000  0.250977  0.500000  1
  Cu  Cu6  1  0.000000  0.500000  0.359967  1
  Cu  Cu7  1  0.000000  0.500000  0.640033  1
  Cu  Cu8  1  0.000000  0.000000  0.359845  1
  Cu  Cu9  1  0.000000  0.000000  0.640155  1
  Cu  Cu10  1  0.000000  0.500000  0.000000  1
  Cu  Cu11  1  0.000000  0.000000  0.000000  1
  O  O12  1  0.000000  0.500000  0.149415  1
  O  O13  1  0.000000  0.500000  0.850585  1
  O  O14  1  0.000000  0.000000  0.158442  1
  O  O15  1  0.000000  0.000000  0.841558  1
  O  O16  1  0.500000  0.500000  0.379297  1
  O  O17  1  0.500000  0.500000  0.620703  1
  O  O18  1  0.500000  0.000000  0.379086  1
  O  O19  1  0.500000  0.000000  0.620914  1
  O  O20  1  0.000000  0.250306  0.620258  1
  O  O21  1  0.000000  0.749694  0.379742  1
  O  O22  1  0.000000  0.250306  0.379742  1
  O  O23  1  0.000000  0.749694  0.620258  1
  O  O24  1  0.500000  0.000000  0.000000  1
