# generated using pymatgen
data_SrN
_symmetry_space_group_name_H-M   'P 1'
_cell_length_a   7.10432483
_cell_length_b   7.10432483
_cell_length_c   6.76051300
_cell_angle_alpha   85.33752512
_cell_angle_beta   94.66247488
_cell_angle_gamma   148.99739380
_symmetry_Int_Tables_number   1
_chemical_formula_structural   SrN
_chemical_formula_sum   'Sr4 N4'
_cell_volume   175.12446483
_cell_formula_units_Z   4
loop_
 _symmetry_equiv_pos_site_id
 _symmetry_equiv_pos_as_xyz
  1  'x, y, z'
loop_
 _atom_site_type_symbol
 _atom_site_label
 _atom_site_symmetry_multiplicity
 _atom_site_fract_x
 _atom_site_fract_y
 _atom_site_fract_z
 _atom_site_occupancy
  Sr  Sr0  1  0.646397  0.353603  0.906435  1
  Sr  Sr1  1  0.353603  0.646397  0.093565  1
  Sr  Sr2  1  0.847060  0.152940  0.610632  1
  Sr  Sr3  1  0.152940  0.847060  0.389368  1
  N  N4  1  0.977441  0.022559  0.917578  1
  N  N5  1  0.022559  0.977441  0.082422  1
  N  N6  1  0.753512  0.246488  0.250880  1
  N  N7  1  0.246488  0.753512  0.749120  1
