# generated using pymatgen
data_NbBi4ClO8
_symmetry_space_group_name_H-M   'P 1'
_cell_length_a   5.55521103
_cell_length_b   5.62586217
_cell_length_c   29.31197784
_cell_angle_alpha   90.00000000
_cell_angle_beta   90.00000000
_cell_angle_gamma   90.00000000
_symmetry_Int_Tables_number   1
_chemical_formula_structural   NbBi4ClO8
_chemical_formula_sum   'Nb4 Bi16 Cl4 O32'
_cell_volume   916.08289295
_cell_formula_units_Z   4
loop_
 _symmetry_equiv_pos_site_id
 _symmetry_equiv_pos_as_xyz
  1  'x, y, z'
loop_
 _atom_site_type_symbol
 _atom_site_label
 _atom_site_symmetry_multiplicity
 _atom_site_fract_x
 _atom_site_fract_y
 _atom_site_fract_z
 _atom_site_occupancy
  Nb  Nb0  1  0.000000  0.987492  0.750000  1
  Nb  Nb1  1  0.500000  0.487492  0.750000  1
  Nb  Nb2  1  0.000000  0.012508  0.250000  1
  Nb  Nb3  1  0.500000  0.512508  0.250000  1
  Bi  Bi4  1  0.488296  0.493603  0.068531  1
  Bi  Bi5  1  0.475931  0.052243  0.843018  1
  Bi  Bi6  1  0.975931  0.552243  0.656982  1
  Bi  Bi7  1  0.475931  0.947757  0.343018  1
  Bi  Bi8  1  0.975931  0.447757  0.156982  1
  Bi  Bi9  1  0.511704  0.506397  0.931469  1
  Bi  Bi10  1  0.011704  0.006397  0.568531  1
  Bi  Bi11  1  0.511704  0.493603  0.431469  1
  Bi  Bi12  1  0.024069  0.447757  0.343018  1
  Bi  Bi13  1  0.524069  0.052243  0.656982  1
  Bi  Bi14  1  0.024069  0.552243  0.843018  1
  Bi  Bi15  1  0.524069  0.947757  0.156982  1
  Bi  Bi16  1  0.988296  0.006397  0.931469  1
  Bi  Bi17  1  0.488296  0.506397  0.568531  1
  Bi  Bi18  1  0.988296  0.993603  0.431469  1
  Bi  Bi19  1  0.011704  0.993603  0.068531  1
  Cl  Cl20  1  0.500000  0.000000  0.500000  1
  Cl  Cl21  1  0.000000  0.500000  0.500000  1
  Cl  Cl22  1  0.500000  0.000000  0.000000  1
  Cl  Cl23  1  0.000000  0.500000  0.000000  1
  O  O24  1  0.245736  0.307989  0.232586  1
  O  O25  1  0.745736  0.192011  0.767414  1
  O  O26  1  0.245736  0.692011  0.732586  1
  O  O27  1  0.745736  0.807989  0.267414  1
  O  O28  1  0.754264  0.307989  0.267414  1
  O  O29  1  0.254264  0.192011  0.732586  1
  O  O30  1  0.754264  0.692011  0.767414  1
  O  O31  1  0.254264  0.807989  0.232586  1
  O  O32  1  0.388715  0.584719  0.314039  1
  O  O33  1  0.888715  0.915281  0.685961  1
  O  O34  1  0.388715  0.415281  0.814039  1
  O  O35  1  0.888715  0.084719  0.185961  1
  O  O36  1  0.611285  0.584719  0.185961  1
  O  O37  1  0.111285  0.915281  0.814039  1
  O  O38  1  0.611285  0.415281  0.685961  1
  O  O39  1  0.111285  0.084719  0.314039  1
  O  O40  1  0.746585  0.254647  0.105074  1
  O  O41  1  0.246585  0.245353  0.894926  1
  O  O42  1  0.746585  0.745353  0.605074  1
  O  O43  1  0.246585  0.754647  0.394926  1
  O  O44  1  0.243004  0.246008  0.106557  1
  O  O45  1  0.743004  0.253992  0.893443  1
  O  O46  1  0.243004  0.753992  0.606557  1
  O  O47  1  0.743004  0.746008  0.393443  1
  O  O48  1  0.756996  0.246008  0.393443  1
  O  O49  1  0.256996  0.253992  0.606557  1
  O  O50  1  0.756996  0.753992  0.893443  1
  O  O51  1  0.256996  0.746008  0.106557  1
  O  O52  1  0.253415  0.254647  0.394926  1
  O  O53  1  0.753415  0.245353  0.605074  1
  O  O54  1  0.253415  0.745353  0.894926  1
  O  O55  1  0.753415  0.754647  0.105074  1
