# generated using pymatgen
data_K2HBrO
_symmetry_space_group_name_H-M   'P 1'
_cell_length_a   6.83196959
_cell_length_b   4.31704489
_cell_length_c   8.59334791
_cell_angle_alpha   90.00000000
_cell_angle_beta   108.14503681
_cell_angle_gamma   90.00000000
_symmetry_Int_Tables_number   1
_chemical_formula_structural   K2HBrO
_chemical_formula_sum   'K4 H2 Br2 O2'
_cell_volume   240.84767965
_cell_formula_units_Z   2
loop_
 _symmetry_equiv_pos_site_id
 _symmetry_equiv_pos_as_xyz
  1  'x, y, z'
loop_
 _atom_site_type_symbol
 _atom_site_label
 _atom_site_symmetry_multiplicity
 _atom_site_fract_x
 _atom_site_fract_y
 _atom_site_fract_z
 _atom_site_occupancy
  K  K0  1  0.709109  0.750000  0.964554  1
  K  K1  1  0.290891  0.250000  0.035446  1
  K  K2  1  0.294234  0.250000  0.616231  1
  K  K3  1  0.705766  0.750000  0.383769  1
  H  H4  1  0.836183  0.250000  0.211331  1
  H  H5  1  0.163817  0.750000  0.788669  1
  Br  Br6  1  0.819421  0.250000  0.699908  1
  Br  Br7  1  0.180579  0.750000  0.300092  1
  O  O8  1  0.685813  0.250000  0.172809  1
  O  O9  1  0.314187  0.750000  0.827191  1
