# generated using pymatgen
data_H6S(NO2)2
_symmetry_space_group_name_H-M   'P 1'
_cell_length_a   5.71410789
_cell_length_b   8.37681446
_cell_length_c   9.15753593
_cell_angle_alpha   90.00000000
_cell_angle_beta   90.00000000
_cell_angle_gamma   90.00000000
_symmetry_Int_Tables_number   1
_chemical_formula_structural   H6S(NO2)2
_chemical_formula_sum   'H24 S4 N8 O16'
_cell_volume   438.33481262
_cell_formula_units_Z   4
loop_
 _symmetry_equiv_pos_site_id
 _symmetry_equiv_pos_as_xyz
  1  'x, y, z'
loop_
 _atom_site_type_symbol
 _atom_site_label
 _atom_site_symmetry_multiplicity
 _atom_site_fract_x
 _atom_site_fract_y
 _atom_site_fract_z
 _atom_site_occupancy
  H  H0  1  0.696740  0.239185  0.831990  1
  H  H1  1  0.196740  0.260815  0.168010  1
  H  H2  1  0.303260  0.739185  0.668010  1
  H  H3  1  0.803260  0.760815  0.331990  1
  H  H4  1  0.929822  0.156348  0.924038  1
  H  H5  1  0.429822  0.343652  0.075962  1
  H  H6  1  0.070178  0.656348  0.575962  1
  H  H7  1  0.570178  0.843652  0.424038  1
  H  H8  1  0.929015  0.158419  0.736118  1
  H  H9  1  0.429015  0.341581  0.263882  1
  H  H10  1  0.070985  0.658419  0.763882  1
  H  H11  1  0.570985  0.841581  0.236118  1
  H  H12  1  0.635756  0.962861  0.734700  1
  H  H13  1  0.135756  0.537139  0.265300  1
  H  H14  1  0.364244  0.462861  0.765300  1
  H  H15  1  0.864244  0.037139  0.234700  1
  H  H16  1  0.598758  0.990217  0.923106  1
  H  H17  1  0.098758  0.509783  0.076894  1
  H  H18  1  0.401242  0.490217  0.576894  1
  H  H19  1  0.901242  0.009783  0.423106  1
  H  H20  1  0.359077  0.587293  0.143825  1
  H  H21  1  0.140923  0.412707  0.643825  1
  H  H22  1  0.640923  0.087293  0.356175  1
  H  H23  1  0.859077  0.912707  0.856175  1
  S  S24  1  0.292723  0.053733  0.567518  1
  S  S25  1  0.792723  0.446267  0.432482  1
  S  S26  1  0.707277  0.553733  0.932482  1
  S  S27  1  0.207277  0.946267  0.067518  1
  N  N28  1  0.674867  0.851045  0.328706  1
  N  N29  1  0.174867  0.648955  0.671294  1
  N  N30  1  0.325133  0.351045  0.171294  1
  N  N31  1  0.825133  0.148955  0.828706  1
  N  N32  1  0.221797  0.508059  0.166502  1
  N  N33  1  0.278203  0.491941  0.666502  1
  N  N34  1  0.778203  0.008059  0.333498  1
  N  N35  1  0.721797  0.991941  0.833498  1
  O  O36  1  0.351401  0.128062  0.425476  1
  O  O37  1  0.851401  0.371938  0.574524  1
  O  O38  1  0.648599  0.628062  0.074524  1
  O  O39  1  0.148599  0.871938  0.925476  1
  O  O40  1  0.318980  0.164432  0.691383  1
  O  O41  1  0.818980  0.335568  0.308617  1
  O  O42  1  0.681020  0.664432  0.808617  1
  O  O43  1  0.181020  0.835568  0.191383  1
  O  O44  1  0.047562  0.988645  0.565922  1
  O  O45  1  0.547562  0.511355  0.434078  1
  O  O46  1  0.952438  0.488645  0.934078  1
  O  O47  1  0.452438  0.011355  0.065922  1
  O  O48  1  0.457872  0.911344  0.590635  1
  O  O49  1  0.957872  0.588656  0.409365  1
  O  O50  1  0.542128  0.411344  0.909365  1
  O  O51  1  0.042128  0.088656  0.090635  1
