# generated using pymatgen
data_Y2Co3Si5
_symmetry_space_group_name_H-M   'P 1'
_cell_length_a   7.88136165
_cell_length_b   7.88136165
_cell_length_c   7.88136165
_cell_angle_alpha   138.84842713
_cell_angle_beta   105.63026909
_cell_angle_gamma   88.71646775
_symmetry_Int_Tables_number   1
_chemical_formula_structural   Y2Co3Si5
_chemical_formula_sum   'Y4 Co6 Si10'
_cell_volume   297.39533782
_cell_formula_units_Z   2
loop_
 _symmetry_equiv_pos_site_id
 _symmetry_equiv_pos_as_xyz
  1  'x, y, z'
loop_
 _atom_site_type_symbol
 _atom_site_label
 _atom_site_symmetry_multiplicity
 _atom_site_fract_x
 _atom_site_fract_y
 _atom_site_fract_z
 _atom_site_occupancy
  Y  Y0  1  0.599928  0.366176  0.233753  1
  Y  Y1  1  0.400072  0.633824  0.766247  1
  Y  Y2  1  0.867577  0.133824  0.733753  1
  Y  Y3  1  0.132423  0.866176  0.266247  1
  Co  Co4  1  0.000000  0.750000  0.750000  1
  Co  Co5  1  0.470193  0.862136  0.608057  1
  Co  Co6  1  0.254080  0.362136  0.891943  1
  Co  Co7  1  0.745920  0.637864  0.108057  1
  Co  Co8  1  0.000000  0.250000  0.250000  1
  Co  Co9  1  0.529807  0.137864  0.391943  1
  Si  Si10  1  0.258840  0.100690  0.158150  1
  Si  Si11  1  0.741160  0.899310  0.841850  1
  Si  Si12  1  0.057460  0.399310  0.658150  1
  Si  Si13  1  0.942540  0.600690  0.341850  1
  Si  Si14  1  0.773555  0.023555  0.250000  1
  Si  Si15  1  0.226445  0.476445  0.250000  1
  Si  Si16  1  0.226445  0.976445  0.750000  1
  Si  Si17  1  0.500000  0.750000  0.250000  1
  Si  Si18  1  0.500000  0.250000  0.750000  1
  Si  Si19  1  0.773555  0.523555  0.750000  1
