# generated using pymatgen
data_LuB2Ru
_symmetry_space_group_name_H-M   'P 1'
_cell_length_a   5.26288106
_cell_length_b   5.82985811
_cell_length_c   6.28854201
_cell_angle_alpha   90.00000000
_cell_angle_beta   90.00000000
_cell_angle_gamma   90.00000000
_symmetry_Int_Tables_number   1
_chemical_formula_structural   LuB2Ru
_chemical_formula_sum   'Lu4 B8 Ru4'
_cell_volume   192.94410160
_cell_formula_units_Z   4
loop_
 _symmetry_equiv_pos_site_id
 _symmetry_equiv_pos_as_xyz
  1  'x, y, z'
loop_
 _atom_site_type_symbol
 _atom_site_label
 _atom_site_symmetry_multiplicity
 _atom_site_fract_x
 _atom_site_fract_y
 _atom_site_fract_z
 _atom_site_occupancy
  Lu  Lu0  1  0.250000  0.511273  0.665576  1
  Lu  Lu1  1  0.750000  0.488727  0.334424  1
  Lu  Lu2  1  0.250000  0.011273  0.834424  1
  Lu  Lu3  1  0.750000  0.988727  0.165576  1
  B  B4  1  0.916186  0.134714  0.535183  1
  B  B5  1  0.416186  0.865286  0.464817  1
  B  B6  1  0.583814  0.634714  0.964817  1
  B  B7  1  0.083814  0.365286  0.035183  1
  B  B8  1  0.083814  0.865286  0.464817  1
  B  B9  1  0.916186  0.634714  0.964817  1
  B  B10  1  0.416186  0.365286  0.035183  1
  B  B11  1  0.583814  0.134714  0.535183  1
  Ru  Ru12  1  0.750000  0.819395  0.681656  1
  Ru  Ru13  1  0.750000  0.319395  0.818344  1
  Ru  Ru14  1  0.250000  0.180605  0.318344  1
  Ru  Ru15  1  0.250000  0.680605  0.181656  1
