# generated using pymatgen
data_Mg2SiB2Ir5
_symmetry_space_group_name_H-M   'P 1'
_cell_length_a   9.41888460
_cell_length_b   9.41888460
_cell_length_c   2.91488062
_cell_angle_alpha   90.00000000
_cell_angle_beta   90.00000000
_cell_angle_gamma   90.00000000
_symmetry_Int_Tables_number   1
_chemical_formula_structural   Mg2SiB2Ir5
_chemical_formula_sum   'Mg4 Si2 B4 Ir10'
_cell_volume   258.59476258
_cell_formula_units_Z   2
loop_
 _symmetry_equiv_pos_site_id
 _symmetry_equiv_pos_as_xyz
  1  'x, y, z'
loop_
 _atom_site_type_symbol
 _atom_site_label
 _atom_site_symmetry_multiplicity
 _atom_site_fract_x
 _atom_site_fract_y
 _atom_site_fract_z
 _atom_site_occupancy
  Mg  Mg0  1  0.675252  0.824748  0.000000  1
  Mg  Mg1  1  0.824748  0.324748  0.000000  1
  Mg  Mg2  1  0.175252  0.675252  0.000000  1
  Mg  Mg3  1  0.324748  0.175252  0.000000  1
  Si  Si4  1  0.500000  0.500000  0.000000  1
  Si  Si5  1  0.000000  0.000000  0.000000  1
  B  B6  1  0.374297  0.874297  0.000000  1
  B  B7  1  0.125703  0.374297  0.000000  1
  B  B8  1  0.874297  0.625703  0.000000  1
  B  B9  1  0.625703  0.125703  0.000000  1
  Ir  Ir10  1  0.500000  0.000000  0.500000  1
  Ir  Ir11  1  0.571800  0.290574  0.500000  1
  Ir  Ir12  1  0.709426  0.571800  0.500000  1
  Ir  Ir13  1  0.290574  0.428200  0.500000  1
  Ir  Ir14  1  0.209426  0.928200  0.500000  1
  Ir  Ir15  1  0.000000  0.500000  0.500000  1
  Ir  Ir16  1  0.071800  0.209426  0.500000  1
  Ir  Ir17  1  0.790574  0.071800  0.500000  1
  Ir  Ir18  1  0.928200  0.790574  0.500000  1
  Ir  Ir19  1  0.428200  0.709426  0.500000  1
