# generated using pymatgen
data_CeGe3Pd5
_symmetry_space_group_name_H-M   'P 1'
_cell_length_a   4.15027954
_cell_length_b   7.34402556
_cell_length_c   20.35038950
_cell_angle_alpha   90.00000000
_cell_angle_beta   90.00000000
_cell_angle_gamma   90.00000000
_symmetry_Int_Tables_number   1
_chemical_formula_structural   CeGe3Pd5
_chemical_formula_sum   'Ce4 Ge12 Pd20'
_cell_volume   620.27496798
_cell_formula_units_Z   4
loop_
 _symmetry_equiv_pos_site_id
 _symmetry_equiv_pos_as_xyz
  1  'x, y, z'
loop_
 _atom_site_type_symbol
 _atom_site_label
 _atom_site_symmetry_multiplicity
 _atom_site_fract_x
 _atom_site_fract_y
 _atom_site_fract_z
 _atom_site_occupancy
  Ce  Ce0  1  0.750000  0.376845  0.355486  1
  Ce  Ce1  1  0.750000  0.123155  0.855486  1
  Ce  Ce2  1  0.250000  0.623155  0.644514  1
  Ce  Ce3  1  0.250000  0.876845  0.144514  1
  Ge  Ge4  1  0.250000  0.377455  0.238279  1
  Ge  Ge5  1  0.750000  0.149155  0.075993  1
  Ge  Ge6  1  0.750000  0.905677  0.585964  1
  Ge  Ge7  1  0.750000  0.877455  0.261721  1
  Ge  Ge8  1  0.750000  0.594323  0.085964  1
  Ge  Ge9  1  0.250000  0.850845  0.924007  1
  Ge  Ge10  1  0.250000  0.122545  0.738279  1
  Ge  Ge11  1  0.250000  0.405677  0.914036  1
  Ge  Ge12  1  0.250000  0.094323  0.414036  1
  Ge  Ge13  1  0.750000  0.350845  0.575993  1
  Ge  Ge14  1  0.750000  0.622545  0.761721  1
  Ge  Ge15  1  0.250000  0.649155  0.424007  1
  Pd  Pd16  1  0.750000  0.120829  0.485602  1
  Pd  Pd17  1  0.250000  0.822900  0.800432  1
  Pd  Pd18  1  0.250000  0.677100  0.300432  1
  Pd  Pd19  1  0.750000  0.645686  0.884058  1
  Pd  Pd20  1  0.250000  0.145686  0.615942  1
  Pd  Pd21  1  0.250000  0.128502  0.994470  1
  Pd  Pd22  1  0.750000  0.177100  0.199568  1
  Pd  Pd23  1  0.250000  0.354314  0.115942  1
  Pd  Pd24  1  0.750000  0.854314  0.384058  1
  Pd  Pd25  1  0.250000  0.426690  0.793942  1
  Pd  Pd26  1  0.250000  0.879171  0.514398  1
  Pd  Pd27  1  0.750000  0.628502  0.505530  1
  Pd  Pd28  1  0.750000  0.379171  0.985602  1
  Pd  Pd29  1  0.250000  0.371498  0.494470  1
  Pd  Pd30  1  0.250000  0.073310  0.293942  1
  Pd  Pd31  1  0.750000  0.573310  0.206058  1
  Pd  Pd32  1  0.750000  0.926690  0.706058  1
  Pd  Pd33  1  0.750000  0.322900  0.699568  1
  Pd  Pd34  1  0.750000  0.871498  0.005530  1
  Pd  Pd35  1  0.250000  0.620829  0.014398  1
