# generated using pymatgen
data_LaGe
_symmetry_space_group_name_H-M   'P 1'
_cell_length_a   4.14114141
_cell_length_b   6.12078636
_cell_length_c   8.53301813
_cell_angle_alpha   90.00000000
_cell_angle_beta   90.00000000
_cell_angle_gamma   90.00000000
_symmetry_Int_Tables_number   1
_chemical_formula_structural   LaGe
_chemical_formula_sum   'La4 Ge4'
_cell_volume   216.28676771
_cell_formula_units_Z   4
loop_
 _symmetry_equiv_pos_site_id
 _symmetry_equiv_pos_as_xyz
  1  'x, y, z'
loop_
 _atom_site_type_symbol
 _atom_site_label
 _atom_site_symmetry_multiplicity
 _atom_site_fract_x
 _atom_site_fract_y
 _atom_site_fract_z
 _atom_site_occupancy
  La  La0  1  0.250000  0.117550  0.181450  1
  La  La1  1  0.750000  0.882450  0.818550  1
  La  La2  1  0.750000  0.617550  0.318550  1
  La  La3  1  0.250000  0.382450  0.681450  1
  Ge  Ge4  1  0.250000  0.633319  0.037182  1
  Ge  Ge5  1  0.750000  0.366681  0.962818  1
  Ge  Ge6  1  0.750000  0.133319  0.462818  1
  Ge  Ge7  1  0.250000  0.866681  0.537182  1
