# generated using pymatgen
data_Li6Bi3P8O29
_symmetry_space_group_name_H-M   'P 1'
_cell_length_a   10.36654903
_cell_length_b   10.36654903
_cell_length_c   14.28336045
_cell_angle_alpha   89.43451186
_cell_angle_beta   90.56548814
_cell_angle_gamma   120.10719086
_symmetry_Int_Tables_number   1
_chemical_formula_structural   Li6Bi3P8O29
_chemical_formula_sum   'Li12 Bi6 P16 O58'
_cell_volume   1327.79539929
_cell_formula_units_Z   2
loop_
 _symmetry_equiv_pos_site_id
 _symmetry_equiv_pos_as_xyz
  1  'x, y, z'
loop_
 _atom_site_type_symbol
 _atom_site_label
 _atom_site_symmetry_multiplicity
 _atom_site_fract_x
 _atom_site_fract_y
 _atom_site_fract_z
 _atom_site_occupancy
  Li  Li0  1  0.089646  0.309742  0.556292  1
  Li  Li1  1  0.781203  0.684357  0.938702  1
  Li  Li2  1  0.910295  0.688591  0.448272  1
  Li  Li3  1  0.315643  0.218797  0.438702  1
  Li  Li4  1  0.311409  0.089705  0.948272  1
  Li  Li5  1  0.218001  0.910517  0.557746  1
  Li  Li6  1  0.919955  0.209958  0.946241  1
  Li  Li7  1  0.337262  0.662051  0.876948  1
  Li  Li8  1  0.337949  0.662738  0.376948  1
  Li  Li9  1  0.690258  0.910354  0.056292  1
  Li  Li10  1  0.790042  0.080045  0.446241  1
  Li  Li11  1  0.089483  0.781999  0.057746  1
  Bi  Bi12  1  0.570078  0.568712  0.740615  1
  Bi  Bi13  1  0.431288  0.429922  0.240615  1
  Bi  Bi14  1  0.993379  0.565749  0.247318  1
  Bi  Bi15  1  0.994337  0.427722  0.749616  1
  Bi  Bi16  1  0.434251  0.006621  0.747318  1
  Bi  Bi17  1  0.572278  0.005663  0.249616  1
  P  P18  1  0.230160  0.905904  0.346110  1
  P  P19  1  0.308856  0.080687  0.160105  1
  P  P20  1  0.665397  0.331642  0.391739  1
  P  P21  1  0.668358  0.334603  0.891739  1
  P  P22  1  0.306960  0.230107  0.651118  1
  P  P23  1  0.919313  0.691144  0.660105  1
  P  P24  1  0.229195  0.314807  0.838253  1
  P  P25  1  0.090513  0.317608  0.342967  1
  P  P26  1  0.685193  0.770805  0.338253  1
  P  P27  1  0.325732  0.667848  0.611599  1
  P  P28  1  0.332152  0.674268  0.111599  1
  P  P29  1  0.682392  0.909487  0.842967  1
  P  P30  1  0.771366  0.082346  0.656217  1
  P  P31  1  0.094096  0.769840  0.846110  1
  P  P32  1  0.917654  0.228634  0.156217  1
  P  P33  1  0.769893  0.693040  0.151118  1
  O  O34  1  0.652524  0.127047  0.673561  1
  O  O35  1  0.655320  0.528305  0.171139  1
  O  O36  1  0.927004  0.709277  0.152213  1
  O  O37  1  0.992846  0.738057  0.929095  1
  O  O38  1  0.779264  0.706441  0.655990  1
  O  O39  1  0.770131  0.741106  0.411176  1
  O  O40  1  0.208528  0.237069  0.735641  1
  O  O41  1  0.244261  0.254235  0.560843  1
  O  O42  1  0.237434  0.313188  0.349028  1
  O  O43  1  0.005321  0.223922  0.250651  1
  O  O44  1  0.006158  0.247299  0.070224  1
  O  O45  1  0.077522  0.308199  0.851833  1
  O  O46  1  0.349556  0.482296  0.826341  1
  O  O47  1  0.317128  0.530851  0.157456  1
  O  O48  1  0.745765  0.755739  0.060843  1
  O  O49  1  0.517704  0.650444  0.326341  1
  O  O50  1  0.762931  0.791472  0.235641  1
  O  O51  1  0.132130  0.482943  0.328819  1
  O  O52  1  0.183333  0.516293  0.641441  1
  O  O53  1  0.686812  0.762566  0.849028  1
  O  O54  1  0.469149  0.682872  0.657456  1
  O  O55  1  0.331084  0.665551  0.505842  1
  O  O56  1  0.334449  0.668916  0.005842  1
  O  O57  1  0.483707  0.816667  0.141441  1
  O  O58  1  0.691801  0.922478  0.351833  1
  O  O59  1  0.139356  0.649776  0.828894  1
  O  O60  1  0.193709  0.688277  0.141920  1
  O  O61  1  0.776078  0.994679  0.750651  1
  O  O62  1  0.517057  0.867870  0.828819  1
  O  O63  1  0.752701  0.993842  0.570224  1
  O  O64  1  0.755219  0.004935  0.928170  1
  O  O65  1  0.311723  0.806291  0.641920  1
  O  O66  1  0.771570  0.073390  0.153439  1
  O  O67  1  0.350224  0.860644  0.328894  1
  O  O68  1  0.078365  0.761139  0.356498  1
  O  O69  1  0.995065  0.244781  0.428170  1
  O  O70  1  0.011953  0.758886  0.573272  1
  O  O71  1  0.926610  0.228430  0.653439  1
  O  O72  1  0.014534  0.784252  0.751765  1
  O  O73  1  0.471695  0.344680  0.671139  1
  O  O74  1  0.238861  0.921635  0.856498  1
  O  O75  1  0.676965  0.192726  0.361197  1
  O  O76  1  0.241114  0.988047  0.073272  1
  O  O77  1  0.261943  0.007154  0.429095  1
  O  O78  1  0.215748  0.985466  0.251765  1
  O  O79  1  0.473797  0.128344  0.177275  1
  O  O80  1  0.872953  0.347476  0.173561  1
  O  O81  1  0.807274  0.323035  0.861197  1
  O  O82  1  0.290723  0.072996  0.652213  1
  O  O83  1  0.519986  0.193262  0.859698  1
  O  O84  1  0.665499  0.334186  0.498839  1
  O  O85  1  0.678659  0.482757  0.856278  1
  O  O86  1  0.517243  0.321341  0.356278  1
  O  O87  1  0.293559  0.220736  0.155990  1
  O  O88  1  0.806738  0.480014  0.359698  1
  O  O89  1  0.871656  0.526203  0.677275  1
  O  O90  1  0.258894  0.229869  0.911176  1
  O  O91  1  0.665814  0.334501  0.998839  1
