# generated using pymatgen
data_GdGa
_symmetry_space_group_name_H-M   'P 1'
_cell_length_a   5.95426686
_cell_length_b   5.95426686
_cell_length_c   4.14271174
_cell_angle_alpha   90.00000000
_cell_angle_beta   90.00000000
_cell_angle_gamma   137.04583756
_symmetry_Int_Tables_number   1
_chemical_formula_structural   GdGa
_chemical_formula_sum   'Gd2 Ga2'
_cell_volume   100.08102607
_cell_formula_units_Z   2
loop_
 _symmetry_equiv_pos_site_id
 _symmetry_equiv_pos_as_xyz
  1  'x, y, z'
loop_
 _atom_site_type_symbol
 _atom_site_label
 _atom_site_symmetry_multiplicity
 _atom_site_fract_x
 _atom_site_fract_y
 _atom_site_fract_z
 _atom_site_occupancy
  Gd  Gd0  1  0.859363  0.140637  0.750000  1
  Gd  Gd1  1  0.140637  0.859363  0.250000  1
  Ga  Ga2  1  0.573021  0.426979  0.750000  1
  Ga  Ga3  1  0.426979  0.573021  0.250000  1
