# generated using pymatgen
data_Zr2P
_symmetry_space_group_name_H-M   'P 1'
_cell_length_a   17.63674016
_cell_length_b   17.63674016
_cell_length_c   3.63772164
_cell_angle_alpha   90.00000000
_cell_angle_beta   90.00000000
_cell_angle_gamma   114.22060498
_symmetry_Int_Tables_number   1
_chemical_formula_structural   Zr2P
_chemical_formula_sum   'Zr36 P18'
_cell_volume   1031.92445675
_cell_formula_units_Z   18
loop_
 _symmetry_equiv_pos_site_id
 _symmetry_equiv_pos_as_xyz
  1  'x, y, z'
loop_
 _atom_site_type_symbol
 _atom_site_label
 _atom_site_symmetry_multiplicity
 _atom_site_fract_x
 _atom_site_fract_y
 _atom_site_fract_z
 _atom_site_occupancy
  Zr  Zr0  1  0.461786  0.699316  1.000000  1
  Zr  Zr1  1  0.538214  0.300684  0.000000  1
  Zr  Zr2  1  0.250609  0.250609  0.500000  1
  Zr  Zr3  1  0.749391  0.749391  0.500000  1
  Zr  Zr4  1  0.106622  0.106622  1.000000  1
  Zr  Zr5  1  0.893378  0.893378  1.000000  1
  Zr  Zr6  1  0.384225  0.384225  1.000000  1
  Zr  Zr7  1  0.615775  0.615775  1.000000  1
  Zr  Zr8  1  0.942179  0.057821  0.500000  1
  Zr  Zr9  1  0.057821  0.942179  0.500000  1
  Zr  Zr10  1  0.692414  0.307586  0.500000  1
  Zr  Zr11  1  0.307586  0.692414  0.500000  1
  Zr  Zr12  1  0.552206  0.447794  0.500000  1
  Zr  Zr13  1  0.447794  0.552206  0.500000  1
  Zr  Zr14  1  0.778855  0.221145  0.000000  1
  Zr  Zr15  1  0.221145  0.778855  0.000000  1
  Zr  Zr16  1  0.000000  0.500000  0.000000  1
  Zr  Zr17  1  0.500000  0.000000  0.000000  1
  Zr  Zr18  1  0.300684  0.538214  1.000000  1
  Zr  Zr19  1  0.699316  0.461786  0.000000  1
  Zr  Zr20  1  0.789128  0.031577  0.000000  1
  Zr  Zr21  1  0.210872  0.968423  1.000000  1
  Zr  Zr22  1  0.031577  0.789128  0.000000  1
  Zr  Zr23  1  0.968423  0.210872  0.000000  1
  Zr  Zr24  1  0.669410  0.834710  1.000000  1
  Zr  Zr25  1  0.330590  0.165290  1.000000  1
  Zr  Zr26  1  0.834710  0.669410  1.000000  1
  Zr  Zr27  1  0.165290  0.330590  1.000000  1
  Zr  Zr28  1  0.481362  0.141254  0.500000  1
  Zr  Zr29  1  0.518638  0.858746  0.500000  1
  Zr  Zr30  1  0.141254  0.481362  0.500000  1
  Zr  Zr31  1  0.858746  0.518638  0.500000  1
  Zr  Zr32  1  0.654292  0.085991  0.500000  1
  Zr  Zr33  1  0.345708  0.914009  0.500000  1
  Zr  Zr34  1  0.085991  0.654292  0.500000  1
  Zr  Zr35  1  0.914009  0.345708  0.500000  1
  P  P36  1  0.155300  0.844700  0.500000  1
  P  P37  1  0.844700  0.155300  0.500000  1
  P  P38  1  0.608229  0.178005  0.000000  1
  P  P39  1  0.391771  0.821995  1.000000  1
  P  P40  1  0.178005  0.608229  1.000000  1
  P  P41  1  0.821995  0.391771  0.000000  1
  P  P42  1  0.627251  0.961022  1.000000  1
  P  P43  1  0.372749  0.038978  0.000000  1
  P  P44  1  0.961022  0.627251  0.000000  1
  P  P45  1  0.038978  0.372749  1.000000  1
  P  P46  1  0.580590  0.718425  0.500000  1
  P  P47  1  0.419410  0.281575  0.500000  1
  P  P48  1  0.718425  0.580590  0.500000  1
  P  P49  1  0.281575  0.419410  0.500000  1
  P  P50  1  0.792009  0.918216  0.500000  1
  P  P51  1  0.207991  0.081784  0.500000  1
  P  P52  1  0.918216  0.792009  0.500000  1
  P  P53  1  0.081784  0.207991  0.500000  1
