# generated using pymatgen
data_Rb2TeI6
_symmetry_space_group_name_H-M   'P 1'
_cell_length_a   8.25024141
_cell_length_b   8.25024141
_cell_length_c   12.41227576
_cell_angle_alpha   90.00000000
_cell_angle_beta   90.00000000
_cell_angle_gamma   90.00000000
_symmetry_Int_Tables_number   1
_chemical_formula_structural   Rb2TeI6
_chemical_formula_sum   'Rb4 Te2 I12'
_cell_volume   844.85996102
_cell_formula_units_Z   2
loop_
 _symmetry_equiv_pos_site_id
 _symmetry_equiv_pos_as_xyz
  1  'x, y, z'
loop_
 _atom_site_type_symbol
 _atom_site_label
 _atom_site_symmetry_multiplicity
 _atom_site_fract_x
 _atom_site_fract_y
 _atom_site_fract_z
 _atom_site_occupancy
  Rb  Rb0  1  0.000000  0.500000  0.250000  1
  Rb  Rb1  1  0.500000  0.000000  0.250000  1
  Rb  Rb2  1  0.000000  0.500000  0.750000  1
  Rb  Rb3  1  0.500000  0.000000  0.750000  1
  Te  Te4  1  0.000000  0.000000  0.000000  1
  Te  Te5  1  0.500000  0.500000  0.500000  1
  I  I6  1  0.000000  0.000000  0.240045  1
  I  I7  1  0.500000  0.500000  0.259954  1
  I  I8  1  0.000000  0.000000  0.759954  1
  I  I9  1  0.500000  0.500000  0.740046  1
  I  I10  1  0.201833  0.299044  0.000000  1
  I  I11  1  0.700956  0.201833  0.000000  1
  I  I12  1  0.299044  0.798167  0.000000  1
  I  I13  1  0.701833  0.200956  0.500000  1
  I  I14  1  0.298167  0.799044  0.500000  1
  I  I15  1  0.798167  0.700956  0.000000  1
  I  I16  1  0.799044  0.701833  0.500000  1
  I  I17  1  0.200956  0.298167  0.500000  1
