# generated using pymatgen
data_Mn5C2
_symmetry_space_group_name_H-M   'P 1'
_cell_length_a   6.22786209
_cell_length_b   6.22786209
_cell_length_c   4.99743260
_cell_angle_alpha   83.07919412
_cell_angle_beta   96.92080588
_cell_angle_gamma   137.89417024
_symmetry_Int_Tables_number   1
_chemical_formula_structural   Mn5C2
_chemical_formula_sum   'Mn10 C4'
_cell_volume   128.87673009
_cell_formula_units_Z   2
loop_
 _symmetry_equiv_pos_site_id
 _symmetry_equiv_pos_as_xyz
  1  'x, y, z'
loop_
 _atom_site_type_symbol
 _atom_site_label
 _atom_site_symmetry_multiplicity
 _atom_site_fract_x
 _atom_site_fract_y
 _atom_site_fract_z
 _atom_site_occupancy
  Mn  Mn0  1  0.626098  0.193267  0.306540  1
  Mn  Mn1  1  0.193267  0.626098  0.193460  1
  Mn  Mn2  1  0.373902  0.806733  0.693460  1
  Mn  Mn3  1  0.806733  0.373902  0.806540  1
  Mn  Mn4  1  0.430608  0.430608  0.250000  1
  Mn  Mn5  1  0.569392  0.569392  0.750000  1
  Mn  Mn6  1  0.189139  0.988228  0.919226  1
  Mn  Mn7  1  0.988228  0.189139  0.580774  1
  Mn  Mn8  1  0.810861  0.011772  0.080774  1
  Mn  Mn9  1  0.011772  0.810861  0.419226  1
  C  C10  1  0.430164  0.203684  0.578616  1
  C  C11  1  0.203684  0.430164  0.921384  1
  C  C12  1  0.569836  0.796316  0.421384  1
  C  C13  1  0.796316  0.569836  0.078616  1
