# generated using pymatgen
data_CsBr3
_symmetry_space_group_name_H-M   'P 1'
_cell_length_a   6.87108377
_cell_length_b   9.86817075
_cell_length_c   10.27733698
_cell_angle_alpha   90.00000000
_cell_angle_beta   90.00000000
_cell_angle_gamma   90.00000000
_symmetry_Int_Tables_number   1
_chemical_formula_structural   CsBr3
_chemical_formula_sum   'Cs4 Br12'
_cell_volume   696.85512046
_cell_formula_units_Z   4
loop_
 _symmetry_equiv_pos_site_id
 _symmetry_equiv_pos_as_xyz
  1  'x, y, z'
loop_
 _atom_site_type_symbol
 _atom_site_label
 _atom_site_symmetry_multiplicity
 _atom_site_fract_x
 _atom_site_fract_y
 _atom_site_fract_z
 _atom_site_occupancy
  Cs  Cs0  1  0.250000  0.042401  0.685004  1
  Cs  Cs1  1  0.750000  0.957599  0.314996  1
  Cs  Cs2  1  0.750000  0.542401  0.814996  1
  Cs  Cs3  1  0.250000  0.457599  0.185004  1
  Br  Br4  1  0.250000  0.765873  0.943117  1
  Br  Br5  1  0.750000  0.234127  0.056883  1
  Br  Br6  1  0.750000  0.265873  0.556883  1
  Br  Br7  1  0.250000  0.734127  0.443117  1
  Br  Br8  1  0.250000  0.387732  0.821806  1
  Br  Br9  1  0.750000  0.612268  0.178194  1
  Br  Br10  1  0.750000  0.887732  0.678194  1
  Br  Br11  1  0.250000  0.112268  0.321806  1
  Br  Br12  1  0.250000  0.563974  0.626554  1
  Br  Br13  1  0.750000  0.436026  0.373446  1
  Br  Br14  1  0.750000  0.063974  0.873446  1
  Br  Br15  1  0.250000  0.936026  0.126554  1
