# generated using pymatgen
data_RbHF2
_symmetry_space_group_name_H-M   'P 1'
_cell_length_a   5.59664443
_cell_length_b   5.59664443
_cell_length_c   5.59664443
_cell_angle_alpha   115.50622041
_cell_angle_beta   115.50622041
_cell_angle_gamma   97.97736214
_symmetry_Int_Tables_number   1
_chemical_formula_structural   RbHF2
_chemical_formula_sum   'Rb2 H2 F4'
_cell_volume   130.99818269
_cell_formula_units_Z   2
loop_
 _symmetry_equiv_pos_site_id
 _symmetry_equiv_pos_as_xyz
  1  'x, y, z'
loop_
 _atom_site_type_symbol
 _atom_site_label
 _atom_site_symmetry_multiplicity
 _atom_site_fract_x
 _atom_site_fract_y
 _atom_site_fract_z
 _atom_site_occupancy
  Rb  Rb0  1  0.750000  0.750000  0.000000  1
  Rb  Rb1  1  0.250000  0.250000  0.000000  1
  H  H2  1  0.000000  0.500000  0.500000  1
  H  H3  1  0.500000  1.000000  0.500000  1
  F  F4  1  0.863553  0.636447  0.500000  1
  F  F5  1  0.636447  0.136447  0.772895  1
  F  F6  1  0.136447  0.363553  0.500000  1
  F  F7  1  0.363553  0.863553  0.227105  1
