# generated using pymatgen
data_MnTl2H2OF5
_symmetry_space_group_name_H-M   'P 1'
_cell_length_a   6.36145802
_cell_length_b   6.36145802
_cell_length_c   8.54387282
_cell_angle_alpha   90.00000000
_cell_angle_beta   90.00000000
_cell_angle_gamma   102.56919682
_symmetry_Int_Tables_number   1
_chemical_formula_structural   MnTl2H2OF5
_chemical_formula_sum   'Mn2 Tl4 H4 O2 F10'
_cell_volume   337.46831793
_cell_formula_units_Z   2
loop_
 _symmetry_equiv_pos_site_id
 _symmetry_equiv_pos_as_xyz
  1  'x, y, z'
loop_
 _atom_site_type_symbol
 _atom_site_label
 _atom_site_symmetry_multiplicity
 _atom_site_fract_x
 _atom_site_fract_y
 _atom_site_fract_z
 _atom_site_occupancy
  Mn  Mn0  1  0.000000  0.000000  0.500000  1
  Mn  Mn1  1  0.000000  0.000000  0.000000  1
  Tl  Tl2  1  0.496019  0.900937  0.750000  1
  Tl  Tl3  1  0.503981  0.099063  0.250000  1
  Tl  Tl4  1  0.900937  0.496019  0.750000  1
  Tl  Tl5  1  0.099063  0.503981  0.250000  1
  H  H6  1  0.374131  0.374131  0.842828  1
  H  H7  1  0.625869  0.625869  0.342828  1
  H  H8  1  0.374131  0.374131  0.657172  1
  H  H9  1  0.625869  0.625869  0.157172  1
  O  O10  1  0.449204  0.449204  0.750000  1
  O  O11  1  0.550796  0.550796  0.250000  1
  F  F12  1  0.005540  0.005540  0.250000  1
  F  F13  1  0.994460  0.994460  0.750000  1
  F  F14  1  0.809156  0.190844  0.000000  1
  F  F15  1  0.190844  0.809156  0.500000  1
  F  F16  1  0.190844  0.809156  0.000000  1
  F  F17  1  0.809156  0.190844  0.500000  1
  F  F18  1  0.241316  0.241316  0.000643  1
  F  F19  1  0.758684  0.758684  0.500643  1
  F  F20  1  0.241316  0.241316  0.499357  1
  F  F21  1  0.758684  0.758684  0.999357  1
