# generated using pymatgen
data_Sm2O3
_symmetry_space_group_name_H-M   'P 1'
_cell_length_a   9.52588675
_cell_length_b   9.52588675
_cell_length_c   9.52588675
_cell_angle_alpha   109.47122063
_cell_angle_beta   109.47122063
_cell_angle_gamma   109.47122063
_symmetry_Int_Tables_number   1
_chemical_formula_structural   Sm2O3
_chemical_formula_sum   'Sm16 O24'
_cell_volume   665.41770389
_cell_formula_units_Z   8
loop_
 _symmetry_equiv_pos_site_id
 _symmetry_equiv_pos_as_xyz
  1  'x, y, z'
loop_
 _atom_site_type_symbol
 _atom_site_label
 _atom_site_symmetry_multiplicity
 _atom_site_fract_x
 _atom_site_fract_y
 _atom_site_fract_z
 _atom_site_occupancy
  Sm  Sm0  1  0.500000  0.500000  0.500000  1
  Sm  Sm1  1  0.000000  0.000000  0.500000  1
  Sm  Sm2  1  0.500000  0.000000  1.000000  1
  Sm  Sm3  1  0.000000  0.500000  0.000000  1
  Sm  Sm4  1  0.250000  0.218637  0.968637  1
  Sm  Sm5  1  0.281363  0.531363  0.750000  1
  Sm  Sm6  1  0.531363  0.750000  0.281363  1
  Sm  Sm7  1  0.218637  0.968637  0.250000  1
  Sm  Sm8  1  0.968637  0.250000  0.218637  1
  Sm  Sm9  1  0.750000  0.281363  0.531363  1
  Sm  Sm10  1  0.750000  0.781363  0.031363  1
  Sm  Sm11  1  0.718637  0.468637  0.250000  1
  Sm  Sm12  1  0.468637  0.250000  0.718637  1
  Sm  Sm13  1  0.781363  0.031363  0.750000  1
  Sm  Sm14  1  0.031363  0.750000  0.781363  1
  Sm  Sm15  1  0.250000  0.718637  0.468637  1
  O  O16  1  0.529062  0.769675  0.540997  1
  O  O17  1  0.988065  0.959003  0.728678  1
  O  O18  1  0.259387  0.771322  0.730325  1
  O  O19  1  0.511935  0.240613  0.970938  1
  O  O20  1  0.959003  0.728678  0.988065  1
  O  O21  1  0.730325  0.259387  0.771322  1
  O  O22  1  0.240613  0.970938  0.511935  1
  O  O23  1  0.540997  0.529062  0.769675  1
  O  O24  1  0.769675  0.540997  0.529062  1
  O  O25  1  0.728678  0.988065  0.959003  1
  O  O26  1  0.771322  0.730325  0.259387  1
  O  O27  1  0.970938  0.511935  0.240613  1
  O  O28  1  0.470938  0.230325  0.459003  1
  O  O29  1  0.011935  0.040997  0.271322  1
  O  O30  1  0.740613  0.228678  0.269675  1
  O  O31  1  0.488065  0.759387  0.029062  1
  O  O32  1  0.040997  0.271322  0.011935  1
  O  O33  1  0.269675  0.740613  0.228678  1
  O  O34  1  0.759387  0.029062  0.488065  1
  O  O35  1  0.459003  0.470938  0.230325  1
  O  O36  1  0.230325  0.459003  0.470938  1
  O  O37  1  0.271322  0.011935  0.040997  1
  O  O38  1  0.228678  0.269675  0.740613  1
  O  O39  1  0.029062  0.488065  0.759387  1
