# generated using pymatgen
data_Na3FePCO7
_symmetry_space_group_name_H-M   'P 1'
_cell_length_a   5.21795069
_cell_length_b   6.68129194
_cell_length_c   9.08663520
_cell_angle_alpha   90.00000000
_cell_angle_beta   90.61207021
_cell_angle_gamma   90.00000000
_symmetry_Int_Tables_number   1
_chemical_formula_structural   Na3FePCO7
_chemical_formula_sum   'Na6 Fe2 P2 C2 O14'
_cell_volume   316.76612479
_cell_formula_units_Z   2
loop_
 _symmetry_equiv_pos_site_id
 _symmetry_equiv_pos_as_xyz
  1  'x, y, z'
loop_
 _atom_site_type_symbol
 _atom_site_label
 _atom_site_symmetry_multiplicity
 _atom_site_fract_x
 _atom_site_fract_y
 _atom_site_fract_z
 _atom_site_occupancy
  Na  Na0  1  0.250844  0.496063  0.737891  1
  Na  Na1  1  0.749156  0.996063  0.262109  1
  Na  Na2  1  0.749156  0.503937  0.262109  1
  Na  Na3  1  0.250844  0.003937  0.737891  1
  Na  Na4  1  0.233779  0.750000  0.083476  1
  Na  Na5  1  0.766221  0.250000  0.916524  1
  Fe  Fe6  1  0.218093  0.250000  0.354257  1
  Fe  Fe7  1  0.781907  0.750000  0.645743  1
  P  P8  1  0.297704  0.750000  0.416404  1
  P  P9  1  0.702296  0.250000  0.583596  1
  C  C10  1  0.271791  0.250000  0.062422  1
  C  C11  1  0.728209  0.750000  0.937578  1
  O  O12  1  0.047363  0.250000  0.124380  1
  O  O13  1  0.952637  0.750000  0.875620  1
  O  O14  1  0.476644  0.250000  0.145731  1
  O  O15  1  0.523356  0.750000  0.854269  1
  O  O16  1  0.290229  0.250000  0.920051  1
  O  O17  1  0.709771  0.750000  0.079949  1
  O  O18  1  0.217952  0.936163  0.322133  1
  O  O19  1  0.782048  0.436163  0.677867  1
  O  O20  1  0.782048  0.063837  0.677867  1
  O  O21  1  0.217952  0.563837  0.322133  1
  O  O22  1  0.168751  0.750000  0.568440  1
  O  O23  1  0.831249  0.250000  0.431560  1
  O  O24  1  0.404793  0.250000  0.562473  1
  O  O25  1  0.595207  0.750000  0.437527  1
