# generated using pymatgen
data_TbSbRh
_symmetry_space_group_name_H-M   'P 1'
_cell_length_a   4.57451158
_cell_length_b   7.20177916
_cell_length_c   7.88180643
_cell_angle_alpha   90.00000000
_cell_angle_beta   90.00000000
_cell_angle_gamma   90.00000000
_symmetry_Int_Tables_number   1
_chemical_formula_structural   TbSbRh
_chemical_formula_sum   'Tb4 Sb4 Rh4'
_cell_volume   259.66313481
_cell_formula_units_Z   4
loop_
 _symmetry_equiv_pos_site_id
 _symmetry_equiv_pos_as_xyz
  1  'x, y, z'
loop_
 _atom_site_type_symbol
 _atom_site_label
 _atom_site_symmetry_multiplicity
 _atom_site_fract_x
 _atom_site_fract_y
 _atom_site_fract_z
 _atom_site_occupancy
  Tb  Tb0  1  0.250000  0.508075  0.202276  1
  Tb  Tb1  1  0.750000  0.491925  0.797724  1
  Tb  Tb2  1  0.250000  0.008075  0.297724  1
  Tb  Tb3  1  0.750000  0.991925  0.702276  1
  Sb  Sb4  1  0.250000  0.195462  0.908436  1
  Sb  Sb5  1  0.750000  0.304538  0.408436  1
  Sb  Sb6  1  0.250000  0.695462  0.591564  1
  Sb  Sb7  1  0.750000  0.804538  0.091564  1
  Rh  Rh8  1  0.750000  0.194419  0.081925  1
  Rh  Rh9  1  0.250000  0.305581  0.581925  1
  Rh  Rh10  1  0.750000  0.694419  0.418075  1
  Rh  Rh11  1  0.250000  0.805581  0.918075  1
