# generated using pymatgen
data_K2Cu2Te5
_symmetry_space_group_name_H-M   'P 1'
_cell_length_a   6.95441064
_cell_length_b   6.95441064
_cell_length_c   12.18505935
_cell_angle_alpha   90.00000000
_cell_angle_beta   90.00000000
_cell_angle_gamma   112.24079818
_symmetry_Int_Tables_number   1
_chemical_formula_structural   K2Cu2Te5
_chemical_formula_sum   'K4 Cu4 Te10'
_cell_volume   545.47175679
_cell_formula_units_Z   2
loop_
 _symmetry_equiv_pos_site_id
 _symmetry_equiv_pos_as_xyz
  1  'x, y, z'
loop_
 _atom_site_type_symbol
 _atom_site_label
 _atom_site_symmetry_multiplicity
 _atom_site_fract_x
 _atom_site_fract_y
 _atom_site_fract_z
 _atom_site_occupancy
  K  K0  1  0.796055  0.203945  0.000000  1
  K  K1  1  0.203945  0.796055  1.000000  1
  K  K2  1  0.203945  0.796055  0.500000  1
  K  K3  1  0.796055  0.203945  0.500000  1
  Cu  Cu4  1  0.462165  0.684297  0.750000  1
  Cu  Cu5  1  0.315703  0.537835  0.250000  1
  Cu  Cu6  1  0.537835  0.315703  0.250000  1
  Cu  Cu7  1  0.684297  0.462165  0.750000  1
  Te  Te8  1  0.346308  0.346308  0.433610  1
  Te  Te9  1  0.063547  0.449610  0.750000  1
  Te  Te10  1  0.449610  0.063547  0.750000  1
  Te  Te11  1  0.550390  0.936453  0.250000  1
  Te  Te12  1  0.024848  0.024848  0.750000  1
  Te  Te13  1  0.975152  0.975152  0.250000  1
  Te  Te14  1  0.653692  0.653692  0.933610  1
  Te  Te15  1  0.346308  0.346308  0.066390  1
  Te  Te16  1  0.653692  0.653692  0.566390  1
  Te  Te17  1  0.936453  0.550390  0.250000  1
