# generated using pymatgen
data_Cu3AsS4
_symmetry_space_group_name_H-M   'P 1'
_cell_length_a   5.30861979
_cell_length_b   5.30861979
_cell_length_c   5.30861979
_cell_angle_alpha   90.00000000
_cell_angle_beta   90.00000000
_cell_angle_gamma   90.00000000
_symmetry_Int_Tables_number   1
_chemical_formula_structural   Cu3AsS4
_chemical_formula_sum   'Cu3 As1 S4'
_cell_volume   149.60457173
_cell_formula_units_Z   1
loop_
 _symmetry_equiv_pos_site_id
 _symmetry_equiv_pos_as_xyz
  1  'x, y, z'
loop_
 _atom_site_type_symbol
 _atom_site_label
 _atom_site_symmetry_multiplicity
 _atom_site_fract_x
 _atom_site_fract_y
 _atom_site_fract_z
 _atom_site_occupancy
  Cu  Cu0  1  0.000000  0.500000  0.500000  1
  Cu  Cu1  1  0.500000  0.500000  0.000000  1
  Cu  Cu2  1  0.500000  0.000000  0.500000  1
  As  As3  1  0.000000  0.000000  0.000000  1
  S  S4  1  0.255316  0.744684  0.744684  1
  S  S5  1  0.744684  0.744684  0.255316  1
  S  S6  1  0.744684  0.255316  0.744684  1
  S  S7  1  0.255316  0.255316  0.255316  1
