# generated using pymatgen
data_La(SiP3)2
_symmetry_space_group_name_H-M   'P 1'
_cell_length_a   15.06258463
_cell_length_b   15.06258463
_cell_length_c   10.45976225
_cell_angle_alpha   90.00000000
_cell_angle_beta   90.00000000
_cell_angle_gamma   140.40850581
_symmetry_Int_Tables_number   1
_chemical_formula_structural   La(SiP3)2
_chemical_formula_sum   'La8 Si16 P48'
_cell_volume   1512.41602806
_cell_formula_units_Z   8
loop_
 _symmetry_equiv_pos_site_id
 _symmetry_equiv_pos_as_xyz
  1  'x, y, z'
loop_
 _atom_site_type_symbol
 _atom_site_label
 _atom_site_symmetry_multiplicity
 _atom_site_fract_x
 _atom_site_fract_y
 _atom_site_fract_z
 _atom_site_occupancy
  La  La0  1  0.458736  0.541264  0.424316  1
  La  La1  1  0.541264  0.458736  0.924316  1
  La  La2  1  0.734126  0.265874  0.385660  1
  La  La3  1  0.265874  0.734126  0.885660  1
  La  La4  1  0.810249  0.189751  0.904305  1
  La  La5  1  0.189751  0.810249  0.404305  1
  La  La6  1  0.918908  0.081092  0.499740  1
  La  La7  1  0.081092  0.918908  0.999740  1
  Si  Si8  1  0.580203  0.741384  0.822634  1
  Si  Si9  1  0.157444  0.487507  0.281594  1
  Si  Si10  1  0.842556  0.512493  0.781594  1
  Si  Si11  1  0.512493  0.842556  0.281594  1
  Si  Si12  1  0.487507  0.157444  0.781594  1
  Si  Si13  1  0.849885  0.493280  0.114902  1
  Si  Si14  1  0.150115  0.506720  0.614902  1
  Si  Si15  1  0.506720  0.150115  0.114902  1
  Si  Si16  1  0.493280  0.849885  0.614902  1
  Si  Si17  1  0.419797  0.258616  0.322634  1
  Si  Si18  1  0.258616  0.419797  0.822634  1
  Si  Si19  1  0.741384  0.580203  0.322634  1
  Si  Si20  1  0.237019  0.104209  0.641575  1
  Si  Si21  1  0.762981  0.895791  0.141575  1
  Si  Si22  1  0.895791  0.762981  0.641575  1
  Si  Si23  1  0.104209  0.237019  0.141575  1
  P  P24  1  0.931841  0.398461  0.614543  1
  P  P25  1  0.273191  0.726809  0.596755  1
  P  P26  1  0.726809  0.273191  0.096755  1
  P  P27  1  0.457799  0.542201  0.721722  1
  P  P28  1  0.542201  0.457799  0.221722  1
  P  P29  1  0.577557  0.422443  0.643778  1
  P  P30  1  0.422443  0.577557  0.143778  1
  P  P31  1  0.343877  0.656123  0.147034  1
  P  P32  1  0.300326  0.008724  0.646245  1
  P  P33  1  0.699674  0.991276  0.146245  1
  P  P34  1  0.991276  0.699674  0.646245  1
  P  P35  1  0.008724  0.300326  0.146245  1
  P  P36  1  0.229671  0.171059  0.828290  1
  P  P37  1  0.770329  0.828941  0.328290  1
  P  P38  1  0.828941  0.770329  0.828290  1
  P  P39  1  0.171059  0.229671  0.328290  1
  P  P40  1  0.547765  0.860902  0.822080  1
  P  P41  1  0.452235  0.139098  0.322080  1
  P  P42  1  0.139098  0.452235  0.822080  1
  P  P43  1  0.860902  0.547765  0.322080  1
  P  P44  1  0.534421  0.050160  0.811803  1
  P  P45  1  0.465579  0.949840  0.311803  1
  P  P46  1  0.949840  0.465579  0.811803  1
  P  P47  1  0.050160  0.534421  0.311803  1
  P  P48  1  0.415651  0.170779  0.962990  1
  P  P49  1  0.584349  0.829221  0.462990  1
  P  P50  1  0.829221  0.584349  0.962990  1
  P  P51  1  0.170779  0.415651  0.462990  1
  P  P52  1  0.601539  0.068159  0.614543  1
  P  P53  1  0.398461  0.931841  0.114543  1
  P  P54  1  0.656123  0.343877  0.647034  1
  P  P55  1  0.068159  0.601539  0.114543  1
  P  P56  1  0.798359  0.882239  0.747075  1
  P  P57  1  0.201641  0.117761  0.247075  1
  P  P58  1  0.117761  0.201641  0.747075  1
  P  P59  1  0.882239  0.798359  0.247075  1
  P  P60  1  0.393796  0.299797  0.521153  1
  P  P61  1  0.606204  0.700203  0.021153  1
  P  P62  1  0.817623  0.182377  0.620812  1
  P  P63  1  0.299797  0.393796  0.021153  1
  P  P64  1  0.030972  0.969028  0.537390  1
  P  P65  1  0.969028  0.030972  0.037390  1
  P  P66  1  0.074845  0.925155  0.361058  1
  P  P67  1  0.925155  0.074845  0.861058  1
  P  P68  1  0.154729  0.845271  0.792290  1
  P  P69  1  0.845271  0.154729  0.292290  1
  P  P70  1  0.182377  0.817623  0.120812  1
  P  P71  1  0.700203  0.606204  0.521153  1
