# generated using pymatgen
data_Na2PdCl4
_symmetry_space_group_name_H-M   'P 1'
_cell_length_a   9.69582317
_cell_length_b   9.69582317
_cell_length_c   7.68433072
_cell_angle_alpha   90.00000000
_cell_angle_beta   90.00000000
_cell_angle_gamma   90.00000000
_symmetry_Int_Tables_number   1
_chemical_formula_structural   Na2PdCl4
_chemical_formula_sum   'Na8 Pd4 Cl16'
_cell_volume   722.39614633
_cell_formula_units_Z   4
loop_
 _symmetry_equiv_pos_site_id
 _symmetry_equiv_pos_as_xyz
  1  'x, y, z'
loop_
 _atom_site_type_symbol
 _atom_site_label
 _atom_site_symmetry_multiplicity
 _atom_site_fract_x
 _atom_site_fract_y
 _atom_site_fract_z
 _atom_site_occupancy
  Na  Na0  1  0.306049  0.693951  0.250000  1
  Na  Na1  1  0.193951  0.193951  0.250000  1
  Na  Na2  1  0.806049  0.806049  0.250000  1
  Na  Na3  1  0.693951  0.306049  0.250000  1
  Na  Na4  1  0.193951  0.806049  0.750000  1
  Na  Na5  1  0.306049  0.306049  0.750000  1
  Na  Na6  1  0.693951  0.693951  0.750000  1
  Na  Na7  1  0.806049  0.193951  0.750000  1
  Pd  Pd8  1  0.500000  0.000000  0.064849  1
  Pd  Pd9  1  0.500000  0.000000  0.564849  1
  Pd  Pd10  1  0.000000  0.500000  0.935151  1
  Pd  Pd11  1  0.000000  0.500000  0.435151  1
  Cl  Cl12  1  0.445740  0.765118  0.568884  1
  Cl  Cl13  1  0.265118  0.054260  0.568884  1
  Cl  Cl14  1  0.734882  0.945740  0.568884  1
  Cl  Cl15  1  0.734882  0.054260  0.068884  1
  Cl  Cl16  1  0.554260  0.765118  0.068884  1
  Cl  Cl17  1  0.265118  0.945740  0.068884  1
  Cl  Cl18  1  0.765118  0.554260  0.431116  1
  Cl  Cl19  1  0.445740  0.234882  0.068884  1
  Cl  Cl20  1  0.945740  0.265118  0.431116  1
  Cl  Cl21  1  0.054260  0.734882  0.431116  1
  Cl  Cl22  1  0.054260  0.265118  0.931116  1
  Cl  Cl23  1  0.234882  0.445740  0.431116  1
  Cl  Cl24  1  0.945740  0.734882  0.931116  1
  Cl  Cl25  1  0.234882  0.554260  0.931116  1
  Cl  Cl26  1  0.765118  0.445740  0.931116  1
  Cl  Cl27  1  0.554260  0.234882  0.568884  1
