# generated using pymatgen
data_Na14Cd2O9
_symmetry_space_group_name_H-M   'P 1'
_cell_length_a   6.84969540
_cell_length_b   6.84969540
_cell_length_c   9.52121249
_cell_angle_alpha   90.00000000
_cell_angle_beta   90.00000000
_cell_angle_gamma   120.00000000
_symmetry_Int_Tables_number   1
_chemical_formula_structural   Na14Cd2O9
_chemical_formula_sum   'Na14 Cd2 O9'
_cell_volume   386.87031610
_cell_formula_units_Z   1
loop_
 _symmetry_equiv_pos_site_id
 _symmetry_equiv_pos_as_xyz
  1  'x, y, z'
loop_
 _atom_site_type_symbol
 _atom_site_label
 _atom_site_symmetry_multiplicity
 _atom_site_fract_x
 _atom_site_fract_y
 _atom_site_fract_z
 _atom_site_occupancy
  Na  Na0  1  0.318304  0.359337  0.907827  1
  Na  Na1  1  0.958968  0.318304  0.092173  1
  Na  Na2  1  0.640663  0.958968  0.907827  1
  Na  Na3  1  0.687646  0.062899  0.409382  1
  Na  Na4  1  0.041032  0.681696  0.907827  1
  Na  Na5  1  0.000000  0.000000  0.252878  1
  Na  Na6  1  0.000000  0.000000  0.747122  1
  Na  Na7  1  0.681696  0.640663  0.092173  1
  Na  Na8  1  0.062899  0.375253  0.590618  1
  Na  Na9  1  0.375253  0.312354  0.409382  1
  Na  Na10  1  0.937101  0.624747  0.409382  1
  Na  Na11  1  0.312354  0.937101  0.590618  1
  Na  Na12  1  0.624747  0.687646  0.590618  1
  Na  Na13  1  0.359337  0.041032  0.092173  1
  Cd  Cd14  1  0.666667  0.333333  0.739516  1
  Cd  Cd15  1  0.333333  0.666667  0.260484  1
  O  O16  1  0.305352  0.961510  0.340251  1
  O  O17  1  0.656158  0.694648  0.340251  1
  O  O18  1  0.038490  0.343842  0.340251  1
  O  O19  1  0.694648  0.038490  0.659749  1
  O  O20  1  0.343842  0.305352  0.659749  1
  O  O21  1  0.961510  0.656158  0.659749  1
  O  O22  1  0.000000  0.000000  0.000000  1
  O  O23  1  0.666667  0.333333  0.975180  1
  O  O24  1  0.333333  0.666667  0.024820  1
