# generated using pymatgen
data_Ni3Se2
_symmetry_space_group_name_H-M   'P 1'
_cell_length_a   4.23470159
_cell_length_b   4.23470159
_cell_length_c   4.23470159
_cell_angle_alpha   90.72104593
_cell_angle_beta   90.72104593
_cell_angle_gamma   90.72104593
_symmetry_Int_Tables_number   1
_chemical_formula_structural   Ni3Se2
_chemical_formula_sum   'Ni3 Se2'
_cell_volume   75.92142998
_cell_formula_units_Z   1
loop_
 _symmetry_equiv_pos_site_id
 _symmetry_equiv_pos_as_xyz
  1  'x, y, z'
loop_
 _atom_site_type_symbol
 _atom_site_label
 _atom_site_symmetry_multiplicity
 _atom_site_fract_x
 _atom_site_fract_y
 _atom_site_fract_z
 _atom_site_occupancy
  Ni  Ni0  1  0.000000  0.752004  0.247996  1
  Ni  Ni1  1  0.752004  0.247996  1.000000  1
  Ni  Ni2  1  0.247996  0.000000  0.752004  1
  Se  Se3  1  0.258308  0.258308  0.258308  1
  Se  Se4  1  0.741692  0.741692  0.741692  1
