# generated using pymatgen
data_Gd4B3C4
_symmetry_space_group_name_H-M   'P 1'
_cell_length_a   3.61633677
_cell_length_b   3.66670830
_cell_length_c   12.00648866
_cell_angle_alpha   92.63756075
_cell_angle_beta   98.29641022
_cell_angle_gamma   90.18544652
_symmetry_Int_Tables_number   1
_chemical_formula_structural   Gd4B3C4
_chemical_formula_sum   'Gd4 B3 C4'
_cell_volume   157.36578837
_cell_formula_units_Z   1
loop_
 _symmetry_equiv_pos_site_id
 _symmetry_equiv_pos_as_xyz
  1  'x, y, z'
loop_
 _atom_site_type_symbol
 _atom_site_label
 _atom_site_symmetry_multiplicity
 _atom_site_fract_x
 _atom_site_fract_y
 _atom_site_fract_z
 _atom_site_occupancy
  Gd  Gd0  1  0.209130  0.976589  0.349209  1
  Gd  Gd1  1  0.790870  0.023411  0.650791  1
  Gd  Gd2  1  0.605616  0.445657  0.136566  1
  Gd  Gd3  1  0.394384  0.554343  0.863434  1
  B  B4  1  0.000000  0.000000  0.000000  1
  B  B5  1  0.793385  0.491924  0.454721  1
  B  B6  1  0.206615  0.508076  0.545279  1
  C  C7  1  0.097097  0.943484  0.121563  1
  C  C8  1  0.902903  0.056516  0.878437  1
  C  C9  1  0.702128  0.472207  0.330372  1
  C  C10  1  0.297872  0.527793  0.669628  1
