# generated using pymatgen
data_RbClO4
_symmetry_space_group_name_H-M   'P 1'
_cell_length_a   5.94071661
_cell_length_b   7.67259251
_cell_length_c   9.47295584
_cell_angle_alpha   90.00000000
_cell_angle_beta   90.00000000
_cell_angle_gamma   90.00000000
_symmetry_Int_Tables_number   1
_chemical_formula_structural   RbClO4
_chemical_formula_sum   'Rb4 Cl4 O16'
_cell_volume   431.78393709
_cell_formula_units_Z   4
loop_
 _symmetry_equiv_pos_site_id
 _symmetry_equiv_pos_as_xyz
  1  'x, y, z'
loop_
 _atom_site_type_symbol
 _atom_site_label
 _atom_site_symmetry_multiplicity
 _atom_site_fract_x
 _atom_site_fract_y
 _atom_site_fract_z
 _atom_site_occupancy
  Rb  Rb0  1  0.250000  0.837370  0.682925  1
  Rb  Rb1  1  0.750000  0.162630  0.317075  1
  Rb  Rb2  1  0.750000  0.337370  0.817075  1
  Rb  Rb3  1  0.250000  0.662630  0.182925  1
  Cl  Cl4  1  0.250000  0.308156  0.565913  1
  Cl  Cl5  1  0.750000  0.691844  0.434087  1
  Cl  Cl6  1  0.750000  0.808156  0.934087  1
  Cl  Cl7  1  0.250000  0.191844  0.065913  1
  O  O8  1  0.549080  0.802646  0.421424  1
  O  O9  1  0.049080  0.197354  0.578576  1
  O  O10  1  0.450920  0.302646  0.078576  1
  O  O11  1  0.950920  0.697354  0.921424  1
  O  O12  1  0.450920  0.197354  0.578576  1
  O  O13  1  0.950920  0.802646  0.421424  1
  O  O14  1  0.549080  0.697354  0.921424  1
  O  O15  1  0.049080  0.302646  0.078576  1
  O  O16  1  0.250000  0.105538  0.929265  1
  O  O17  1  0.750000  0.894462  0.070735  1
  O  O18  1  0.750000  0.605538  0.570735  1
  O  O19  1  0.250000  0.394462  0.429265  1
  O  O20  1  0.250000  0.063772  0.180180  1
  O  O21  1  0.750000  0.936228  0.819820  1
  O  O22  1  0.750000  0.563772  0.319820  1
  O  O23  1  0.250000  0.436228  0.680180  1
