# generated using pymatgen
data_Tl4Te3Pb
_symmetry_space_group_name_H-M   'P 1'
_cell_length_a   9.27207836
_cell_length_b   9.27207836
_cell_length_c   9.27207836
_cell_angle_alpha   121.95733795
_cell_angle_beta   121.95733795
_cell_angle_gamma   86.64195849
_symmetry_Int_Tables_number   1
_chemical_formula_structural   Tl4Te3Pb
_chemical_formula_sum   'Tl8 Te6 Pb2'
_cell_volume   545.96240835
_cell_formula_units_Z   2
loop_
 _symmetry_equiv_pos_site_id
 _symmetry_equiv_pos_as_xyz
  1  'x, y, z'
loop_
 _atom_site_type_symbol
 _atom_site_label
 _atom_site_symmetry_multiplicity
 _atom_site_fract_x
 _atom_site_fract_y
 _atom_site_fract_z
 _atom_site_occupancy
  Tl  Tl0  1  0.510771  0.010771  0.206386  1
  Tl  Tl1  1  0.195614  0.695614  0.206386  1
  Tl  Tl2  1  0.804386  0.304386  0.793614  1
  Tl  Tl3  1  0.304386  0.510771  0.500000  1
  Tl  Tl4  1  0.010771  0.804386  0.500000  1
  Tl  Tl5  1  0.695614  0.489229  0.500000  1
  Tl  Tl6  1  0.989229  0.195614  0.500000  1
  Tl  Tl7  1  0.489229  0.989229  0.793614  1
  Te  Te8  1  0.664315  0.835685  0.500000  1
  Te  Te9  1  0.164315  0.664315  0.828631  1
  Te  Te10  1  0.250000  0.250000  0.000000  1
  Te  Te11  1  0.750000  0.750000  0.000000  1
  Te  Te12  1  0.835685  0.335685  0.171369  1
  Te  Te13  1  0.335685  0.164315  0.500000  1
  Pb  Pb14  1  0.500000  0.500000  0.000000  1
  Pb  Pb15  1  0.000000  0.000000  0.000000  1
