# generated using pymatgen
data_K(V5S8)2
_symmetry_space_group_name_H-M   'P 1'
_cell_length_a   8.48001482
_cell_length_b   6.47140567
_cell_length_c   17.55674823
_cell_angle_alpha   90.00000000
_cell_angle_beta   104.33330148
_cell_angle_gamma   90.00000000
_symmetry_Int_Tables_number   1
_chemical_formula_structural   K(V5S8)2
_chemical_formula_sum   'K2 V20 S32'
_cell_volume   933.48152232
_cell_formula_units_Z   2
loop_
 _symmetry_equiv_pos_site_id
 _symmetry_equiv_pos_as_xyz
  1  'x, y, z'
loop_
 _atom_site_type_symbol
 _atom_site_label
 _atom_site_symmetry_multiplicity
 _atom_site_fract_x
 _atom_site_fract_y
 _atom_site_fract_z
 _atom_site_occupancy
  K  K0  1  0.000000  0.375190  0.250000  1
  K  K1  1  0.000000  0.624810  0.750000  1
  V  V2  1  0.858791  0.630544  0.959868  1
  V  V3  1  0.141209  0.630544  0.540132  1
  V  V4  1  0.861188  0.126915  0.960605  1
  V  V5  1  0.138812  0.126915  0.539395  1
  V  V6  1  0.858791  0.369456  0.459868  1
  V  V7  1  0.141209  0.369456  0.040132  1
  V  V8  1  0.861188  0.873085  0.460605  1
  V  V9  1  0.138812  0.873085  0.039395  1
  V  V10  1  0.505888  0.379438  0.102256  1
  V  V11  1  0.494112  0.379438  0.397744  1
  V  V12  1  0.504633  0.878406  0.102630  1
  V  V13  1  0.495367  0.878406  0.397370  1
  V  V14  1  0.505888  0.620562  0.602256  1
  V  V15  1  0.494112  0.620562  0.897744  1
  V  V16  1  0.504633  0.121594  0.602630  1
  V  V17  1  0.495367  0.121594  0.897370  1
  V  V18  1  0.500000  0.655336  0.250000  1
  V  V19  1  0.500000  0.103232  0.250000  1
  V  V20  1  0.500000  0.344664  0.750000  1
  V  V21  1  0.500000  0.896768  0.750000  1
  S  S22  1  0.327110  0.628431  0.677786  1
  S  S23  1  0.314167  0.879270  0.173537  1
  S  S24  1  0.994645  0.629713  0.088522  1
  S  S25  1  0.005355  0.629713  0.411478  1
  S  S26  1  0.995491  0.127568  0.089517  1
  S  S27  1  0.004509  0.127568  0.410483  1
  S  S28  1  0.994645  0.370287  0.588522  1
  S  S29  1  0.005355  0.370287  0.911478  1
  S  S30  1  0.995491  0.872432  0.589517  1
  S  S31  1  0.004509  0.872432  0.910483  1
  S  S32  1  0.660140  0.378704  0.990481  1
  S  S33  1  0.339860  0.378704  0.509519  1
  S  S34  1  0.658198  0.878613  0.990668  1
  S  S35  1  0.341802  0.878613  0.509332  1
  S  S36  1  0.658198  0.121387  0.490668  1
  S  S37  1  0.341802  0.121387  0.009332  1
  S  S38  1  0.660140  0.621296  0.490481  1
  S  S39  1  0.339860  0.621296  0.009519  1
  S  S40  1  0.684759  0.632732  0.166339  1
  S  S41  1  0.315241  0.632732  0.333661  1
  S  S42  1  0.684152  0.125311  0.166114  1
  S  S43  1  0.315848  0.125311  0.333886  1
  S  S44  1  0.684759  0.367268  0.666339  1
  S  S45  1  0.315241  0.367268  0.833661  1
  S  S46  1  0.684152  0.874689  0.666114  1
  S  S47  1  0.315848  0.874689  0.833886  1
  S  S48  1  0.672890  0.628431  0.822214  1
  S  S49  1  0.327110  0.371569  0.177786  1
  S  S50  1  0.685833  0.120730  0.826463  1
  S  S51  1  0.314167  0.120730  0.673537  1
  S  S52  1  0.672890  0.371569  0.322214  1
  S  S53  1  0.685833  0.879270  0.326463  1
