# generated using pymatgen
data_NaGaH4
_symmetry_space_group_name_H-M   'P 1'
_cell_length_a   4.81948663
_cell_length_b   4.81948663
_cell_length_c   7.08934664
_cell_angle_alpha   90.00000000
_cell_angle_beta   90.00000000
_cell_angle_gamma   94.69511102
_symmetry_Int_Tables_number   1
_chemical_formula_structural   NaGaH4
_chemical_formula_sum   'Na2 Ga2 H8'
_cell_volume   164.11489180
_cell_formula_units_Z   2
loop_
 _symmetry_equiv_pos_site_id
 _symmetry_equiv_pos_as_xyz
  1  'x, y, z'
loop_
 _atom_site_type_symbol
 _atom_site_label
 _atom_site_symmetry_multiplicity
 _atom_site_fract_x
 _atom_site_fract_y
 _atom_site_fract_z
 _atom_site_occupancy
  Na  Na0  1  0.338051  0.338051  0.250000  1
  Na  Na1  1  0.661949  0.661949  0.750000  1
  Ga  Ga2  1  0.831923  0.831923  0.250000  1
  Ga  Ga3  1  0.168077  0.168077  0.750000  1
  H  H4  1  0.842763  0.208383  0.750000  1
  H  H5  1  0.157237  0.791617  0.250000  1
  H  H6  1  0.208383  0.842763  0.750000  1
  H  H7  1  0.791617  0.157237  0.250000  1
  H  H8  1  0.685105  0.685105  0.430044  1
  H  H9  1  0.314895  0.314895  0.930044  1
  H  H10  1  0.685105  0.685105  0.069956  1
  H  H11  1  0.314895  0.314895  0.569956  1
