# generated using pymatgen
data_CuBiS2
_symmetry_space_group_name_H-M   'P 1'
_cell_length_a   3.94930382
_cell_length_b   6.29178647
_cell_length_c   14.39437613
_cell_angle_alpha   90.00000000
_cell_angle_beta   90.00000000
_cell_angle_gamma   90.00000000
_symmetry_Int_Tables_number   1
_chemical_formula_structural   CuBiS2
_chemical_formula_sum   'Cu4 Bi4 S8'
_cell_volume   357.67399639
_cell_formula_units_Z   4
loop_
 _symmetry_equiv_pos_site_id
 _symmetry_equiv_pos_as_xyz
  1  'x, y, z'
loop_
 _atom_site_type_symbol
 _atom_site_label
 _atom_site_symmetry_multiplicity
 _atom_site_fract_x
 _atom_site_fract_y
 _atom_site_fract_z
 _atom_site_occupancy
  Cu  Cu0  1  0.250000  0.244030  0.171117  1
  Cu  Cu1  1  0.250000  0.744030  0.328883  1
  Cu  Cu2  1  0.750000  0.755970  0.828883  1
  Cu  Cu3  1  0.750000  0.255970  0.671117  1
  Bi  Bi4  1  0.250000  0.735518  0.561207  1
  Bi  Bi5  1  0.750000  0.264482  0.438793  1
  Bi  Bi6  1  0.250000  0.235518  0.938793  1
  Bi  Bi7  1  0.750000  0.764482  0.061207  1
  S  S8  1  0.750000  0.620907  0.679472  1
  S  S9  1  0.250000  0.379093  0.320528  1
  S  S10  1  0.750000  0.120907  0.820528  1
  S  S11  1  0.250000  0.879093  0.179472  1
  S  S12  1  0.250000  0.140884  0.598139  1
  S  S13  1  0.750000  0.359116  0.098139  1
  S  S14  1  0.250000  0.640884  0.901861  1
  S  S15  1  0.750000  0.859116  0.401861  1
