# generated using pymatgen
data_Sm5Sb3H
_symmetry_space_group_name_H-M   'P 1'
_cell_length_a   9.21377168
_cell_length_b   9.21377168
_cell_length_c   6.33775024
_cell_angle_alpha   90.00000000
_cell_angle_beta   90.00000000
_cell_angle_gamma   120.00000000
_symmetry_Int_Tables_number   1
_chemical_formula_structural   Sm5Sb3H
_chemical_formula_sum   'Sm10 Sb6 H2'
_cell_volume   465.95142505
_cell_formula_units_Z   2
loop_
 _symmetry_equiv_pos_site_id
 _symmetry_equiv_pos_as_xyz
  1  'x, y, z'
loop_
 _atom_site_type_symbol
 _atom_site_label
 _atom_site_symmetry_multiplicity
 _atom_site_fract_x
 _atom_site_fract_y
 _atom_site_fract_z
 _atom_site_occupancy
  Sm  Sm0  1  0.747265  0.747265  0.250000  1
  Sm  Sm1  1  0.747265  0.000000  0.750000  1
  Sm  Sm2  1  0.000000  0.252735  0.250000  1
  Sm  Sm3  1  0.000000  0.747265  0.750000  1
  Sm  Sm4  1  0.252735  0.252735  0.750000  1
  Sm  Sm5  1  0.252735  0.000000  0.250000  1
  Sm  Sm6  1  0.333333  0.666667  0.500000  1
  Sm  Sm7  1  0.666667  0.333333  0.000000  1
  Sm  Sm8  1  0.666667  0.333333  0.500000  1
  Sm  Sm9  1  0.333333  0.666667  0.000000  1
  Sb  Sb10  1  0.385765  0.000000  0.750000  1
  Sb  Sb11  1  0.385765  0.385765  0.250000  1
  Sb  Sb12  1  0.000000  0.614235  0.250000  1
  Sb  Sb13  1  0.000000  0.385765  0.750000  1
  Sb  Sb14  1  0.614235  0.614235  0.750000  1
  Sb  Sb15  1  0.614235  0.000000  0.250000  1
  H  H16  1  0.000000  0.000000  0.500000  1
  H  H17  1  0.000000  0.000000  0.000000  1
