# generated using pymatgen
data_AgF2
_symmetry_space_group_name_H-M   'P 1'
_cell_length_a   5.32748306
_cell_length_b   5.73270893
_cell_length_c   5.96842781
_cell_angle_alpha   90.00000000
_cell_angle_beta   90.00000000
_cell_angle_gamma   90.00000000
_symmetry_Int_Tables_number   1
_chemical_formula_structural   AgF2
_chemical_formula_sum   'Ag4 F8'
_cell_volume   182.28121487
_cell_formula_units_Z   4
loop_
 _symmetry_equiv_pos_site_id
 _symmetry_equiv_pos_as_xyz
  1  'x, y, z'
loop_
 _atom_site_type_symbol
 _atom_site_label
 _atom_site_symmetry_multiplicity
 _atom_site_fract_x
 _atom_site_fract_y
 _atom_site_fract_z
 _atom_site_occupancy
  Ag  Ag0  1  0.500000  0.000000  0.500000  1
  Ag  Ag1  1  0.000000  0.500000  0.500000  1
  Ag  Ag2  1  0.500000  0.500000  0.000000  1
  Ag  Ag3  1  0.000000  0.000000  0.000000  1
  F  F4  1  0.691166  0.301138  0.616378  1
  F  F5  1  0.191166  0.198862  0.383622  1
  F  F6  1  0.308834  0.801138  0.883622  1
  F  F7  1  0.808834  0.698862  0.116378  1
  F  F8  1  0.191166  0.301138  0.883622  1
  F  F9  1  0.691166  0.198862  0.116378  1
  F  F10  1  0.808834  0.801138  0.616378  1
  F  F11  1  0.308834  0.698862  0.383622  1
