# generated using pymatgen
data_Rb2CuCl4
_symmetry_space_group_name_H-M   'P 1'
_cell_length_a   8.71632445
_cell_length_b   8.71632445
_cell_length_c   7.19260412
_cell_angle_alpha   90.00000000
_cell_angle_beta   90.00000000
_cell_angle_gamma   131.30522238
_symmetry_Int_Tables_number   1
_chemical_formula_structural   Rb2CuCl4
_chemical_formula_sum   'Rb4 Cu2 Cl8'
_cell_volume   410.49777623
_cell_formula_units_Z   2
loop_
 _symmetry_equiv_pos_site_id
 _symmetry_equiv_pos_as_xyz
  1  'x, y, z'
loop_
 _atom_site_type_symbol
 _atom_site_label
 _atom_site_symmetry_multiplicity
 _atom_site_fract_x
 _atom_site_fract_y
 _atom_site_fract_z
 _atom_site_occupancy
  Rb  Rb0  1  0.860692  0.139308  0.500000  1
  Rb  Rb1  1  0.360692  0.639308  1.000000  1
  Rb  Rb2  1  0.639308  0.360692  0.000000  1
  Rb  Rb3  1  0.139308  0.860692  0.500000  1
  Cu  Cu4  1  0.000000  0.000000  0.000000  1
  Cu  Cu5  1  0.500000  0.500000  0.500000  1
  Cl  Cl6  1  0.150251  0.849749  1.000000  1
  Cl  Cl7  1  0.349749  0.650251  0.500000  1
  Cl  Cl8  1  0.849749  0.150251  0.000000  1
  Cl  Cl9  1  0.773438  0.773438  0.774806  1
  Cl  Cl10  1  0.650251  0.349749  0.500000  1
  Cl  Cl11  1  0.726562  0.726562  0.274806  1
  Cl  Cl12  1  0.273438  0.273438  0.725194  1
  Cl  Cl13  1  0.226562  0.226562  0.225194  1
