# generated using pymatgen
data_Sm3Co6Sn5
_symmetry_space_group_name_H-M   'P 1'
_cell_length_a   8.22098029
_cell_length_b   8.22098029
_cell_length_c   8.22098029
_cell_angle_alpha   149.43111039
_cell_angle_beta   106.93016040
_cell_angle_gamma   81.24416054
_symmetry_Int_Tables_number   1
_chemical_formula_structural   Sm3Co6Sn5
_chemical_formula_sum   'Sm3 Co6 Sn5'
_cell_volume   264.72391858
_cell_formula_units_Z   1
loop_
 _symmetry_equiv_pos_site_id
 _symmetry_equiv_pos_as_xyz
  1  'x, y, z'
loop_
 _atom_site_type_symbol
 _atom_site_label
 _atom_site_symmetry_multiplicity
 _atom_site_fract_x
 _atom_site_fract_y
 _atom_site_fract_z
 _atom_site_occupancy
  Sm  Sm0  1  0.683223  0.683223  0.000000  1
  Sm  Sm1  1  0.316777  0.316777  0.000000  1
  Sm  Sm2  1  0.000000  0.000000  0.000000  1
  Co  Co3  1  0.167865  0.893438  0.274427  1
  Co  Co4  1  0.832135  0.106562  0.725573  1
  Co  Co5  1  0.619010  0.893438  0.725573  1
  Co  Co6  1  0.700687  0.500000  0.200687  1
  Co  Co7  1  0.299313  0.500000  0.799313  1
  Co  Co8  1  0.380990  0.106562  0.274427  1
  Sn  Sn9  1  0.337721  0.676964  0.660757  1
  Sn  Sn10  1  0.983793  0.323036  0.660757  1
  Sn  Sn11  1  0.016207  0.676964  0.339243  1
  Sn  Sn12  1  0.500000  0.000000  0.500000  1
  Sn  Sn13  1  0.662279  0.323036  0.339243  1
