# generated using pymatgen
data_PRu2
_symmetry_space_group_name_H-M   'P 1'
_cell_length_a   3.89393543
_cell_length_b   5.90594119
_cell_length_c   7.01528841
_cell_angle_alpha   90.00000000
_cell_angle_beta   90.00000000
_cell_angle_gamma   90.00000000
_symmetry_Int_Tables_number   1
_chemical_formula_structural   PRu2
_chemical_formula_sum   'P4 Ru8'
_cell_volume   161.33306850
_cell_formula_units_Z   4
loop_
 _symmetry_equiv_pos_site_id
 _symmetry_equiv_pos_as_xyz
  1  'x, y, z'
loop_
 _atom_site_type_symbol
 _atom_site_label
 _atom_site_symmetry_multiplicity
 _atom_site_fract_x
 _atom_site_fract_y
 _atom_site_fract_z
 _atom_site_occupancy
  P  P0  1  0.250000  0.748727  0.610639  1
  P  P1  1  0.750000  0.251273  0.389361  1
  P  P2  1  0.250000  0.248727  0.889361  1
  P  P3  1  0.750000  0.751273  0.110639  1
  Ru  Ru4  1  0.750000  0.015335  0.652296  1
  Ru  Ru5  1  0.250000  0.984665  0.347704  1
  Ru  Ru6  1  0.750000  0.515335  0.847704  1
  Ru  Ru7  1  0.250000  0.484665  0.152296  1
  Ru  Ru8  1  0.250000  0.360549  0.577840  1
  Ru  Ru9  1  0.750000  0.639451  0.422160  1
  Ru  Ru10  1  0.250000  0.860549  0.922160  1
  Ru  Ru11  1  0.750000  0.139451  0.077840  1
