# generated using pymatgen
data_Rb3Ge2Br7
_symmetry_space_group_name_H-M   'P 1'
_cell_length_a   10.41361593
_cell_length_b   13.03604796
_cell_length_c   13.50915146
_cell_angle_alpha   90.00000000
_cell_angle_beta   101.95312610
_cell_angle_gamma   90.00000000
_symmetry_Int_Tables_number   1
_chemical_formula_structural   Rb3Ge2Br7
_chemical_formula_sum   'Rb12 Ge8 Br28'
_cell_volume   1794.13591246
_cell_formula_units_Z   4
loop_
 _symmetry_equiv_pos_site_id
 _symmetry_equiv_pos_as_xyz
  1  'x, y, z'
loop_
 _atom_site_type_symbol
 _atom_site_label
 _atom_site_symmetry_multiplicity
 _atom_site_fract_x
 _atom_site_fract_y
 _atom_site_fract_z
 _atom_site_occupancy
  Rb  Rb0  1  0.950518  0.822724  0.533510  1
  Rb  Rb1  1  0.611809  0.692710  0.691786  1
  Rb  Rb2  1  0.388191  0.192710  0.808214  1
  Rb  Rb3  1  0.388191  0.307290  0.308214  1
  Rb  Rb4  1  0.611809  0.807290  0.191786  1
  Rb  Rb5  1  0.274813  0.815445  0.859883  1
  Rb  Rb6  1  0.725187  0.315445  0.640117  1
  Rb  Rb7  1  0.725187  0.184555  0.140117  1
  Rb  Rb8  1  0.274813  0.684555  0.359883  1
  Rb  Rb9  1  0.950518  0.677276  0.033510  1
  Rb  Rb10  1  0.049482  0.177276  0.466490  1
  Rb  Rb11  1  0.049482  0.322724  0.966490  1
  Ge  Ge12  1  0.355936  0.950649  0.568834  1
  Ge  Ge13  1  0.644064  0.450649  0.931166  1
  Ge  Ge14  1  0.644064  0.049351  0.431166  1
  Ge  Ge15  1  0.355936  0.549351  0.068834  1
  Ge  Ge16  1  0.814936  0.989546  0.855062  1
  Ge  Ge17  1  0.185064  0.489546  0.644938  1
  Ge  Ge18  1  0.185064  0.010454  0.144938  1
  Ge  Ge19  1  0.814936  0.510454  0.355062  1
  Br  Br20  1  0.834562  0.559485  0.541386  1
  Br  Br21  1  0.277931  0.774351  0.113348  1
  Br  Br22  1  0.722069  0.274351  0.386652  1
  Br  Br23  1  0.722069  0.225649  0.886652  1
  Br  Br24  1  0.277931  0.725649  0.613348  1
  Br  Br25  1  0.910952  0.684000  0.301016  1
  Br  Br26  1  0.089048  0.184000  0.198984  1
  Br  Br27  1  0.089048  0.316000  0.698984  1
  Br  Br28  1  0.910952  0.816000  0.801016  1
  Br  Br29  1  0.184708  0.004915  0.672547  1
  Br  Br30  1  0.165438  0.059485  0.958614  1
  Br  Br31  1  0.165438  0.440515  0.458614  1
  Br  Br32  1  0.809177  0.059380  0.599558  1
  Br  Br33  1  0.190823  0.559379  0.900442  1
  Br  Br34  1  0.190823  0.940620  0.400442  1
  Br  Br35  1  0.809177  0.440620  0.099558  1
  Br  Br36  1  0.414897  0.150440  0.542316  1
  Br  Br37  1  0.815292  0.504915  0.827453  1
  Br  Br38  1  0.815292  0.995085  0.327453  1
  Br  Br39  1  0.184708  0.495085  0.172547  1
  Br  Br40  1  0.571265  0.559456  0.301567  1
  Br  Br41  1  0.585103  0.650440  0.957684  1
  Br  Br42  1  0.585103  0.849560  0.457684  1
  Br  Br43  1  0.414897  0.349560  0.042316  1
  Br  Br44  1  0.571265  0.940544  0.801567  1
  Br  Br45  1  0.428735  0.440544  0.698433  1
  Br  Br46  1  0.428735  0.059456  0.198433  1
  Br  Br47  1  0.834562  0.940515  0.041386  1
