# generated using pymatgen
data_Ba2BiSbO6
_symmetry_space_group_name_H-M   'P 1'
_cell_length_a   6.10849399
_cell_length_b   6.10849399
_cell_length_c   6.15658149
_cell_angle_alpha   60.01429930
_cell_angle_beta   119.98570070
_cell_angle_gamma   119.99776881
_symmetry_Int_Tables_number   1
_chemical_formula_structural   Ba2BiSbO6
_chemical_formula_sum   'Ba2 Bi1 Sb1 O6'
_cell_volume   162.47782378
_cell_formula_units_Z   1
loop_
 _symmetry_equiv_pos_site_id
 _symmetry_equiv_pos_as_xyz
  1  'x, y, z'
loop_
 _atom_site_type_symbol
 _atom_site_label
 _atom_site_symmetry_multiplicity
 _atom_site_fract_x
 _atom_site_fract_y
 _atom_site_fract_z
 _atom_site_occupancy
  Ba  Ba0  1  0.750850  0.249150  0.754845  1
  Ba  Ba1  1  0.249150  0.750850  0.245155  1
  Bi  Bi2  1  0.000000  0.000000  0.500000  1
  Sb  Sb3  1  0.500000  0.500000  0.000000  1
  O  O4  1  0.236360  0.295580  0.200894  1
  O  O5  1  0.295580  0.236360  0.799106  1
  O  O6  1  0.763640  0.704420  0.799106  1
  O  O7  1  0.704420  0.763640  0.200894  1
  O  O8  1  0.268579  0.731421  0.713816  1
  O  O9  1  0.731421  0.268579  0.286184  1
