# generated using pymatgen
data_W3Br8
_symmetry_space_group_name_H-M   'P 1'
_cell_length_a   10.00514551
_cell_length_b   10.00514551
_cell_length_c   14.81694695
_cell_angle_alpha   90.00000000
_cell_angle_beta   90.00000000
_cell_angle_gamma   100.47497050
_symmetry_Int_Tables_number   1
_chemical_formula_structural   W3Br8
_chemical_formula_sum   'W12 Br32'
_cell_volume   1458.50118682
_cell_formula_units_Z   4
loop_
 _symmetry_equiv_pos_site_id
 _symmetry_equiv_pos_as_xyz
  1  'x, y, z'
loop_
 _atom_site_type_symbol
 _atom_site_label
 _atom_site_symmetry_multiplicity
 _atom_site_fract_x
 _atom_site_fract_y
 _atom_site_fract_z
 _atom_site_occupancy
  W  W0  1  0.430599  0.569401  0.612589  1
  W  W1  1  0.069401  0.930599  0.112589  1
  W  W2  1  0.569401  0.430599  0.387411  1
  W  W3  1  0.930599  0.069401  0.887411  1
  W  W4  1  0.674631  0.531300  0.548561  1
  W  W5  1  0.825369  0.968700  0.048561  1
  W  W6  1  0.531300  0.674631  0.451439  1
  W  W7  1  0.968700  0.825369  0.951439  1
  W  W8  1  0.325369  0.468700  0.451439  1
  W  W9  1  0.174631  0.031300  0.951439  1
  W  W10  1  0.468700  0.325369  0.548561  1
  W  W11  1  0.031300  0.174631  0.048561  1
  Br  Br12  1  0.956760  0.043240  0.568056  1
  Br  Br13  1  0.543240  0.456760  0.068056  1
  Br  Br14  1  0.043240  0.956760  0.431944  1
  Br  Br15  1  0.456760  0.543240  0.931944  1
  Br  Br16  1  0.340995  0.659005  0.760692  1
  Br  Br17  1  0.159005  0.840995  0.260692  1
  Br  Br18  1  0.659005  0.340995  0.239308  1
  Br  Br19  1  0.840995  0.159005  0.739308  1
  Br  Br20  1  0.912292  0.576892  0.615951  1
  Br  Br21  1  0.587708  0.923108  0.115951  1
  Br  Br22  1  0.576892  0.912292  0.384049  1
  Br  Br23  1  0.923108  0.587708  0.884049  1
  Br  Br24  1  0.134215  0.273001  0.891398  1
  Br  Br25  1  0.365785  0.226999  0.391398  1
  Br  Br26  1  0.273001  0.134215  0.108602  1
  Br  Br27  1  0.226999  0.365785  0.608602  1
  Br  Br28  1  0.865785  0.726999  0.108602  1
  Br  Br29  1  0.634215  0.773001  0.608602  1
  Br  Br30  1  0.726999  0.865785  0.891398  1
  Br  Br31  1  0.773001  0.634215  0.391398  1
  Br  Br32  1  0.925401  0.074599  0.204913  1
  Br  Br33  1  0.574599  0.425401  0.704913  1
  Br  Br34  1  0.074599  0.925401  0.795087  1
  Br  Br35  1  0.425401  0.574599  0.295087  1
  Br  Br36  1  0.789956  0.210044  0.986325  1
  Br  Br37  1  0.710044  0.289956  0.486325  1
  Br  Br38  1  0.210044  0.789956  0.013675  1
  Br  Br39  1  0.289956  0.710044  0.513675  1
  Br  Br40  1  0.076892  0.412292  0.115951  1
  Br  Br41  1  0.423108  0.087708  0.615951  1
  Br  Br42  1  0.412292  0.076892  0.884049  1
  Br  Br43  1  0.087708  0.423108  0.384049  1
