# generated using pymatgen
data_Hf2CoP
_symmetry_space_group_name_H-M   'P 1'
_cell_length_a   5.18585974
_cell_length_b   3.60649756
_cell_length_c   7.36031652
_cell_angle_alpha   90.00000000
_cell_angle_beta   109.59012996
_cell_angle_gamma   90.00000000
_symmetry_Int_Tables_number   1
_chemical_formula_structural   Hf2CoP
_chemical_formula_sum   'Hf4 Co2 P2'
_cell_volume   129.69012901
_cell_formula_units_Z   2
loop_
 _symmetry_equiv_pos_site_id
 _symmetry_equiv_pos_as_xyz
  1  'x, y, z'
loop_
 _atom_site_type_symbol
 _atom_site_label
 _atom_site_symmetry_multiplicity
 _atom_site_fract_x
 _atom_site_fract_y
 _atom_site_fract_z
 _atom_site_occupancy
  Hf  Hf0  1  0.772514  0.750000  0.565043  1
  Hf  Hf1  1  0.227486  0.250000  0.434957  1
  Hf  Hf2  1  0.294238  0.750000  0.080792  1
  Hf  Hf3  1  0.705762  0.250000  0.919208  1
  Co  Co4  1  0.358362  0.750000  0.710475  1
  Co  Co5  1  0.641638  0.250000  0.289525  1
  P  P6  1  0.862468  0.750000  0.210811  1
  P  P7  1  0.137532  0.250000  0.789189  1
