# generated using pymatgen
data_Ce5Cu19P12
_symmetry_space_group_name_H-M   'P 1'
_cell_length_a   12.64573632
_cell_length_b   12.64573632
_cell_length_c   3.88291488
_cell_angle_alpha   90.00000000
_cell_angle_beta   90.00000000
_cell_angle_gamma   120.00000000
_symmetry_Int_Tables_number   1
_chemical_formula_structural   Ce5Cu19P12
_chemical_formula_sum   'Ce5 Cu19 P12'
_cell_volume   537.74545166
_cell_formula_units_Z   1
loop_
 _symmetry_equiv_pos_site_id
 _symmetry_equiv_pos_as_xyz
  1  'x, y, z'
loop_
 _atom_site_type_symbol
 _atom_site_label
 _atom_site_symmetry_multiplicity
 _atom_site_fract_x
 _atom_site_fract_y
 _atom_site_fract_z
 _atom_site_occupancy
  Ce  Ce0  1  0.000000  0.813751  0.000000  1
  Ce  Ce1  1  0.186249  0.186249  0.000000  1
  Ce  Ce2  1  0.813751  0.000000  0.000000  1
  Ce  Ce3  1  0.666667  0.333333  0.500000  1
  Ce  Ce4  1  0.333333  0.666667  0.500000  1
  Cu  Cu5  1  0.826473  0.206343  0.500000  1
  Cu  Cu6  1  0.620130  0.793657  0.500000  1
  Cu  Cu7  1  0.173527  0.379870  0.500000  1
  Cu  Cu8  1  0.206343  0.826473  0.500000  1
  Cu  Cu9  1  0.360653  0.478299  0.000000  1
  Cu  Cu10  1  0.117646  0.639347  0.000000  1
  Cu  Cu11  1  0.639347  0.117646  0.000000  1
  Cu  Cu12  1  0.478299  0.360653  0.000000  1
  Cu  Cu13  1  0.882354  0.521701  0.000000  1
  Cu  Cu14  1  0.455512  0.000000  0.500000  1
  Cu  Cu15  1  0.544488  0.544488  0.500000  1
  Cu  Cu16  1  0.000000  0.455512  0.500000  1
  Cu  Cu17  1  0.379870  0.173527  0.500000  1
  Cu  Cu18  1  0.000000  0.290134  0.000000  1
  Cu  Cu19  1  0.709866  0.709866  0.000000  1
  Cu  Cu20  1  0.290134  0.000000  0.000000  1
  Cu  Cu21  1  0.000000  0.000000  0.500000  1
  Cu  Cu22  1  0.521701  0.882354  0.000000  1
  Cu  Cu23  1  0.793657  0.620130  0.500000  1
  P  P24  1  0.827186  0.312841  0.000000  1
  P  P25  1  0.687159  0.514346  0.000000  1
  P  P26  1  0.485654  0.172814  0.000000  1
  P  P27  1  0.172814  0.485654  0.000000  1
  P  P28  1  0.514346  0.687159  0.000000  1
  P  P29  1  0.639923  0.000000  0.500000  1
  P  P30  1  0.000000  0.639923  0.500000  1
  P  P31  1  0.000000  0.175849  0.500000  1
  P  P32  1  0.824151  0.824151  0.500000  1
  P  P33  1  0.175849  0.000000  0.500000  1
  P  P34  1  0.312841  0.827186  0.000000  1
  P  P35  1  0.360077  0.360077  0.500000  1
