# generated using pymatgen
data_NdH3(CO2)3
_symmetry_space_group_name_H-M   'P 1'
_cell_length_a   6.32876384
_cell_length_b   6.32876384
_cell_length_c   6.32876384
_cell_angle_alpha   115.42230020
_cell_angle_beta   115.42230020
_cell_angle_gamma   115.42230020
_symmetry_Int_Tables_number   1
_chemical_formula_structural   NdH3(CO2)3
_chemical_formula_sum   'Nd1 H3 C3 O6'
_cell_volume   136.25159729
_cell_formula_units_Z   1
loop_
 _symmetry_equiv_pos_site_id
 _symmetry_equiv_pos_as_xyz
  1  'x, y, z'
loop_
 _atom_site_type_symbol
 _atom_site_label
 _atom_site_symmetry_multiplicity
 _atom_site_fract_x
 _atom_site_fract_y
 _atom_site_fract_z
 _atom_site_occupancy
  Nd  Nd0  1  0.139590  0.139590  0.139590  1
  H  H1  1  0.277096  0.760973  0.760973  1
  H  H2  1  0.760973  0.277096  0.760973  1
  H  H3  1  0.760973  0.760973  0.277096  1
  C  C4  1  0.525634  0.525634  0.985161  1
  C  C5  1  0.985161  0.525634  0.525634  1
  C  C6  1  0.525634  0.985161  0.525634  1
  O  O7  1  0.852704  0.254292  0.254292  1
  O  O8  1  0.549772  0.549772  0.804205  1
  O  O9  1  0.549772  0.804205  0.549772  1
  O  O10  1  0.254292  0.254292  0.852704  1
  O  O11  1  0.254292  0.852704  0.254292  1
  O  O12  1  0.804205  0.549772  0.549772  1
