# generated using pymatgen
data_Sr2Ru3O10
_symmetry_space_group_name_H-M   'P 1'
_cell_length_a   6.35184049
_cell_length_b   6.35184049
_cell_length_c   6.66170671
_cell_angle_alpha   78.65280399
_cell_angle_beta   101.34719601
_cell_angle_gamma   127.75256366
_symmetry_Int_Tables_number   1
_chemical_formula_structural   Sr2Ru3O10
_chemical_formula_sum   'Sr2 Ru3 O10'
_cell_volume   207.34282897
_cell_formula_units_Z   1
loop_
 _symmetry_equiv_pos_site_id
 _symmetry_equiv_pos_as_xyz
  1  'x, y, z'
loop_
 _atom_site_type_symbol
 _atom_site_label
 _atom_site_symmetry_multiplicity
 _atom_site_fract_x
 _atom_site_fract_y
 _atom_site_fract_z
 _atom_site_occupancy
  Sr  Sr0  1  0.677644  0.322356  0.163216  1
  Sr  Sr1  1  0.322356  0.677644  0.836784  1
  Ru  Ru2  1  0.227990  0.227990  0.500000  1
  Ru  Ru3  1  0.772010  0.772010  0.500000  1
  Ru  Ru4  1  0.000000  0.000000  0.000000  1
  O  O5  1  0.865398  0.134602  0.446198  1
  O  O6  1  0.134602  0.865398  0.553802  1
  O  O7  1  0.389391  0.610609  0.468934  1
  O  O8  1  0.610609  0.389391  0.531066  1
  O  O9  1  0.169844  0.830156  0.060190  1
  O  O10  1  0.755336  0.754815  0.795574  1
  O  O11  1  0.754815  0.755336  0.204426  1
  O  O12  1  0.244664  0.245185  0.204426  1
  O  O13  1  0.245185  0.244664  0.795574  1
  O  O14  1  0.830156  0.169844  0.939810  1
