# generated using pymatgen
data_Y2(Ga3Co)3
_symmetry_space_group_name_H-M   'P 1'
_cell_length_a   7.37468563
_cell_length_b   7.37468563
_cell_length_c   9.46164113
_cell_angle_alpha   90.00000000
_cell_angle_beta   90.00000000
_cell_angle_gamma   119.81569510
_symmetry_Int_Tables_number   1
_chemical_formula_structural   Y2(Ga3Co)3
_chemical_formula_sum   'Y4 Ga18 Co6'
_cell_volume   446.46528638
_cell_formula_units_Z   2
loop_
 _symmetry_equiv_pos_site_id
 _symmetry_equiv_pos_as_xyz
  1  'x, y, z'
loop_
 _atom_site_type_symbol
 _atom_site_label
 _atom_site_symmetry_multiplicity
 _atom_site_fract_x
 _atom_site_fract_y
 _atom_site_fract_z
 _atom_site_occupancy
  Y  Y0  1  0.668110  0.996827  0.750000  1
  Y  Y1  1  0.331890  0.003173  0.250000  1
  Y  Y2  1  0.996827  0.668110  0.750000  1
  Y  Y3  1  0.003173  0.331890  0.250000  1
  Ga  Ga4  1  0.999454  0.665972  0.071362  1
  Ga  Ga5  1  0.665972  0.999454  0.428638  1
  Ga  Ga6  1  0.999454  0.665972  0.428638  1
  Ga  Ga7  1  0.000546  0.334028  0.928638  1
  Ga  Ga8  1  0.665972  0.999454  0.071362  1
  Ga  Ga9  1  0.334028  0.000546  0.928638  1
  Ga  Ga10  1  0.665878  0.665878  0.557341  1
  Ga  Ga11  1  0.334122  0.334122  0.057341  1
  Ga  Ga12  1  0.665878  0.665878  0.942659  1
  Ga  Ga13  1  0.334122  0.334122  0.442659  1
  Ga  Ga14  1  0.121278  0.121278  0.750000  1
  Ga  Ga15  1  0.878722  0.878722  0.250000  1
  Ga  Ga16  1  0.663771  0.450441  0.250000  1
  Ga  Ga17  1  0.336229  0.549559  0.750000  1
  Ga  Ga18  1  0.450441  0.663771  0.250000  1
  Ga  Ga19  1  0.549559  0.336229  0.750000  1
  Ga  Ga20  1  0.334028  0.000546  0.571362  1
  Ga  Ga21  1  0.000546  0.334028  0.571362  1
  Co  Co22  1  0.670946  0.329054  1.000000  1
  Co  Co23  1  0.329054  0.670946  0.500000  1
  Co  Co24  1  0.329054  0.670946  0.000000  1
  Co  Co25  1  0.670946  0.329054  0.500000  1
  Co  Co26  1  0.000000  0.000000  0.000000  1
  Co  Co27  1  0.000000  0.000000  0.500000  1
