# generated using pymatgen
data_Ni2Mo4C
_symmetry_space_group_name_H-M   'P 1'
_cell_length_a   7.99947485
_cell_length_b   7.99947485
_cell_length_c   7.99947485
_cell_angle_alpha   60.00000000
_cell_angle_beta   60.00000000
_cell_angle_gamma   60.00000000
_symmetry_Int_Tables_number   1
_chemical_formula_structural   Ni2Mo4C
_chemical_formula_sum   'Ni8 Mo16 C4'
_cell_volume   361.96738039
_cell_formula_units_Z   4
loop_
 _symmetry_equiv_pos_site_id
 _symmetry_equiv_pos_as_xyz
  1  'x, y, z'
loop_
 _atom_site_type_symbol
 _atom_site_label
 _atom_site_symmetry_multiplicity
 _atom_site_fract_x
 _atom_site_fract_y
 _atom_site_fract_z
 _atom_site_occupancy
  Ni  Ni0  1  0.917104  0.917104  0.917104  1
  Ni  Ni1  1  0.001312  0.332896  0.332896  1
  Ni  Ni2  1  0.917104  0.917104  0.248688  1
  Ni  Ni3  1  0.332896  0.001312  0.332896  1
  Ni  Ni4  1  0.332896  0.332896  0.001312  1
  Ni  Ni5  1  0.332896  0.332896  0.332896  1
  Ni  Ni6  1  0.248688  0.917104  0.917104  1
  Ni  Ni7  1  0.917104  0.248688  0.917104  1
  Mo  Mo8  1  0.625000  0.125000  0.125000  1
  Mo  Mo9  1  0.689675  0.310325  0.689675  1
  Mo  Mo10  1  0.560325  0.939675  0.939675  1
  Mo  Mo11  1  0.310325  0.689675  0.689675  1
  Mo  Mo12  1  0.310325  0.310325  0.689675  1
  Mo  Mo13  1  0.689675  0.689675  0.310325  1
  Mo  Mo14  1  0.939675  0.939675  0.560325  1
  Mo  Mo15  1  0.560325  0.939675  0.560325  1
  Mo  Mo16  1  0.939675  0.560325  0.939675  1
  Mo  Mo17  1  0.560325  0.560325  0.939675  1
  Mo  Mo18  1  0.689675  0.310325  0.310325  1
  Mo  Mo19  1  0.939675  0.560325  0.560325  1
  Mo  Mo20  1  0.125000  0.125000  0.625000  1
  Mo  Mo21  1  0.125000  0.125000  0.125000  1
  Mo  Mo22  1  0.125000  0.625000  0.125000  1
  Mo  Mo23  1  0.310325  0.689675  0.310325  1
  C  C24  1  0.125000  0.625000  0.625000  1
  C  C25  1  0.625000  0.625000  0.625000  1
  C  C26  1  0.625000  0.625000  0.125000  1
  C  C27  1  0.625000  0.125000  0.625000  1
