# generated using pymatgen
data_Ni12P5
_symmetry_space_group_name_H-M   'P 1'
_cell_length_a   6.60068533
_cell_length_b   6.60068533
_cell_length_c   6.60068533
_cell_angle_alpha   98.36914918
_cell_angle_beta   98.36914918
_cell_angle_gamma   135.14543216
_symmetry_Int_Tables_number   1
_chemical_formula_structural   Ni12P5
_chemical_formula_sum   'Ni12 P5'
_cell_volume   187.49520778
_cell_formula_units_Z   1
loop_
 _symmetry_equiv_pos_site_id
 _symmetry_equiv_pos_as_xyz
  1  'x, y, z'
loop_
 _atom_site_type_symbol
 _atom_site_label
 _atom_site_symmetry_multiplicity
 _atom_site_fract_x
 _atom_site_fract_y
 _atom_site_fract_z
 _atom_site_occupancy
  Ni  Ni0  1  0.868094  0.932113  0.297805  1
  Ni  Ni1  1  0.634308  0.570289  0.702195  1
  Ni  Ni2  1  0.570289  0.868094  0.935981  1
  Ni  Ni3  1  0.939650  0.366138  0.305788  1
  Ni  Ni4  1  0.633862  0.939650  0.573512  1
  Ni  Ni5  1  0.366138  0.060350  0.426488  1
  Ni  Ni6  1  0.060350  0.633862  0.694212  1
  Ni  Ni7  1  0.932113  0.634308  0.064019  1
  Ni  Ni8  1  0.429711  0.131906  0.064019  1
  Ni  Ni9  1  0.365692  0.429711  0.297805  1
  Ni  Ni10  1  0.131906  0.067887  0.702195  1
  Ni  Ni11  1  0.067887  0.365692  0.935981  1
  P  P12  1  0.000000  0.000000  0.000000  1
  P  P13  1  0.413128  0.805432  0.218560  1
  P  P14  1  0.194568  0.413128  0.607696  1
  P  P15  1  0.805432  0.586872  0.392304  1
  P  P16  1  0.586872  0.194568  0.781440  1
