# generated using pymatgen
data_VO2
_symmetry_space_group_name_H-M   'P 1'
_cell_length_a   3.03614349
_cell_length_b   4.81356153
_cell_length_c   9.12774265
_cell_angle_alpha   90.00000000
_cell_angle_beta   90.00000000
_cell_angle_gamma   90.00000000
_symmetry_Int_Tables_number   1
_chemical_formula_structural   VO2
_chemical_formula_sum   'V4 O8'
_cell_volume   133.39888718
_cell_formula_units_Z   4
loop_
 _symmetry_equiv_pos_site_id
 _symmetry_equiv_pos_as_xyz
  1  'x, y, z'
loop_
 _atom_site_type_symbol
 _atom_site_label
 _atom_site_symmetry_multiplicity
 _atom_site_fract_x
 _atom_site_fract_y
 _atom_site_fract_z
 _atom_site_occupancy
  V  V0  1  0.250000  0.425342  0.635849  1
  V  V1  1  0.250000  0.074658  0.135849  1
  V  V2  1  0.750000  0.574658  0.364151  1
  V  V3  1  0.750000  0.925342  0.864151  1
  O  O4  1  0.750000  0.289811  0.516512  1
  O  O5  1  0.250000  0.789811  0.983488  1
  O  O6  1  0.750000  0.210189  0.016512  1
  O  O7  1  0.250000  0.710189  0.483488  1
  O  O8  1  0.750000  0.878639  0.238064  1
  O  O9  1  0.750000  0.621361  0.738064  1
  O  O10  1  0.250000  0.121361  0.761936  1
  O  O11  1  0.250000  0.378639  0.261936  1
