# generated using pymatgen
data_Ce3(Al2Si3)2
_symmetry_space_group_name_H-M   'P 1'
_cell_length_a   4.16245749
_cell_length_b   4.16245749
_cell_length_c   17.67156944
_cell_angle_alpha   90.00000000
_cell_angle_beta   90.00000000
_cell_angle_gamma   120.00000000
_symmetry_Int_Tables_number   1
_chemical_formula_structural   Ce3(Al2Si3)2
_chemical_formula_sum   'Ce3 Al4 Si6'
_cell_volume   265.15839116
_cell_formula_units_Z   1
loop_
 _symmetry_equiv_pos_site_id
 _symmetry_equiv_pos_as_xyz
  1  'x, y, z'
loop_
 _atom_site_type_symbol
 _atom_site_label
 _atom_site_symmetry_multiplicity
 _atom_site_fract_x
 _atom_site_fract_y
 _atom_site_fract_z
 _atom_site_occupancy
  Ce  Ce0  1  0.000000  0.000000  0.890764  1
  Ce  Ce1  1  0.000000  0.000000  0.109236  1
  Ce  Ce2  1  0.000000  0.000000  0.500000  1
  Al  Al3  1  0.666667  0.333333  0.252567  1
  Al  Al4  1  0.333333  0.666667  0.747433  1
  Al  Al5  1  0.666667  0.333333  0.640378  1
  Al  Al6  1  0.333333  0.666667  0.359622  1
  Si  Si7  1  0.666667  0.333333  0.002149  1
  Si  Si8  1  0.333333  0.666667  0.215310  1
  Si  Si9  1  0.666667  0.333333  0.784690  1
  Si  Si10  1  0.333333  0.666667  0.602470  1
  Si  Si11  1  0.666667  0.333333  0.397530  1
  Si  Si12  1  0.333333  0.666667  0.997851  1
