# generated using pymatgen
data_Sn4(PO4)3
_symmetry_space_group_name_H-M   'P 1'
_cell_length_a   10.20566550
_cell_length_b   10.20566550
_cell_length_c   10.20566550
_cell_angle_alpha   57.53197572
_cell_angle_beta   57.53197572
_cell_angle_gamma   57.53197572
_symmetry_Int_Tables_number   1
_chemical_formula_structural   Sn4(PO4)3
_chemical_formula_sum   'Sn8 P6 O24'
_cell_volume   708.98007339
_cell_formula_units_Z   2
loop_
 _symmetry_equiv_pos_site_id
 _symmetry_equiv_pos_as_xyz
  1  'x, y, z'
loop_
 _atom_site_type_symbol
 _atom_site_label
 _atom_site_symmetry_multiplicity
 _atom_site_fract_x
 _atom_site_fract_y
 _atom_site_fract_z
 _atom_site_occupancy
  Sn  Sn0  1  0.098010  0.630828  0.748113  1
  Sn  Sn1  1  0.598010  0.248113  0.130828  1
  Sn  Sn2  1  0.248113  0.130828  0.598010  1
  Sn  Sn3  1  0.182506  0.182506  0.182506  1
  Sn  Sn4  1  0.682506  0.682506  0.682506  1
  Sn  Sn5  1  0.748113  0.098010  0.630828  1
  Sn  Sn6  1  0.130828  0.598010  0.248113  1
  Sn  Sn7  1  0.630828  0.748113  0.098010  1
  P  P8  1  0.827017  0.293848  0.732238  1
  P  P9  1  0.327017  0.232238  0.793848  1
  P  P10  1  0.732238  0.827017  0.293848  1
  P  P11  1  0.293848  0.732238  0.827017  1
  P  P12  1  0.232238  0.793848  0.327017  1
  P  P13  1  0.793848  0.327017  0.232238  1
  O  O14  1  0.790407  0.287522  0.904195  1
  O  O15  1  0.824217  0.470404  0.606469  1
  O  O16  1  0.324217  0.106469  0.970404  1
  O  O17  1  0.904195  0.790407  0.287522  1
  O  O18  1  0.290407  0.404195  0.787522  1
  O  O19  1  0.470404  0.606469  0.824217  1
  O  O20  1  0.606469  0.824217  0.470404  1
  O  O21  1  0.673266  0.998541  0.164760  1
  O  O22  1  0.404195  0.787522  0.290407  1
  O  O23  1  0.164760  0.673266  0.998541  1
  O  O24  1  0.245420  0.749284  0.696084  1
  O  O25  1  0.173266  0.664760  0.498541  1
  O  O26  1  0.287522  0.904195  0.790407  1
  O  O27  1  0.106469  0.970404  0.324217  1
  O  O28  1  0.998541  0.164760  0.673266  1
  O  O29  1  0.970404  0.324217  0.106469  1
  O  O30  1  0.745420  0.196084  0.249284  1
  O  O31  1  0.787522  0.290407  0.404195  1
  O  O32  1  0.696084  0.245420  0.749284  1
  O  O33  1  0.498541  0.173266  0.664760  1
  O  O34  1  0.664760  0.498541  0.173266  1
  O  O35  1  0.749284  0.696084  0.245420  1
  O  O36  1  0.196084  0.249284  0.745420  1
  O  O37  1  0.249284  0.745420  0.196084  1
