# generated using pymatgen
data_YbIn4Pt
_symmetry_space_group_name_H-M   'P 1'
_cell_length_a   8.66579216
_cell_length_b   8.66579216
_cell_length_c   7.68421917
_cell_angle_alpha   90.00000000
_cell_angle_beta   90.00000000
_cell_angle_gamma   149.98263799
_symmetry_Int_Tables_number   1
_chemical_formula_structural   YbIn4Pt
_chemical_formula_sum   'Yb2 In8 Pt2'
_cell_volume   288.67830477
_cell_formula_units_Z   2
loop_
 _symmetry_equiv_pos_site_id
 _symmetry_equiv_pos_as_xyz
  1  'x, y, z'
loop_
 _atom_site_type_symbol
 _atom_site_label
 _atom_site_symmetry_multiplicity
 _atom_site_fract_x
 _atom_site_fract_y
 _atom_site_fract_z
 _atom_site_occupancy
  Yb  Yb0  1  0.131766  0.868234  0.750000  1
  Yb  Yb1  1  0.868234  0.131766  0.250000  1
  In  In2  1  0.500000  0.500000  0.500000  1
  In  In3  1  0.500000  0.500000  0.000000  1
  In  In4  1  0.062742  0.937258  0.250000  1
  In  In5  1  0.937258  0.062742  0.750000  1
  In  In6  1  0.318140  0.681860  0.952351  1
  In  In7  1  0.681860  0.318140  0.047649  1
  In  In8  1  0.681860  0.318140  0.452351  1
  In  In9  1  0.318140  0.681860  0.547649  1
  Pt  Pt10  1  0.772614  0.227386  0.750000  1
  Pt  Pt11  1  0.227386  0.772614  0.250000  1
