# generated using pymatgen
data_PbO2
_symmetry_space_group_name_H-M   'P 1'
_cell_length_a   5.10077067
_cell_length_b   5.57847310
_cell_length_c   6.07261617
_cell_angle_alpha   90.00000000
_cell_angle_beta   90.00000000
_cell_angle_gamma   90.00000000
_symmetry_Int_Tables_number   1
_chemical_formula_structural   PbO2
_chemical_formula_sum   'Pb4 O8'
_cell_volume   172.79332951
_cell_formula_units_Z   4
loop_
 _symmetry_equiv_pos_site_id
 _symmetry_equiv_pos_as_xyz
  1  'x, y, z'
loop_
 _atom_site_type_symbol
 _atom_site_label
 _atom_site_symmetry_multiplicity
 _atom_site_fract_x
 _atom_site_fract_y
 _atom_site_fract_z
 _atom_site_occupancy
  Pb  Pb0  1  0.500000  0.750000  0.175942  1
  Pb  Pb1  1  0.000000  0.250000  0.324058  1
  Pb  Pb2  1  0.500000  0.250000  0.824058  1
  Pb  Pb3  1  0.000000  0.750000  0.675942  1
  O  O4  1  0.266591  0.427704  0.096457  1
  O  O5  1  0.766591  0.572296  0.403543  1
  O  O6  1  0.233409  0.927704  0.403543  1
  O  O7  1  0.733409  0.072296  0.096457  1
  O  O8  1  0.266591  0.927704  0.903543  1
  O  O9  1  0.766591  0.072296  0.596457  1
  O  O10  1  0.233409  0.427704  0.596457  1
  O  O11  1  0.733409  0.572296  0.903543  1
