# generated using pymatgen
data_LiNb2(PO4)3
_symmetry_space_group_name_H-M   'P 1'
_cell_length_a   8.67207342
_cell_length_b   8.67806271
_cell_length_c   9.12914192
_cell_angle_alpha   90.82209763
_cell_angle_beta   118.07085794
_cell_angle_gamma   119.13711414
_symmetry_Int_Tables_number   1
_chemical_formula_structural   LiNb2(PO4)3
_chemical_formula_sum   'Li2 Nb4 P6 O24'
_cell_volume   502.38614769
_cell_formula_units_Z   2
loop_
 _symmetry_equiv_pos_site_id
 _symmetry_equiv_pos_as_xyz
  1  'x, y, z'
loop_
 _atom_site_type_symbol
 _atom_site_label
 _atom_site_symmetry_multiplicity
 _atom_site_fract_x
 _atom_site_fract_y
 _atom_site_fract_z
 _atom_site_occupancy
  Li  Li0  1  0.767201  0.236181  0.585769  1
  Li  Li1  1  0.232799  0.763819  0.414231  1
  Nb  Nb2  1  0.788214  0.133015  0.930697  1
  Nb  Nb3  1  0.210205  0.356500  0.563084  1
  Nb  Nb4  1  0.211786  0.866985  0.069303  1
  Nb  Nb5  1  0.789795  0.643500  0.436916  1
  P  P6  1  0.722582  0.467281  0.750606  1
  P  P7  1  0.288001  0.751790  0.745347  1
  P  P8  1  0.711999  0.248210  0.254653  1
  P  P9  1  0.992317  0.960268  0.248505  1
  P  P10  1  0.277418  0.532719  0.249394  1
  P  P11  1  0.007683  0.039732  0.751495  1
  O  O12  1  0.235563  0.524381  0.399531  1
  O  O13  1  0.312519  0.720227  0.223307  1
  O  O14  1  0.687481  0.279773  0.776693  1
  O  O15  1  0.502758  0.103509  0.238870  1
  O  O16  1  0.471642  0.529814  0.301664  1
  O  O17  1  0.865851  0.968775  0.064922  1
  O  O18  1  0.528358  0.470186  0.698336  1
  O  O19  1  0.258355  0.560023  0.726964  1
  O  O20  1  0.131041  0.893304  0.252705  1
  O  O21  1  0.142340  0.159065  0.381651  1
  O  O22  1  0.289600  0.808998  0.905251  1
  O  O23  1  0.157939  0.174951  0.701312  1
  O  O24  1  0.916985  0.631529  0.917570  1
  O  O25  1  0.134149  0.031225  0.935078  1
  O  O26  1  0.764437  0.475619  0.600469  1
  O  O27  1  0.868959  0.106696  0.747295  1
  O  O28  1  0.083015  0.368471  0.082430  1
  O  O29  1  0.114453  0.743144  0.570964  1
  O  O30  1  0.710400  0.191002  0.094749  1
  O  O31  1  0.741645  0.439977  0.273036  1
  O  O32  1  0.885547  0.256856  0.429036  1
  O  O33  1  0.497242  0.896491  0.761130  1
  O  O34  1  0.842061  0.825049  0.298688  1
  O  O35  1  0.857660  0.840935  0.618349  1
