# generated using pymatgen
data_Li3Ti2(PO4)3
_symmetry_space_group_name_H-M   'P 1'
_cell_length_a   9.07267358
_cell_length_b   9.07267358
_cell_length_c   9.07267358
_cell_angle_alpha   55.84949832
_cell_angle_beta   55.84949832
_cell_angle_gamma   55.84949832
_symmetry_Int_Tables_number   1
_chemical_formula_structural   Li3Ti2(PO4)3
_chemical_formula_sum   'Li6 Ti4 P6 O24'
_cell_volume   477.25848104
_cell_formula_units_Z   2
loop_
 _symmetry_equiv_pos_site_id
 _symmetry_equiv_pos_as_xyz
  1  'x, y, z'
loop_
 _atom_site_type_symbol
 _atom_site_label
 _atom_site_symmetry_multiplicity
 _atom_site_fract_x
 _atom_site_fract_y
 _atom_site_fract_z
 _atom_site_occupancy
  Li  Li0  1  0.077666  0.338160  0.735645  1
  Li  Li1  1  0.338160  0.735645  0.077666  1
  Li  Li2  1  0.661840  0.264355  0.922334  1
  Li  Li3  1  0.922334  0.661840  0.264355  1
  Li  Li4  1  0.264355  0.922334  0.661840  1
  Li  Li5  1  0.735645  0.077666  0.338160  1
  Ti  Ti6  1  0.146501  0.146501  0.146501  1
  Ti  Ti7  1  0.348292  0.348292  0.348292  1
  Ti  Ti8  1  0.853499  0.853499  0.853499  1
  Ti  Ti9  1  0.651708  0.651708  0.651708  1
  P  P10  1  0.540929  0.958077  0.250174  1
  P  P11  1  0.041923  0.749826  0.459071  1
  P  P12  1  0.958077  0.250174  0.540929  1
  P  P13  1  0.749826  0.459071  0.041923  1
  P  P14  1  0.459071  0.041923  0.749826  1
  P  P15  1  0.250174  0.540929  0.958077  1
  O  O16  1  0.388217  0.995517  0.196369  1
  O  O17  1  0.460822  0.846224  0.792587  1
  O  O18  1  0.505768  0.835398  0.465304  1
  O  O19  1  0.611783  0.004483  0.803631  1
  O  O20  1  0.254940  0.139822  0.873119  1
  O  O21  1  0.745060  0.860178  0.126881  1
  O  O22  1  0.803631  0.611783  0.004483  1
  O  O23  1  0.792587  0.460822  0.846224  1
  O  O24  1  0.995517  0.196369  0.388217  1
  O  O25  1  0.494232  0.164603  0.534696  1
  O  O26  1  0.207413  0.539178  0.153776  1
  O  O27  1  0.139822  0.873119  0.254940  1
  O  O28  1  0.534696  0.494232  0.164603  1
  O  O29  1  0.539178  0.153776  0.207413  1
  O  O30  1  0.846224  0.792587  0.460822  1
  O  O31  1  0.860178  0.126881  0.745060  1
  O  O32  1  0.153776  0.207413  0.539178  1
  O  O33  1  0.004483  0.803631  0.611783  1
  O  O34  1  0.465304  0.505768  0.835398  1
  O  O35  1  0.873119  0.254940  0.139822  1
  O  O36  1  0.126881  0.745060  0.860178  1
  O  O37  1  0.835397  0.465304  0.505768  1
  O  O38  1  0.196369  0.388217  0.995517  1
  O  O39  1  0.164603  0.534696  0.494232  1
