# generated using pymatgen
data_Sr5(Br4Cl)2
_symmetry_space_group_name_H-M   'P 1'
_cell_length_a   11.60124086
_cell_length_b   11.60124086
_cell_length_c   7.15836656
_cell_angle_alpha   90.00000000
_cell_angle_beta   90.00000000
_cell_angle_gamma   90.00000000
_symmetry_Int_Tables_number   1
_chemical_formula_structural   Sr5(Br4Cl)2
_chemical_formula_sum   'Sr10 Br16 Cl4'
_cell_volume   963.43589005
_cell_formula_units_Z   2
loop_
 _symmetry_equiv_pos_site_id
 _symmetry_equiv_pos_as_xyz
  1  'x, y, z'
loop_
 _atom_site_type_symbol
 _atom_site_label
 _atom_site_symmetry_multiplicity
 _atom_site_fract_x
 _atom_site_fract_y
 _atom_site_fract_z
 _atom_site_occupancy
  Sr  Sr0  1  0.500000  0.000000  0.150008  1
  Sr  Sr1  1  0.000000  0.500000  0.849992  1
  Sr  Sr2  1  0.843219  0.859477  0.751753  1
  Sr  Sr3  1  0.359477  0.656781  0.751753  1
  Sr  Sr4  1  0.640523  0.343219  0.751753  1
  Sr  Sr5  1  0.156781  0.140523  0.751753  1
  Sr  Sr6  1  0.656781  0.640523  0.248247  1
  Sr  Sr7  1  0.140523  0.843219  0.248247  1
  Sr  Sr8  1  0.859477  0.156781  0.248247  1
  Sr  Sr9  1  0.343219  0.359477  0.248247  1
  Br  Br10  1  0.709215  0.089382  0.901841  1
  Br  Br11  1  0.589382  0.790785  0.901841  1
  Br  Br12  1  0.410618  0.209215  0.901841  1
  Br  Br13  1  0.290785  0.910618  0.901841  1
  Br  Br14  1  0.790785  0.410618  0.098159  1
  Br  Br15  1  0.910618  0.709215  0.098159  1
  Br  Br16  1  0.212429  0.403082  0.622939  1
  Br  Br17  1  0.903082  0.287571  0.622939  1
  Br  Br18  1  0.096918  0.712429  0.622939  1
  Br  Br19  1  0.787571  0.596918  0.622939  1
  Br  Br20  1  0.287571  0.096918  0.377061  1
  Br  Br21  1  0.596918  0.212429  0.377061  1
  Br  Br22  1  0.403082  0.787571  0.377061  1
  Br  Br23  1  0.712429  0.903082  0.377061  1
  Br  Br24  1  0.209215  0.589382  0.098159  1
  Br  Br25  1  0.089382  0.290785  0.098159  1
  Cl  Cl26  1  0.000000  0.000000  0.500000  1
  Cl  Cl27  1  0.500000  0.500000  0.500000  1
  Cl  Cl28  1  0.000000  0.000000  0.000000  1
  Cl  Cl29  1  0.500000  0.500000  0.000000  1
