# generated using pymatgen
data_Cu3SbSe3
_symmetry_space_group_name_H-M   'P 1'
_cell_length_a   6.91620144
_cell_length_b   8.04672596
_cell_length_c   10.58433663
_cell_angle_alpha   90.00000000
_cell_angle_beta   90.00000000
_cell_angle_gamma   90.00000000
_symmetry_Int_Tables_number   1
_chemical_formula_structural   Cu3SbSe3
_chemical_formula_sum   'Cu12 Sb4 Se12'
_cell_volume   589.04773327
_cell_formula_units_Z   4
loop_
 _symmetry_equiv_pos_site_id
 _symmetry_equiv_pos_as_xyz
  1  'x, y, z'
loop_
 _atom_site_type_symbol
 _atom_site_label
 _atom_site_symmetry_multiplicity
 _atom_site_fract_x
 _atom_site_fract_y
 _atom_site_fract_z
 _atom_site_occupancy
  Cu  Cu0  1  0.066136  0.691827  0.250000  1
  Cu  Cu1  1  0.566136  0.808173  0.750000  1
  Cu  Cu2  1  0.933864  0.308173  0.750000  1
  Cu  Cu3  1  0.433864  0.191827  0.250000  1
  Cu  Cu4  1  0.253495  0.099454  0.046147  1
  Cu  Cu5  1  0.753495  0.400546  0.953853  1
  Cu  Cu6  1  0.246505  0.599454  0.453853  1
  Cu  Cu7  1  0.746505  0.900546  0.546147  1
  Cu  Cu8  1  0.746505  0.900546  0.953853  1
  Cu  Cu9  1  0.246505  0.599454  0.046147  1
  Cu  Cu10  1  0.753495  0.400546  0.546147  1
  Cu  Cu11  1  0.253495  0.099454  0.453853  1
  Sb  Sb12  1  0.109129  0.755440  0.750000  1
  Sb  Sb13  1  0.609129  0.744560  0.250000  1
  Sb  Sb14  1  0.390871  0.255440  0.750000  1
  Sb  Sb15  1  0.890871  0.244560  0.250000  1
  Se  Se16  1  0.348827  0.843979  0.937532  1
  Se  Se17  1  0.848827  0.656021  0.062468  1
  Se  Se18  1  0.651173  0.156021  0.437532  1
  Se  Se19  1  0.151173  0.343979  0.562468  1
  Se  Se20  1  0.141000  0.998329  0.250000  1
  Se  Se21  1  0.641000  0.501671  0.750000  1
  Se  Se22  1  0.359000  0.498329  0.250000  1
  Se  Se23  1  0.859000  0.001671  0.750000  1
  Se  Se24  1  0.651173  0.156021  0.062468  1
  Se  Se25  1  0.151173  0.343979  0.937532  1
  Se  Se26  1  0.848827  0.656021  0.437532  1
  Se  Se27  1  0.348827  0.843979  0.562468  1
