# generated using pymatgen
data_Er7Ru2C11
_symmetry_space_group_name_H-M   'P 1'
_cell_length_a   8.40949797
_cell_length_b   8.40949797
_cell_length_c   19.73231834
_cell_angle_alpha   90.00000000
_cell_angle_beta   90.00000000
_cell_angle_gamma   156.63516798
_symmetry_Int_Tables_number   1
_chemical_formula_structural   Er7Ru2C11
_chemical_formula_sum   'Er14 Ru4 C22'
_cell_volume   553.41890548
_cell_formula_units_Z   2
loop_
 _symmetry_equiv_pos_site_id
 _symmetry_equiv_pos_as_xyz
  1  'x, y, z'
loop_
 _atom_site_type_symbol
 _atom_site_label
 _atom_site_symmetry_multiplicity
 _atom_site_fract_x
 _atom_site_fract_y
 _atom_site_fract_z
 _atom_site_occupancy
  Er  Er0  1  0.895884  0.104116  0.250000  1
  Er  Er1  1  0.104116  0.895884  0.750000  1
  Er  Er2  1  0.478182  0.521818  0.627113  1
  Er  Er3  1  0.521818  0.478182  0.372887  1
  Er  Er4  1  0.521818  0.478182  0.127113  1
  Er  Er5  1  0.478182  0.521818  0.872887  1
  Er  Er6  1  0.661769  0.338231  0.518777  1
  Er  Er7  1  0.338231  0.661769  0.481223  1
  Er  Er8  1  0.338231  0.661769  0.018777  1
  Er  Er9  1  0.661769  0.338231  0.981223  1
  Er  Er10  1  0.721303  0.278697  0.154981  1
  Er  Er11  1  0.278697  0.721303  0.845019  1
  Er  Er12  1  0.278697  0.721303  0.654981  1
  Er  Er13  1  0.721303  0.278697  0.345019  1
  Ru  Ru14  1  0.000000  0.000000  0.500000  1
  Ru  Ru15  1  0.000000  0.000000  0.000000  1
  Ru  Ru16  1  0.079863  0.920137  0.250000  1
  Ru  Ru17  1  0.920137  0.079863  0.750000  1
  C  C18  1  0.500391  0.499609  0.250000  1
  C  C19  1  0.499609  0.500391  0.750000  1
  C  C20  1  0.277927  0.722073  0.250000  1
  C  C21  1  0.722073  0.277927  0.750000  1
  C  C22  1  0.196982  0.803018  0.250000  1
  C  C23  1  0.803018  0.196982  0.750000  1
  C  C24  1  0.793549  0.206451  0.563719  1
  C  C25  1  0.206451  0.793549  0.436281  1
  C  C26  1  0.206451  0.793549  0.063719  1
  C  C27  1  0.793549  0.206451  0.936281  1
  C  C28  1  0.867064  0.132936  0.123702  1
  C  C29  1  0.132936  0.867064  0.876298  1
  C  C30  1  0.132936  0.867064  0.623702  1
  C  C31  1  0.867064  0.132936  0.376298  1
  C  C32  1  0.873172  0.126828  0.584758  1
  C  C33  1  0.126828  0.873172  0.415242  1
  C  C34  1  0.126828  0.873172  0.084758  1
  C  C35  1  0.873172  0.126828  0.915242  1
  C  C36  1  0.925281  0.074719  0.421098  1
  C  C37  1  0.074719  0.925281  0.578902  1
  C  C38  1  0.074719  0.925281  0.921098  1
  C  C39  1  0.925281  0.074719  0.078902  1
