# generated using pymatgen
data_Tb3(MnC3)2
_symmetry_space_group_name_H-M   'P 1'
_cell_length_a   8.12064196
_cell_length_b   8.12064196
_cell_length_c   4.99825332
_cell_angle_alpha   90.00000000
_cell_angle_beta   90.00000000
_cell_angle_gamma   120.00000000
_symmetry_Int_Tables_number   1
_chemical_formula_structural   Tb3(MnC3)2
_chemical_formula_sum   'Tb6 Mn4 C12'
_cell_volume   285.44971946
_cell_formula_units_Z   2
loop_
 _symmetry_equiv_pos_site_id
 _symmetry_equiv_pos_as_xyz
  1  'x, y, z'
loop_
 _atom_site_type_symbol
 _atom_site_label
 _atom_site_symmetry_multiplicity
 _atom_site_fract_x
 _atom_site_fract_y
 _atom_site_fract_z
 _atom_site_occupancy
  Tb  Tb0  1  0.620506  0.684979  0.750000  1
  Tb  Tb1  1  0.935527  0.620506  0.250000  1
  Tb  Tb2  1  0.684979  0.064473  0.250000  1
  Tb  Tb3  1  0.315021  0.935527  0.750000  1
  Tb  Tb4  1  0.064473  0.379494  0.750000  1
  Tb  Tb5  1  0.379494  0.315021  0.250000  1
  Mn  Mn6  1  0.000000  0.000000  0.500000  1
  Mn  Mn7  1  0.000000  0.000000  0.000000  1
  Mn  Mn8  1  0.666667  0.333333  0.750000  1
  Mn  Mn9  1  0.333333  0.666667  0.250000  1
  C  C10  1  0.964037  0.772957  0.750000  1
  C  C11  1  0.191081  0.964037  0.250000  1
  C  C12  1  0.772957  0.808919  0.250000  1
  C  C13  1  0.227043  0.191081  0.750000  1
  C  C14  1  0.808919  0.035963  0.750000  1
  C  C15  1  0.035963  0.227043  0.250000  1
  C  C16  1  0.864300  0.578715  0.750000  1
  C  C17  1  0.285585  0.864300  0.250000  1
  C  C18  1  0.578715  0.714415  0.250000  1
  C  C19  1  0.421285  0.285585  0.750000  1
  C  C20  1  0.135700  0.421285  0.250000  1
  C  C21  1  0.714415  0.135700  0.750000  1
