# generated using pymatgen
data_BClF6
_symmetry_space_group_name_H-M   'P 1'
_cell_length_a   5.88679932
_cell_length_b   9.10510064
_cell_length_c   10.09448396
_cell_angle_alpha   90.00000000
_cell_angle_beta   116.82232340
_cell_angle_gamma   90.00000000
_symmetry_Int_Tables_number   1
_chemical_formula_structural   BClF6
_chemical_formula_sum   'B4 Cl4 F24'
_cell_volume   482.85037315
_cell_formula_units_Z   4
loop_
 _symmetry_equiv_pos_site_id
 _symmetry_equiv_pos_as_xyz
  1  'x, y, z'
loop_
 _atom_site_type_symbol
 _atom_site_label
 _atom_site_symmetry_multiplicity
 _atom_site_fract_x
 _atom_site_fract_y
 _atom_site_fract_z
 _atom_site_occupancy
  B  B0  1  0.566722  0.496266  0.324097  1
  B  B1  1  0.433278  0.996266  0.175903  1
  B  B2  1  0.433278  0.503734  0.675903  1
  B  B3  1  0.566722  0.003734  0.824097  1
  Cl  Cl4  1  0.824718  0.715963  0.613422  1
  Cl  Cl5  1  0.175282  0.215963  0.886578  1
  Cl  Cl6  1  0.175282  0.284037  0.386578  1
  Cl  Cl7  1  0.824718  0.784037  0.113422  1
  F  F8  1  0.923732  0.657623  0.038709  1
  F  F9  1  0.076268  0.157623  0.461291  1
  F  F10  1  0.076268  0.342377  0.961291  1
  F  F11  1  0.923732  0.842377  0.538709  1
  F  F12  1  0.007271  0.733264  0.282512  1
  F  F13  1  0.992729  0.233264  0.217488  1
  F  F14  1  0.992729  0.266736  0.717488  1
  F  F15  1  0.007271  0.766736  0.782512  1
  F  F16  1  0.611191  0.001220  0.701479  1
  F  F17  1  0.388809  0.501220  0.798521  1
  F  F18  1  0.388809  0.998780  0.298521  1
  F  F19  1  0.611191  0.498780  0.201479  1
  F  F20  1  0.301137  0.046808  0.778028  1
  F  F21  1  0.698863  0.546808  0.721972  1
  F  F22  1  0.698863  0.953192  0.221972  1
  F  F23  1  0.301137  0.453192  0.278028  1
  F  F24  1  0.726746  0.095208  0.936902  1
  F  F25  1  0.273254  0.595208  0.563098  1
  F  F26  1  0.273254  0.904792  0.063098  1
  F  F27  1  0.726746  0.404792  0.436902  1
  F  F28  1  0.584354  0.853498  0.880564  1
  F  F29  1  0.415646  0.353498  0.619436  1
  F  F30  1  0.415646  0.146502  0.119436  1
  F  F31  1  0.584354  0.646502  0.380564  1
