# generated using pymatgen
data_H2SeO3
_symmetry_space_group_name_H-M   'P 1'
_cell_length_a   5.11427302
_cell_length_b   6.19819444
_cell_length_c   9.33869387
_cell_angle_alpha   90.00000000
_cell_angle_beta   90.00000000
_cell_angle_gamma   90.00000000
_symmetry_Int_Tables_number   1
_chemical_formula_structural   H2SeO3
_chemical_formula_sum   'H8 Se4 O12'
_cell_volume   296.02967195
_cell_formula_units_Z   4
loop_
 _symmetry_equiv_pos_site_id
 _symmetry_equiv_pos_as_xyz
  1  'x, y, z'
loop_
 _atom_site_type_symbol
 _atom_site_label
 _atom_site_symmetry_multiplicity
 _atom_site_fract_x
 _atom_site_fract_y
 _atom_site_fract_z
 _atom_site_occupancy
  H  H0  1  0.092102  0.689876  0.295709  1
  H  H1  1  0.592102  0.810124  0.704291  1
  H  H2  1  0.907898  0.189876  0.204291  1
  H  H3  1  0.407898  0.310124  0.795709  1
  H  H4  1  0.435567  0.555505  0.133560  1
  H  H5  1  0.935567  0.944495  0.866440  1
  H  H6  1  0.564433  0.055505  0.366440  1
  H  H7  1  0.064433  0.444495  0.633560  1
  Se  Se8  1  0.137803  0.991177  0.452844  1
  Se  Se9  1  0.637803  0.508823  0.547156  1
  Se  Se10  1  0.862197  0.491177  0.047156  1
  Se  Se11  1  0.362197  0.008823  0.952844  1
  O  O12  1  0.888860  0.118149  0.370064  1
  O  O13  1  0.118638  0.928822  0.827738  1
  O  O14  1  0.881362  0.428822  0.672262  1
  O  O15  1  0.381362  0.071178  0.327738  1
  O  O16  1  0.397253  0.286181  0.904073  1
  O  O17  1  0.897253  0.213819  0.095927  1
  O  O18  1  0.602747  0.786181  0.595927  1
  O  O19  1  0.102747  0.713819  0.404073  1
  O  O20  1  0.111140  0.618149  0.129936  1
  O  O21  1  0.611140  0.881851  0.870064  1
  O  O22  1  0.618638  0.571178  0.172262  1
  O  O23  1  0.388860  0.381851  0.629936  1
