# generated using pymatgen
data_SmMnO3
_symmetry_space_group_name_H-M   'P 1'
_cell_length_a   5.42892412
_cell_length_b   5.90686446
_cell_length_c   7.60301327
_cell_angle_alpha   90.00000000
_cell_angle_beta   90.00000000
_cell_angle_gamma   90.00000000
_symmetry_Int_Tables_number   1
_chemical_formula_structural   SmMnO3
_chemical_formula_sum   'Sm4 Mn4 O12'
_cell_volume   243.81281325
_cell_formula_units_Z   4
loop_
 _symmetry_equiv_pos_site_id
 _symmetry_equiv_pos_as_xyz
  1  'x, y, z'
loop_
 _atom_site_type_symbol
 _atom_site_label
 _atom_site_symmetry_multiplicity
 _atom_site_fract_x
 _atom_site_fract_y
 _atom_site_fract_z
 _atom_site_occupancy
  Sm  Sm0  1  0.017416  0.923399  0.750000  1
  Sm  Sm1  1  0.517416  0.576601  0.250000  1
  Sm  Sm2  1  0.482584  0.423399  0.750000  1
  Sm  Sm3  1  0.982584  0.076601  0.250000  1
  Mn  Mn4  1  0.500000  0.000000  0.500000  1
  Mn  Mn5  1  0.000000  0.500000  0.500000  1
  Mn  Mn6  1  0.000000  0.500000  0.000000  1
  Mn  Mn7  1  0.500000  0.000000  0.000000  1
  O  O8  1  0.708355  0.319972  0.448214  1
  O  O9  1  0.208355  0.180028  0.551786  1
  O  O10  1  0.791645  0.819972  0.051786  1
  O  O11  1  0.291645  0.680028  0.948214  1
  O  O12  1  0.291645  0.680028  0.551786  1
  O  O13  1  0.791645  0.819972  0.448214  1
  O  O14  1  0.208355  0.180028  0.948214  1
  O  O15  1  0.708355  0.319972  0.051786  1
  O  O16  1  0.105645  0.467444  0.250000  1
  O  O17  1  0.605645  0.032556  0.750000  1
  O  O18  1  0.394355  0.967444  0.250000  1
  O  O19  1  0.894355  0.532556  0.750000  1
