# generated using pymatgen
data_Ta4P4S29
_symmetry_space_group_name_H-M   'P 1'
_cell_length_a   15.91845230
_cell_length_b   15.91845230
_cell_length_c   14.11829858
_cell_angle_alpha   90.00000000
_cell_angle_beta   90.00000000
_cell_angle_gamma   90.00000000
_symmetry_Int_Tables_number   1
_chemical_formula_structural   Ta4P4S29
_chemical_formula_sum   'Ta16 P16 S116'
_cell_volume   3577.53625068
_cell_formula_units_Z   4
loop_
 _symmetry_equiv_pos_site_id
 _symmetry_equiv_pos_as_xyz
  1  'x, y, z'
loop_
 _atom_site_type_symbol
 _atom_site_label
 _atom_site_symmetry_multiplicity
 _atom_site_fract_x
 _atom_site_fract_y
 _atom_site_fract_z
 _atom_site_occupancy
  Ta  Ta0  1  0.671044  0.178416  0.775127  1
  Ta  Ta1  1  0.678416  0.828956  0.525127  1
  Ta  Ta2  1  0.321584  0.171044  0.025127  1
  Ta  Ta3  1  0.328956  0.821584  0.275127  1
  Ta  Ta4  1  0.828956  0.678416  0.474873  1
  Ta  Ta5  1  0.171044  0.321584  0.974873  1
  Ta  Ta6  1  0.178416  0.671044  0.224873  1
  Ta  Ta7  1  0.821584  0.328956  0.724873  1
  Ta  Ta8  1  0.669723  0.179849  0.275973  1
  Ta  Ta9  1  0.679849  0.830277  0.025973  1
  Ta  Ta10  1  0.320151  0.169723  0.525973  1
  Ta  Ta11  1  0.330277  0.820151  0.775973  1
  Ta  Ta12  1  0.830277  0.679849  0.974027  1
  Ta  Ta13  1  0.169723  0.320151  0.474027  1
  Ta  Ta14  1  0.179849  0.669723  0.724027  1
  Ta  Ta15  1  0.820151  0.330277  0.224027  1
  P  P16  1  0.507233  0.183307  0.920358  1
  P  P17  1  0.683307  0.992767  0.670358  1
  P  P18  1  0.316693  0.007233  0.170358  1
  P  P19  1  0.492767  0.816693  0.420358  1
  P  P20  1  0.992767  0.683307  0.329642  1
  P  P21  1  0.007233  0.316693  0.829642  1
  P  P22  1  0.183307  0.507233  0.079642  1
  P  P23  1  0.816693  0.492767  0.579642  1
  P  P24  1  0.505833  0.183751  0.421517  1
  P  P25  1  0.683751  0.994167  0.171517  1
  P  P26  1  0.316249  0.005833  0.671517  1
  P  P27  1  0.494167  0.816249  0.921517  1
  P  P28  1  0.994167  0.683751  0.828483  1
  P  P29  1  0.005833  0.316249  0.328483  1
  P  P30  1  0.183751  0.505833  0.578483  1
  P  P31  1  0.816249  0.494167  0.078483  1
  S  S32  1  0.023464  0.257428  0.957937  1
  S  S33  1  0.757428  0.476536  0.707937  1
  S  S34  1  0.242572  0.523464  0.207937  1
  S  S35  1  0.976536  0.742572  0.457937  1
  S  S36  1  0.476536  0.757428  0.292063  1
  S  S37  1  0.523464  0.242572  0.792063  1
  S  S38  1  0.257428  0.023464  0.042063  1
  S  S39  1  0.742572  0.976536  0.542063  1
  S  S40  1  0.022212  0.255098  0.455824  1
  S  S41  1  0.755098  0.477788  0.205824  1
  S  S42  1  0.244902  0.522212  0.705824  1
  S  S43  1  0.977788  0.744902  0.955824  1
  S  S44  1  0.477788  0.755098  0.794176  1
  S  S45  1  0.522212  0.244902  0.294176  1
  S  S46  1  0.255098  0.022212  0.544176  1
  S  S47  1  0.744902  0.977788  0.044176  1
  S  S48  1  0.462903  0.254065  0.031027  1
  S  S49  1  0.754065  0.037097  0.781027  1
  S  S50  1  0.245935  0.962903  0.281027  1
  S  S51  1  0.537097  0.745935  0.531027  1
  S  S52  1  0.037097  0.754065  0.218973  1
  S  S53  1  0.962903  0.245935  0.718973  1
  S  S54  1  0.254065  0.462903  0.968973  1
  S  S55  1  0.745935  0.537097  0.468973  1
  S  S56  1  0.461403  0.252364  0.533937  1
  S  S57  1  0.752364  0.038597  0.283937  1
  S  S58  1  0.247636  0.961403  0.783937  1
  S  S59  1  0.538597  0.747636  0.033937  1
  S  S60  1  0.038597  0.752364  0.716063  1
  S  S61  1  0.961403  0.247636  0.216063  1
  S  S62  1  0.252364  0.461403  0.466063  1
  S  S63  1  0.747636  0.538597  0.966063  1
  S  S64  1  0.368421  0.124835  0.185682  1
  S  S65  1  0.624835  0.131579  0.935682  1
  S  S66  1  0.375165  0.868421  0.435682  1
  S  S67  1  0.631579  0.875165  0.685682  1
  S  S68  1  0.131579  0.624835  0.064318  1
  S  S69  1  0.868421  0.375165  0.564318  1
  S  S70  1  0.124835  0.368421  0.814318  1
  S  S71  1  0.875165  0.631579  0.314318  1
  S  S72  1  0.367870  0.123557  0.686040  1
  S  S73  1  0.623557  0.132130  0.436040  1
  S  S74  1  0.376443  0.867870  0.936040  1
  S  S75  1  0.632130  0.876443  0.186040  1
  S  S76  1  0.132130  0.623557  0.563960  1
  S  S77  1  0.867870  0.376443  0.063960  1
  S  S78  1  0.123557  0.367870  0.313960  1
  S  S79  1  0.876443  0.632130  0.813960  1
  S  S80  1  0.089498  0.416143  0.077343  1
  S  S81  1  0.916143  0.410502  0.827343  1
  S  S82  1  0.083857  0.589498  0.327343  1
  S  S83  1  0.910502  0.583857  0.577343  1
  S  S84  1  0.410502  0.916143  0.172657  1
  S  S85  1  0.589498  0.083857  0.672657  1
  S  S86  1  0.416143  0.089498  0.922657  1
  S  S87  1  0.583857  0.910502  0.422657  1
  S  S88  1  0.089461  0.415111  0.577603  1
  S  S89  1  0.915111  0.410539  0.327603  1
  S  S90  1  0.084889  0.589461  0.827603  1
  S  S91  1  0.910539  0.584889  0.077603  1
  S  S92  1  0.410539  0.915111  0.672397  1
  S  S93  1  0.589461  0.084889  0.172397  1
  S  S94  1  0.415111  0.089461  0.422397  1
  S  S95  1  0.584889  0.910539  0.922397  1
  S  S96  1  0.180820  0.215041  0.110299  1
  S  S97  1  0.715041  0.319180  0.860299  1
  S  S98  1  0.284959  0.680820  0.360299  1
  S  S99  1  0.819180  0.784959  0.610299  1
  S  S100  1  0.319180  0.715041  0.139701  1
  S  S101  1  0.680820  0.284959  0.639701  1
  S  S102  1  0.215041  0.180820  0.889701  1
  S  S103  1  0.784959  0.819180  0.389701  1
  S  S104  1  0.179315  0.214253  0.610297  1
  S  S105  1  0.714253  0.320685  0.360297  1
  S  S106  1  0.285747  0.679315  0.860297  1
  S  S107  1  0.820685  0.785747  0.110297  1
  S  S108  1  0.320685  0.714253  0.639703  1
  S  S109  1  0.679315  0.285747  0.139703  1
  S  S110  1  0.214253  0.179315  0.389703  1
  S  S111  1  0.785747  0.820685  0.889703  1
  S  S112  1  0.274755  0.302374  0.114216  1
  S  S113  1  0.802374  0.225245  0.864216  1
  S  S114  1  0.197626  0.774755  0.364216  1
  S  S115  1  0.725245  0.697626  0.614216  1
  S  S116  1  0.225245  0.802374  0.135784  1
  S  S117  1  0.774755  0.197626  0.635784  1
  S  S118  1  0.302374  0.274755  0.885784  1
  S  S119  1  0.697626  0.725245  0.385784  1
  S  S120  1  0.273379  0.301348  0.613873  1
  S  S121  1  0.801348  0.226621  0.363873  1
  S  S122  1  0.198652  0.773379  0.863873  1
  S  S123  1  0.726621  0.698652  0.113873  1
  S  S124  1  0.226621  0.801348  0.636127  1
  S  S125  1  0.773379  0.198652  0.136127  1
  S  S126  1  0.301348  0.273379  0.386127  1
  S  S127  1  0.698652  0.726621  0.886127  1
  S  S128  1  0.529078  0.553688  0.652000  1
  S  S129  1  0.053688  0.970922  0.402000  1
  S  S130  1  0.946312  0.029078  0.902000  1
  S  S131  1  0.470922  0.446312  0.152000  1
  S  S132  1  0.970922  0.053688  0.598000  1
  S  S133  1  0.029078  0.946312  0.098000  1
  S  S134  1  0.553688  0.529078  0.348000  1
  S  S135  1  0.446312  0.470922  0.848000  1
  S  S136  1  0.511070  0.445296  0.449042  1
  S  S137  1  0.945296  0.988930  0.199042  1
  S  S138  1  0.054704  0.011070  0.699042  1
  S  S139  1  0.488930  0.554704  0.949042  1
  S  S140  1  0.988930  0.945296  0.800958  1
  S  S141  1  0.011070  0.054704  0.300958  1
  S  S142  1  0.445296  0.511070  0.550958  1
  S  S143  1  0.554704  0.488930  0.050958  1
  S  S144  1  0.041714  0.041714  0.000000  1
  S  S145  1  0.541714  0.458286  0.750000  1
  S  S146  1  0.458286  0.541714  0.250000  1
  S  S147  1  0.958286  0.958286  0.500000  1
