# generated using pymatgen
data_LiB(HO)4
_symmetry_space_group_name_H-M   'P 1'
_cell_length_a   7.84440855
_cell_length_b   8.63483055
_cell_length_c   9.26610453
_cell_angle_alpha   90.00000000
_cell_angle_beta   90.00000000
_cell_angle_gamma   90.00000000
_symmetry_Int_Tables_number   1
_chemical_formula_structural   LiB(HO)4
_chemical_formula_sum   'Li8 B8 H32 O32'
_cell_volume   627.64087457
_cell_formula_units_Z   8
loop_
 _symmetry_equiv_pos_site_id
 _symmetry_equiv_pos_as_xyz
  1  'x, y, z'
loop_
 _atom_site_type_symbol
 _atom_site_label
 _atom_site_symmetry_multiplicity
 _atom_site_fract_x
 _atom_site_fract_y
 _atom_site_fract_z
 _atom_site_occupancy
  Li  Li0  1  0.372165  0.374282  0.301254  1
  Li  Li1  1  0.872165  0.125718  0.698746  1
  Li  Li2  1  0.627835  0.874282  0.198746  1
  Li  Li3  1  0.127835  0.625718  0.801254  1
  Li  Li4  1  0.627835  0.625718  0.698746  1
  Li  Li5  1  0.127835  0.874282  0.301254  1
  Li  Li6  1  0.372165  0.125718  0.801254  1
  Li  Li7  1  0.872165  0.374282  0.198746  1
  B  B8  1  0.671718  0.159663  0.408791  1
  B  B9  1  0.171718  0.340337  0.591209  1
  B  B10  1  0.328282  0.659663  0.091209  1
  B  B11  1  0.828282  0.840337  0.908791  1
  B  B12  1  0.328282  0.840337  0.591209  1
  B  B13  1  0.828282  0.659663  0.408791  1
  B  B14  1  0.671718  0.340337  0.908791  1
  B  B15  1  0.171718  0.159663  0.091209  1
  H  H16  1  0.923056  0.212999  0.427348  1
  H  H17  1  0.423056  0.287001  0.572652  1
  H  H18  1  0.076944  0.712999  0.072652  1
  H  H19  1  0.576944  0.787001  0.927348  1
  H  H20  1  0.076944  0.787001  0.572652  1
  H  H21  1  0.576944  0.712999  0.427348  1
  H  H22  1  0.923056  0.287001  0.927348  1
  H  H23  1  0.423056  0.212999  0.072652  1
  H  H24  1  0.983659  0.115383  0.244536  1
  H  H25  1  0.483659  0.384617  0.755464  1
  H  H26  1  0.016341  0.615383  0.255464  1
  H  H27  1  0.516341  0.884617  0.744536  1
  H  H28  1  0.016341  0.884617  0.755464  1
  H  H29  1  0.516341  0.615383  0.244536  1
  H  H30  1  0.983659  0.384617  0.744536  1
  H  H31  1  0.483659  0.115383  0.255464  1
  H  H32  1  0.104881  0.469622  0.413572  1
  H  H33  1  0.604881  0.030378  0.586428  1
  H  H34  1  0.895119  0.969622  0.086428  1
  H  H35  1  0.395119  0.530378  0.913572  1
  H  H36  1  0.895119  0.530378  0.586428  1
  H  H37  1  0.395119  0.969622  0.413572  1
  H  H38  1  0.104881  0.030378  0.913572  1
  H  H39  1  0.604881  0.469622  0.086428  1
  H  H40  1  0.642574  0.388429  0.468229  1
  H  H41  1  0.142574  0.111571  0.531771  1
  H  H42  1  0.357426  0.888429  0.031771  1
  H  H43  1  0.857426  0.611571  0.968229  1
  H  H44  1  0.357426  0.611571  0.531771  1
  H  H45  1  0.857426  0.888429  0.468229  1
  H  H46  1  0.642574  0.111571  0.968229  1
  H  H47  1  0.142574  0.388429  0.031771  1
  O  O48  1  0.839132  0.205868  0.346171  1
  O  O49  1  0.339132  0.294132  0.653829  1
  O  O50  1  0.160868  0.705868  0.153829  1
  O  O51  1  0.660868  0.794132  0.846171  1
  O  O52  1  0.160868  0.794132  0.653829  1
  O  O53  1  0.660868  0.705868  0.346171  1
  O  O54  1  0.839132  0.294132  0.846171  1
  O  O55  1  0.339132  0.205868  0.153829  1
  O  O56  1  0.570054  0.058344  0.314132  1
  O  O57  1  0.070054  0.441656  0.685868  1
  O  O58  1  0.429946  0.558344  0.185868  1
  O  O59  1  0.929946  0.941656  0.814132  1
  O  O60  1  0.429946  0.941656  0.685868  1
  O  O61  1  0.929946  0.558344  0.314132  1
  O  O62  1  0.570054  0.441656  0.814132  1
  O  O63  1  0.070054  0.058344  0.185868  1
  O  O64  1  0.710136  0.075097  0.544256  1
  O  O65  1  0.210136  0.424903  0.455744  1
  O  O66  1  0.289864  0.575097  0.955744  1
  O  O67  1  0.789864  0.924903  0.044256  1
  O  O68  1  0.289864  0.924903  0.455744  1
  O  O69  1  0.789864  0.575097  0.544256  1
  O  O70  1  0.710136  0.424903  0.044256  1
  O  O71  1  0.210136  0.075097  0.955744  1
  O  O72  1  0.567719  0.304705  0.433377  1
  O  O73  1  0.067719  0.195295  0.566623  1
  O  O74  1  0.432281  0.804705  0.066623  1
  O  O75  1  0.932281  0.695295  0.933377  1
  O  O76  1  0.432281  0.695295  0.566623  1
  O  O77  1  0.932281  0.804705  0.433377  1
  O  O78  1  0.567719  0.195295  0.933377  1
  O  O79  1  0.067719  0.304705  0.066623  1
