# generated using pymatgen
data_CdH8C4(S2N3)2
_symmetry_space_group_name_H-M   'P 1'
_cell_length_a   4.16783643
_cell_length_b   7.91261936
_cell_length_c   10.20254712
_cell_angle_alpha   90.98160279
_cell_angle_beta   99.08975087
_cell_angle_gamma   103.81238325
_symmetry_Int_Tables_number   1
_chemical_formula_structural   CdH8C4(S2N3)2
_chemical_formula_sum   'Cd1 H8 C4 S4 N6'
_cell_volume   322.10373792
_cell_formula_units_Z   1
loop_
 _symmetry_equiv_pos_site_id
 _symmetry_equiv_pos_as_xyz
  1  'x, y, z'
loop_
 _atom_site_type_symbol
 _atom_site_label
 _atom_site_symmetry_multiplicity
 _atom_site_fract_x
 _atom_site_fract_y
 _atom_site_fract_z
 _atom_site_occupancy
  Cd  Cd0  1  0.000000  0.000000  0.000000  1
  H  H1  1  0.400301  0.521005  0.867802  1
  H  H2  1  0.599699  0.478995  0.132198  1
  H  H3  1  0.381219  0.493190  0.696630  1
  H  H4  1  0.618781  0.506810  0.303370  1
  H  H5  1  0.667235  0.100638  0.721120  1
  H  H6  1  0.332765  0.899362  0.278880  1
  H  H7  1  0.506554  0.240849  0.610434  1
  H  H8  1  0.493446  0.759151  0.389566  1
  C  C9  1  0.537040  0.303647  0.808401  1
  C  C10  1  0.462960  0.696353  0.191599  1
  C  C11  1  0.926065  0.823108  0.692304  1
  C  C12  1  0.073935  0.176892  0.307696  1
  S  S13  1  0.973148  0.700031  0.572314  1
  S  S14  1  0.026852  0.299969  0.427686  1
  S  S15  1  0.620040  0.242603  0.970928  1
  S  S16  1  0.379960  0.757397  0.029072  1
  N  N17  1  0.581448  0.211210  0.705827  1
  N  N18  1  0.575500  0.553133  0.211267  1
  N  N19  1  0.424500  0.446867  0.788733  1
  N  N20  1  0.418552  0.788790  0.294173  1
  N  N21  1  0.886970  0.915110  0.779177  1
  N  N22  1  0.113030  0.084890  0.220823  1
