# generated using pymatgen
data_LiSn(PO3)4
_symmetry_space_group_name_H-M   'P 1'
_cell_length_a   9.55785228
_cell_length_b   9.55785228
_cell_length_c   9.51758269
_cell_angle_alpha   90.00000000
_cell_angle_beta   90.00000000
_cell_angle_gamma   90.00000000
_symmetry_Int_Tables_number   1
_chemical_formula_structural   LiSn(PO3)4
_chemical_formula_sum   'Li4 Sn4 P16 O48'
_cell_volume   869.45535516
_cell_formula_units_Z   4
loop_
 _symmetry_equiv_pos_site_id
 _symmetry_equiv_pos_as_xyz
  1  'x, y, z'
loop_
 _atom_site_type_symbol
 _atom_site_label
 _atom_site_symmetry_multiplicity
 _atom_site_fract_x
 _atom_site_fract_y
 _atom_site_fract_z
 _atom_site_occupancy
  Li  Li0  1  0.250000  0.750000  0.250000  1
  Li  Li1  1  0.750000  0.250000  0.250000  1
  Li  Li2  1  0.250000  0.250000  0.750000  1
  Li  Li3  1  0.750000  0.750000  0.750000  1
  Sn  Sn4  1  0.000000  0.500000  0.250000  1
  Sn  Sn5  1  0.500000  0.000000  0.750000  1
  Sn  Sn6  1  0.500000  0.000000  0.250000  1
  Sn  Sn7  1  0.000000  0.500000  0.750000  1
  P  P8  1  0.000000  0.223039  0.000000  1
  P  P9  1  0.723039  0.500000  0.500000  1
  P  P10  1  0.783783  0.000000  0.500000  1
  P  P11  1  0.000000  0.783783  0.500000  1
  P  P12  1  0.000000  0.776961  0.000000  1
  P  P13  1  0.716217  0.500000  0.000000  1
  P  P14  1  0.276961  0.500000  0.500000  1
  P  P15  1  0.500000  0.723039  0.500000  1
  P  P16  1  0.216217  0.000000  0.500000  1
  P  P17  1  0.223039  0.000000  0.000000  1
  P  P18  1  0.500000  0.276961  0.500000  1
  P  P19  1  0.500000  0.283783  0.000000  1
  P  P20  1  0.500000  0.716217  0.000000  1
  P  P21  1  0.776961  0.000000  0.000000  1
  P  P22  1  0.000000  0.216217  0.500000  1
  P  P23  1  0.283783  0.500000  0.000000  1
  O  O24  1  0.799868  0.563691  0.378478  1
  O  O25  1  0.200132  0.563691  0.621522  1
  O  O26  1  0.384015  0.615985  0.433444  1
  O  O27  1  0.610776  0.389224  0.927723  1
  O  O28  1  0.792808  0.572634  0.882411  1
  O  O29  1  0.063691  0.700132  0.878478  1
  O  O30  1  0.572634  0.792808  0.882411  1
  O  O31  1  0.436309  0.200132  0.378478  1
  O  O32  1  0.563691  0.200132  0.621522  1
  O  O33  1  0.110776  0.889224  0.572277  1
  O  O34  1  0.072634  0.707192  0.382411  1
  O  O35  1  0.200132  0.436309  0.378478  1
  O  O36  1  0.436309  0.799868  0.621522  1
  O  O37  1  0.799868  0.436309  0.621522  1
  O  O38  1  0.563691  0.799868  0.378478  1
  O  O39  1  0.292808  0.927366  0.382411  1
  O  O40  1  0.936309  0.299868  0.878478  1
  O  O41  1  0.115985  0.884015  0.066556  1
  O  O42  1  0.110776  0.110776  0.427723  1
  O  O43  1  0.389224  0.389224  0.072277  1
  O  O44  1  0.927366  0.707192  0.617589  1
  O  O45  1  0.207192  0.427366  0.882411  1
  O  O46  1  0.299868  0.936309  0.878478  1
  O  O47  1  0.792808  0.427366  0.117589  1
  O  O48  1  0.292808  0.072634  0.617589  1
  O  O49  1  0.384015  0.384015  0.566556  1
  O  O50  1  0.936309  0.700132  0.121522  1
  O  O51  1  0.063691  0.299868  0.121522  1
  O  O52  1  0.389224  0.610776  0.927723  1
  O  O53  1  0.427366  0.792808  0.117589  1
  O  O54  1  0.884015  0.884015  0.933444  1
  O  O55  1  0.572634  0.207192  0.117589  1
  O  O56  1  0.615985  0.384015  0.433444  1
  O  O57  1  0.700132  0.063691  0.878478  1
  O  O58  1  0.072634  0.292808  0.617589  1
  O  O59  1  0.889224  0.889224  0.427723  1
  O  O60  1  0.207192  0.572634  0.117589  1
  O  O61  1  0.927366  0.292808  0.382411  1
  O  O62  1  0.707192  0.927366  0.617589  1
  O  O63  1  0.615985  0.615985  0.566556  1
  O  O64  1  0.884015  0.115985  0.066556  1
  O  O65  1  0.610776  0.610776  0.072277  1
  O  O66  1  0.299868  0.063691  0.121522  1
  O  O67  1  0.115985  0.115985  0.933444  1
  O  O68  1  0.707192  0.072634  0.382411  1
  O  O69  1  0.889224  0.110776  0.572277  1
  O  O70  1  0.700132  0.936309  0.121522  1
  O  O71  1  0.427366  0.207192  0.882411  1
