# generated using pymatgen
data_FeAs2O7
_symmetry_space_group_name_H-M   'P 1'
_cell_length_a   5.33954921
_cell_length_b   5.33954921
_cell_length_c   4.83616972
_cell_angle_alpha   81.66796973
_cell_angle_beta   98.33203027
_cell_angle_gamma   79.30833568
_symmetry_Int_Tables_number   1
_chemical_formula_structural   FeAs2O7
_chemical_formula_sum   'Fe1 As2 O7'
_cell_volume   131.94992425
_cell_formula_units_Z   1
loop_
 _symmetry_equiv_pos_site_id
 _symmetry_equiv_pos_as_xyz
  1  'x, y, z'
loop_
 _atom_site_type_symbol
 _atom_site_label
 _atom_site_symmetry_multiplicity
 _atom_site_fract_x
 _atom_site_fract_y
 _atom_site_fract_z
 _atom_site_occupancy
  Fe  Fe0  1  0.884867  0.884867  0.000000  1
  As  As1  1  0.323784  0.746151  0.591978  1
  As  As2  1  0.746151  0.323784  0.408022  1
  O  O3  1  0.172264  0.949444  0.281551  1
  O  O4  1  0.136948  0.655455  0.833611  1
  O  O5  1  0.577153  0.867311  0.727365  1
  O  O6  1  0.949444  0.172264  0.718449  1
  O  O7  1  0.655455  0.136948  0.166389  1
  O  O8  1  0.867311  0.577153  0.272635  1
  O  O9  1  0.439174  0.439174  0.500000  1
