# generated using pymatgen
data_Ce(SeO4)2
_symmetry_space_group_name_H-M   'P 1'
_cell_length_a   9.40986626
_cell_length_b   9.96641300
_cell_length_c   14.07985446
_cell_angle_alpha   90.00000000
_cell_angle_beta   90.00000000
_cell_angle_gamma   90.00000000
_symmetry_Int_Tables_number   1
_chemical_formula_structural   Ce(SeO4)2
_chemical_formula_sum   'Ce8 Se16 O64'
_cell_volume   1320.44554786
_cell_formula_units_Z   8
loop_
 _symmetry_equiv_pos_site_id
 _symmetry_equiv_pos_as_xyz
  1  'x, y, z'
loop_
 _atom_site_type_symbol
 _atom_site_label
 _atom_site_symmetry_multiplicity
 _atom_site_fract_x
 _atom_site_fract_y
 _atom_site_fract_z
 _atom_site_occupancy
  Ce  Ce0  1  0.220581  0.036439  0.897500  1
  Ce  Ce1  1  0.779419  0.463561  0.397500  1
  Ce  Ce2  1  0.720581  0.463561  0.897500  1
  Ce  Ce3  1  0.279419  0.536439  0.102500  1
  Ce  Ce4  1  0.779419  0.963561  0.102500  1
  Ce  Ce5  1  0.720581  0.963561  0.602500  1
  Ce  Ce6  1  0.279419  0.036439  0.397500  1
  Ce  Ce7  1  0.220581  0.536439  0.602500  1
  Se  Se8  1  0.998966  0.275451  0.059332  1
  Se  Se9  1  0.498966  0.224549  0.059332  1
  Se  Se10  1  0.816914  0.606338  0.654308  1
  Se  Se11  1  0.683086  0.606338  0.154308  1
  Se  Se12  1  0.683086  0.106338  0.345692  1
  Se  Se13  1  0.183086  0.893662  0.154308  1
  Se  Se14  1  0.316914  0.393662  0.845692  1
  Se  Se15  1  0.501034  0.775451  0.940668  1
  Se  Se16  1  0.316914  0.893662  0.654308  1
  Se  Se17  1  0.816914  0.106338  0.845692  1
  Se  Se18  1  0.001034  0.724549  0.940668  1
  Se  Se19  1  0.498966  0.724549  0.440668  1
  Se  Se20  1  0.183086  0.393662  0.345692  1
  Se  Se21  1  0.501034  0.275451  0.559332  1
  Se  Se22  1  0.001034  0.224549  0.559332  1
  Se  Se23  1  0.998966  0.775451  0.440668  1
  O  O24  1  0.240158  0.421924  0.456581  1
  O  O25  1  0.740158  0.078076  0.456581  1
  O  O26  1  0.887441  0.186604  0.126087  1
  O  O27  1  0.579975  0.356175  0.470073  1
  O  O28  1  0.920025  0.356175  0.970073  1
  O  O29  1  0.507048  0.585482  0.159527  1
  O  O30  1  0.612559  0.186604  0.626087  1
  O  O31  1  0.761505  0.500200  0.228971  1
  O  O32  1  0.914710  0.113939  0.627434  1
  O  O33  1  0.585290  0.613939  0.372566  1
  O  O34  1  0.238495  0.999800  0.728971  1
  O  O35  1  0.759842  0.578076  0.543419  1
  O  O36  1  0.738495  0.500200  0.728971  1
  O  O37  1  0.730068  0.762576  0.184015  1
  O  O38  1  0.992952  0.085482  0.840473  1
  O  O39  1  0.007048  0.414518  0.340473  1
  O  O40  1  0.920025  0.856175  0.529927  1
  O  O41  1  0.761505  0.000200  0.271029  1
  O  O42  1  0.492952  0.914518  0.659527  1
  O  O43  1  0.085290  0.386061  0.127434  1
  O  O44  1  0.112559  0.313396  0.626087  1
  O  O45  1  0.769932  0.262576  0.815985  1
  O  O46  1  0.612559  0.686604  0.873913  1
  O  O47  1  0.414710  0.386061  0.627434  1
  O  O48  1  0.579975  0.856175  0.029927  1
  O  O49  1  0.079975  0.143825  0.470073  1
  O  O50  1  0.079975  0.643825  0.029927  1
  O  O51  1  0.116368  0.165727  0.013555  1
  O  O52  1  0.616368  0.834273  0.486445  1
  O  O53  1  0.420025  0.143825  0.970073  1
  O  O54  1  0.112559  0.813396  0.873913  1
  O  O55  1  0.769932  0.762576  0.684015  1
  O  O56  1  0.259842  0.921924  0.543419  1
  O  O57  1  0.738495  0.000200  0.771029  1
  O  O58  1  0.887441  0.686604  0.373913  1
  O  O59  1  0.383632  0.165727  0.513555  1
  O  O60  1  0.240158  0.921924  0.043419  1
  O  O61  1  0.883632  0.334273  0.513555  1
  O  O62  1  0.387441  0.313396  0.126087  1
  O  O63  1  0.230068  0.237424  0.315985  1
  O  O64  1  0.585290  0.113939  0.127434  1
  O  O65  1  0.269932  0.737424  0.684015  1
  O  O66  1  0.420025  0.643825  0.529927  1
  O  O67  1  0.740158  0.578076  0.043419  1
  O  O68  1  0.261505  0.499800  0.271029  1
  O  O69  1  0.269932  0.237424  0.815985  1
  O  O70  1  0.383632  0.665727  0.986445  1
  O  O71  1  0.259842  0.421924  0.956581  1
  O  O72  1  0.992952  0.585482  0.659527  1
  O  O73  1  0.730068  0.262576  0.315985  1
  O  O74  1  0.492952  0.414518  0.840473  1
  O  O75  1  0.116368  0.665727  0.486445  1
  O  O76  1  0.883632  0.834273  0.986445  1
  O  O77  1  0.238495  0.499800  0.771029  1
  O  O78  1  0.759842  0.078076  0.956581  1
  O  O79  1  0.414710  0.886061  0.872566  1
  O  O80  1  0.914710  0.613939  0.872566  1
  O  O81  1  0.007048  0.914518  0.159527  1
  O  O82  1  0.085290  0.886061  0.372566  1
  O  O83  1  0.230068  0.737424  0.184015  1
  O  O84  1  0.261505  0.999800  0.228971  1
  O  O85  1  0.387441  0.813396  0.373913  1
  O  O86  1  0.507048  0.085482  0.340473  1
  O  O87  1  0.616368  0.334273  0.013555  1
