# generated using pymatgen
data_TlAgI2
_symmetry_space_group_name_H-M   'P 1'
_cell_length_a   7.19058305
_cell_length_b   7.19058305
_cell_length_c   7.19058305
_cell_angle_alpha   107.37996215
_cell_angle_beta   107.37996215
_cell_angle_gamma   113.73993532
_symmetry_Int_Tables_number   1
_chemical_formula_structural   TlAgI2
_chemical_formula_sum   'Tl2 Ag2 I4'
_cell_volume   284.99978070
_cell_formula_units_Z   2
loop_
 _symmetry_equiv_pos_site_id
 _symmetry_equiv_pos_as_xyz
  1  'x, y, z'
loop_
 _atom_site_type_symbol
 _atom_site_label
 _atom_site_symmetry_multiplicity
 _atom_site_fract_x
 _atom_site_fract_y
 _atom_site_fract_z
 _atom_site_occupancy
  Tl  Tl0  1  0.750000  0.750000  0.000000  1
  Tl  Tl1  1  0.250000  0.250000  0.000000  1
  Ag  Ag2  1  0.750000  0.250000  0.500000  1
  Ag  Ag3  1  0.250000  0.750000  0.500000  1
  I  I4  1  0.822599  0.322599  0.145198  1
  I  I5  1  0.677401  0.822599  0.500000  1
  I  I6  1  0.177401  0.677401  0.854802  1
  I  I7  1  0.322599  0.177401  0.500000  1
