# generated using pymatgen
data_Fe2As
_symmetry_space_group_name_H-M   'P 1'
_cell_length_a   3.66381795
_cell_length_b   3.66381795
_cell_length_c   5.80870494
_cell_angle_alpha   90.00000000
_cell_angle_beta   90.00000000
_cell_angle_gamma   90.00000000
_symmetry_Int_Tables_number   1
_chemical_formula_structural   Fe2As
_chemical_formula_sum   'Fe4 As2'
_cell_volume   77.97351073
_cell_formula_units_Z   2
loop_
 _symmetry_equiv_pos_site_id
 _symmetry_equiv_pos_as_xyz
  1  'x, y, z'
loop_
 _atom_site_type_symbol
 _atom_site_label
 _atom_site_symmetry_multiplicity
 _atom_site_fract_x
 _atom_site_fract_y
 _atom_site_fract_z
 _atom_site_occupancy
  Fe  Fe0  1  0.000000  0.500000  0.682241  1
  Fe  Fe1  1  0.500000  0.000000  0.317759  1
  Fe  Fe2  1  0.500000  0.500000  0.000000  1
  Fe  Fe3  1  0.000000  0.000000  0.000000  1
  As  As4  1  0.000000  0.500000  0.265104  1
  As  As5  1  0.500000  0.000000  0.734896  1
