# generated using pymatgen
data_CuTe2O5
_symmetry_space_group_name_H-M   'P 1'
_cell_length_a   6.97461896
_cell_length_b   9.50223988
_cell_length_c   7.65295098
_cell_angle_alpha   90.00000000
_cell_angle_beta   107.71014498
_cell_angle_gamma   90.00000000
_symmetry_Int_Tables_number   1
_chemical_formula_structural   CuTe2O5
_chemical_formula_sum   'Cu4 Te8 O20'
_cell_volume   483.15832215
_cell_formula_units_Z   4
loop_
 _symmetry_equiv_pos_site_id
 _symmetry_equiv_pos_as_xyz
  1  'x, y, z'
loop_
 _atom_site_type_symbol
 _atom_site_label
 _atom_site_symmetry_multiplicity
 _atom_site_fract_x
 _atom_site_fract_y
 _atom_site_fract_z
 _atom_site_occupancy
  Cu  Cu0  1  0.659965  0.011898  0.205775  1
  Cu  Cu1  1  0.659965  0.488102  0.705775  1
  Cu  Cu2  1  0.340035  0.511898  0.294225  1
  Cu  Cu3  1  0.340035  0.988102  0.794225  1
  Te  Te4  1  0.649506  0.678114  0.059639  1
  Te  Te5  1  0.350494  0.178114  0.440361  1
  Te  Te6  1  0.649506  0.821886  0.559639  1
  Te  Te7  1  0.864722  0.204282  0.909501  1
  Te  Te8  1  0.135278  0.795718  0.090499  1
  Te  Te9  1  0.135278  0.704282  0.590499  1
  Te  Te10  1  0.864722  0.295718  0.409501  1
  Te  Te11  1  0.350494  0.321886  0.940361  1
  O  O12  1  0.382268  0.126155  0.992031  1
  O  O13  1  0.678091  0.146219  0.408784  1
  O  O14  1  0.506423  0.891271  0.322347  1
  O  O15  1  0.137819  0.866076  0.853761  1
  O  O16  1  0.137819  0.633924  0.353761  1
  O  O17  1  0.506423  0.608729  0.822347  1
  O  O18  1  0.862181  0.366076  0.646239  1
  O  O19  1  0.493577  0.391271  0.177653  1
  O  O20  1  0.862181  0.133924  0.146239  1
  O  O21  1  0.321909  0.853781  0.591216  1
  O  O22  1  0.900132  0.818271  0.468540  1
  O  O23  1  0.099868  0.181729  0.531460  1
  O  O24  1  0.099868  0.318271  0.031460  1
  O  O25  1  0.382268  0.373845  0.492031  1
  O  O26  1  0.321909  0.646219  0.091216  1
  O  O27  1  0.678091  0.353781  0.908784  1
  O  O28  1  0.493577  0.108729  0.677653  1
  O  O29  1  0.617732  0.626155  0.507969  1
  O  O30  1  0.900132  0.681729  0.968540  1
  O  O31  1  0.617732  0.873845  0.007969  1
