# generated using pymatgen
data_P4N6O
_symmetry_space_group_name_H-M   'P 1'
_cell_length_a   6.16266458
_cell_length_b   6.87797281
_cell_length_c   6.90740449
_cell_angle_alpha   90.00000000
_cell_angle_beta   90.00000000
_cell_angle_gamma   90.00000000
_symmetry_Int_Tables_number   1
_chemical_formula_structural   P4N6O
_chemical_formula_sum   'P8 N12 O2'
_cell_volume   292.78166343
_cell_formula_units_Z   2
loop_
 _symmetry_equiv_pos_site_id
 _symmetry_equiv_pos_as_xyz
  1  'x, y, z'
loop_
 _atom_site_type_symbol
 _atom_site_label
 _atom_site_symmetry_multiplicity
 _atom_site_fract_x
 _atom_site_fract_y
 _atom_site_fract_z
 _atom_site_occupancy
  P  P0  1  0.000000  0.186178  0.500000  1
  P  P1  1  0.500000  0.313822  0.000000  1
  P  P2  1  0.000000  0.813822  0.500000  1
  P  P3  1  0.500000  0.686178  0.000000  1
  P  P4  1  0.294171  0.500000  0.360274  1
  P  P5  1  0.794171  0.000000  0.139726  1
  P  P6  1  0.705829  0.500000  0.639726  1
  P  P7  1  0.205829  0.000000  0.860274  1
  N  N8  1  0.175816  0.298672  0.380170  1
  N  N9  1  0.675816  0.201328  0.119830  1
  N  N10  1  0.824184  0.298672  0.619830  1
  N  N11  1  0.324184  0.201328  0.880170  1
  N  N12  1  0.824184  0.701328  0.619830  1
  N  N13  1  0.324184  0.798672  0.880170  1
  N  N14  1  0.175816  0.701328  0.380170  1
  N  N15  1  0.675816  0.798672  0.119830  1
  N  N16  1  0.398219  0.500000  0.137223  1
  N  N17  1  0.898219  0.000000  0.362777  1
  N  N18  1  0.101781  0.000000  0.637223  1
  N  N19  1  0.601781  0.500000  0.862777  1
  O  O20  1  0.500000  0.500000  0.500000  1
  O  O21  1  0.000000  0.000000  0.000000  1
