# generated using pymatgen
data_CaAsPd
_symmetry_space_group_name_H-M   'P 1'
_cell_length_a   7.23139167
_cell_length_b   8.75733636
_cell_length_c   16.75695170
_cell_angle_alpha   90.00000000
_cell_angle_beta   90.00000000
_cell_angle_gamma   90.00000000
_symmetry_Int_Tables_number   1
_chemical_formula_structural   CaAsPd
_chemical_formula_sum   'Ca16 As16 Pd16'
_cell_volume   1061.17969956
_cell_formula_units_Z   16
loop_
 _symmetry_equiv_pos_site_id
 _symmetry_equiv_pos_as_xyz
  1  'x, y, z'
loop_
 _atom_site_type_symbol
 _atom_site_label
 _atom_site_symmetry_multiplicity
 _atom_site_fract_x
 _atom_site_fract_y
 _atom_site_fract_z
 _atom_site_occupancy
  Ca  Ca0  1  0.766706  0.009192  0.188144  1
  Ca  Ca1  1  0.266706  0.490808  0.311856  1
  Ca  Ca2  1  0.233294  0.509192  0.811856  1
  Ca  Ca3  1  0.733294  0.990808  0.688144  1
  Ca  Ca4  1  0.233294  0.990808  0.811856  1
  Ca  Ca5  1  0.733294  0.509192  0.688144  1
  Ca  Ca6  1  0.766706  0.490808  0.188144  1
  Ca  Ca7  1  0.266706  0.009192  0.311856  1
  Ca  Ca8  1  0.250653  0.022064  0.061018  1
  Ca  Ca9  1  0.750653  0.477936  0.438982  1
  Ca  Ca10  1  0.749347  0.522064  0.938982  1
  Ca  Ca11  1  0.249347  0.977936  0.561018  1
  Ca  Ca12  1  0.749347  0.977936  0.938982  1
  Ca  Ca13  1  0.249347  0.522064  0.561018  1
  Ca  Ca14  1  0.250653  0.477936  0.061018  1
  Ca  Ca15  1  0.750653  0.022064  0.438982  1
  As  As16  1  0.569606  0.750000  0.288755  1
  As  As17  1  0.930394  0.250000  0.788755  1
  As  As18  1  0.430394  0.250000  0.711245  1
  As  As19  1  0.577610  0.750000  0.570609  1
  As  As20  1  0.077610  0.750000  0.929391  1
  As  As21  1  0.422390  0.250000  0.429391  1
  As  As22  1  0.922390  0.250000  0.070609  1
  As  As23  1  0.644038  0.750000  0.067223  1
  As  As24  1  0.069606  0.750000  0.211245  1
  As  As25  1  0.144038  0.750000  0.432777  1
  As  As26  1  0.355962  0.250000  0.932777  1
  As  As27  1  0.855962  0.250000  0.567223  1
  As  As28  1  0.049592  0.750000  0.677026  1
  As  As29  1  0.549592  0.750000  0.822974  1
  As  As30  1  0.950408  0.250000  0.322974  1
  As  As31  1  0.450408  0.250000  0.177026  1
  Pd  Pd32  1  0.391552  0.750000  0.165513  1
  Pd  Pd33  1  0.891552  0.750000  0.334487  1
  Pd  Pd34  1  0.608448  0.250000  0.834487  1
  Pd  Pd35  1  0.108448  0.250000  0.665513  1
  Pd  Pd36  1  0.986538  0.750000  0.071144  1
  Pd  Pd37  1  0.486538  0.750000  0.428856  1
  Pd  Pd38  1  0.013462  0.250000  0.928856  1
  Pd  Pd39  1  0.390160  0.750000  0.692276  1
  Pd  Pd40  1  0.890160  0.750000  0.807724  1
  Pd  Pd41  1  0.609840  0.250000  0.307724  1
  Pd  Pd42  1  0.109840  0.250000  0.192276  1
  Pd  Pd43  1  0.906562  0.750000  0.537742  1
  Pd  Pd44  1  0.406562  0.750000  0.962258  1
  Pd  Pd45  1  0.093438  0.250000  0.462258  1
  Pd  Pd46  1  0.593438  0.250000  0.037742  1
  Pd  Pd47  1  0.513462  0.250000  0.571144  1
