# generated using pymatgen
data_Ni3H2Se3O10
_symmetry_space_group_name_H-M   'P 1'
_cell_length_a   8.09592672
_cell_length_b   8.22115008
_cell_length_c   8.50727262
_cell_angle_alpha   69.82740572
_cell_angle_beta   62.91225249
_cell_angle_gamma   68.04194253
_symmetry_Int_Tables_number   1
_chemical_formula_structural   Ni3H2Se3O10
_chemical_formula_sum   'Ni6 H4 Se6 O20'
_cell_volume   456.97739052
_cell_formula_units_Z   2
loop_
 _symmetry_equiv_pos_site_id
 _symmetry_equiv_pos_as_xyz
  1  'x, y, z'
loop_
 _atom_site_type_symbol
 _atom_site_label
 _atom_site_symmetry_multiplicity
 _atom_site_fract_x
 _atom_site_fract_y
 _atom_site_fract_z
 _atom_site_occupancy
  Ni  Ni0  1  0.000000  0.000000  0.000000  1
  Ni  Ni1  1  0.500000  0.500000  0.500000  1
  Ni  Ni2  1  0.653323  0.036888  0.802553  1
  Ni  Ni3  1  0.346677  0.963112  0.197447  1
  Ni  Ni4  1  0.710014  0.866762  0.390846  1
  Ni  Ni5  1  0.289986  0.133238  0.609154  1
  H  H6  1  0.061197  0.188847  0.404463  1
  H  H7  1  0.938803  0.811153  0.595537  1
  H  H8  1  0.965106  0.123650  0.313275  1
  H  H9  1  0.034894  0.876350  0.686725  1
  Se  Se10  1  0.569222  0.236442  0.236492  1
  Se  Se11  1  0.430778  0.763558  0.763508  1
  Se  Se12  1  0.796340  0.668194  0.060955  1
  Se  Se13  1  0.203660  0.331806  0.939045  1
  Se  Se14  1  0.173336  0.670180  0.298260  1
  Se  Se15  1  0.826664  0.329820  0.701740  1
  O  O16  1  0.087496  0.129832  0.306370  1
  O  O17  1  0.912504  0.870168  0.693630  1
  O  O18  1  0.804871  0.139501  0.879914  1
  O  O19  1  0.195129  0.860499  0.120086  1
  O  O20  1  0.135354  0.211779  0.852878  1
  O  O21  1  0.864646  0.788221  0.147122  1
  O  O22  1  0.405782  0.173086  0.975108  1
  O  O23  1  0.594218  0.826914  0.024892  1
  O  O24  1  0.303410  0.714062  0.386944  1
  O  O25  1  0.696590  0.285938  0.613056  1
  O  O26  1  0.553598  0.689461  0.561630  1
  O  O27  1  0.446402  0.310539  0.438370  1
  O  O28  1  0.206188  0.896603  0.757533  1
  O  O29  1  0.793812  0.103397  0.242467  1
  O  O30  1  0.536002  0.947459  0.670442  1
  O  O31  1  0.463998  0.052541  0.329558  1
  O  O32  1  0.943307  0.727803  0.454425  1
  O  O33  1  0.056693  0.272197  0.545575  1
  O  O34  1  0.707102  0.512170  0.243292  1
  O  O35  1  0.292898  0.487830  0.756708  1
