# generated using pymatgen
data_MnO2
_symmetry_space_group_name_H-M   'P 1'
_cell_length_a   5.82691880
_cell_length_b   5.82691880
_cell_length_c   5.82691880
_cell_angle_alpha   60.00000000
_cell_angle_beta   60.00000000
_cell_angle_gamma   60.00000000
_symmetry_Int_Tables_number   1
_chemical_formula_structural   MnO2
_chemical_formula_sum   'Mn4 O8'
_cell_volume   139.89490600
_cell_formula_units_Z   4
loop_
 _symmetry_equiv_pos_site_id
 _symmetry_equiv_pos_as_xyz
  1  'x, y, z'
loop_
 _atom_site_type_symbol
 _atom_site_label
 _atom_site_symmetry_multiplicity
 _atom_site_fract_x
 _atom_site_fract_y
 _atom_site_fract_z
 _atom_site_occupancy
  Mn  Mn0  1  0.125000  0.125000  0.125000  1
  Mn  Mn1  1  0.625000  0.125000  0.125000  1
  Mn  Mn2  1  0.125000  0.125000  0.625000  1
  Mn  Mn3  1  0.125000  0.625000  0.125000  1
  O  O4  1  0.919476  0.360175  0.360175  1
  O  O5  1  0.360175  0.360175  0.360175  1
  O  O6  1  0.360175  0.919476  0.360175  1
  O  O7  1  0.360175  0.360175  0.919476  1
  O  O8  1  0.889825  0.889825  0.889825  1
  O  O9  1  0.330524  0.889825  0.889825  1
  O  O10  1  0.889825  0.889825  0.330524  1
  O  O11  1  0.889825  0.330524  0.889825  1
