# generated using pymatgen
data_ReP4
_symmetry_space_group_name_H-M   'P 1'
_cell_length_a   6.26937127
_cell_length_b   9.29359740
_cell_length_c   10.93681003
_cell_angle_alpha   90.00000000
_cell_angle_beta   90.00000000
_cell_angle_gamma   90.00000000
_symmetry_Int_Tables_number   1
_chemical_formula_structural   ReP4
_chemical_formula_sum   'Re8 P32'
_cell_volume   637.23337349
_cell_formula_units_Z   8
loop_
 _symmetry_equiv_pos_site_id
 _symmetry_equiv_pos_as_xyz
  1  'x, y, z'
loop_
 _atom_site_type_symbol
 _atom_site_label
 _atom_site_symmetry_multiplicity
 _atom_site_fract_x
 _atom_site_fract_y
 _atom_site_fract_z
 _atom_site_occupancy
  Re  Re0  1  0.621924  0.109640  0.424460  1
  Re  Re1  1  0.121924  0.390360  0.575540  1
  Re  Re2  1  0.378076  0.609640  0.075540  1
  Re  Re3  1  0.878076  0.890360  0.924460  1
  Re  Re4  1  0.378076  0.890360  0.575540  1
  Re  Re5  1  0.878076  0.609640  0.424460  1
  Re  Re6  1  0.621924  0.390360  0.924460  1
  Re  Re7  1  0.121924  0.109640  0.075540  1
  P  P8  1  0.998536  0.209259  0.430793  1
  P  P9  1  0.498536  0.290741  0.569207  1
  P  P10  1  0.001464  0.709259  0.069207  1
  P  P11  1  0.501464  0.790741  0.930793  1
  P  P12  1  0.001464  0.790741  0.569207  1
  P  P13  1  0.501464  0.709259  0.430793  1
  P  P14  1  0.998536  0.290741  0.930793  1
  P  P15  1  0.498536  0.209259  0.069207  1
  P  P16  1  0.061796  0.282372  0.235996  1
  P  P17  1  0.561796  0.217628  0.764004  1
  P  P18  1  0.938204  0.782372  0.264004  1
  P  P19  1  0.438204  0.717628  0.735996  1
  P  P20  1  0.938204  0.717628  0.764004  1
  P  P21  1  0.438204  0.782372  0.235996  1
  P  P22  1  0.061796  0.217628  0.735996  1
  P  P23  1  0.561796  0.282372  0.264004  1
  P  P24  1  0.188284  0.947629  0.238200  1
  P  P25  1  0.688284  0.552371  0.761800  1
  P  P26  1  0.811716  0.447629  0.261800  1
  P  P27  1  0.311716  0.052371  0.738200  1
  P  P28  1  0.811716  0.052371  0.761800  1
  P  P29  1  0.311716  0.447629  0.238200  1
  P  P30  1  0.188284  0.552371  0.738200  1
  P  P31  1  0.688284  0.947629  0.261800  1
  P  P32  1  0.754947  0.043766  0.081533  1
  P  P33  1  0.254947  0.456234  0.918467  1
  P  P34  1  0.245053  0.543766  0.418467  1
  P  P35  1  0.745053  0.956234  0.581533  1
  P  P36  1  0.245053  0.956234  0.918467  1
  P  P37  1  0.745053  0.543766  0.081533  1
  P  P38  1  0.754947  0.456234  0.581533  1
  P  P39  1  0.254947  0.043766  0.418467  1
