# generated using pymatgen
data_BiTePd
_symmetry_space_group_name_H-M   'P 1'
_cell_length_a   6.75663256
_cell_length_b   6.75663256
_cell_length_c   6.75663256
_cell_angle_alpha   90.00000000
_cell_angle_beta   90.00000000
_cell_angle_gamma   90.00000000
_symmetry_Int_Tables_number   1
_chemical_formula_structural   BiTePd
_chemical_formula_sum   'Bi4 Te4 Pd4'
_cell_volume   308.45435415
_cell_formula_units_Z   4
loop_
 _symmetry_equiv_pos_site_id
 _symmetry_equiv_pos_as_xyz
  1  'x, y, z'
loop_
 _atom_site_type_symbol
 _atom_site_label
 _atom_site_symmetry_multiplicity
 _atom_site_fract_x
 _atom_site_fract_y
 _atom_site_fract_z
 _atom_site_occupancy
  Bi  Bi0  1  0.368339  0.368339  0.368339  1
  Bi  Bi1  1  0.131661  0.631661  0.868339  1
  Bi  Bi2  1  0.868339  0.131661  0.631661  1
  Bi  Bi3  1  0.631661  0.868339  0.131661  1
  Te  Te4  1  0.627026  0.627026  0.627026  1
  Te  Te5  1  0.872974  0.372974  0.127026  1
  Te  Te6  1  0.127026  0.872974  0.372974  1
  Te  Te7  1  0.372974  0.127026  0.872974  1
  Pd  Pd8  1  0.004828  0.004828  0.004828  1
  Pd  Pd9  1  0.495172  0.995172  0.504828  1
  Pd  Pd10  1  0.504828  0.495172  0.995172  1
  Pd  Pd11  1  0.995172  0.504828  0.495172  1
