# generated using pymatgen
data_CsH7O4
_symmetry_space_group_name_H-M   'P 1'
_cell_length_a   8.77200293
_cell_length_b   6.08240954
_cell_length_c   12.46111258
_cell_angle_alpha   90.00000000
_cell_angle_beta   127.01775969
_cell_angle_gamma   90.00000000
_symmetry_Int_Tables_number   1
_chemical_formula_structural   CsH7O4
_chemical_formula_sum   'Cs4 H28 O16'
_cell_volume   530.85802818
_cell_formula_units_Z   4
loop_
 _symmetry_equiv_pos_site_id
 _symmetry_equiv_pos_as_xyz
  1  'x, y, z'
loop_
 _atom_site_type_symbol
 _atom_site_label
 _atom_site_symmetry_multiplicity
 _atom_site_fract_x
 _atom_site_fract_y
 _atom_site_fract_z
 _atom_site_occupancy
  Cs  Cs0  1  0.663749  0.147814  0.733724  1
  Cs  Cs1  1  0.336251  0.647814  0.766276  1
  Cs  Cs2  1  0.336251  0.852186  0.266276  1
  Cs  Cs3  1  0.663749  0.352186  0.233724  1
  H  H4  1  0.383824  0.131125  0.893148  1
  H  H5  1  0.616176  0.631125  0.606852  1
  H  H6  1  0.616176  0.868875  0.106852  1
  H  H7  1  0.383824  0.368875  0.393148  1
  H  H8  1  0.610830  0.124330  0.981673  1
  H  H9  1  0.389170  0.624330  0.518327  1
  H  H10  1  0.389170  0.875670  0.018327  1
  H  H11  1  0.610830  0.375670  0.481673  1
  H  H12  1  0.924655  0.192066  0.130821  1
  H  H13  1  0.075345  0.692066  0.369179  1
  H  H14  1  0.075345  0.807934  0.869179  1
  H  H15  1  0.924655  0.307934  0.630821  1
  H  H16  1  0.072308  0.387986  0.236150  1
  H  H17  1  0.927692  0.887986  0.263850  1
  H  H18  1  0.927692  0.612014  0.763850  1
  H  H19  1  0.072308  0.112014  0.736150  1
  H  H20  1  0.861252  0.664424  0.913702  1
  H  H21  1  0.138748  0.164424  0.586298  1
  H  H22  1  0.138748  0.335576  0.086298  1
  H  H23  1  0.861252  0.835576  0.413702  1
  H  H24  1  0.807659  0.625061  0.559914  1
  H  H25  1  0.192341  0.125061  0.940086  1
  H  H26  1  0.192341  0.374939  0.440086  1
  H  H27  1  0.807659  0.874939  0.059914  1
  H  H28  1  0.853214  0.969773  0.518878  1
  H  H29  1  0.146786  0.469773  0.981122  1
  H  H30  1  0.146786  0.030227  0.481122  1
  H  H31  1  0.853214  0.530227  0.018878  1
  O  O32  1  0.494894  0.197380  0.900761  1
  O  O33  1  0.505106  0.697380  0.599239  1
  O  O34  1  0.505106  0.802620  0.099239  1
  O  O35  1  0.494894  0.302620  0.400761  1
  O  O36  1  0.997542  0.331679  0.139242  1
  O  O37  1  0.002458  0.831679  0.360758  1
  O  O38  1  0.002458  0.668321  0.860758  1
  O  O39  1  0.997542  0.168321  0.639242  1
  O  O40  1  0.785374  0.648017  0.949107  1
  O  O41  1  0.214626  0.148017  0.550893  1
  O  O42  1  0.214626  0.351983  0.050893  1
  O  O43  1  0.785374  0.851983  0.449107  1
  O  O44  1  0.802117  0.987361  0.114765  1
  O  O45  1  0.197883  0.487361  0.385235  1
  O  O46  1  0.197883  0.012639  0.885235  1
  O  O47  1  0.802117  0.512639  0.614765  1
