# generated using pymatgen
data_NaB15
_symmetry_space_group_name_H-M   'P 1'
_cell_length_a   7.26529105
_cell_length_b   7.26529105
_cell_length_c   7.26529105
_cell_angle_alpha   132.54106822
_cell_angle_beta   109.20741487
_cell_angle_gamma   89.70736878
_symmetry_Int_Tables_number   1
_chemical_formula_structural   NaB15
_chemical_formula_sum   'Na2 B30'
_cell_volume   253.47679862
_cell_formula_units_Z   2
loop_
 _symmetry_equiv_pos_site_id
 _symmetry_equiv_pos_as_xyz
  1  'x, y, z'
loop_
 _atom_site_type_symbol
 _atom_site_label
 _atom_site_symmetry_multiplicity
 _atom_site_fract_x
 _atom_site_fract_y
 _atom_site_fract_z
 _atom_site_occupancy
  Na  Na0  1  0.911218  0.250000  0.661218  1
  Na  Na1  1  0.088782  0.750000  0.338782  1
  B  B2  1  0.503004  0.250000  0.253004  1
  B  B3  1  0.496996  0.750000  0.746996  1
  B  B4  1  0.254223  0.101223  0.153000  1
  B  B5  1  0.745777  0.898777  0.847000  1
  B  B6  1  0.551776  0.398777  0.153000  1
  B  B7  1  0.448224  0.601223  0.847000  1
  B  B8  1  0.118510  0.164804  0.953706  1
  B  B9  1  0.881490  0.835196  0.046294  1
  B  B10  1  0.288903  0.335196  0.953706  1
  B  B11  1  0.711097  0.664804  0.046294  1
  B  B12  1  0.539110  0.145289  0.393820  1
  B  B13  1  0.460890  0.854710  0.606180  1
  B  B14  1  0.748531  0.354710  0.393820  1
  B  B15  1  0.251469  0.645289  0.606180  1
  B  B16  1  0.882490  0.887209  0.673940  1
  B  B17  1  0.117510  0.791450  0.004719  1
  B  B18  1  0.286731  0.612791  0.995281  1
  B  B19  1  0.713269  0.708550  0.326060  1
  B  B20  1  0.117510  0.112791  0.326060  1
  B  B21  1  0.882490  0.208550  0.995281  1
  B  B22  1  0.713269  0.387209  0.004719  1
  B  B23  1  0.286731  0.291450  0.673940  1
  B  B24  1  0.117757  0.833407  0.789054  1
  B  B25  1  0.882243  0.671296  0.715649  1
  B  B26  1  0.455647  0.666593  0.284351  1
  B  B27  1  0.544353  0.828704  0.210946  1
  B  B28  1  0.882243  0.166593  0.210946  1
  B  B29  1  0.117757  0.328704  0.284351  1
  B  B30  1  0.544353  0.333407  0.715649  1
  B  B31  1  0.455647  0.171296  0.789054  1
