# generated using pymatgen
data_Cr3BO6
_symmetry_space_group_name_H-M   'P 1'
_cell_length_a   4.47988551
_cell_length_b   8.57687751
_cell_length_c   10.10055695
_cell_angle_alpha   90.00000000
_cell_angle_beta   90.00000000
_cell_angle_gamma   90.00000000
_symmetry_Int_Tables_number   1
_chemical_formula_structural   Cr3BO6
_chemical_formula_sum   'Cr12 B4 O24'
_cell_volume   388.09803564
_cell_formula_units_Z   4
loop_
 _symmetry_equiv_pos_site_id
 _symmetry_equiv_pos_as_xyz
  1  'x, y, z'
loop_
 _atom_site_type_symbol
 _atom_site_label
 _atom_site_symmetry_multiplicity
 _atom_site_fract_x
 _atom_site_fract_y
 _atom_site_fract_z
 _atom_site_occupancy
  Cr  Cr0  1  0.473938  0.750000  0.906850  1
  Cr  Cr1  1  0.973938  0.250000  0.593150  1
  Cr  Cr2  1  0.526062  0.250000  0.093150  1
  Cr  Cr3  1  0.026062  0.750000  0.406850  1
  Cr  Cr4  1  0.502503  0.430737  0.369779  1
  Cr  Cr5  1  0.002503  0.569263  0.130221  1
  Cr  Cr6  1  0.497497  0.930737  0.630221  1
  Cr  Cr7  1  0.997497  0.069263  0.869779  1
  Cr  Cr8  1  0.497497  0.569263  0.630221  1
  Cr  Cr9  1  0.997497  0.430737  0.869779  1
  Cr  Cr10  1  0.502503  0.069263  0.369779  1
  Cr  Cr11  1  0.002503  0.930737  0.130221  1
  B  B12  1  0.081342  0.250000  0.277161  1
  B  B13  1  0.918658  0.750000  0.722839  1
  B  B14  1  0.418658  0.250000  0.777161  1
  B  B15  1  0.581342  0.750000  0.222839  1
  O  O16  1  0.782783  0.750000  0.584582  1
  O  O17  1  0.282783  0.250000  0.915418  1
  O  O18  1  0.217217  0.250000  0.415418  1
  O  O19  1  0.717217  0.750000  0.084582  1
  O  O20  1  0.765031  0.421384  0.030744  1
  O  O21  1  0.265031  0.578616  0.469256  1
  O  O22  1  0.234969  0.921384  0.969256  1
  O  O23  1  0.734969  0.078616  0.530744  1
  O  O24  1  0.255875  0.750000  0.224663  1
  O  O25  1  0.244125  0.750000  0.724663  1
  O  O26  1  0.755875  0.250000  0.275337  1
  O  O27  1  0.744125  0.250000  0.775337  1
  O  O28  1  0.728439  0.888545  0.289751  1
  O  O29  1  0.228439  0.111455  0.210249  1
  O  O30  1  0.271561  0.388545  0.710249  1
  O  O31  1  0.771561  0.611455  0.789751  1
  O  O32  1  0.271561  0.111455  0.710249  1
  O  O33  1  0.771561  0.888545  0.789751  1
  O  O34  1  0.728439  0.611455  0.289751  1
  O  O35  1  0.228439  0.388545  0.210249  1
  O  O36  1  0.265031  0.921384  0.469256  1
  O  O37  1  0.765031  0.078616  0.030744  1
  O  O38  1  0.734969  0.421384  0.530744  1
  O  O39  1  0.234969  0.578616  0.969256  1
