# generated using pymatgen
data_Be2Fe
_symmetry_space_group_name_H-M   'P 1'
_cell_length_a   4.17862715
_cell_length_b   4.17862715
_cell_length_c   6.80324390
_cell_angle_alpha   90.00000000
_cell_angle_beta   90.00000000
_cell_angle_gamma   120.00000000
_symmetry_Int_Tables_number   1
_chemical_formula_structural   Be2Fe
_chemical_formula_sum   'Be8 Fe4'
_cell_volume   102.87596342
_cell_formula_units_Z   4
loop_
 _symmetry_equiv_pos_site_id
 _symmetry_equiv_pos_as_xyz
  1  'x, y, z'
loop_
 _atom_site_type_symbol
 _atom_site_label
 _atom_site_symmetry_multiplicity
 _atom_site_fract_x
 _atom_site_fract_y
 _atom_site_fract_z
 _atom_site_occupancy
  Be  Be0  1  0.000000  0.000000  0.000000  1
  Be  Be1  1  0.000000  0.000000  0.500000  1
  Be  Be2  1  0.829623  0.659246  0.250000  1
  Be  Be3  1  0.170377  0.829623  0.750000  1
  Be  Be4  1  0.659246  0.829623  0.750000  1
  Be  Be5  1  0.340754  0.170377  0.250000  1
  Be  Be6  1  0.829623  0.170377  0.250000  1
  Be  Be7  1  0.170377  0.340754  0.750000  1
  Fe  Fe8  1  0.333333  0.666667  0.061672  1
  Fe  Fe9  1  0.666667  0.333333  0.561672  1
  Fe  Fe10  1  0.666667  0.333333  0.938328  1
  Fe  Fe11  1  0.333333  0.666667  0.438328  1
