# generated using pymatgen
data_LiMnPCO7
_symmetry_space_group_name_H-M   'P 1'
_cell_length_a   5.15973016
_cell_length_b   6.21840200
_cell_length_c   8.69466786
_cell_angle_alpha   90.00000000
_cell_angle_beta   93.54055349
_cell_angle_gamma   90.00000000
_symmetry_Int_Tables_number   1
_chemical_formula_structural   LiMnPCO7
_chemical_formula_sum   'Li2 Mn2 P2 C2 O14'
_cell_volume   278.43836034
_cell_formula_units_Z   2
loop_
 _symmetry_equiv_pos_site_id
 _symmetry_equiv_pos_as_xyz
  1  'x, y, z'
loop_
 _atom_site_type_symbol
 _atom_site_label
 _atom_site_symmetry_multiplicity
 _atom_site_fract_x
 _atom_site_fract_y
 _atom_site_fract_z
 _atom_site_occupancy
  Li  Li0  1  0.219773  0.975435  0.795111  1
  Li  Li1  1  0.780227  0.475435  0.204889  1
  Mn  Mn2  1  0.786714  0.753725  0.659451  1
  Mn  Mn3  1  0.213286  0.253725  0.340549  1
  P  P4  1  0.725684  0.257789  0.569542  1
  P  P5  1  0.274316  0.757789  0.430458  1
  C  C6  1  0.722210  0.747620  0.932813  1
  C  C7  1  0.277790  0.247620  0.067187  1
  O  O8  1  0.793497  0.450442  0.676345  1
  O  O9  1  0.951517  0.757651  0.872601  1
  O  O10  1  0.466246  0.266481  0.178034  1
  O  O11  1  0.533754  0.766481  0.821966  1
  O  O12  1  0.185060  0.563214  0.328879  1
  O  O13  1  0.136248  0.767377  0.583123  1
  O  O14  1  0.206503  0.950442  0.323655  1
  O  O15  1  0.048483  0.257651  0.127399  1
  O  O16  1  0.814940  0.063214  0.671121  1
  O  O17  1  0.427914  0.246565  0.529040  1
  O  O18  1  0.686983  0.716900  0.069998  1
  O  O19  1  0.313017  0.216900  0.930002  1
  O  O20  1  0.572086  0.746565  0.470960  1
  O  O21  1  0.863752  0.267377  0.416877  1
