# generated using pymatgen
data_K4Zr5O12
_symmetry_space_group_name_H-M   'P 1'
_cell_length_a   5.90401575
_cell_length_b   5.90401575
_cell_length_c   10.59672981
_cell_angle_alpha   90.00000000
_cell_angle_beta   90.00000000
_cell_angle_gamma   120.00000000
_symmetry_Int_Tables_number   1
_chemical_formula_structural   K4Zr5O12
_chemical_formula_sum   'K4 Zr5 O12'
_cell_volume   319.88767475
_cell_formula_units_Z   1
loop_
 _symmetry_equiv_pos_site_id
 _symmetry_equiv_pos_as_xyz
  1  'x, y, z'
loop_
 _atom_site_type_symbol
 _atom_site_label
 _atom_site_symmetry_multiplicity
 _atom_site_fract_x
 _atom_site_fract_y
 _atom_site_fract_z
 _atom_site_occupancy
  K  K0  1  0.666667  0.333333  0.613226  1
  K  K1  1  0.333333  0.666667  0.386774  1
  K  K2  1  0.000000  0.000000  0.821146  1
  K  K3  1  0.000000  0.000000  0.178854  1
  Zr  Zr4  1  0.666667  0.333333  0.283374  1
  Zr  Zr5  1  0.333333  0.666667  0.716626  1
  Zr  Zr6  1  0.666667  0.333333  0.975905  1
  Zr  Zr7  1  0.333333  0.666667  0.024095  1
  Zr  Zr8  1  0.000000  0.000000  0.500000  1
  O  O9  1  0.980847  0.490424  0.122415  1
  O  O10  1  0.509576  0.490424  0.122415  1
  O  O11  1  0.509576  0.019153  0.122415  1
  O  O12  1  0.490424  0.509576  0.877585  1
  O  O13  1  0.019153  0.509576  0.877585  1
  O  O14  1  0.490424  0.980847  0.877585  1
  O  O15  1  0.329947  0.164973  0.378590  1
  O  O16  1  0.835027  0.164973  0.378590  1
  O  O17  1  0.835027  0.670053  0.378590  1
  O  O18  1  0.164973  0.329947  0.621410  1
  O  O19  1  0.670053  0.835027  0.621410  1
  O  O20  1  0.164973  0.835027  0.621410  1
