# generated using pymatgen
data_KY3F10
_symmetry_space_group_name_H-M   'P 1'
_cell_length_a   8.28402798
_cell_length_b   8.28402798
_cell_length_c   8.28402798
_cell_angle_alpha   60.00000000
_cell_angle_beta   60.00000000
_cell_angle_gamma   60.00000000
_symmetry_Int_Tables_number   1
_chemical_formula_structural   KY3F10
_chemical_formula_sum   'K2 Y6 F20'
_cell_volume   401.98483860
_cell_formula_units_Z   2
loop_
 _symmetry_equiv_pos_site_id
 _symmetry_equiv_pos_as_xyz
  1  'x, y, z'
loop_
 _atom_site_type_symbol
 _atom_site_label
 _atom_site_symmetry_multiplicity
 _atom_site_fract_x
 _atom_site_fract_y
 _atom_site_fract_z
 _atom_site_occupancy
  K  K0  1  0.750000  0.750000  0.750000  1
  K  K1  1  0.250000  0.250000  0.250000  1
  Y  Y2  1  0.759554  0.240446  0.240446  1
  Y  Y3  1  0.759554  0.759554  0.240446  1
  Y  Y4  1  0.240446  0.759554  0.240446  1
  Y  Y5  1  0.240446  0.759554  0.759554  1
  Y  Y6  1  0.240446  0.240446  0.759554  1
  Y  Y7  1  0.759554  0.240446  0.759554  1
  F  F8  1  0.888451  0.888451  0.334647  1
  F  F9  1  0.334647  0.888451  0.888451  1
  F  F10  1  0.888451  0.888451  0.888451  1
  F  F11  1  0.888451  0.334647  0.888451  1
  F  F12  1  0.111549  0.111549  0.665353  1
  F  F13  1  0.665353  0.111549  0.111549  1
  F  F14  1  0.111549  0.111549  0.111549  1
  F  F15  1  0.111549  0.665353  0.111549  1
  F  F16  1  0.500000  0.170127  0.829873  1
  F  F17  1  0.500000  0.500000  0.829873  1
  F  F18  1  0.170127  0.500000  0.829873  1
  F  F19  1  0.829873  0.500000  0.500000  1
  F  F20  1  0.829873  0.170127  0.500000  1
  F  F21  1  0.829873  0.500000  0.170127  1
  F  F22  1  0.170127  0.500000  0.500000  1
  F  F23  1  0.500000  0.500000  0.170127  1
  F  F24  1  0.500000  0.170127  0.500000  1
  F  F25  1  0.500000  0.829873  0.170127  1
  F  F26  1  0.170127  0.829873  0.500000  1
  F  F27  1  0.500000  0.829873  0.500000  1
