# generated using pymatgen
data_VCoSi
_symmetry_space_group_name_H-M   'P 1'
_cell_length_a   3.55223565
_cell_length_b   5.96122384
_cell_length_c   6.83050429
_cell_angle_alpha   90.00000000
_cell_angle_beta   90.00000000
_cell_angle_gamma   90.00000000
_symmetry_Int_Tables_number   1
_chemical_formula_structural   VCoSi
_chemical_formula_sum   'V4 Co4 Si4'
_cell_volume   144.64051736
_cell_formula_units_Z   4
loop_
 _symmetry_equiv_pos_site_id
 _symmetry_equiv_pos_as_xyz
  1  'x, y, z'
loop_
 _atom_site_type_symbol
 _atom_site_label
 _atom_site_symmetry_multiplicity
 _atom_site_fract_x
 _atom_site_fract_y
 _atom_site_fract_z
 _atom_site_occupancy
  V  V0  1  0.750000  0.474966  0.177989  1
  V  V1  1  0.250000  0.025034  0.677989  1
  V  V2  1  0.750000  0.974966  0.322011  1
  V  V3  1  0.250000  0.525034  0.822011  1
  Co  Co4  1  0.250000  0.642836  0.438966  1
  Co  Co5  1  0.250000  0.142836  0.061034  1
  Co  Co6  1  0.750000  0.857164  0.938966  1
  Co  Co7  1  0.750000  0.357164  0.561034  1
  Si  Si8  1  0.250000  0.766903  0.123841  1
  Si  Si9  1  0.250000  0.266903  0.376159  1
  Si  Si10  1  0.750000  0.233097  0.876159  1
  Si  Si11  1  0.750000  0.733097  0.623841  1
