# generated using pymatgen
data_Ba3(SnP2)2
_symmetry_space_group_name_H-M   'P 1'
_cell_length_a   7.97555949
_cell_length_b   19.56392362
_cell_length_c   7.98012705
_cell_angle_alpha   90.00000000
_cell_angle_beta   112.77190892
_cell_angle_gamma   90.00000000
_symmetry_Int_Tables_number   1
_chemical_formula_structural   Ba3(SnP2)2
_chemical_formula_sum   'Ba12 Sn8 P16'
_cell_volume   1148.10821331
_cell_formula_units_Z   4
loop_
 _symmetry_equiv_pos_site_id
 _symmetry_equiv_pos_as_xyz
  1  'x, y, z'
loop_
 _atom_site_type_symbol
 _atom_site_label
 _atom_site_symmetry_multiplicity
 _atom_site_fract_x
 _atom_site_fract_y
 _atom_site_fract_z
 _atom_site_occupancy
  Ba  Ba0  1  0.203359  0.688438  0.066159  1
  Ba  Ba1  1  0.796641  0.188438  0.433841  1
  Ba  Ba2  1  0.796641  0.311562  0.933841  1
  Ba  Ba3  1  0.203359  0.811562  0.566159  1
  Ba  Ba4  1  0.268556  0.063269  0.456864  1
  Ba  Ba5  1  0.731444  0.563269  0.043136  1
  Ba  Ba6  1  0.731444  0.936731  0.543136  1
  Ba  Ba7  1  0.268556  0.436731  0.956864  1
  Ba  Ba8  1  0.316992  0.305320  0.449623  1
  Ba  Ba9  1  0.683008  0.805320  0.050377  1
  Ba  Ba10  1  0.683008  0.694680  0.550377  1
  Ba  Ba11  1  0.316992  0.194680  0.949623  1
  Sn  Sn12  1  0.146833  0.621127  0.585500  1
  Sn  Sn13  1  0.853167  0.121127  0.914500  1
  Sn  Sn14  1  0.853167  0.378873  0.414500  1
  Sn  Sn15  1  0.146833  0.878873  0.085500  1
  Sn  Sn16  1  0.726710  0.005755  0.054714  1
  Sn  Sn17  1  0.726710  0.494245  0.554714  1
  Sn  Sn18  1  0.273290  0.994245  0.945286  1
  Sn  Sn19  1  0.273290  0.505755  0.445286  1
  P  P20  1  0.942512  0.689944  0.314792  1
  P  P21  1  0.057488  0.189944  0.185208  1
  P  P22  1  0.057488  0.310056  0.685208  1
  P  P23  1  0.942512  0.810056  0.814792  1
  P  P24  1  0.971315  0.928689  0.279307  1
  P  P25  1  0.028685  0.428689  0.220693  1
  P  P26  1  0.028685  0.071311  0.720693  1
  P  P27  1  0.971315  0.571311  0.779307  1
  P  P28  1  0.430796  0.819193  0.298903  1
  P  P29  1  0.569204  0.319193  0.201097  1
  P  P30  1  0.569204  0.180807  0.701097  1
  P  P31  1  0.430796  0.680807  0.798903  1
  P  P32  1  0.525319  0.056618  0.211023  1
  P  P33  1  0.525319  0.443382  0.711023  1
  P  P34  1  0.474681  0.943382  0.788977  1
  P  P35  1  0.474681  0.556618  0.288977  1
