# generated using pymatgen
data_Al2Fe3Si4
_symmetry_space_group_name_H-M   'P 1'
_cell_length_a   6.37445594
_cell_length_b   6.37445594
_cell_length_c   10.08008829
_cell_angle_alpha   90.00000000
_cell_angle_beta   90.00000000
_cell_angle_gamma   146.72968482
_symmetry_Int_Tables_number   1
_chemical_formula_structural   Al2Fe3Si4
_chemical_formula_sum   'Al4 Fe6 Si8'
_cell_volume   224.69750206
_cell_formula_units_Z   2
loop_
 _symmetry_equiv_pos_site_id
 _symmetry_equiv_pos_as_xyz
  1  'x, y, z'
loop_
 _atom_site_type_symbol
 _atom_site_label
 _atom_site_symmetry_multiplicity
 _atom_site_fract_x
 _atom_site_fract_y
 _atom_site_fract_z
 _atom_site_occupancy
  Al  Al0  1  0.942482  0.057518  0.890882  1
  Al  Al1  1  0.057518  0.942482  0.109118  1
  Al  Al2  1  0.942482  0.057518  0.609118  1
  Al  Al3  1  0.057518  0.942482  0.390882  1
  Fe  Fe4  1  0.850650  0.149350  0.374763  1
  Fe  Fe5  1  0.149350  0.850650  0.625237  1
  Fe  Fe6  1  0.850650  0.149350  0.125237  1
  Fe  Fe7  1  0.149350  0.850650  0.874763  1
  Fe  Fe8  1  0.647714  0.352286  0.250000  1
  Fe  Fe9  1  0.352286  0.647714  0.750000  1
  Si  Si10  1  0.680560  0.319440  0.486438  1
  Si  Si11  1  0.319440  0.680560  0.513562  1
  Si  Si12  1  0.680560  0.319440  0.013562  1
  Si  Si13  1  0.319440  0.680560  0.986438  1
  Si  Si14  1  0.454909  0.545091  0.250000  1
  Si  Si15  1  0.545091  0.454909  0.750000  1
  Si  Si16  1  0.259969  0.740031  0.250000  1
  Si  Si17  1  0.740031  0.259969  0.750000  1
