# generated using pymatgen
data_Er5C2Br9
_symmetry_space_group_name_H-M   'P 1'
_cell_length_a   10.15748122
_cell_length_b   16.45405176
_cell_length_c   13.43331316
_cell_angle_alpha   90.00000000
_cell_angle_beta   121.97858958
_cell_angle_gamma   90.00000000
_symmetry_Int_Tables_number   1
_chemical_formula_structural   Er5C2Br9
_chemical_formula_sum   'Er20 C8 Br36'
_cell_volume   1904.42501287
_cell_formula_units_Z   4
loop_
 _symmetry_equiv_pos_site_id
 _symmetry_equiv_pos_as_xyz
  1  'x, y, z'
loop_
 _atom_site_type_symbol
 _atom_site_label
 _atom_site_symmetry_multiplicity
 _atom_site_fract_x
 _atom_site_fract_y
 _atom_site_fract_z
 _atom_site_occupancy
  Er  Er0  1  0.209655  0.813824  0.054298  1
  Er  Er1  1  0.790345  0.313824  0.445702  1
  Er  Er2  1  0.790345  0.186176  0.945702  1
  Er  Er3  1  0.209655  0.686176  0.554298  1
  Er  Er4  1  0.989021  0.944027  0.737504  1
  Er  Er5  1  0.010979  0.444027  0.762496  1
  Er  Er6  1  0.010979  0.055973  0.262496  1
  Er  Er7  1  0.989021  0.555973  0.237504  1
  Er  Er8  1  0.645487  0.441522  0.190050  1
  Er  Er9  1  0.354513  0.941522  0.309950  1
  Er  Er10  1  0.354513  0.558478  0.809950  1
  Er  Er11  1  0.645487  0.058478  0.690050  1
  Er  Er12  1  0.160779  0.462368  0.532980  1
  Er  Er13  1  0.839221  0.962368  0.967020  1
  Er  Er14  1  0.839221  0.537632  0.467020  1
  Er  Er15  1  0.160779  0.037632  0.032980  1
  Er  Er16  1  0.986855  0.339339  0.280545  1
  Er  Er17  1  0.013145  0.839339  0.219455  1
  Er  Er18  1  0.013145  0.660661  0.719455  1
  Er  Er19  1  0.986855  0.160661  0.780545  1
  C  C20  1  0.873693  0.411496  0.382081  1
  C  C21  1  0.126307  0.911496  0.117919  1
  C  C22  1  0.126307  0.588504  0.617919  1
  C  C23  1  0.873693  0.088504  0.882081  1
  C  C24  1  0.073148  0.970556  0.168530  1
  C  C25  1  0.926852  0.470556  0.331470  1
  C  C26  1  0.926852  0.029444  0.831470  1
  C  C27  1  0.073148  0.529444  0.668530  1
  Br  Br28  1  0.698178  0.317736  0.063863  1
  Br  Br29  1  0.301822  0.817736  0.436137  1
  Br  Br30  1  0.301822  0.682264  0.936137  1
  Br  Br31  1  0.698178  0.182264  0.563863  1
  Br  Br32  1  0.087386  0.433386  0.155649  1
  Br  Br33  1  0.912614  0.933386  0.344351  1
  Br  Br34  1  0.912614  0.566614  0.844351  1
  Br  Br35  1  0.087386  0.066614  0.655649  1
  Br  Br36  1  0.536938  0.561335  0.265158  1
  Br  Br37  1  0.463062  0.061335  0.234842  1
  Br  Br38  1  0.463062  0.438665  0.734842  1
  Br  Br39  1  0.536938  0.938665  0.765158  1
  Br  Br40  1  0.279541  0.328848  0.468710  1
  Br  Br41  1  0.720459  0.828848  0.031290  1
  Br  Br42  1  0.720459  0.671152  0.531290  1
  Br  Br43  1  0.279541  0.171152  0.968710  1
  Br  Br44  1  0.904808  0.306595  0.860100  1
  Br  Br45  1  0.095192  0.806595  0.639900  1
  Br  Br46  1  0.095192  0.693405  0.139900  1
  Br  Br47  1  0.904808  0.193405  0.360100  1
  Br  Br48  1  0.079189  0.201446  0.173288  1
  Br  Br49  1  0.920811  0.701446  0.326712  1
  Br  Br50  1  0.920811  0.798554  0.826712  1
  Br  Br51  1  0.079189  0.298554  0.673288  1
  Br  Br52  1  0.499833  0.179837  0.748910  1
  Br  Br53  1  0.500167  0.679837  0.751090  1
  Br  Br54  1  0.500167  0.820163  0.251090  1
  Br  Br55  1  0.499833  0.320163  0.248910  1
  Br  Br56  1  0.319946  0.057165  0.458276  1
  Br  Br57  1  0.680054  0.557165  0.041724  1
  Br  Br58  1  0.680054  0.942835  0.541724  1
  Br  Br59  1  0.319946  0.442835  0.958276  1
  Br  Br60  1  0.704573  0.070329  0.059360  1
  Br  Br61  1  0.295427  0.570329  0.440640  1
  Br  Br62  1  0.295427  0.929671  0.940640  1
  Br  Br63  1  0.704573  0.429671  0.559360  1
