# generated using pymatgen
data_Sm5Ga3
_symmetry_space_group_name_H-M   'P 1'
_cell_length_a   7.77158361
_cell_length_b   7.77158361
_cell_length_c   14.55652962
_cell_angle_alpha   90.00000000
_cell_angle_beta   90.00000000
_cell_angle_gamma   90.00000000
_symmetry_Int_Tables_number   1
_chemical_formula_structural   Sm5Ga3
_chemical_formula_sum   'Sm20 Ga12'
_cell_volume   879.17816960
_cell_formula_units_Z   4
loop_
 _symmetry_equiv_pos_site_id
 _symmetry_equiv_pos_as_xyz
  1  'x, y, z'
loop_
 _atom_site_type_symbol
 _atom_site_label
 _atom_site_symmetry_multiplicity
 _atom_site_fract_x
 _atom_site_fract_y
 _atom_site_fract_z
 _atom_site_occupancy
  Sm  Sm0  1  0.343858  0.314259  0.896611  1
  Sm  Sm1  1  0.843858  0.185741  0.603389  1
  Sm  Sm2  1  0.814259  0.156142  0.896611  1
  Sm  Sm3  1  0.185741  0.843858  0.896611  1
  Sm  Sm4  1  0.500000  0.000000  0.221128  1
  Sm  Sm5  1  0.000000  0.500000  0.278872  1
  Sm  Sm6  1  0.000000  0.500000  0.778872  1
  Sm  Sm7  1  0.500000  0.000000  0.721128  1
  Sm  Sm8  1  0.656142  0.685741  0.896611  1
  Sm  Sm9  1  0.314259  0.343858  0.603389  1
  Sm  Sm10  1  0.685741  0.656142  0.603389  1
  Sm  Sm11  1  0.156142  0.814259  0.603389  1
  Sm  Sm12  1  0.314259  0.656142  0.103389  1
  Sm  Sm13  1  0.685741  0.343858  0.103389  1
  Sm  Sm14  1  0.656142  0.314259  0.396611  1
  Sm  Sm15  1  0.156142  0.185741  0.103389  1
  Sm  Sm16  1  0.843858  0.814259  0.103389  1
  Sm  Sm17  1  0.185741  0.156142  0.396611  1
  Sm  Sm18  1  0.814259  0.843858  0.396611  1
  Sm  Sm19  1  0.343858  0.685741  0.396611  1
  Ga  Ga20  1  0.879450  0.879450  0.750000  1
  Ga  Ga21  1  0.620550  0.379450  0.750000  1
  Ga  Ga22  1  0.379450  0.620550  0.750000  1
  Ga  Ga23  1  0.120550  0.120550  0.750000  1
  Ga  Ga24  1  0.620550  0.620550  0.250000  1
  Ga  Ga25  1  0.879450  0.120550  0.250000  1
  Ga  Ga26  1  0.120550  0.879450  0.250000  1
  Ga  Ga27  1  0.379450  0.379450  0.250000  1
  Ga  Ga28  1  0.000000  0.500000  0.992594  1
  Ga  Ga29  1  0.500000  0.000000  0.507406  1
  Ga  Ga30  1  0.500000  0.000000  0.007406  1
  Ga  Ga31  1  0.000000  0.500000  0.492594  1
