# generated using pymatgen
data_Ca2PbO4
_symmetry_space_group_name_H-M   'P 1'
_cell_length_a   3.42656962
_cell_length_b   5.90108904
_cell_length_c   9.90764415
_cell_angle_alpha   90.00000000
_cell_angle_beta   90.00000000
_cell_angle_gamma   90.00000000
_symmetry_Int_Tables_number   1
_chemical_formula_structural   Ca2PbO4
_chemical_formula_sum   'Ca4 Pb2 O8'
_cell_volume   200.33744353
_cell_formula_units_Z   2
loop_
 _symmetry_equiv_pos_site_id
 _symmetry_equiv_pos_as_xyz
  1  'x, y, z'
loop_
 _atom_site_type_symbol
 _atom_site_label
 _atom_site_symmetry_multiplicity
 _atom_site_fract_x
 _atom_site_fract_y
 _atom_site_fract_z
 _atom_site_occupancy
  Ca  Ca0  1  0.500000  0.427291  0.817947  1
  Ca  Ca1  1  0.500000  0.572709  0.182053  1
  Ca  Ca2  1  0.500000  0.927291  0.682053  1
  Ca  Ca3  1  0.500000  0.072709  0.317947  1
  Pb  Pb4  1  0.000000  0.500000  0.500000  1
  Pb  Pb5  1  0.000000  0.000000  0.000000  1
  O  O6  1  0.000000  0.140633  0.799083  1
  O  O7  1  0.000000  0.859367  0.200917  1
  O  O8  1  0.000000  0.640633  0.700917  1
  O  O9  1  0.000000  0.359367  0.299083  1
  O  O10  1  0.500000  0.259626  0.549039  1
  O  O11  1  0.500000  0.740374  0.450961  1
  O  O12  1  0.500000  0.240374  0.049039  1
  O  O13  1  0.500000  0.759626  0.950961  1
