# generated using pymatgen
data_YNiSn
_symmetry_space_group_name_H-M   'P 1'
_cell_length_a   4.47676897
_cell_length_b   7.16784503
_cell_length_c   7.69921649
_cell_angle_alpha   90.00000000
_cell_angle_beta   90.00000000
_cell_angle_gamma   90.00000000
_symmetry_Int_Tables_number   1
_chemical_formula_structural   YNiSn
_chemical_formula_sum   'Y4 Ni4 Sn4'
_cell_volume   247.05851195
_cell_formula_units_Z   4
loop_
 _symmetry_equiv_pos_site_id
 _symmetry_equiv_pos_as_xyz
  1  'x, y, z'
loop_
 _atom_site_type_symbol
 _atom_site_label
 _atom_site_symmetry_multiplicity
 _atom_site_fract_x
 _atom_site_fract_y
 _atom_site_fract_z
 _atom_site_occupancy
  Y  Y0  1  0.750000  0.512653  0.797149  1
  Y  Y1  1  0.250000  0.987347  0.297149  1
  Y  Y2  1  0.250000  0.487347  0.202851  1
  Y  Y3  1  0.750000  0.012653  0.702851  1
  Ni  Ni4  1  0.750000  0.800977  0.085237  1
  Ni  Ni5  1  0.250000  0.199023  0.914763  1
  Ni  Ni6  1  0.750000  0.300977  0.414763  1
  Ni  Ni7  1  0.250000  0.699023  0.585237  1
  Sn  Sn8  1  0.250000  0.809082  0.912988  1
  Sn  Sn9  1  0.250000  0.309082  0.587012  1
  Sn  Sn10  1  0.750000  0.690918  0.412988  1
  Sn  Sn11  1  0.750000  0.190918  0.087012  1
