# generated using pymatgen
data_BaNiN
_symmetry_space_group_name_H-M   'P 1'
_cell_length_a   5.45056119
_cell_length_b   9.75126669
_cell_length_c   13.75711892
_cell_angle_alpha   90.00000000
_cell_angle_beta   90.00000000
_cell_angle_gamma   90.00000000
_symmetry_Int_Tables_number   1
_chemical_formula_structural   BaNiN
_chemical_formula_sum   'Ba12 Ni12 N12'
_cell_volume   731.18916160
_cell_formula_units_Z   12
loop_
 _symmetry_equiv_pos_site_id
 _symmetry_equiv_pos_as_xyz
  1  'x, y, z'
loop_
 _atom_site_type_symbol
 _atom_site_label
 _atom_site_symmetry_multiplicity
 _atom_site_fract_x
 _atom_site_fract_y
 _atom_site_fract_z
 _atom_site_occupancy
  Ba  Ba0  1  0.477251  0.505279  0.750000  1
  Ba  Ba1  1  0.977251  0.994721  0.250000  1
  Ba  Ba2  1  0.022749  0.005279  0.750000  1
  Ba  Ba3  1  0.522749  0.494721  0.250000  1
  Ba  Ba4  1  0.972102  0.326457  0.412291  1
  Ba  Ba5  1  0.472102  0.173543  0.587709  1
  Ba  Ba6  1  0.527898  0.826457  0.087709  1
  Ba  Ba7  1  0.027898  0.673543  0.912291  1
  Ba  Ba8  1  0.027898  0.673543  0.587709  1
  Ba  Ba9  1  0.527898  0.826457  0.412291  1
  Ba  Ba10  1  0.472102  0.173543  0.912291  1
  Ba  Ba11  1  0.972102  0.326457  0.087709  1
  Ni  Ni12  1  0.438162  0.143483  0.161796  1
  Ni  Ni13  1  0.938162  0.356517  0.838204  1
  Ni  Ni14  1  0.061838  0.643483  0.338204  1
  Ni  Ni15  1  0.561838  0.856517  0.661796  1
  Ni  Ni16  1  0.561838  0.856517  0.838204  1
  Ni  Ni17  1  0.061838  0.643483  0.161796  1
  Ni  Ni18  1  0.938162  0.356517  0.661796  1
  Ni  Ni19  1  0.438162  0.143483  0.338204  1
  Ni  Ni20  1  0.000000  0.000000  0.000000  1
  Ni  Ni21  1  0.500000  0.500000  0.000000  1
  Ni  Ni22  1  0.500000  0.500000  0.500000  1
  Ni  Ni23  1  0.000000  0.000000  0.500000  1
  N  N24  1  0.348595  0.780152  0.750000  1
  N  N25  1  0.848595  0.719848  0.250000  1
  N  N26  1  0.151405  0.280152  0.750000  1
  N  N27  1  0.651405  0.219848  0.250000  1
  N  N28  1  0.225007  0.071621  0.423641  1
  N  N29  1  0.725007  0.428379  0.576359  1
  N  N30  1  0.274993  0.571621  0.076359  1
  N  N31  1  0.774993  0.928379  0.923641  1
  N  N32  1  0.774993  0.928379  0.576359  1
  N  N33  1  0.274993  0.571621  0.423641  1
  N  N34  1  0.725007  0.428379  0.923641  1
  N  N35  1  0.225007  0.071621  0.076359  1
