# generated using pymatgen
data_Si2Ni3
_symmetry_space_group_name_H-M   'P 1'
_cell_length_a   8.15431812
_cell_length_b   8.15431812
_cell_length_c   6.91738267
_cell_angle_alpha   90.00000000
_cell_angle_beta   90.00000000
_cell_angle_gamma   96.99473517
_symmetry_Int_Tables_number   1
_chemical_formula_structural   Si2Ni3
_chemical_formula_sum   'Si16 Ni24'
_cell_volume   456.53356168
_cell_formula_units_Z   8
loop_
 _symmetry_equiv_pos_site_id
 _symmetry_equiv_pos_as_xyz
  1  'x, y, z'
loop_
 _atom_site_type_symbol
 _atom_site_label
 _atom_site_symmetry_multiplicity
 _atom_site_fract_x
 _atom_site_fract_y
 _atom_site_fract_z
 _atom_site_occupancy
  Si  Si0  1  0.592425  0.592425  0.250000  1
  Si  Si1  1  0.407575  0.407575  0.750000  1
  Si  Si2  1  0.843851  0.843851  0.750000  1
  Si  Si3  1  0.156149  0.156149  0.250000  1
  Si  Si4  1  0.493605  0.190758  0.457995  1
  Si  Si5  1  0.506395  0.809242  0.957995  1
  Si  Si6  1  0.809242  0.506395  0.957995  1
  Si  Si7  1  0.190758  0.493605  0.457995  1
  Si  Si8  1  0.493605  0.190758  0.042005  1
  Si  Si9  1  0.506395  0.809242  0.542005  1
  Si  Si10  1  0.809242  0.506395  0.542005  1
  Si  Si11  1  0.190758  0.493605  0.042005  1
  Si  Si12  1  0.176074  0.937630  0.750000  1
  Si  Si13  1  0.823926  0.062370  0.250000  1
  Si  Si14  1  0.062370  0.823926  0.250000  1
  Si  Si15  1  0.937630  0.176074  0.750000  1
  Ni  Ni16  1  0.000000  0.000000  0.500000  1
  Ni  Ni17  1  0.000000  0.000000  0.000000  1
  Ni  Ni18  1  0.234945  0.234945  0.560912  1
  Ni  Ni19  1  0.765055  0.765055  0.060912  1
  Ni  Ni20  1  0.234945  0.234945  0.939088  1
  Ni  Ni21  1  0.765055  0.765055  0.439088  1
  Ni  Ni22  1  0.383337  0.383337  0.250000  1
  Ni  Ni23  1  0.616663  0.616663  0.750000  1
  Ni  Ni24  1  0.676405  0.314941  0.750000  1
  Ni  Ni25  1  0.323595  0.685059  0.250000  1
  Ni  Ni26  1  0.685059  0.323595  0.250000  1
  Ni  Ni27  1  0.314941  0.676405  0.750000  1
  Ni  Ni28  1  0.443615  0.049949  0.750000  1
  Ni  Ni29  1  0.556385  0.950051  0.250000  1
  Ni  Ni30  1  0.950051  0.556385  0.250000  1
  Ni  Ni31  1  0.049949  0.443615  0.750000  1
  Ni  Ni32  1  0.291114  0.946864  0.438558  1
  Ni  Ni33  1  0.708886  0.053136  0.938558  1
  Ni  Ni34  1  0.053136  0.708886  0.938558  1
  Ni  Ni35  1  0.946864  0.291114  0.438558  1
  Ni  Ni36  1  0.291114  0.946864  0.061442  1
  Ni  Ni37  1  0.708886  0.053136  0.561442  1
  Ni  Ni38  1  0.053136  0.708886  0.561442  1
  Ni  Ni39  1  0.946864  0.291114  0.061442  1
