# generated using pymatgen
data_Li2VPO4F
_symmetry_space_group_name_H-M   'P 1'
_cell_length_a   5.42435336
_cell_length_b   5.43408251
_cell_length_c   7.46053403
_cell_angle_alpha   107.50985961
_cell_angle_beta   107.44555887
_cell_angle_gamma   94.79824177
_symmetry_Int_Tables_number   1
_chemical_formula_structural   Li2VPO4F
_chemical_formula_sum   'Li4 V2 P2 O8 F2'
_cell_volume   196.38682952
_cell_formula_units_Z   2
loop_
 _symmetry_equiv_pos_site_id
 _symmetry_equiv_pos_as_xyz
  1  'x, y, z'
loop_
 _atom_site_type_symbol
 _atom_site_label
 _atom_site_symmetry_multiplicity
 _atom_site_fract_x
 _atom_site_fract_y
 _atom_site_fract_z
 _atom_site_occupancy
  Li  Li0  1  0.163738  0.545936  0.123935  1
  Li  Li1  1  0.512462  0.159037  0.862163  1
  Li  Li2  1  0.485661  0.949784  0.472346  1
  Li  Li3  1  0.775943  0.452003  0.709004  1
  V  V4  1  0.004605  0.998188  0.013651  1
  V  V5  1  0.994017  0.001024  0.507889  1
  P  P6  1  0.657311  0.377881  0.260482  1
  P  P7  1  0.346512  0.628038  0.768284  1
  O  O8  1  0.715038  0.240543  0.419945  1
  O  O9  1  0.286325  0.797506  0.631124  1
  O  O10  1  0.330428  0.330079  0.657532  1
  O  O11  1  0.143121  0.650060  0.879958  1
  O  O12  1  0.854294  0.334754  0.144122  1
  O  O13  1  0.636209  0.730129  0.907444  1
  O  O14  1  0.668127  0.673448  0.364400  1
  O  O15  1  0.376596  0.260697  0.098549  1
  F  F16  1  0.828313  0.105948  0.747908  1
  F  F17  1  0.149182  0.896578  0.272671  1
