# generated using pymatgen
data_In2Co
_symmetry_space_group_name_H-M   'P 1'
_cell_length_a   10.12738088
_cell_length_b   9.32171593
_cell_length_c   5.43062158
_cell_angle_alpha   82.15337957
_cell_angle_beta   65.75931332
_cell_angle_gamma   32.08730711
_symmetry_Int_Tables_number   1
_chemical_formula_structural   In2Co
_chemical_formula_sum   'In8 Co4'
_cell_volume   223.44489130
_cell_formula_units_Z   4
loop_
 _symmetry_equiv_pos_site_id
 _symmetry_equiv_pos_as_xyz
  1  'x, y, z'
loop_
 _atom_site_type_symbol
 _atom_site_label
 _atom_site_symmetry_multiplicity
 _atom_site_fract_x
 _atom_site_fract_y
 _atom_site_fract_z
 _atom_site_occupancy
  In  In0  1  0.408992  0.091008  0.408992  1
  In  In1  1  0.091008  0.408992  0.091008  1
  In  In2  1  0.841008  0.158992  0.841008  1
  In  In3  1  0.158992  0.841008  0.158992  1
  In  In4  1  0.660727  0.660727  0.839273  1
  In  In5  1  0.839273  0.839273  0.660727  1
  In  In6  1  0.589273  0.589273  0.410727  1
  In  In7  1  0.410727  0.410727  0.589273  1
  Co  Co8  1  0.121658  0.121658  0.378342  1
  Co  Co9  1  0.378342  0.378342  0.121658  1
  Co  Co10  1  0.128342  0.128342  0.871658  1
  Co  Co11  1  0.871658  0.871658  0.128342  1
