# generated using pymatgen
data_K2GeSe4
_symmetry_space_group_name_H-M   'P 1'
_cell_length_a   9.20015254
_cell_length_b   8.47277317
_cell_length_c   12.22371179
_cell_angle_alpha   90.00000000
_cell_angle_beta   106.31442248
_cell_angle_gamma   90.00000000
_symmetry_Int_Tables_number   1
_chemical_formula_structural   K2GeSe4
_chemical_formula_sum   'K8 Ge4 Se16'
_cell_volume   914.48137954
_cell_formula_units_Z   4
loop_
 _symmetry_equiv_pos_site_id
 _symmetry_equiv_pos_as_xyz
  1  'x, y, z'
loop_
 _atom_site_type_symbol
 _atom_site_label
 _atom_site_symmetry_multiplicity
 _atom_site_fract_x
 _atom_site_fract_y
 _atom_site_fract_z
 _atom_site_occupancy
  K  K0  1  0.692640  0.088382  0.342473  1
  K  K1  1  0.227573  0.074182  0.045110  1
  K  K2  1  0.272427  0.574182  0.954890  1
  K  K3  1  0.772427  0.925818  0.954890  1
  K  K4  1  0.807360  0.588382  0.657527  1
  K  K5  1  0.727573  0.425818  0.045110  1
  K  K6  1  0.307360  0.911618  0.657527  1
  K  K7  1  0.192640  0.411618  0.342473  1
  Ge  Ge8  1  0.548604  0.634167  0.258189  1
  Ge  Ge9  1  0.951396  0.134167  0.741811  1
  Ge  Ge10  1  0.451396  0.365833  0.741811  1
  Ge  Ge11  1  0.048604  0.865833  0.258189  1
  Se  Se12  1  0.808522  0.554510  0.362427  1
  Se  Se13  1  0.545869  0.286816  0.578720  1
  Se  Se14  1  0.954131  0.786816  0.421280  1
  Se  Se15  1  0.454131  0.713184  0.421280  1
  Se  Se16  1  0.967905  0.122325  0.199928  1
  Se  Se17  1  0.532095  0.622325  0.800072  1
  Se  Se18  1  0.032095  0.877675  0.800072  1
  Se  Se19  1  0.467905  0.377675  0.199928  1
  Se  Se20  1  0.691478  0.054510  0.637573  1
  Se  Se21  1  0.191478  0.445490  0.637573  1
  Se  Se22  1  0.308522  0.945490  0.362427  1
  Se  Se23  1  0.534790  0.830875  0.125666  1
  Se  Se24  1  0.965210  0.330875  0.874334  1
  Se  Se25  1  0.465210  0.169125  0.874334  1
  Se  Se26  1  0.034790  0.669125  0.125666  1
  Se  Se27  1  0.045869  0.213184  0.578720  1
