# generated using pymatgen
data_PrGe
_symmetry_space_group_name_H-M   'P 1'
_cell_length_a   4.09444263
_cell_length_b   6.04418382
_cell_length_c   8.39902375
_cell_angle_alpha   90.00000000
_cell_angle_beta   90.00000000
_cell_angle_gamma   90.00000000
_symmetry_Int_Tables_number   1
_chemical_formula_structural   PrGe
_chemical_formula_sum   'Pr4 Ge4'
_cell_volume   207.85537692
_cell_formula_units_Z   4
loop_
 _symmetry_equiv_pos_site_id
 _symmetry_equiv_pos_as_xyz
  1  'x, y, z'
loop_
 _atom_site_type_symbol
 _atom_site_label
 _atom_site_symmetry_multiplicity
 _atom_site_fract_x
 _atom_site_fract_y
 _atom_site_fract_z
 _atom_site_occupancy
  Pr  Pr0  1  0.250000  0.383031  0.681114  1
  Pr  Pr1  1  0.750000  0.616969  0.318886  1
  Pr  Pr2  1  0.750000  0.883031  0.818886  1
  Pr  Pr3  1  0.250000  0.116969  0.181114  1
  Ge  Ge4  1  0.250000  0.863941  0.538516  1
  Ge  Ge5  1  0.750000  0.136059  0.461484  1
  Ge  Ge6  1  0.750000  0.363941  0.961484  1
  Ge  Ge7  1  0.250000  0.636059  0.038516  1
