# generated using pymatgen
data_ScH3Br3N
_symmetry_space_group_name_H-M   'P 1'
_cell_length_a   7.66619241
_cell_length_b   9.78478750
_cell_length_c   9.90309868
_cell_angle_alpha   72.79502489
_cell_angle_beta   76.73290253
_cell_angle_gamma   80.80650200
_symmetry_Int_Tables_number   1
_chemical_formula_structural   ScH3Br3N
_chemical_formula_sum   'Sc4 H12 Br12 N4'
_cell_volume   687.29100377
_cell_formula_units_Z   4
loop_
 _symmetry_equiv_pos_site_id
 _symmetry_equiv_pos_as_xyz
  1  'x, y, z'
loop_
 _atom_site_type_symbol
 _atom_site_label
 _atom_site_symmetry_multiplicity
 _atom_site_fract_x
 _atom_site_fract_y
 _atom_site_fract_z
 _atom_site_occupancy
  Sc  Sc0  1  0.397665  0.807886  0.552391  1
  Sc  Sc1  1  0.078617  0.695220  0.940353  1
  Sc  Sc2  1  0.602335  0.192114  0.447609  1
  Sc  Sc3  1  0.921383  0.304780  0.059647  1
  H  H4  1  0.701777  0.739111  0.349609  1
  H  H5  1  0.298223  0.260889  0.650391  1
  H  H6  1  0.687966  0.598089  0.491011  1
  H  H7  1  0.312034  0.401911  0.508989  1
  H  H8  1  0.777782  0.739476  0.491785  1
  H  H9  1  0.222218  0.260524  0.508215  1
  H  H10  1  0.604324  0.240524  0.998897  1
  H  H11  1  0.395676  0.759476  0.001103  1
  H  H12  1  0.239878  0.760232  0.145803  1
  H  H13  1  0.753779  0.099682  0.996445  1
  H  H14  1  0.246221  0.900318  0.003555  1
  H  H15  1  0.760122  0.239768  0.854197  1
  Br  Br16  1  0.092212  0.914405  0.702294  1
  Br  Br17  1  0.415507  0.047292  0.335652  1
  Br  Br18  1  0.395367  0.590902  0.790985  1
  Br  Br19  1  0.604633  0.409098  0.209015  1
  Br  Br20  1  0.584493  0.952708  0.664348  1
  Br  Br21  1  0.907788  0.085595  0.297706  1
  Br  Br22  1  0.098188  0.460208  0.160576  1
  Br  Br23  1  0.901812  0.539792  0.839424  1
  Br  Br24  1  0.794555  0.818715  0.063919  1
  Br  Br25  1  0.205445  0.181285  0.936081  1
  Br  Br26  1  0.762091  0.314397  0.573071  1
  Br  Br27  1  0.237909  0.685603  0.426929  1
  N  N28  1  0.325181  0.291188  0.539393  1
  N  N29  1  0.674819  0.708812  0.460607  1
  N  N30  1  0.262123  0.789525  0.034909  1
  N  N31  1  0.737877  0.210475  0.965091  1
