# generated using pymatgen
data_Hg(Mo3Cl7)2
_symmetry_space_group_name_H-M   'P 1'
_cell_length_a   13.07792512
_cell_length_b   13.07792512
_cell_length_c   13.07792512
_cell_angle_alpha   90.00000000
_cell_angle_beta   90.00000000
_cell_angle_gamma   90.00000000
_symmetry_Int_Tables_number   1
_chemical_formula_structural   Hg(Mo3Cl7)2
_chemical_formula_sum   'Hg4 Mo24 Cl56'
_cell_volume   2236.74532968
_cell_formula_units_Z   4
loop_
 _symmetry_equiv_pos_site_id
 _symmetry_equiv_pos_as_xyz
  1  'x, y, z'
loop_
 _atom_site_type_symbol
 _atom_site_label
 _atom_site_symmetry_multiplicity
 _atom_site_fract_x
 _atom_site_fract_y
 _atom_site_fract_z
 _atom_site_occupancy
  Hg  Hg0  1  0.750000  0.750000  0.750000  1
  Hg  Hg1  1  0.250000  0.250000  0.750000  1
  Hg  Hg2  1  0.750000  0.250000  0.250000  1
  Hg  Hg3  1  0.250000  0.750000  0.250000  1
  Mo  Mo4  1  0.386655  0.225275  0.280536  1
  Mo  Mo5  1  0.280536  0.386655  0.225275  1
  Mo  Mo6  1  0.225275  0.280536  0.386655  1
  Mo  Mo7  1  0.774725  0.719464  0.386655  1
  Mo  Mo8  1  0.280536  0.613345  0.774725  1
  Mo  Mo9  1  0.774725  0.280536  0.613345  1
  Mo  Mo10  1  0.719464  0.613345  0.225275  1
  Mo  Mo11  1  0.719464  0.386655  0.774725  1
  Mo  Mo12  1  0.225275  0.719464  0.613345  1
  Mo  Mo13  1  0.386655  0.774725  0.719464  1
  Mo  Mo14  1  0.613345  0.225275  0.719464  1
  Mo  Mo15  1  0.613345  0.774725  0.280536  1
  Mo  Mo16  1  0.113345  0.274725  0.219464  1
  Mo  Mo17  1  0.219464  0.113345  0.274725  1
  Mo  Mo18  1  0.274725  0.219464  0.113345  1
  Mo  Mo19  1  0.725275  0.780536  0.113345  1
  Mo  Mo20  1  0.219464  0.886655  0.725275  1
  Mo  Mo21  1  0.725275  0.219464  0.886655  1
  Mo  Mo22  1  0.780536  0.886655  0.274725  1
  Mo  Mo23  1  0.780536  0.113345  0.725275  1
  Mo  Mo24  1  0.274725  0.780536  0.886655  1
  Mo  Mo25  1  0.113345  0.725275  0.780536  1
  Mo  Mo26  1  0.886655  0.274725  0.780536  1
  Mo  Mo27  1  0.886655  0.725275  0.219464  1
  Cl  Cl28  1  0.384884  0.384884  0.384884  1
  Cl  Cl29  1  0.615116  0.615116  0.384884  1
  Cl  Cl30  1  0.384884  0.615116  0.615116  1
  Cl  Cl31  1  0.615116  0.384884  0.615116  1
  Cl  Cl32  1  0.115116  0.115116  0.115116  1
  Cl  Cl33  1  0.884884  0.884884  0.115116  1
  Cl  Cl34  1  0.115116  0.884884  0.884884  1
  Cl  Cl35  1  0.884884  0.115116  0.884884  1
  Cl  Cl36  1  0.374015  0.068846  0.173885  1
  Cl  Cl37  1  0.173885  0.374015  0.068846  1
  Cl  Cl38  1  0.068846  0.173885  0.374015  1
  Cl  Cl39  1  0.931154  0.826115  0.374015  1
  Cl  Cl40  1  0.173885  0.625985  0.931154  1
  Cl  Cl41  1  0.931154  0.173885  0.625985  1
  Cl  Cl42  1  0.826115  0.625985  0.068846  1
  Cl  Cl43  1  0.826115  0.374015  0.931154  1
  Cl  Cl44  1  0.068846  0.826115  0.625985  1
  Cl  Cl45  1  0.374015  0.931154  0.826115  1
  Cl  Cl46  1  0.625985  0.068846  0.826115  1
  Cl  Cl47  1  0.625985  0.931154  0.173885  1
  Cl  Cl48  1  0.125985  0.431154  0.326115  1
  Cl  Cl49  1  0.326115  0.125985  0.431154  1
  Cl  Cl50  1  0.431154  0.326115  0.125985  1
  Cl  Cl51  1  0.568846  0.673885  0.125985  1
  Cl  Cl52  1  0.326115  0.874015  0.568846  1
  Cl  Cl53  1  0.568846  0.326115  0.874015  1
  Cl  Cl54  1  0.673885  0.874015  0.431154  1
  Cl  Cl55  1  0.673885  0.125985  0.568846  1
  Cl  Cl56  1  0.431154  0.673885  0.874015  1
  Cl  Cl57  1  0.125985  0.568846  0.673885  1
  Cl  Cl58  1  0.874015  0.431154  0.673885  1
  Cl  Cl59  1  0.874015  0.568846  0.326115  1
  Cl  Cl60  1  0.565952  0.187267  0.328569  1
  Cl  Cl61  1  0.328569  0.565952  0.187267  1
  Cl  Cl62  1  0.187267  0.328569  0.565952  1
  Cl  Cl63  1  0.812733  0.671431  0.565952  1
  Cl  Cl64  1  0.328569  0.434048  0.812733  1
  Cl  Cl65  1  0.812733  0.328569  0.434048  1
  Cl  Cl66  1  0.671431  0.434048  0.187267  1
  Cl  Cl67  1  0.671431  0.565952  0.812733  1
  Cl  Cl68  1  0.187267  0.671431  0.434048  1
  Cl  Cl69  1  0.565952  0.812733  0.671431  1
  Cl  Cl70  1  0.434048  0.187267  0.671431  1
  Cl  Cl71  1  0.434048  0.812733  0.328569  1
  Cl  Cl72  1  0.934048  0.312733  0.171431  1
  Cl  Cl73  1  0.171431  0.934048  0.312733  1
  Cl  Cl74  1  0.312733  0.171431  0.934048  1
  Cl  Cl75  1  0.687267  0.828569  0.934048  1
  Cl  Cl76  1  0.171431  0.065952  0.687267  1
  Cl  Cl77  1  0.687267  0.171431  0.065952  1
  Cl  Cl78  1  0.828569  0.065952  0.312733  1
  Cl  Cl79  1  0.828569  0.934048  0.687267  1
  Cl  Cl80  1  0.312733  0.828569  0.065952  1
  Cl  Cl81  1  0.934048  0.687267  0.828569  1
  Cl  Cl82  1  0.065952  0.312733  0.828569  1
  Cl  Cl83  1  0.065952  0.687267  0.171431  1
