# generated using pymatgen
data_BPd3
_symmetry_space_group_name_H-M   'P 1'
_cell_length_a   4.89772993
_cell_length_b   5.53472774
_cell_length_c   7.70890102
_cell_angle_alpha   90.00000000
_cell_angle_beta   90.00000000
_cell_angle_gamma   90.00000000
_symmetry_Int_Tables_number   1
_chemical_formula_structural   BPd3
_chemical_formula_sum   'B4 Pd12'
_cell_volume   208.96981845
_cell_formula_units_Z   4
loop_
 _symmetry_equiv_pos_site_id
 _symmetry_equiv_pos_as_xyz
  1  'x, y, z'
loop_
 _atom_site_type_symbol
 _atom_site_label
 _atom_site_symmetry_multiplicity
 _atom_site_fract_x
 _atom_site_fract_y
 _atom_site_fract_z
 _atom_site_occupancy
  B  B0  1  0.565532  0.612320  0.750000  1
  B  B1  1  0.065532  0.887680  0.250000  1
  B  B2  1  0.934468  0.112320  0.750000  1
  B  B3  1  0.434468  0.387680  0.250000  1
  Pd  Pd4  1  0.673930  0.320878  0.927829  1
  Pd  Pd5  1  0.173930  0.179122  0.072171  1
  Pd  Pd6  1  0.826070  0.820878  0.572171  1
  Pd  Pd7  1  0.326070  0.679122  0.427829  1
  Pd  Pd8  1  0.842095  0.539203  0.250000  1
  Pd  Pd9  1  0.342095  0.960797  0.750000  1
  Pd  Pd10  1  0.657905  0.039203  0.250000  1
  Pd  Pd11  1  0.157905  0.460797  0.750000  1
  Pd  Pd12  1  0.673930  0.320878  0.572171  1
  Pd  Pd13  1  0.173930  0.179122  0.427829  1
  Pd  Pd14  1  0.826070  0.820878  0.927829  1
  Pd  Pd15  1  0.326070  0.679122  0.072171  1
