# generated using pymatgen
data_Th6CoBr15
_symmetry_space_group_name_H-M   'P 1'
_cell_length_a   10.17632873
_cell_length_b   10.17632873
_cell_length_c   10.17632873
_cell_angle_alpha   109.47122063
_cell_angle_beta   109.47122063
_cell_angle_gamma   109.47122063
_symmetry_Int_Tables_number   1
_chemical_formula_structural   Th6CoBr15
_chemical_formula_sum   'Th6 Co1 Br15'
_cell_volume   811.24398900
_cell_formula_units_Z   1
loop_
 _symmetry_equiv_pos_site_id
 _symmetry_equiv_pos_as_xyz
  1  'x, y, z'
loop_
 _atom_site_type_symbol
 _atom_site_label
 _atom_site_symmetry_multiplicity
 _atom_site_fract_x
 _atom_site_fract_y
 _atom_site_fract_z
 _atom_site_occupancy
  Th  Th0  1  0.000000  0.762635  0.762635  1
  Th  Th1  1  0.237365  0.237365  0.000000  1
  Th  Th2  1  0.762635  0.762635  0.000000  1
  Th  Th3  1  0.762635  1.000000  0.762635  1
  Th  Th4  1  0.237365  1.000000  0.237365  1
  Th  Th5  1  0.000000  0.237365  0.237365  1
  Co  Co6  1  0.000000  0.000000  0.000000  1
  Br  Br7  1  0.500000  0.500000  0.000000  1
  Br  Br8  1  0.500000  1.000000  0.500000  1
  Br  Br9  1  0.000000  0.500000  0.500000  1
  Br  Br10  1  0.750554  0.501109  0.750554  1
  Br  Br11  1  0.249446  0.750554  1.000000  1
  Br  Br12  1  0.249446  0.498891  0.249446  1
  Br  Br13  1  0.498891  0.249446  0.249446  1
  Br  Br14  1  0.000000  0.249446  0.750554  1
  Br  Br15  1  0.750554  0.000000  0.249446  1
  Br  Br16  1  0.249446  0.000000  0.750554  1
  Br  Br17  1  0.750554  0.249446  0.000000  1
  Br  Br18  1  0.249446  0.249446  0.498891  1
  Br  Br19  1  0.000000  0.750554  0.249446  1
  Br  Br20  1  0.750554  0.750554  0.501109  1
  Br  Br21  1  0.501109  0.750554  0.750554  1
