# generated using pymatgen
data_Tl2SnTe5
_symmetry_space_group_name_H-M   'P 1'
_cell_length_a   9.76328961
_cell_length_b   9.76328961
_cell_length_c   9.76328961
_cell_angle_alpha   128.07721732
_cell_angle_beta   128.07721732
_cell_angle_gamma   76.49997252
_symmetry_Int_Tables_number   1
_chemical_formula_structural   Tl2SnTe5
_chemical_formula_sum   'Tl4 Sn2 Te10'
_cell_volume   560.24296222
_cell_formula_units_Z   2
loop_
 _symmetry_equiv_pos_site_id
 _symmetry_equiv_pos_as_xyz
  1  'x, y, z'
loop_
 _atom_site_type_symbol
 _atom_site_label
 _atom_site_symmetry_multiplicity
 _atom_site_fract_x
 _atom_site_fract_y
 _atom_site_fract_z
 _atom_site_occupancy
  Tl  Tl0  1  0.000000  0.000000  0.000000  1
  Tl  Tl1  1  0.500000  0.500000  0.000000  1
  Tl  Tl2  1  0.250000  0.250000  0.000000  1
  Tl  Tl3  1  0.750000  0.750000  0.000000  1
  Sn  Sn4  1  0.750000  0.250000  0.500000  1
  Sn  Sn5  1  0.250000  0.750000  0.500000  1
  Te  Te6  1  0.000000  0.500000  0.500000  1
  Te  Te7  1  0.500000  1.000000  0.500000  1
  Te  Te8  1  0.818658  0.318658  0.867336  1
  Te  Te9  1  0.318658  0.451322  0.500000  1
  Te  Te10  1  0.951322  0.818658  0.500000  1
  Te  Te11  1  0.681342  0.548678  0.500000  1
  Te  Te12  1  0.048678  0.181342  0.500000  1
  Te  Te13  1  0.548678  0.048678  0.867336  1
  Te  Te14  1  0.181342  0.681342  0.132664  1
  Te  Te15  1  0.451322  0.951322  0.132664  1
