# generated using pymatgen
data_Mo(RhO3)2
_symmetry_space_group_name_H-M   'P 1'
_cell_length_a   4.61790075
_cell_length_b   4.61790075
_cell_length_c   9.45189903
_cell_angle_alpha   90.00000000
_cell_angle_beta   90.00000000
_cell_angle_gamma   90.00000000
_symmetry_Int_Tables_number   1
_chemical_formula_structural   Mo(RhO3)2
_chemical_formula_sum   'Mo2 Rh4 O12'
_cell_volume   201.56181616
_cell_formula_units_Z   2
loop_
 _symmetry_equiv_pos_site_id
 _symmetry_equiv_pos_as_xyz
  1  'x, y, z'
loop_
 _atom_site_type_symbol
 _atom_site_label
 _atom_site_symmetry_multiplicity
 _atom_site_fract_x
 _atom_site_fract_y
 _atom_site_fract_z
 _atom_site_occupancy
  Mo  Mo0  1  0.000000  0.000000  0.000000  1
  Mo  Mo1  1  0.500000  0.500000  0.500000  1
  Rh  Rh2  1  0.500000  0.500000  0.832333  1
  Rh  Rh3  1  0.000000  0.000000  0.332333  1
  Rh  Rh4  1  0.500000  0.500000  0.167667  1
  Rh  Rh5  1  0.000000  0.000000  0.667667  1
  O  O6  1  0.694067  0.694067  0.664885  1
  O  O7  1  0.305933  0.305933  0.664885  1
  O  O8  1  0.694067  0.694067  0.335115  1
  O  O9  1  0.194067  0.805933  0.164885  1
  O  O10  1  0.805933  0.194067  0.164885  1
  O  O11  1  0.805933  0.194067  0.835115  1
  O  O12  1  0.303645  0.303645  0.000000  1
  O  O13  1  0.196355  0.803645  0.500000  1
  O  O14  1  0.803645  0.196355  0.500000  1
  O  O15  1  0.696355  0.696355  0.000000  1
  O  O16  1  0.305933  0.305933  0.335115  1
  O  O17  1  0.194067  0.805933  0.835115  1
