# generated using pymatgen
data_Na5OsO6
_symmetry_space_group_name_H-M   'P 1'
_cell_length_a   5.69707394
_cell_length_b   5.69707394
_cell_length_c   5.65379162
_cell_angle_alpha   79.60819701
_cell_angle_beta   100.39180299
_cell_angle_gamma   60.57079033
_symmetry_Int_Tables_number   1
_chemical_formula_structural   Na5OsO6
_chemical_formula_sum   'Na5 Os1 O6'
_cell_volume   149.25148888
_cell_formula_units_Z   1
loop_
 _symmetry_equiv_pos_site_id
 _symmetry_equiv_pos_as_xyz
  1  'x, y, z'
loop_
 _atom_site_type_symbol
 _atom_site_label
 _atom_site_symmetry_multiplicity
 _atom_site_fract_x
 _atom_site_fract_y
 _atom_site_fract_z
 _atom_site_occupancy
  Na  Na0  1  0.667025  0.667025  0.000000  1
  Na  Na1  1  0.174044  0.174044  0.500000  1
  Na  Na2  1  0.500000  0.500000  0.500000  1
  Na  Na3  1  0.332975  0.332975  0.000000  1
  Na  Na4  1  0.825956  0.825956  0.500000  1
  Os  Os5  1  0.000000  0.000000  0.000000  1
  O  O6  1  0.201491  0.798509  0.796682  1
  O  O7  1  0.798509  0.201491  0.203318  1
  O  O8  1  0.650530  0.070929  0.784155  1
  O  O9  1  0.070929  0.650530  0.215845  1
  O  O10  1  0.349470  0.929071  0.215845  1
  O  O11  1  0.929071  0.349470  0.784155  1
