# generated using pymatgen
data_K3MoCl6
_symmetry_space_group_name_H-M   'P 1'
_cell_length_a   12.34234425
_cell_length_b   7.66191391
_cell_length_c   12.89253249
_cell_angle_alpha   90.00000000
_cell_angle_beta   108.59827747
_cell_angle_gamma   90.00000000
_symmetry_Int_Tables_number   1
_chemical_formula_structural   K3MoCl6
_chemical_formula_sum   'K12 Mo4 Cl24'
_cell_volume   1155.52615742
_cell_formula_units_Z   4
loop_
 _symmetry_equiv_pos_site_id
 _symmetry_equiv_pos_as_xyz
  1  'x, y, z'
loop_
 _atom_site_type_symbol
 _atom_site_label
 _atom_site_symmetry_multiplicity
 _atom_site_fract_x
 _atom_site_fract_y
 _atom_site_fract_z
 _atom_site_occupancy
  K  K0  1  0.265221  0.932745  0.816274  1
  K  K1  1  0.234779  0.432745  0.183726  1
  K  K2  1  0.734779  0.067255  0.183726  1
  K  K3  1  0.765221  0.567255  0.816274  1
  K  K4  1  0.112068  0.433191  0.819228  1
  K  K5  1  0.387932  0.933191  0.180772  1
  K  K6  1  0.887932  0.566809  0.180772  1
  K  K7  1  0.612068  0.066809  0.819228  1
  K  K8  1  0.358951  0.465492  0.598481  1
  K  K9  1  0.141049  0.965492  0.401519  1
  K  K10  1  0.641049  0.534508  0.401519  1
  K  K11  1  0.858951  0.034508  0.598481  1
  Mo  Mo12  1  0.000000  0.500000  0.500000  1
  Mo  Mo13  1  0.500000  0.000000  0.500000  1
  Mo  Mo14  1  0.500000  0.500000  0.000000  1
  Mo  Mo15  1  0.000000  0.000000  0.000000  1
  Cl  Cl16  1  0.376127  0.997617  0.616001  1
  Cl  Cl17  1  0.123873  0.497617  0.383999  1
  Cl  Cl18  1  0.623873  0.002383  0.383999  1
  Cl  Cl19  1  0.876127  0.502383  0.616001  1
  Cl  Cl20  1  0.505452  0.699407  0.851570  1
  Cl  Cl21  1  0.994548  0.199407  0.148430  1
  Cl  Cl22  1  0.494548  0.300593  0.148430  1
  Cl  Cl23  1  0.005452  0.800593  0.851570  1
  Cl  Cl24  1  0.316745  0.633212  0.000087  1
  Cl  Cl25  1  0.183255  0.133212  0.999913  1
  Cl  Cl26  1  0.683255  0.366788  0.999913  1
  Cl  Cl27  1  0.816745  0.866788  0.000087  1
  Cl  Cl28  1  0.145917  0.680369  0.630742  1
  Cl  Cl29  1  0.354083  0.180369  0.369258  1
  Cl  Cl30  1  0.854083  0.319631  0.369258  1
  Cl  Cl31  1  0.645917  0.819631  0.630742  1
  Cl  Cl32  1  0.895832  0.207047  0.854677  1
  Cl  Cl33  1  0.604168  0.707047  0.145323  1
  Cl  Cl34  1  0.104168  0.792953  0.145323  1
  Cl  Cl35  1  0.395832  0.292953  0.854677  1
  Cl  Cl36  1  0.594606  0.269280  0.595382  1
  Cl  Cl37  1  0.905394  0.769280  0.404618  1
  Cl  Cl38  1  0.405394  0.730720  0.404618  1
  Cl  Cl39  1  0.094606  0.230720  0.595382  1
