# generated using pymatgen
data_LaTiAgO4
_symmetry_space_group_name_H-M   'P 1'
_cell_length_a   3.74858214
_cell_length_b   3.74858214
_cell_length_c   13.60203275
_cell_angle_alpha   90.00000000
_cell_angle_beta   90.00000000
_cell_angle_gamma   90.00000000
_symmetry_Int_Tables_number   1
_chemical_formula_structural   LaTiAgO4
_chemical_formula_sum   'La2 Ti2 Ag2 O8'
_cell_volume   191.13396956
_cell_formula_units_Z   2
loop_
 _symmetry_equiv_pos_site_id
 _symmetry_equiv_pos_as_xyz
  1  'x, y, z'
loop_
 _atom_site_type_symbol
 _atom_site_label
 _atom_site_symmetry_multiplicity
 _atom_site_fract_x
 _atom_site_fract_y
 _atom_site_fract_z
 _atom_site_occupancy
  La  La0  1  0.000000  0.500000  0.106910  1
  La  La1  1  0.500000  0.000000  0.893090  1
  Ti  Ti2  1  0.000000  0.500000  0.727761  1
  Ti  Ti3  1  0.500000  0.000000  0.272239  1
  Ag  Ag4  1  0.000000  0.500000  0.422291  1
  Ag  Ag5  1  0.500000  0.000000  0.577709  1
  O  O6  1  0.000000  0.500000  0.596025  1
  O  O7  1  0.500000  0.000000  0.403975  1
  O  O8  1  0.000000  0.500000  0.932107  1
  O  O9  1  0.500000  0.000000  0.067893  1
  O  O10  1  0.500000  0.500000  0.766993  1
  O  O11  1  0.000000  0.000000  0.766993  1
  O  O12  1  0.500000  0.500000  0.233007  1
  O  O13  1  0.000000  0.000000  0.233007  1
