# generated using pymatgen
data_RbMnP3HO10
_symmetry_space_group_name_H-M   'P 1'
_cell_length_a   7.51548224
_cell_length_b   7.51548224
_cell_length_c   9.26692549
_cell_angle_alpha   74.01584052
_cell_angle_beta   105.98415948
_cell_angle_gamma   111.29322065
_symmetry_Int_Tables_number   1
_chemical_formula_structural   RbMnP3HO10
_chemical_formula_sum   'Rb2 Mn2 P6 H2 O20'
_cell_volume   459.75822097
_cell_formula_units_Z   2
loop_
 _symmetry_equiv_pos_site_id
 _symmetry_equiv_pos_as_xyz
  1  'x, y, z'
loop_
 _atom_site_type_symbol
 _atom_site_label
 _atom_site_symmetry_multiplicity
 _atom_site_fract_x
 _atom_site_fract_y
 _atom_site_fract_z
 _atom_site_occupancy
  Rb  Rb0  1  0.438482  0.438482  0.250000  1
  Rb  Rb1  1  0.561518  0.561518  0.750000  1
  Mn  Mn2  1  0.000000  0.500000  0.500000  1
  Mn  Mn3  1  0.500000  0.000000  0.000000  1
  P  P4  1  0.870037  0.870037  0.250000  1
  P  P5  1  0.129963  0.129963  0.750000  1
  P  P6  1  0.268238  0.855634  0.293949  1
  P  P7  1  0.855634  0.268238  0.206051  1
  P  P8  1  0.731762  0.144366  0.706051  1
  P  P9  1  0.144366  0.731762  0.793949  1
  H  H10  1  0.000000  0.500000  0.000000  1
  H  H11  1  0.500000  0.000000  0.500000  1
  O  O12  1  0.845875  0.712515  0.390861  1
  O  O13  1  0.712515  0.845875  0.109139  1
  O  O14  1  0.154125  0.287485  0.609139  1
  O  O15  1  0.287485  0.154125  0.890861  1
  O  O16  1  0.369159  0.849612  0.174734  1
  O  O17  1  0.849612  0.369159  0.325266  1
  O  O18  1  0.630841  0.150388  0.825266  1
  O  O19  1  0.150388  0.630841  0.674734  1
  O  O20  1  0.095649  0.929628  0.698803  1
  O  O21  1  0.929628  0.095649  0.801197  1
  O  O22  1  0.904351  0.070372  0.301197  1
  O  O23  1  0.070372  0.904351  0.198803  1
  O  O24  1  0.350283  0.783955  0.894116  1
  O  O25  1  0.783955  0.350283  0.605884  1
  O  O26  1  0.649717  0.216045  0.105884  1
  O  O27  1  0.216045  0.649717  0.394116  1
  O  O28  1  0.981787  0.621510  0.885555  1
  O  O29  1  0.621510  0.981787  0.614445  1
  O  O30  1  0.018213  0.378490  0.114445  1
  O  O31  1  0.378490  0.018213  0.385555  1
