# generated using pymatgen
data_Na3InAs2
_symmetry_space_group_name_H-M   'P 1'
_cell_length_a   9.80204232
_cell_length_b   7.60370095
_cell_length_c   15.89126302
_cell_angle_alpha   90.00000000
_cell_angle_beta   92.83324730
_cell_angle_gamma   90.00000000
_symmetry_Int_Tables_number   1
_chemical_formula_structural   Na3InAs2
_chemical_formula_sum   'Na24 In8 As16'
_cell_volume   1182.95662463
_cell_formula_units_Z   8
loop_
 _symmetry_equiv_pos_site_id
 _symmetry_equiv_pos_as_xyz
  1  'x, y, z'
loop_
 _atom_site_type_symbol
 _atom_site_label
 _atom_site_symmetry_multiplicity
 _atom_site_fract_x
 _atom_site_fract_y
 _atom_site_fract_z
 _atom_site_occupancy
  Na  Na0  1  0.873869  0.151322  0.796974  1
  Na  Na1  1  0.126131  0.651322  0.703026  1
  Na  Na2  1  0.126131  0.848678  0.203026  1
  Na  Na3  1  0.873869  0.348678  0.296974  1
  Na  Na4  1  0.560669  0.488872  0.394657  1
  Na  Na5  1  0.439331  0.988872  0.105343  1
  Na  Na6  1  0.439331  0.511128  0.605343  1
  Na  Na7  1  0.560669  0.011128  0.894657  1
  Na  Na8  1  0.187596  0.968155  0.851195  1
  Na  Na9  1  0.812404  0.468155  0.648805  1
  Na  Na10  1  0.812404  0.031845  0.148805  1
  Na  Na11  1  0.187596  0.531845  0.351195  1
  Na  Na12  1  0.383221  0.847355  0.453260  1
  Na  Na13  1  0.616779  0.347355  0.046740  1
  Na  Na14  1  0.616779  0.152645  0.546740  1
  Na  Na15  1  0.383221  0.652645  0.953260  1
  Na  Na16  1  0.933226  0.973900  0.605457  1
  Na  Na17  1  0.066774  0.473900  0.894543  1
  Na  Na18  1  0.066774  0.026100  0.394543  1
  Na  Na19  1  0.933226  0.526100  0.105457  1
  Na  Na20  1  0.320964  0.008320  0.637945  1
  Na  Na21  1  0.679036  0.508320  0.862055  1
  Na  Na22  1  0.679036  0.991680  0.362055  1
  Na  Na23  1  0.320964  0.491680  0.137945  1
  In  In24  1  0.874791  0.640361  0.458546  1
  In  In25  1  0.125209  0.140361  0.041454  1
  In  In26  1  0.125209  0.359639  0.541454  1
  In  In27  1  0.874791  0.859639  0.958546  1
  In  In28  1  0.637844  0.653783  0.209511  1
  In  In29  1  0.362156  0.153783  0.290489  1
  In  In30  1  0.362156  0.346217  0.790489  1
  In  In31  1  0.637844  0.846217  0.709511  1
  As  As32  1  0.871699  0.221864  0.977003  1
  As  As33  1  0.128301  0.721864  0.522997  1
  As  As34  1  0.128301  0.778136  0.022997  1
  As  As35  1  0.871699  0.278136  0.477003  1
  As  As36  1  0.406556  0.710385  0.773991  1
  As  As37  1  0.593444  0.210385  0.726009  1
  As  As38  1  0.593444  0.289615  0.226009  1
  As  As39  1  0.406556  0.789615  0.273991  1
  As  As40  1  0.651225  0.762967  0.539882  1
  As  As41  1  0.348775  0.262967  0.960118  1
  As  As42  1  0.348775  0.237033  0.460118  1
  As  As43  1  0.651225  0.737033  0.039882  1
  As  As44  1  0.877830  0.758029  0.792786  1
  As  As45  1  0.122170  0.258029  0.707214  1
  As  As46  1  0.122170  0.241971  0.207214  1
  As  As47  1  0.877830  0.741971  0.292786  1
