# generated using pymatgen
data_TiGePd
_symmetry_space_group_name_H-M   'P 1'
_cell_length_a   3.88011565
_cell_length_b   6.41143651
_cell_length_c   7.60929665
_cell_angle_alpha   90.00000000
_cell_angle_beta   90.00000000
_cell_angle_gamma   90.00000000
_symmetry_Int_Tables_number   1
_chemical_formula_structural   TiGePd
_chemical_formula_sum   'Ti4 Ge4 Pd4'
_cell_volume   189.29734891
_cell_formula_units_Z   4
loop_
 _symmetry_equiv_pos_site_id
 _symmetry_equiv_pos_as_xyz
  1  'x, y, z'
loop_
 _atom_site_type_symbol
 _atom_site_label
 _atom_site_symmetry_multiplicity
 _atom_site_fract_x
 _atom_site_fract_y
 _atom_site_fract_z
 _atom_site_occupancy
  Ti  Ti0  1  0.750000  0.465207  0.683222  1
  Ti  Ti1  1  0.250000  0.534793  0.316778  1
  Ti  Ti2  1  0.750000  0.965207  0.816778  1
  Ti  Ti3  1  0.250000  0.034793  0.183222  1
  Ge  Ge4  1  0.750000  0.757193  0.124045  1
  Ge  Ge5  1  0.250000  0.742807  0.624045  1
  Ge  Ge6  1  0.250000  0.242807  0.875955  1
  Ge  Ge7  1  0.750000  0.257193  0.375955  1
  Pd  Pd8  1  0.250000  0.144481  0.561324  1
  Pd  Pd9  1  0.250000  0.644481  0.938676  1
  Pd  Pd10  1  0.750000  0.355519  0.061324  1
  Pd  Pd11  1  0.750000  0.855519  0.438676  1
