# generated using pymatgen
data_RbPbF3
_symmetry_space_group_name_H-M   'P 1'
_cell_length_a   4.86171567
_cell_length_b   4.86171567
_cell_length_c   4.86171567
_cell_angle_alpha   90.00000000
_cell_angle_beta   90.00000000
_cell_angle_gamma   90.00000000
_symmetry_Int_Tables_number   1
_chemical_formula_structural   RbPbF3
_chemical_formula_sum   'Rb1 Pb1 F3'
_cell_volume   114.91286924
_cell_formula_units_Z   1
loop_
 _symmetry_equiv_pos_site_id
 _symmetry_equiv_pos_as_xyz
  1  'x, y, z'
loop_
 _atom_site_type_symbol
 _atom_site_label
 _atom_site_symmetry_multiplicity
 _atom_site_fract_x
 _atom_site_fract_y
 _atom_site_fract_z
 _atom_site_occupancy
  Rb  Rb0  1  0.000000  0.000000  0.000000  1
  Pb  Pb1  1  0.500000  0.500000  0.500000  1
  F  F2  1  0.000000  0.500000  0.500000  1
  F  F3  1  0.500000  0.000000  0.500000  1
  F  F4  1  0.500000  0.500000  0.000000  1
