# generated using pymatgen
data_Li2FePO4F
_symmetry_space_group_name_H-M   'P 1'
_cell_length_a   5.36667097
_cell_length_b   5.44785501
_cell_length_c   7.52903666
_cell_angle_alpha   107.65679357
_cell_angle_beta   108.30223073
_cell_angle_gamma   95.53350560
_symmetry_Int_Tables_number   1
_chemical_formula_structural   Li2FePO4F
_chemical_formula_sum   'Li4 Fe2 P2 O8 F2'
_cell_volume   194.62336813
_cell_formula_units_Z   2
loop_
 _symmetry_equiv_pos_site_id
 _symmetry_equiv_pos_as_xyz
  1  'x, y, z'
loop_
 _atom_site_type_symbol
 _atom_site_label
 _atom_site_symmetry_multiplicity
 _atom_site_fract_x
 _atom_site_fract_y
 _atom_site_fract_z
 _atom_site_occupancy
  Li  Li0  1  0.164955  0.547635  0.120589  1
  Li  Li1  1  0.516304  0.164250  0.862071  1
  Li  Li2  1  0.490844  0.938092  0.480060  1
  Li  Li3  1  0.766436  0.446315  0.703182  1
  Fe  Fe4  1  0.007814  0.998274  0.018185  1
  Fe  Fe5  1  0.993465  0.000323  0.502782  1
  P  P6  1  0.661801  0.374123  0.259958  1
  P  P7  1  0.342417  0.633637  0.769754  1
  O  O8  1  0.721127  0.237359  0.417708  1
  O  O9  1  0.279301  0.799881  0.632220  1
  O  O10  1  0.326213  0.335751  0.657867  1
  O  O11  1  0.140961  0.652120  0.881157  1
  O  O12  1  0.855643  0.333556  0.142606  1
  O  O13  1  0.639654  0.741883  0.910909  1
  O  O14  1  0.675673  0.670074  0.366587  1
  O  O15  1  0.372011  0.255691  0.096579  1
  F  F16  1  0.817052  0.109317  0.744562  1
  F  F17  1  0.156208  0.893349  0.274633  1
