# generated using pymatgen
data_BiP2O7
_symmetry_space_group_name_H-M   'P 1'
_cell_length_a   6.54335873
_cell_length_b   6.77799475
_cell_length_c   6.93087179
_cell_angle_alpha   90.98884330
_cell_angle_beta   108.07252694
_cell_angle_gamma   92.26563470
_symmetry_Int_Tables_number   1
_chemical_formula_structural   BiP2O7
_chemical_formula_sum   'Bi2 P4 O14'
_cell_volume   291.85536766
_cell_formula_units_Z   2
loop_
 _symmetry_equiv_pos_site_id
 _symmetry_equiv_pos_as_xyz
  1  'x, y, z'
loop_
 _atom_site_type_symbol
 _atom_site_label
 _atom_site_symmetry_multiplicity
 _atom_site_fract_x
 _atom_site_fract_y
 _atom_site_fract_z
 _atom_site_occupancy
  Bi  Bi0  1  0.185012  0.849335  0.720198  1
  Bi  Bi1  1  0.814988  0.150665  0.279802  1
  P  P2  1  0.289816  0.346177  0.654003  1
  P  P3  1  0.710184  0.653823  0.345997  1
  P  P4  1  0.674946  0.110889  0.754369  1
  P  P5  1  0.325054  0.889111  0.245631  1
  O  O6  1  0.866504  0.647494  0.562419  1
  O  O7  1  0.542175  0.928567  0.781184  1
  O  O8  1  0.457825  0.071433  0.218816  1
  O  O9  1  0.812258  0.063496  0.616175  1
  O  O10  1  0.224406  0.196506  0.789163  1
  O  O11  1  0.521239  0.280184  0.637048  1
  O  O12  1  0.819809  0.198736  0.960725  1
  O  O13  1  0.133496  0.352506  0.437581  1
  O  O14  1  0.775594  0.803494  0.210837  1
  O  O15  1  0.339855  0.552128  0.756799  1
  O  O16  1  0.660145  0.447872  0.243201  1
  O  O17  1  0.180191  0.801264  0.039275  1
  O  O18  1  0.478761  0.719816  0.362952  1
  O  O19  1  0.187742  0.936504  0.383825  1
