# generated using pymatgen
data_Lu(ClO4)3
_symmetry_space_group_name_H-M   'P 1'
_cell_length_a   9.36615371
_cell_length_b   9.36615371
_cell_length_c   9.36615371
_cell_angle_alpha   52.18689354
_cell_angle_beta   52.18689354
_cell_angle_gamma   52.18689354
_symmetry_Int_Tables_number   1
_chemical_formula_structural   Lu(ClO4)3
_chemical_formula_sum   'Lu2 Cl6 O24'
_cell_volume   474.32496997
_cell_formula_units_Z   2
loop_
 _symmetry_equiv_pos_site_id
 _symmetry_equiv_pos_as_xyz
  1  'x, y, z'
loop_
 _atom_site_type_symbol
 _atom_site_label
 _atom_site_symmetry_multiplicity
 _atom_site_fract_x
 _atom_site_fract_y
 _atom_site_fract_z
 _atom_site_occupancy
  Lu  Lu0  1  0.941639  0.941639  0.941639  1
  Lu  Lu1  1  0.441639  0.441639  0.441639  1
  Cl  Cl2  1  0.804736  0.535862  0.159129  1
  Cl  Cl3  1  0.535862  0.159129  0.804736  1
  Cl  Cl4  1  0.159129  0.804736  0.535862  1
  Cl  Cl5  1  0.304736  0.659129  0.035862  1
  Cl  Cl6  1  0.659129  0.035862  0.304736  1
  Cl  Cl7  1  0.035862  0.304736  0.659129  1
  O  O8  1  0.793548  0.721441  0.116663  1
  O  O9  1  0.721441  0.116663  0.793548  1
  O  O10  1  0.116663  0.793548  0.721441  1
  O  O11  1  0.293548  0.616663  0.221441  1
  O  O12  1  0.616663  0.221441  0.293548  1
  O  O13  1  0.221441  0.293548  0.616663  1
  O  O14  1  0.742920  0.424763  0.373449  1
  O  O15  1  0.424763  0.373449  0.742920  1
  O  O16  1  0.927871  0.493556  0.554375  1
  O  O17  1  0.554375  0.927871  0.493556  1
  O  O18  1  0.493556  0.554375  0.927871  1
  O  O19  1  0.054375  0.993556  0.427871  1
  O  O20  1  0.427871  0.054375  0.993556  1
  O  O21  1  0.993556  0.427871  0.054375  1
  O  O22  1  0.082514  0.149758  0.615276  1
  O  O23  1  0.615276  0.082514  0.149758  1
  O  O24  1  0.149758  0.615276  0.082514  1
  O  O25  1  0.115276  0.649758  0.582514  1
  O  O26  1  0.582514  0.115276  0.649758  1
  O  O27  1  0.649758  0.582514  0.115276  1
  O  O28  1  0.924763  0.242920  0.873449  1
  O  O29  1  0.873449  0.924763  0.242920  1
  O  O30  1  0.242920  0.873449  0.924763  1
  O  O31  1  0.373449  0.742920  0.424763  1
