# generated using pymatgen
data_Cr2FeS4
_symmetry_space_group_name_H-M   'P 1'
_cell_length_a   7.07830046
_cell_length_b   7.07830046
_cell_length_c   7.07830046
_cell_angle_alpha   60.00000000
_cell_angle_beta   60.00000000
_cell_angle_gamma   60.00000000
_symmetry_Int_Tables_number   1
_chemical_formula_structural   Cr2FeS4
_chemical_formula_sum   'Cr4 Fe2 S8'
_cell_volume   250.76792276
_cell_formula_units_Z   2
loop_
 _symmetry_equiv_pos_site_id
 _symmetry_equiv_pos_as_xyz
  1  'x, y, z'
loop_
 _atom_site_type_symbol
 _atom_site_label
 _atom_site_symmetry_multiplicity
 _atom_site_fract_x
 _atom_site_fract_y
 _atom_site_fract_z
 _atom_site_occupancy
  Cr  Cr0  1  0.125000  0.625000  0.125000  1
  Cr  Cr1  1  0.125000  0.125000  0.125000  1
  Cr  Cr2  1  0.625000  0.125000  0.125000  1
  Cr  Cr3  1  0.125000  0.125000  0.625000  1
  Fe  Fe4  1  0.750000  0.750000  0.750000  1
  Fe  Fe5  1  0.500000  0.500000  0.500000  1
  S  S6  1  0.883423  0.349730  0.883423  1
  S  S7  1  0.366576  0.366577  0.366576  1
  S  S8  1  0.900270  0.366577  0.366576  1
  S  S9  1  0.366577  0.366577  0.900270  1
  S  S10  1  0.349730  0.883423  0.883423  1
  S  S11  1  0.883423  0.883423  0.349729  1
  S  S12  1  0.366576  0.900270  0.366576  1
  S  S13  1  0.883423  0.883424  0.883423  1
