# generated using pymatgen
data_Sb(PO3)4
_symmetry_space_group_name_H-M   'P 1'
_cell_length_a   7.66967143
_cell_length_b   7.66967143
_cell_length_c   17.29320093
_cell_angle_alpha   90.00000000
_cell_angle_beta   90.00000000
_cell_angle_gamma   98.68363314
_symmetry_Int_Tables_number   1
_chemical_formula_structural   Sb(PO3)4
_chemical_formula_sum   'Sb4 P16 O48'
_cell_volume   1005.59211363
_cell_formula_units_Z   4
loop_
 _symmetry_equiv_pos_site_id
 _symmetry_equiv_pos_as_xyz
  1  'x, y, z'
loop_
 _atom_site_type_symbol
 _atom_site_label
 _atom_site_symmetry_multiplicity
 _atom_site_fract_x
 _atom_site_fract_y
 _atom_site_fract_z
 _atom_site_occupancy
  Sb  Sb0  1  0.402527  0.032473  0.362817  1
  Sb  Sb1  1  0.032473  0.402527  0.637183  1
  Sb  Sb2  1  0.967527  0.597473  0.137183  1
  Sb  Sb3  1  0.597473  0.967527  0.862817  1
  P  P4  1  0.746983  0.032996  0.658083  1
  P  P5  1  0.689571  0.217897  0.514087  1
  P  P6  1  0.967004  0.253017  0.841917  1
  P  P7  1  0.782103  0.310429  0.985913  1
  P  P8  1  0.333332  0.270730  0.804654  1
  P  P9  1  0.630819  0.369181  0.250000  1
  P  P10  1  0.270730  0.333332  0.195346  1
  P  P11  1  0.351867  0.351867  0.500000  1
  P  P12  1  0.648133  0.648133  1.000000  1
  P  P13  1  0.729270  0.666668  0.695346  1
  P  P14  1  0.369181  0.630819  0.750000  1
  P  P15  1  0.666668  0.729270  0.304654  1
  P  P16  1  0.217897  0.689571  0.485913  1
  P  P17  1  0.032996  0.746983  0.341917  1
  P  P18  1  0.310429  0.782103  0.014087  1
  P  P19  1  0.253017  0.967004  0.158083  1
  O  O20  1  0.872705  0.063422  0.848916  1
  O  O21  1  0.642309  0.050151  0.729409  1
  O  O22  1  0.936578  0.127295  0.651084  1
  O  O23  1  0.634681  0.090346  0.586624  1
  O  O24  1  0.647358  0.113690  0.440916  1
  O  O25  1  0.681828  0.126819  0.975156  1
  O  O26  1  0.604375  0.193535  0.291679  1
  O  O27  1  0.239412  0.167758  0.135776  1
  O  O28  1  0.480471  0.199778  0.848549  1
  O  O29  1  0.283580  0.223501  0.724134  1
  O  O30  1  0.873181  0.318172  0.524844  1
  O  O31  1  0.305309  0.235155  0.430407  1
  O  O32  1  0.167758  0.239412  0.864224  1
  O  O33  1  0.949849  0.357691  0.770591  1
  O  O34  1  0.886310  0.352642  0.059084  1
  O  O35  1  0.223501  0.283580  0.275866  1
  O  O36  1  0.909654  0.365319  0.913376  1
  O  O37  1  0.235155  0.305309  0.569593  1
  O  O38  1  0.553564  0.358380  0.523835  1
  O  O39  1  0.806465  0.395625  0.208321  1
  O  O40  1  0.484739  0.389331  0.186117  1
  O  O41  1  0.641620  0.446436  0.976165  1
  O  O42  1  0.800222  0.519529  0.651451  1
  O  O43  1  0.610669  0.515261  0.313883  1
  O  O44  1  0.389331  0.484739  0.813883  1
  O  O45  1  0.199778  0.480471  0.151451  1
  O  O46  1  0.358380  0.553564  0.476165  1
  O  O47  1  0.515261  0.610669  0.686117  1
  O  O48  1  0.193535  0.604375  0.708321  1
  O  O49  1  0.446436  0.641620  0.023835  1
  O  O50  1  0.764845  0.694691  0.069593  1
  O  O51  1  0.090346  0.634681  0.413376  1
  O  O52  1  0.776499  0.716420  0.775866  1
  O  O53  1  0.113690  0.647358  0.559084  1
  O  O54  1  0.050151  0.642309  0.270591  1
  O  O55  1  0.832242  0.760588  0.364224  1
  O  O56  1  0.694691  0.764845  0.930407  1
  O  O57  1  0.126819  0.681828  0.024844  1
  O  O58  1  0.716420  0.776499  0.224134  1
  O  O59  1  0.519529  0.800222  0.348549  1
  O  O60  1  0.760588  0.832242  0.635776  1
  O  O61  1  0.395625  0.806465  0.791679  1
  O  O62  1  0.318172  0.873181  0.475156  1
  O  O63  1  0.352642  0.886310  0.940916  1
  O  O64  1  0.365319  0.909654  0.086624  1
  O  O65  1  0.063422  0.872705  0.151084  1
  O  O66  1  0.357691  0.949849  0.229409  1
  O  O67  1  0.127295  0.936578  0.348916  1
