# generated using pymatgen
data_In6Ge2PtO9
_symmetry_space_group_name_H-M   'P 1'
_cell_length_a   7.24135199
_cell_length_b   7.24135199
_cell_length_c   7.24135199
_cell_angle_alpha   60.00000000
_cell_angle_beta   60.00000000
_cell_angle_gamma   60.00000000
_symmetry_Int_Tables_number   1
_chemical_formula_structural   In6Ge2PtO9
_chemical_formula_sum   'In6 Ge2 Pt1 O9'
_cell_volume   268.49980645
_cell_formula_units_Z   1
loop_
 _symmetry_equiv_pos_site_id
 _symmetry_equiv_pos_as_xyz
  1  'x, y, z'
loop_
 _atom_site_type_symbol
 _atom_site_label
 _atom_site_symmetry_multiplicity
 _atom_site_fract_x
 _atom_site_fract_y
 _atom_site_fract_z
 _atom_site_occupancy
  In  In0  1  0.260880  0.260880  0.739120  1
  In  In1  1  0.260880  0.739120  0.739120  1
  In  In2  1  0.739120  0.260880  0.260880  1
  In  In3  1  0.739120  0.739120  0.260880  1
  In  In4  1  0.260880  0.739120  0.260880  1
  In  In5  1  0.739120  0.260880  0.739120  1
  Ge  Ge6  1  0.750000  0.750000  0.750000  1
  Ge  Ge7  1  0.250000  0.250000  0.250000  1
  Pt  Pt8  1  0.000000  0.000000  0.000000  1
  O  O9  1  0.500000  0.500000  0.500000  1
  O  O10  1  0.350365  0.350365  0.948905  1
  O  O11  1  0.649635  0.051095  0.649635  1
  O  O12  1  0.649635  0.649635  0.649635  1
  O  O13  1  0.051095  0.649635  0.649635  1
  O  O14  1  0.649635  0.649635  0.051095  1
  O  O15  1  0.948905  0.350365  0.350365  1
  O  O16  1  0.350365  0.948905  0.350365  1
  O  O17  1  0.350365  0.350365  0.350365  1
