# generated using pymatgen
data_Ba(PO3)2
_symmetry_space_group_name_H-M   'P 1'
_cell_length_a   4.56339725
_cell_length_b   8.52342663
_cell_length_c   13.67318522
_cell_angle_alpha   90.00000000
_cell_angle_beta   90.00000000
_cell_angle_gamma   90.00000000
_symmetry_Int_Tables_number   1
_chemical_formula_structural   Ba(PO3)2
_chemical_formula_sum   'Ba4 P8 O24'
_cell_volume   531.82922669
_cell_formula_units_Z   4
loop_
 _symmetry_equiv_pos_site_id
 _symmetry_equiv_pos_as_xyz
  1  'x, y, z'
loop_
 _atom_site_type_symbol
 _atom_site_label
 _atom_site_symmetry_multiplicity
 _atom_site_fract_x
 _atom_site_fract_y
 _atom_site_fract_z
 _atom_site_occupancy
  Ba  Ba0  1  0.008310  0.448835  0.126622  1
  Ba  Ba1  1  0.508310  0.051165  0.873378  1
  Ba  Ba2  1  0.991690  0.948835  0.373378  1
  Ba  Ba3  1  0.491690  0.551165  0.626622  1
  P  P4  1  0.966832  0.672509  0.846639  1
  P  P5  1  0.466832  0.827491  0.153361  1
  P  P6  1  0.033168  0.172509  0.653361  1
  P  P7  1  0.533168  0.327491  0.346639  1
  P  P8  1  0.462442  0.469970  0.897032  1
  P  P9  1  0.962442  0.030030  0.102968  1
  P  P10  1  0.537558  0.969970  0.602968  1
  P  P11  1  0.037558  0.530030  0.397032  1
  O  O12  1  0.532422  0.664917  0.118951  1
  O  O13  1  0.032422  0.835083  0.881049  1
  O  O14  1  0.467578  0.164917  0.381049  1
  O  O15  1  0.967578  0.335083  0.618951  1
  O  O16  1  0.498549  0.373254  0.241497  1
  O  O17  1  0.998549  0.126746  0.758503  1
  O  O18  1  0.501451  0.873254  0.258503  1
  O  O19  1  0.001451  0.626746  0.741497  1
  O  O20  1  0.540312  0.384990  0.989712  1
  O  O21  1  0.040312  0.115010  0.010288  1
  O  O22  1  0.459688  0.884990  0.510288  1
  O  O23  1  0.959688  0.615010  0.489712  1
  O  O24  1  0.360884  0.455908  0.416284  1
  O  O25  1  0.860884  0.044092  0.583716  1
  O  O26  1  0.639116  0.955908  0.083716  1
  O  O27  1  0.139116  0.544092  0.916284  1
  O  O28  1  0.863228  0.364363  0.384833  1
  O  O29  1  0.363228  0.135637  0.615167  1
  O  O30  1  0.136772  0.864363  0.115167  1
  O  O31  1  0.636772  0.635637  0.884833  1
  O  O32  1  0.022792  0.620549  0.303050  1
  O  O33  1  0.522792  0.879451  0.696950  1
  O  O34  1  0.977208  0.120549  0.196950  1
  O  O35  1  0.477208  0.379451  0.803050  1
