# generated using pymatgen
data_Co(SiP)3
_symmetry_space_group_name_H-M   'P 1'
_cell_length_a   5.94528663
_cell_length_b   5.73875648
_cell_length_c   12.73384201
_cell_angle_alpha   90.00000000
_cell_angle_beta   90.12015011
_cell_angle_gamma   90.00000000
_symmetry_Int_Tables_number   1
_chemical_formula_structural   Co(SiP)3
_chemical_formula_sum   'Co4 Si12 P12'
_cell_volume   434.45929750
_cell_formula_units_Z   4
loop_
 _symmetry_equiv_pos_site_id
 _symmetry_equiv_pos_as_xyz
  1  'x, y, z'
loop_
 _atom_site_type_symbol
 _atom_site_label
 _atom_site_symmetry_multiplicity
 _atom_site_fract_x
 _atom_site_fract_y
 _atom_site_fract_z
 _atom_site_occupancy
  Co  Co0  1  0.006679  0.464411  0.878589  1
  Co  Co1  1  0.993321  0.964411  0.121411  1
  Co  Co2  1  0.518029  0.033254  0.614075  1
  Co  Co3  1  0.481971  0.533254  0.385925  1
  Si  Si4  1  0.826845  0.469731  0.319635  1
  Si  Si5  1  0.173155  0.969731  0.680365  1
  Si  Si6  1  0.372645  0.435193  0.222684  1
  Si  Si7  1  0.627355  0.935193  0.777316  1
  Si  Si8  1  0.077958  0.832447  0.953868  1
  Si  Si9  1  0.922042  0.332447  0.046132  1
  Si  Si10  1  0.472525  0.401746  0.671692  1
  Si  Si11  1  0.527475  0.901746  0.328308  1
  Si  Si12  1  0.935501  0.501372  0.572604  1
  Si  Si13  1  0.064499  0.001372  0.427396  1
  Si  Si14  1  0.360881  0.414847  0.927212  1
  Si  Si15  1  0.639119  0.914847  0.072788  1
  P  P16  1  0.974573  0.091204  0.826318  1
  P  P17  1  0.025427  0.591204  0.173682  1
  P  P18  1  0.437814  0.016887  0.927530  1
  P  P19  1  0.562186  0.516887  0.072470  1
  P  P20  1  0.874942  0.106702  0.573888  1
  P  P21  1  0.125058  0.606702  0.426112  1
  P  P22  1  0.346116  0.041842  0.179590  1
  P  P23  1  0.653884  0.541842  0.820410  1
  P  P24  1  0.868682  0.074752  0.280346  1
  P  P25  1  0.131318  0.574752  0.719654  1
  P  P26  1  0.585321  0.662512  0.549789  1
  P  P27  1  0.414679  0.162512  0.450211  1
