# generated using pymatgen
data_Ti(SiO3)2
_symmetry_space_group_name_H-M   'P 1'
_cell_length_a   6.58171653
_cell_length_b   6.58171653
_cell_length_c   5.36559799
_cell_angle_alpha   75.21110552
_cell_angle_beta   104.78889448
_cell_angle_gamma   95.66360441
_symmetry_Int_Tables_number   1
_chemical_formula_structural   Ti(SiO3)2
_chemical_formula_sum   'Ti2 Si4 O12'
_cell_volume   217.14793236
_cell_formula_units_Z   2
loop_
 _symmetry_equiv_pos_site_id
 _symmetry_equiv_pos_as_xyz
  1  'x, y, z'
loop_
 _atom_site_type_symbol
 _atom_site_label
 _atom_site_symmetry_multiplicity
 _atom_site_fract_x
 _atom_site_fract_y
 _atom_site_fract_z
 _atom_site_occupancy
  Ti  Ti0  1  0.889570  0.889570  0.250000  1
  Ti  Ti1  1  0.110430  0.110430  0.750000  1
  Si  Si2  1  0.380080  0.785285  0.249630  1
  Si  Si3  1  0.214715  0.619920  0.749630  1
  Si  Si4  1  0.785285  0.380080  0.250370  1
  Si  Si5  1  0.619920  0.214715  0.750370  1
  O  O6  1  0.185472  0.952280  0.131727  1
  O  O7  1  0.047720  0.814528  0.631727  1
  O  O8  1  0.617137  0.894156  0.275288  1
  O  O9  1  0.347525  0.632990  0.045227  1
  O  O10  1  0.105844  0.382863  0.775288  1
  O  O11  1  0.367010  0.652475  0.545227  1
  O  O12  1  0.632990  0.347525  0.454773  1
  O  O13  1  0.894156  0.617137  0.224712  1
  O  O14  1  0.652475  0.367010  0.954773  1
  O  O15  1  0.382863  0.105844  0.724712  1
  O  O16  1  0.952280  0.185472  0.368273  1
  O  O17  1  0.814528  0.047720  0.868273  1
