# generated using pymatgen
data_CsC8
_symmetry_space_group_name_H-M   'P 1'
_cell_length_a   4.97653788
_cell_length_b   4.97653788
_cell_length_c   6.12732951
_cell_angle_alpha   90.00000000
_cell_angle_beta   90.00000000
_cell_angle_gamma   120.00000000
_symmetry_Int_Tables_number   1
_chemical_formula_structural   CsC8
_chemical_formula_sum   'Cs1 C8'
_cell_volume   131.41849709
_cell_formula_units_Z   1
loop_
 _symmetry_equiv_pos_site_id
 _symmetry_equiv_pos_as_xyz
  1  'x, y, z'
loop_
 _atom_site_type_symbol
 _atom_site_label
 _atom_site_symmetry_multiplicity
 _atom_site_fract_x
 _atom_site_fract_y
 _atom_site_fract_z
 _atom_site_occupancy
  Cs  Cs0  1  0.000000  0.000000  0.500000  1
  C  C1  1  0.166544  0.333089  0.000000  1
  C  C2  1  0.833456  0.166544  0.000000  1
  C  C3  1  0.333089  0.166544  0.000000  1
  C  C4  1  0.666911  0.833456  0.000000  1
  C  C5  1  0.166544  0.833456  0.000000  1
  C  C6  1  0.833456  0.666911  0.000000  1
  C  C7  1  0.333333  0.666667  0.000000  1
  C  C8  1  0.666667  0.333333  0.000000  1
