# generated using pymatgen
data_BaIn2
_symmetry_space_group_name_H-M   'P 1'
_cell_length_a   6.69575926
_cell_length_b   6.69575926
_cell_length_c   6.69575926
_cell_angle_alpha   132.96376757
_cell_angle_beta   99.43231716
_cell_angle_gamma   98.89254649
_symmetry_Int_Tables_number   1
_chemical_formula_structural   BaIn2
_chemical_formula_sum   'Ba2 In4'
_cell_volume   201.42543267
_cell_formula_units_Z   2
loop_
 _symmetry_equiv_pos_site_id
 _symmetry_equiv_pos_as_xyz
  1  'x, y, z'
loop_
 _atom_site_type_symbol
 _atom_site_label
 _atom_site_symmetry_multiplicity
 _atom_site_fract_x
 _atom_site_fract_y
 _atom_site_fract_z
 _atom_site_occupancy
  Ba  Ba0  1  0.798623  0.548623  0.750000  1
  Ba  Ba1  1  0.201377  0.451377  0.250000  1
  In  In2  1  0.406093  0.838181  0.067913  1
  In  In3  1  0.593907  0.161819  0.932087  1
  In  In4  1  0.770268  0.838181  0.432087  1
  In  In5  1  0.229732  0.161819  0.567913  1
