# generated using pymatgen
data_NbTeCl9
_symmetry_space_group_name_H-M   'P 1'
_cell_length_a   6.70481344
_cell_length_b   9.79131192
_cell_length_c   11.82117821
_cell_angle_alpha   106.43907660
_cell_angle_beta   105.22936246
_cell_angle_gamma   91.14909699
_symmetry_Int_Tables_number   1
_chemical_formula_structural   NbTeCl9
_chemical_formula_sum   'Nb2 Te2 Cl18'
_cell_volume   714.43893498
_cell_formula_units_Z   2
loop_
 _symmetry_equiv_pos_site_id
 _symmetry_equiv_pos_as_xyz
  1  'x, y, z'
loop_
 _atom_site_type_symbol
 _atom_site_label
 _atom_site_symmetry_multiplicity
 _atom_site_fract_x
 _atom_site_fract_y
 _atom_site_fract_z
 _atom_site_occupancy
  Nb  Nb0  1  0.134204  0.265714  0.711224  1
  Nb  Nb1  1  0.865796  0.734286  0.288776  1
  Te  Te2  1  0.299642  0.338375  0.164247  1
  Te  Te3  1  0.700358  0.661625  0.835753  1
  Cl  Cl4  1  0.476870  0.131739  0.157563  1
  Cl  Cl5  1  0.523130  0.868261  0.842437  1
  Cl  Cl6  1  0.279582  0.366928  0.364059  1
  Cl  Cl7  1  0.720418  0.633072  0.635941  1
  Cl  Cl8  1  0.110011  0.741802  0.470072  1
  Cl  Cl9  1  0.889989  0.258198  0.529928  1
  Cl  Cl10  1  0.724075  0.496603  0.284284  1
  Cl  Cl11  1  0.275925  0.503397  0.715716  1
  Cl  Cl12  1  0.008632  0.942714  0.273445  1
  Cl  Cl13  1  0.991368  0.057286  0.726555  1
  Cl  Cl14  1  0.099967  0.600991  0.172138  1
  Cl  Cl15  1  0.900033  0.399009  0.827862  1
  Cl  Cl16  1  0.616972  0.690971  0.085240  1
  Cl  Cl17  1  0.383028  0.309029  0.914760  1
  Cl  Cl18  1  0.622832  0.843489  0.380349  1
  Cl  Cl19  1  0.377168  0.156511  0.619651  1
  Cl  Cl20  1  0.027480  0.792014  0.932996  1
  Cl  Cl21  1  0.972520  0.207986  0.067004  1
