# generated using pymatgen
data_KNb3O8
_symmetry_space_group_name_H-M   'P 1'
_cell_length_a   11.04556641
_cell_length_b   11.04556641
_cell_length_c   9.10488233
_cell_angle_alpha   90.00000000
_cell_angle_beta   90.00000000
_cell_angle_gamma   159.94566548
_symmetry_Int_Tables_number   1
_chemical_formula_structural   KNb3O8
_chemical_formula_sum   'K2 Nb6 O16'
_cell_volume   380.91833944
_cell_formula_units_Z   2
loop_
 _symmetry_equiv_pos_site_id
 _symmetry_equiv_pos_as_xyz
  1  'x, y, z'
loop_
 _atom_site_type_symbol
 _atom_site_label
 _atom_site_symmetry_multiplicity
 _atom_site_fract_x
 _atom_site_fract_y
 _atom_site_fract_z
 _atom_site_occupancy
  K  K0  1  0.016642  0.983358  0.250000  1
  K  K1  1  0.983358  0.016642  0.750000  1
  Nb  Nb2  1  0.757291  0.242709  0.250000  1
  Nb  Nb3  1  0.242709  0.757291  0.750000  1
  Nb  Nb4  1  0.367933  0.632067  0.440504  1
  Nb  Nb5  1  0.632067  0.367933  0.559496  1
  Nb  Nb6  1  0.632067  0.367933  0.940504  1
  Nb  Nb7  1  0.367933  0.632067  0.059496  1
  O  O8  1  0.413235  0.586766  0.250000  1
  O  O9  1  0.586766  0.413234  0.750000  1
  O  O10  1  0.284678  0.715322  0.250000  1
  O  O11  1  0.715322  0.284678  0.750000  1
  O  O12  1  0.296474  0.703526  0.594436  1
  O  O13  1  0.703526  0.296474  0.405564  1
  O  O14  1  0.703526  0.296474  0.094436  1
  O  O15  1  0.296474  0.703526  0.905564  1
  O  O16  1  0.157281  0.842719  0.592254  1
  O  O17  1  0.842719  0.157281  0.407746  1
  O  O18  1  0.842719  0.157281  0.092254  1
  O  O19  1  0.157281  0.842719  0.907746  1
  O  O20  1  0.431007  0.568993  0.935504  1
  O  O21  1  0.568993  0.431007  0.064496  1
  O  O22  1  0.568993  0.431007  0.435504  1
  O  O23  1  0.431007  0.568993  0.564496  1
