# generated using pymatgen
data_VO2
_symmetry_space_group_name_H-M   'P 1'
_cell_length_a   6.36060420
_cell_length_b   6.36060420
_cell_length_c   6.36060420
_cell_angle_alpha   95.25785754
_cell_angle_beta   95.25785754
_cell_angle_gamma   144.75814927
_symmetry_Int_Tables_number   1
_chemical_formula_structural   VO2
_chemical_formula_sum   'V4 O8'
_cell_volume   141.52143232
_cell_formula_units_Z   4
loop_
 _symmetry_equiv_pos_site_id
 _symmetry_equiv_pos_as_xyz
  1  'x, y, z'
loop_
 _atom_site_type_symbol
 _atom_site_label
 _atom_site_symmetry_multiplicity
 _atom_site_fract_x
 _atom_site_fract_y
 _atom_site_fract_z
 _atom_site_occupancy
  V  V0  1  0.703742  0.000000  0.703742  1
  V  V1  1  0.000000  0.703742  0.703742  1
  V  V2  1  0.000000  0.296258  0.296258  1
  V  V3  1  0.296258  0.000000  0.296258  1
  O  O4  1  0.843316  0.156684  0.000000  1
  O  O5  1  0.850834  0.500000  0.350834  1
  O  O6  1  0.149166  0.500000  0.649166  1
  O  O7  1  0.843316  0.843316  0.686631  1
  O  O8  1  0.500000  0.149166  0.649166  1
  O  O9  1  0.156684  0.843316  0.000000  1
  O  O10  1  0.156684  0.156684  0.313369  1
  O  O11  1  0.500000  0.850834  0.350834  1
