# generated using pymatgen
data_SmSi3Rh5
_symmetry_space_group_name_H-M   'P 1'
_cell_length_a   15.70726247
_cell_length_b   15.70726247
_cell_length_c   3.90425258
_cell_angle_alpha   90.00000000
_cell_angle_beta   90.00000000
_cell_angle_gamma   120.00000000
_symmetry_Int_Tables_number   1
_chemical_formula_structural   SmSi3Rh5
_chemical_formula_sum   'Sm6 Si18 Rh30'
_cell_volume   834.19875917
_cell_formula_units_Z   6
loop_
 _symmetry_equiv_pos_site_id
 _symmetry_equiv_pos_as_xyz
  1  'x, y, z'
loop_
 _atom_site_type_symbol
 _atom_site_label
 _atom_site_symmetry_multiplicity
 _atom_site_fract_x
 _atom_site_fract_y
 _atom_site_fract_z
 _atom_site_occupancy
  Sm  Sm0  1  0.605990  0.899679  0.250000  1
  Sm  Sm1  1  0.706311  0.605990  0.750000  1
  Sm  Sm2  1  0.899679  0.293689  0.750000  1
  Sm  Sm3  1  0.100321  0.706311  0.250000  1
  Sm  Sm4  1  0.293689  0.394010  0.250000  1
  Sm  Sm5  1  0.394010  0.100321  0.750000  1
  Si  Si6  1  0.440693  0.759362  0.750000  1
  Si  Si7  1  0.681331  0.440693  0.250000  1
  Si  Si8  1  0.759362  0.318669  0.250000  1
  Si  Si9  1  0.240638  0.681331  0.750000  1
  Si  Si10  1  0.318669  0.559307  0.750000  1
  Si  Si11  1  0.559307  0.240638  0.250000  1
  Si  Si12  1  0.879889  0.129256  0.250000  1
  Si  Si13  1  0.120111  0.870744  0.750000  1
  Si  Si14  1  0.129256  0.249368  0.750000  1
  Si  Si15  1  0.249368  0.120111  0.250000  1
  Si  Si16  1  0.370632  0.937141  0.250000  1
  Si  Si17  1  0.433490  0.370632  0.750000  1
  Si  Si18  1  0.937141  0.566510  0.750000  1
  Si  Si19  1  0.062859  0.433490  0.250000  1
  Si  Si20  1  0.566510  0.629368  0.250000  1
  Si  Si21  1  0.629368  0.062859  0.750000  1
  Si  Si22  1  0.750632  0.879889  0.750000  1
  Si  Si23  1  0.870744  0.750632  0.250000  1
  Rh  Rh24  1  0.463249  0.924946  0.750000  1
  Rh  Rh25  1  0.152460  0.414560  0.750000  1
  Rh  Rh26  1  0.262100  0.847540  0.750000  1
  Rh  Rh27  1  0.737900  0.152460  0.250000  1
  Rh  Rh28  1  0.847540  0.585440  0.250000  1
  Rh  Rh29  1  0.414560  0.262100  0.250000  1
  Rh  Rh30  1  0.652017  0.223549  0.750000  1
  Rh  Rh31  1  0.428468  0.652017  0.250000  1
  Rh  Rh32  1  0.223549  0.571532  0.250000  1
  Rh  Rh33  1  0.776451  0.428468  0.750000  1
  Rh  Rh34  1  0.571532  0.347983  0.750000  1
  Rh  Rh35  1  0.347983  0.776451  0.250000  1
  Rh  Rh36  1  0.142868  0.029551  0.750000  1
  Rh  Rh37  1  0.113317  0.142868  0.250000  1
  Rh  Rh38  1  0.029551  0.886683  0.250000  1
  Rh  Rh39  1  0.970449  0.113317  0.750000  1
  Rh  Rh40  1  0.886683  0.857132  0.750000  1
  Rh  Rh41  1  0.857132  0.970449  0.250000  1
  Rh  Rh42  1  0.924946  0.461697  0.250000  1
  Rh  Rh43  1  0.075054  0.538303  0.750000  1
  Rh  Rh44  1  0.461697  0.536751  0.750000  1
  Rh  Rh45  1  0.536751  0.075054  0.250000  1
  Rh  Rh46  1  0.728952  0.772818  0.250000  1
  Rh  Rh47  1  0.956134  0.728952  0.750000  1
  Rh  Rh48  1  0.772818  0.043866  0.750000  1
  Rh  Rh49  1  0.227182  0.956134  0.250000  1
  Rh  Rh50  1  0.043866  0.271048  0.250000  1
  Rh  Rh51  1  0.271048  0.227182  0.750000  1
  Rh  Rh52  1  0.585440  0.737900  0.750000  1
  Rh  Rh53  1  0.538303  0.463249  0.250000  1
