# generated using pymatgen
data_Zr6CCl14
_symmetry_space_group_name_H-M   'P 1'
_cell_length_a   9.67774653
_cell_length_b   9.67774653
_cell_length_c   11.69334443
_cell_angle_alpha   90.00000000
_cell_angle_beta   90.00000000
_cell_angle_gamma   95.63665236
_symmetry_Int_Tables_number   1
_chemical_formula_structural   Zr6CCl14
_chemical_formula_sum   'Zr12 C2 Cl28'
_cell_volume   1089.88888189
_cell_formula_units_Z   2
loop_
 _symmetry_equiv_pos_site_id
 _symmetry_equiv_pos_as_xyz
  1  'x, y, z'
loop_
 _atom_site_type_symbol
 _atom_site_label
 _atom_site_symmetry_multiplicity
 _atom_site_fract_x
 _atom_site_fract_y
 _atom_site_fract_z
 _atom_site_occupancy
  Zr  Zr0  1  0.644059  0.644059  0.105046  1
  Zr  Zr1  1  0.855941  0.855941  0.605046  1
  Zr  Zr2  1  0.144059  0.144059  0.394954  1
  Zr  Zr3  1  0.355941  0.355941  0.894954  1
  Zr  Zr4  1  0.453960  0.683559  0.883246  1
  Zr  Zr5  1  0.046040  0.816441  0.383246  1
  Zr  Zr6  1  0.183559  0.953960  0.616754  1
  Zr  Zr7  1  0.316441  0.546040  0.116754  1
  Zr  Zr8  1  0.546040  0.316441  0.116754  1
  Zr  Zr9  1  0.953960  0.183559  0.616754  1
  Zr  Zr10  1  0.816441  0.046040  0.383246  1
  Zr  Zr11  1  0.683559  0.453960  0.883246  1
  C  C12  1  0.500000  0.500000  0.000000  1
  C  C13  1  0.000000  0.000000  0.500000  1
  Cl  Cl14  1  0.248571  0.751429  0.500000  1
  Cl  Cl15  1  0.251429  0.748571  0.000000  1
  Cl  Cl16  1  0.751429  0.248571  0.500000  1
  Cl  Cl17  1  0.748571  0.251429  0.000000  1
  Cl  Cl18  1  0.843162  0.843162  0.239667  1
  Cl  Cl19  1  0.656838  0.656838  0.739667  1
  Cl  Cl20  1  0.343162  0.343162  0.260333  1
  Cl  Cl21  1  0.156838  0.156838  0.760333  1
  Cl  Cl22  1  0.603307  0.103307  0.250000  1
  Cl  Cl23  1  0.896693  0.396693  0.750000  1
  Cl  Cl24  1  0.964623  0.209687  0.252682  1
  Cl  Cl25  1  0.535377  0.290313  0.752682  1
  Cl  Cl26  1  0.709687  0.464623  0.247318  1
  Cl  Cl27  1  0.790313  0.035377  0.747318  1
  Cl  Cl28  1  0.035377  0.790313  0.747318  1
  Cl  Cl29  1  0.464623  0.709687  0.247318  1
  Cl  Cl30  1  0.290313  0.535377  0.752682  1
  Cl  Cl31  1  0.209687  0.964623  0.252682  1
  Cl  Cl32  1  0.137956  0.384528  0.008877  1
  Cl  Cl33  1  0.362044  0.115472  0.508877  1
  Cl  Cl34  1  0.884528  0.637956  0.491123  1
  Cl  Cl35  1  0.615472  0.862044  0.991123  1
  Cl  Cl36  1  0.862044  0.615472  0.991123  1
  Cl  Cl37  1  0.637956  0.884528  0.491123  1
  Cl  Cl38  1  0.115472  0.362044  0.508877  1
  Cl  Cl39  1  0.384528  0.137956  0.008877  1
  Cl  Cl40  1  0.103307  0.603307  0.250000  1
  Cl  Cl41  1  0.396693  0.896693  0.750000  1
