# generated using pymatgen
data_NaB(H4O)2
_symmetry_space_group_name_H-M   'P 1'
_cell_length_a   6.89343867
_cell_length_b   10.32036638
_cell_length_c   12.06755544
_cell_angle_alpha   90.00000000
_cell_angle_beta   90.00000000
_cell_angle_gamma   90.00000000
_symmetry_Int_Tables_number   1
_chemical_formula_structural   NaB(H4O)2
_chemical_formula_sum   'Na8 B8 H64 O16'
_cell_volume   858.51983632
_cell_formula_units_Z   8
loop_
 _symmetry_equiv_pos_site_id
 _symmetry_equiv_pos_as_xyz
  1  'x, y, z'
loop_
 _atom_site_type_symbol
 _atom_site_label
 _atom_site_symmetry_multiplicity
 _atom_site_fract_x
 _atom_site_fract_y
 _atom_site_fract_z
 _atom_site_occupancy
  Na  Na0  1  0.952589  0.829331  0.987853  1
  Na  Na1  1  0.452589  0.170669  0.512147  1
  Na  Na2  1  0.547411  0.329331  0.012147  1
  Na  Na3  1  0.047411  0.670669  0.487853  1
  Na  Na4  1  0.047411  0.170669  0.012147  1
  Na  Na5  1  0.547411  0.829331  0.487853  1
  Na  Na6  1  0.452589  0.670669  0.987853  1
  Na  Na7  1  0.952589  0.329331  0.512147  1
  B  B8  1  0.097715  0.612300  0.850077  1
  B  B9  1  0.597715  0.387700  0.649923  1
  B  B10  1  0.402285  0.112300  0.149923  1
  B  B11  1  0.902285  0.887700  0.350077  1
  B  B12  1  0.902285  0.387700  0.149923  1
  B  B13  1  0.402285  0.612300  0.350077  1
  B  B14  1  0.597715  0.887700  0.850077  1
  B  B15  1  0.097715  0.112300  0.649923  1
  H  H16  1  0.268941  0.610000  0.822707  1
  H  H17  1  0.768941  0.390000  0.677293  1
  H  H18  1  0.231059  0.110000  0.177293  1
  H  H19  1  0.731059  0.890000  0.322707  1
  H  H20  1  0.731059  0.390000  0.177293  1
  H  H21  1  0.231059  0.610000  0.322707  1
  H  H22  1  0.768941  0.890000  0.822707  1
  H  H23  1  0.268941  0.110000  0.677293  1
  H  H24  1  0.018837  0.511500  0.816684  1
  H  H25  1  0.518837  0.488500  0.683316  1
  H  H26  1  0.481163  0.011500  0.183316  1
  H  H27  1  0.981163  0.988500  0.316684  1
  H  H28  1  0.981163  0.488500  0.183316  1
  H  H29  1  0.481163  0.511500  0.316684  1
  H  H30  1  0.518837  0.988500  0.816684  1
  H  H31  1  0.018837  0.011500  0.683316  1
  H  H32  1  0.894031  0.490213  0.318548  1
  H  H33  1  0.394031  0.509787  0.181452  1
  H  H34  1  0.605969  0.990213  0.681452  1
  H  H35  1  0.105969  0.009787  0.818548  1
  H  H36  1  0.105969  0.509787  0.681452  1
  H  H37  1  0.605969  0.490213  0.818548  1
  H  H38  1  0.394031  0.009787  0.318548  1
  H  H39  1  0.894031  0.990213  0.181452  1
  H  H40  1  0.016511  0.205102  0.692603  1
  H  H41  1  0.212601  0.475304  0.111864  1
  H  H42  1  0.787399  0.024696  0.611864  1
  H  H43  1  0.287399  0.975304  0.888136  1
  H  H44  1  0.287399  0.475304  0.611864  1
  H  H45  1  0.787399  0.524696  0.888136  1
  H  H46  1  0.212601  0.975304  0.388136  1
  H  H47  1  0.712601  0.024696  0.111864  1
  H  H48  1  0.016511  0.705102  0.807397  1
  H  H49  1  0.516511  0.294898  0.692603  1
  H  H50  1  0.483489  0.205102  0.192603  1
  H  H51  1  0.983489  0.794898  0.307397  1
  H  H52  1  0.983489  0.294898  0.192603  1
  H  H53  1  0.483489  0.705102  0.307397  1
  H  H54  1  0.516511  0.794898  0.807397  1
  H  H55  1  0.082514  0.114379  0.548774  1
  H  H56  1  0.233181  0.267153  0.322418  1
  H  H57  1  0.733181  0.732847  0.177582  1
  H  H58  1  0.266819  0.767153  0.677582  1
  H  H59  1  0.766819  0.232847  0.822418  1
  H  H60  1  0.766819  0.732847  0.677582  1
  H  H61  1  0.266819  0.267153  0.822418  1
  H  H62  1  0.733181  0.232847  0.322418  1
  H  H63  1  0.233181  0.767153  0.177582  1
  H  H64  1  0.306477  0.394277  0.376339  1
  H  H65  1  0.806477  0.605723  0.123661  1
  H  H66  1  0.193523  0.894277  0.623661  1
  H  H67  1  0.693523  0.105723  0.876339  1
  H  H68  1  0.693523  0.605723  0.623661  1
  H  H69  1  0.193523  0.394277  0.876339  1
  H  H70  1  0.806477  0.105723  0.376339  1
  H  H71  1  0.306477  0.894277  0.123661  1
  H  H72  1  0.082514  0.614379  0.951226  1
  H  H73  1  0.582514  0.385621  0.548774  1
  H  H74  1  0.417486  0.114379  0.048774  1
  H  H75  1  0.917486  0.885621  0.451226  1
  H  H76  1  0.917486  0.385621  0.048774  1
  H  H77  1  0.417486  0.614379  0.451226  1
  H  H78  1  0.582514  0.885621  0.951226  1
  H  H79  1  0.712601  0.524696  0.388136  1
  O  O80  1  0.249356  0.809458  0.105581  1
  O  O81  1  0.749356  0.190542  0.394419  1
  O  O82  1  0.250644  0.309458  0.894419  1
  O  O83  1  0.750644  0.690542  0.605581  1
  O  O84  1  0.750644  0.190542  0.894419  1
  O  O85  1  0.250644  0.809458  0.605581  1
  O  O86  1  0.749356  0.690542  0.105581  1
  O  O87  1  0.249356  0.309458  0.394419  1
  O  O88  1  0.852805  0.009207  0.104957  1
  O  O89  1  0.352805  0.990793  0.395043  1
  O  O90  1  0.647195  0.509207  0.895043  1
  O  O91  1  0.147195  0.490793  0.604957  1
  O  O92  1  0.147195  0.990793  0.895043  1
  O  O93  1  0.647195  0.009207  0.604957  1
  O  O94  1  0.352805  0.490793  0.104957  1
  O  O95  1  0.852805  0.509207  0.395043  1
