# generated using pymatgen
data_Tl2SnTe3
_symmetry_space_group_name_H-M   'P 1'
_cell_length_a   8.63882824
_cell_length_b   8.79686057
_cell_length_c   22.64672969
_cell_angle_alpha   90.00000000
_cell_angle_beta   90.00000000
_cell_angle_gamma   90.00000000
_symmetry_Int_Tables_number   1
_chemical_formula_structural   Tl2SnTe3
_chemical_formula_sum   'Tl16 Sn8 Te24'
_cell_volume   1721.02842843
_cell_formula_units_Z   8
loop_
 _symmetry_equiv_pos_site_id
 _symmetry_equiv_pos_as_xyz
  1  'x, y, z'
loop_
 _atom_site_type_symbol
 _atom_site_label
 _atom_site_symmetry_multiplicity
 _atom_site_fract_x
 _atom_site_fract_y
 _atom_site_fract_z
 _atom_site_occupancy
  Tl  Tl0  1  0.700627  0.988430  0.331674  1
  Tl  Tl1  1  0.200627  0.511570  0.168326  1
  Tl  Tl2  1  0.799373  0.488430  0.668326  1
  Tl  Tl3  1  0.299373  0.011570  0.831674  1
  Tl  Tl4  1  0.299373  0.011570  0.668326  1
  Tl  Tl5  1  0.799373  0.488430  0.831674  1
  Tl  Tl6  1  0.200627  0.511570  0.331674  1
  Tl  Tl7  1  0.700627  0.988430  0.168326  1
  Tl  Tl8  1  0.736474  0.033770  0.489858  1
  Tl  Tl9  1  0.236474  0.466230  0.010142  1
  Tl  Tl10  1  0.763526  0.533770  0.510142  1
  Tl  Tl11  1  0.263526  0.966230  0.989858  1
  Tl  Tl12  1  0.263526  0.966230  0.510142  1
  Tl  Tl13  1  0.763526  0.533770  0.989858  1
  Tl  Tl14  1  0.236474  0.466230  0.489858  1
  Tl  Tl15  1  0.736474  0.033770  0.010142  1
  Sn  Sn16  1  0.803193  0.994537  0.665171  1
  Sn  Sn17  1  0.803193  0.994537  0.834829  1
  Sn  Sn18  1  0.303193  0.505463  0.665171  1
  Sn  Sn19  1  0.696807  0.494537  0.165171  1
  Sn  Sn20  1  0.196807  0.005463  0.334829  1
  Sn  Sn21  1  0.196807  0.005463  0.165171  1
  Sn  Sn22  1  0.696807  0.494537  0.334829  1
  Sn  Sn23  1  0.303193  0.505463  0.834829  1
  Te  Te24  1  0.902335  0.309773  0.396980  1
  Te  Te25  1  0.402335  0.190227  0.103020  1
  Te  Te26  1  0.597665  0.809773  0.603020  1
  Te  Te27  1  0.097665  0.690227  0.896980  1
  Te  Te28  1  0.097665  0.690227  0.603020  1
  Te  Te29  1  0.597665  0.809773  0.896980  1
  Te  Te30  1  0.402335  0.190227  0.396980  1
  Te  Te31  1  0.902335  0.309773  0.103020  1
  Te  Te32  1  0.979767  0.179326  0.909676  1
  Te  Te33  1  0.979767  0.179326  0.590324  1
  Te  Te34  1  0.479767  0.320674  0.909676  1
  Te  Te35  1  0.520233  0.679326  0.409676  1
  Te  Te36  1  0.020233  0.820674  0.090324  1
  Te  Te37  1  0.020233  0.820674  0.409676  1
  Te  Te38  1  0.520233  0.679326  0.090324  1
  Te  Te39  1  0.479767  0.320674  0.590324  1
  Te  Te40  1  0.632794  0.170465  0.750000  1
  Te  Te41  1  0.132794  0.329535  0.750000  1
  Te  Te42  1  0.867206  0.670465  0.250000  1
  Te  Te43  1  0.367206  0.829535  0.250000  1
  Te  Te44  1  0.022161  0.174536  0.250000  1
  Te  Te45  1  0.522161  0.325464  0.250000  1
  Te  Te46  1  0.477839  0.674536  0.750000  1
  Te  Te47  1  0.977839  0.825464  0.750000  1
