# generated using pymatgen
data_Cd7(P2Cl3)2
_symmetry_space_group_name_H-M   'P 1'
_cell_length_a   12.13177671
_cell_length_b   12.13177671
_cell_length_c   12.13177671
_cell_angle_alpha   90.00000000
_cell_angle_beta   90.00000000
_cell_angle_gamma   90.00000000
_symmetry_Int_Tables_number   1
_chemical_formula_structural   Cd7(P2Cl3)2
_chemical_formula_sum   'Cd28 P16 Cl24'
_cell_volume   1785.55497068
_cell_formula_units_Z   4
loop_
 _symmetry_equiv_pos_site_id
 _symmetry_equiv_pos_as_xyz
  1  'x, y, z'
loop_
 _atom_site_type_symbol
 _atom_site_label
 _atom_site_symmetry_multiplicity
 _atom_site_fract_x
 _atom_site_fract_y
 _atom_site_fract_z
 _atom_site_occupancy
  Cd  Cd0  1  0.000000  0.500000  0.500000  1
  Cd  Cd1  1  0.500000  0.500000  0.000000  1
  Cd  Cd2  1  0.500000  0.000000  0.500000  1
  Cd  Cd3  1  0.000000  0.000000  0.000000  1
  Cd  Cd4  1  0.015190  0.274694  0.232109  1
  Cd  Cd5  1  0.515190  0.225306  0.767891  1
  Cd  Cd6  1  0.984810  0.774694  0.267891  1
  Cd  Cd7  1  0.225306  0.767891  0.515190  1
  Cd  Cd8  1  0.267891  0.984810  0.774694  1
  Cd  Cd9  1  0.767891  0.515190  0.225306  1
  Cd  Cd10  1  0.274694  0.232109  0.015190  1
  Cd  Cd11  1  0.232109  0.015190  0.274694  1
  Cd  Cd12  1  0.774694  0.267891  0.984810  1
  Cd  Cd13  1  0.725306  0.732109  0.484810  1
  Cd  Cd14  1  0.732109  0.484810  0.725306  1
  Cd  Cd15  1  0.484810  0.725306  0.732109  1
  Cd  Cd16  1  0.984810  0.725306  0.767891  1
  Cd  Cd17  1  0.484810  0.774694  0.232109  1
  Cd  Cd18  1  0.015190  0.225306  0.732109  1
  Cd  Cd19  1  0.774694  0.232109  0.484810  1
  Cd  Cd20  1  0.732109  0.015190  0.225306  1
  Cd  Cd21  1  0.232109  0.484810  0.774694  1
  Cd  Cd22  1  0.725306  0.767891  0.984810  1
  Cd  Cd23  1  0.767891  0.984810  0.725306  1
  Cd  Cd24  1  0.225306  0.732109  0.015190  1
  Cd  Cd25  1  0.274694  0.267891  0.515190  1
  Cd  Cd26  1  0.267891  0.515190  0.274694  1
  Cd  Cd27  1  0.515190  0.274694  0.267891  1
  P  P28  1  0.213207  0.286793  0.713207  1
  P  P29  1  0.286793  0.713207  0.213207  1
  P  P30  1  0.713207  0.213207  0.286793  1
  P  P31  1  0.786793  0.786793  0.786793  1
  P  P32  1  0.786793  0.713207  0.286793  1
  P  P33  1  0.713207  0.286793  0.786793  1
  P  P34  1  0.286793  0.786793  0.713207  1
  P  P35  1  0.213207  0.213207  0.213207  1
  P  P36  1  0.317736  0.182264  0.817736  1
  P  P37  1  0.182264  0.817736  0.317736  1
  P  P38  1  0.817736  0.317736  0.182264  1
  P  P39  1  0.682264  0.682264  0.682264  1
  P  P40  1  0.682264  0.817736  0.182264  1
  P  P41  1  0.817736  0.182264  0.682264  1
  P  P42  1  0.182264  0.682264  0.817736  1
  P  P43  1  0.317736  0.317736  0.317736  1
  Cl  Cl44  1  0.962444  0.021228  0.217807  1
  Cl  Cl45  1  0.462444  0.478772  0.782193  1
  Cl  Cl46  1  0.037556  0.521228  0.282193  1
  Cl  Cl47  1  0.478772  0.782193  0.462444  1
  Cl  Cl48  1  0.282193  0.037556  0.521228  1
  Cl  Cl49  1  0.782193  0.462444  0.478772  1
  Cl  Cl50  1  0.021228  0.217807  0.962444  1
  Cl  Cl51  1  0.217807  0.962444  0.021228  1
  Cl  Cl52  1  0.521228  0.282193  0.037556  1
  Cl  Cl53  1  0.978772  0.717807  0.537556  1
  Cl  Cl54  1  0.717807  0.537556  0.978772  1
  Cl  Cl55  1  0.537556  0.978772  0.717807  1
  Cl  Cl56  1  0.037556  0.978772  0.782193  1
  Cl  Cl57  1  0.537556  0.521228  0.217807  1
  Cl  Cl58  1  0.962444  0.478772  0.717807  1
  Cl  Cl59  1  0.521228  0.217807  0.537556  1
  Cl  Cl60  1  0.717807  0.962444  0.478772  1
  Cl  Cl61  1  0.217807  0.537556  0.521228  1
  Cl  Cl62  1  0.978772  0.782193  0.037556  1
  Cl  Cl63  1  0.782193  0.037556  0.978772  1
  Cl  Cl64  1  0.478772  0.717807  0.962444  1
  Cl  Cl65  1  0.021228  0.282193  0.462444  1
  Cl  Cl66  1  0.282193  0.462444  0.021228  1
  Cl  Cl67  1  0.462444  0.021228  0.282193  1
