# generated using pymatgen
data_KPd2F5
_symmetry_space_group_name_H-M   'P 1'
_cell_length_a   6.32204843
_cell_length_b   7.58459679
_cell_length_c   10.87041291
_cell_angle_alpha   90.00000000
_cell_angle_beta   90.00000000
_cell_angle_gamma   90.00000000
_symmetry_Int_Tables_number   1
_chemical_formula_structural   KPd2F5
_chemical_formula_sum   'K4 Pd8 F20'
_cell_volume   521.23834515
_cell_formula_units_Z   4
loop_
 _symmetry_equiv_pos_site_id
 _symmetry_equiv_pos_as_xyz
  1  'x, y, z'
loop_
 _atom_site_type_symbol
 _atom_site_label
 _atom_site_symmetry_multiplicity
 _atom_site_fract_x
 _atom_site_fract_y
 _atom_site_fract_z
 _atom_site_occupancy
  K  K0  1  0.014923  0.250000  0.868082  1
  K  K1  1  0.514923  0.250000  0.631918  1
  K  K2  1  0.985077  0.750000  0.131918  1
  K  K3  1  0.485077  0.750000  0.368082  1
  Pd  Pd4  1  0.500000  0.000000  0.000000  1
  Pd  Pd5  1  0.000000  0.500000  0.500000  1
  Pd  Pd6  1  0.500000  0.500000  0.000000  1
  Pd  Pd7  1  0.000000  0.000000  0.500000  1
  Pd  Pd8  1  0.190414  0.250000  0.214384  1
  Pd  Pd9  1  0.690414  0.250000  0.285616  1
  Pd  Pd10  1  0.809586  0.750000  0.785616  1
  Pd  Pd11  1  0.309586  0.750000  0.714384  1
  F  F12  1  0.699478  0.055590  0.160686  1
  F  F13  1  0.199478  0.444410  0.339314  1
  F  F14  1  0.300522  0.555590  0.839314  1
  F  F15  1  0.800522  0.944410  0.660686  1
  F  F16  1  0.300522  0.944410  0.839314  1
  F  F17  1  0.800522  0.555590  0.660686  1
  F  F18  1  0.699478  0.444410  0.160686  1
  F  F19  1  0.199478  0.055590  0.339314  1
  F  F20  1  0.811605  0.932700  0.918999  1
  F  F21  1  0.311605  0.567300  0.581001  1
  F  F22  1  0.188395  0.432700  0.081001  1
  F  F23  1  0.688395  0.067300  0.418999  1
  F  F24  1  0.046734  0.250000  0.596401  1
  F  F25  1  0.546734  0.250000  0.903599  1
  F  F26  1  0.953266  0.750000  0.403599  1
  F  F27  1  0.453266  0.750000  0.096401  1
  F  F28  1  0.311605  0.932700  0.581001  1
  F  F29  1  0.811605  0.567300  0.918999  1
  F  F30  1  0.688395  0.432700  0.418999  1
  F  F31  1  0.188395  0.067300  0.081001  1
