# generated using pymatgen
data_NaTaCl6
_symmetry_space_group_name_H-M   'P 1'
_cell_length_a   6.69464022
_cell_length_b   7.10346265
_cell_length_c   19.80757943
_cell_angle_alpha   90.00000000
_cell_angle_beta   90.65650290
_cell_angle_gamma   90.00000000
_symmetry_Int_Tables_number   1
_chemical_formula_structural   NaTaCl6
_chemical_formula_sum   'Na4 Ta4 Cl24'
_cell_volume   941.89011710
_cell_formula_units_Z   4
loop_
 _symmetry_equiv_pos_site_id
 _symmetry_equiv_pos_as_xyz
  1  'x, y, z'
loop_
 _atom_site_type_symbol
 _atom_site_label
 _atom_site_symmetry_multiplicity
 _atom_site_fract_x
 _atom_site_fract_y
 _atom_site_fract_z
 _atom_site_occupancy
  Na  Na0  1  0.213462  0.810844  0.252499  1
  Na  Na1  1  0.786538  0.310844  0.247501  1
  Na  Na2  1  0.786538  0.189156  0.747501  1
  Na  Na3  1  0.213462  0.689156  0.752499  1
  Ta  Ta4  1  0.743431  0.717414  0.382521  1
  Ta  Ta5  1  0.256569  0.217414  0.117479  1
  Ta  Ta6  1  0.256569  0.282586  0.617479  1
  Ta  Ta7  1  0.743431  0.782586  0.882521  1
  Cl  Cl8  1  0.615700  0.818837  0.764804  1
  Cl  Cl9  1  0.384300  0.318837  0.735196  1
  Cl  Cl10  1  0.384300  0.181163  0.235196  1
  Cl  Cl11  1  0.615700  0.681163  0.264804  1
  Cl  Cl12  1  0.462503  0.604733  0.905344  1
  Cl  Cl13  1  0.537497  0.104733  0.594656  1
  Cl  Cl14  1  0.537497  0.395267  0.094656  1
  Cl  Cl15  1  0.462503  0.895267  0.405344  1
  Cl  Cl16  1  0.916162  0.504117  0.842288  1
  Cl  Cl17  1  0.083838  0.004117  0.657712  1
  Cl  Cl18  1  0.083838  0.495883  0.157712  1
  Cl  Cl19  1  0.916162  0.995883  0.342288  1
  Cl  Cl20  1  0.883216  0.747244  0.987789  1
  Cl  Cl21  1  0.116784  0.247244  0.512211  1
  Cl  Cl22  1  0.116784  0.252756  0.012211  1
  Cl  Cl23  1  0.883216  0.752756  0.487789  1
  Cl  Cl24  1  0.032168  0.957028  0.841874  1
  Cl  Cl25  1  0.967832  0.457028  0.658126  1
  Cl  Cl26  1  0.967832  0.042972  0.158126  1
  Cl  Cl27  1  0.032168  0.542972  0.341874  1
  Cl  Cl28  1  0.594305  0.067879  0.907954  1
  Cl  Cl29  1  0.405695  0.567879  0.592046  1
  Cl  Cl30  1  0.405695  0.932121  0.092046  1
  Cl  Cl31  1  0.594305  0.432121  0.407954  1
