# generated using pymatgen
data_SrAlBO4
_symmetry_space_group_name_H-M   'P 1'
_cell_length_a   5.80698127
_cell_length_b   8.92487416
_cell_length_c   14.65144514
_cell_angle_alpha   90.00000000
_cell_angle_beta   90.00000000
_cell_angle_gamma   90.00000000
_symmetry_Int_Tables_number   1
_chemical_formula_structural   SrAlBO4
_chemical_formula_sum   'Sr8 Al8 B8 O32'
_cell_volume   759.33425094
_cell_formula_units_Z   8
loop_
 _symmetry_equiv_pos_site_id
 _symmetry_equiv_pos_as_xyz
  1  'x, y, z'
loop_
 _atom_site_type_symbol
 _atom_site_label
 _atom_site_symmetry_multiplicity
 _atom_site_fract_x
 _atom_site_fract_y
 _atom_site_fract_z
 _atom_site_occupancy
  Sr  Sr0  1  0.187764  0.079707  0.652414  1
  Sr  Sr1  1  0.187764  0.420293  0.847586  1
  Sr  Sr2  1  0.312236  0.579707  0.347586  1
  Sr  Sr3  1  0.312236  0.920293  0.152414  1
  Sr  Sr4  1  0.812236  0.920293  0.347586  1
  Sr  Sr5  1  0.812236  0.579707  0.152414  1
  Sr  Sr6  1  0.687764  0.420293  0.652414  1
  Sr  Sr7  1  0.687764  0.079707  0.847586  1
  Al  Al8  1  0.370286  0.707613  0.572151  1
  Al  Al9  1  0.370286  0.792387  0.927849  1
  Al  Al10  1  0.129714  0.207613  0.427849  1
  Al  Al11  1  0.129714  0.292387  0.072151  1
  Al  Al12  1  0.629714  0.292387  0.427849  1
  Al  Al13  1  0.629714  0.207613  0.072151  1
  Al  Al14  1  0.870286  0.792387  0.572151  1
  Al  Al15  1  0.870286  0.707613  0.927849  1
  B  B16  1  0.682082  0.401779  0.911342  1
  B  B17  1  0.182082  0.401779  0.588658  1
  B  B18  1  0.182082  0.098221  0.911342  1
  B  B19  1  0.317918  0.901779  0.411342  1
  B  B20  1  0.317918  0.598221  0.088658  1
  B  B21  1  0.817918  0.598221  0.411342  1
  B  B22  1  0.817918  0.901779  0.088658  1
  B  B23  1  0.682082  0.098221  0.588658  1
  O  O24  1  0.924002  0.713209  0.460600  1
  O  O25  1  0.424002  0.713209  0.039400  1
  O  O26  1  0.424002  0.786791  0.460600  1
  O  O27  1  0.075998  0.213209  0.960600  1
  O  O28  1  0.075998  0.286791  0.539400  1
  O  O29  1  0.575998  0.286791  0.960600  1
  O  O30  1  0.575998  0.213209  0.539400  1
  O  O31  1  0.924002  0.786791  0.039400  1
  O  O32  1  0.143202  0.804784  0.625198  1
  O  O33  1  0.143202  0.695216  0.874802  1
  O  O34  1  0.356798  0.304784  0.374802  1
  O  O35  1  0.356798  0.195216  0.125198  1
  O  O36  1  0.856798  0.195216  0.374802  1
  O  O37  1  0.856798  0.304784  0.125198  1
  O  O38  1  0.643202  0.695216  0.625198  1
  O  O39  1  0.643202  0.804784  0.874802  1
  O  O40  1  0.673834  0.388794  0.817714  1
  O  O41  1  0.673834  0.111206  0.682286  1
  O  O42  1  0.826166  0.888794  0.182286  1
  O  O43  1  0.826166  0.611206  0.317714  1
  O  O44  1  0.326166  0.611206  0.182286  1
  O  O45  1  0.326166  0.888794  0.317714  1
  O  O46  1  0.173834  0.111206  0.817714  1
  O  O47  1  0.173834  0.388794  0.682286  1
  O  O48  1  0.787446  0.519614  0.954652  1
  O  O49  1  0.787446  0.980386  0.545348  1
  O  O50  1  0.712554  0.019614  0.045348  1
  O  O51  1  0.712554  0.480386  0.454652  1
  O  O52  1  0.212554  0.480386  0.045348  1
  O  O53  1  0.212554  0.019614  0.454652  1
  O  O54  1  0.287446  0.980386  0.954652  1
  O  O55  1  0.287446  0.519614  0.545348  1
