# generated using pymatgen
data_BaPrO3
_symmetry_space_group_name_H-M   'P 1'
_cell_length_a   6.41045115
_cell_length_b   6.49693640
_cell_length_c   9.10700912
_cell_angle_alpha   90.00000000
_cell_angle_beta   90.00000000
_cell_angle_gamma   90.00000000
_symmetry_Int_Tables_number   1
_chemical_formula_structural   BaPrO3
_chemical_formula_sum   'Ba4 Pr4 O12'
_cell_volume   379.29138798
_cell_formula_units_Z   4
loop_
 _symmetry_equiv_pos_site_id
 _symmetry_equiv_pos_as_xyz
  1  'x, y, z'
loop_
 _atom_site_type_symbol
 _atom_site_label
 _atom_site_symmetry_multiplicity
 _atom_site_fract_x
 _atom_site_fract_y
 _atom_site_fract_z
 _atom_site_occupancy
  Ba  Ba0  1  0.984110  0.036708  0.250000  1
  Ba  Ba1  1  0.484110  0.463292  0.750000  1
  Ba  Ba2  1  0.515890  0.536708  0.250000  1
  Ba  Ba3  1  0.015890  0.963292  0.750000  1
  Pr  Pr4  1  0.500000  0.000000  0.000000  1
  Pr  Pr5  1  0.000000  0.500000  0.000000  1
  Pr  Pr6  1  0.000000  0.500000  0.500000  1
  Pr  Pr7  1  0.500000  0.000000  0.500000  1
  O  O8  1  0.717468  0.282046  0.443954  1
  O  O9  1  0.217468  0.217954  0.556046  1
  O  O10  1  0.782532  0.782046  0.056046  1
  O  O11  1  0.282532  0.717954  0.943954  1
  O  O12  1  0.282532  0.717954  0.556046  1
  O  O13  1  0.782532  0.782046  0.443954  1
  O  O14  1  0.217468  0.217954  0.943954  1
  O  O15  1  0.717468  0.282046  0.056046  1
  O  O16  1  0.098917  0.463053  0.250000  1
  O  O17  1  0.598917  0.036947  0.750000  1
  O  O18  1  0.401083  0.963053  0.250000  1
  O  O19  1  0.901083  0.536947  0.750000  1
