# generated using pymatgen
data_KGaI4
_symmetry_space_group_name_H-M   'P 1'
_cell_length_a   8.56903953
_cell_length_b   8.21144393
_cell_length_c   16.64005564
_cell_angle_alpha   90.00000000
_cell_angle_beta   94.85915606
_cell_angle_gamma   90.00000000
_symmetry_Int_Tables_number   1
_chemical_formula_structural   KGaI4
_chemical_formula_sum   'K4 Ga4 I16'
_cell_volume   1166.65583333
_cell_formula_units_Z   4
loop_
 _symmetry_equiv_pos_site_id
 _symmetry_equiv_pos_as_xyz
  1  'x, y, z'
loop_
 _atom_site_type_symbol
 _atom_site_label
 _atom_site_symmetry_multiplicity
 _atom_site_fract_x
 _atom_site_fract_y
 _atom_site_fract_z
 _atom_site_occupancy
  K  K0  1  0.257312  0.502850  0.360133  1
  K  K1  1  0.742688  0.002850  0.139867  1
  K  K2  1  0.742688  0.497150  0.639867  1
  K  K3  1  0.257312  0.997150  0.860133  1
  Ga  Ga4  1  0.244100  0.358232  0.639064  1
  Ga  Ga5  1  0.755900  0.858232  0.860936  1
  Ga  Ga6  1  0.755900  0.641768  0.360936  1
  Ga  Ga7  1  0.244100  0.141768  0.139064  1
  I  I8  1  0.138969  0.859480  0.091314  1
  I  I9  1  0.861031  0.359480  0.408686  1
  I  I10  1  0.861031  0.140520  0.908686  1
  I  I11  1  0.138969  0.640520  0.591314  1
  I  I12  1  0.412836  0.389210  0.775405  1
  I  I13  1  0.587164  0.889210  0.724595  1
  I  I14  1  0.587164  0.610790  0.224595  1
  I  I15  1  0.412836  0.110790  0.275405  1
  I  I16  1  0.981116  0.655292  0.840520  1
  I  I17  1  0.018884  0.155292  0.659480  1
  I  I18  1  0.018884  0.344708  0.159480  1
  I  I19  1  0.981116  0.844708  0.340520  1
  I  I20  1  0.419501  0.242711  0.532576  1
  I  I21  1  0.580499  0.742711  0.967424  1
  I  I22  1  0.580499  0.757289  0.467424  1
  I  I23  1  0.419501  0.257289  0.032576  1
