# generated using pymatgen
data_HgP14Pb
_symmetry_space_group_name_H-M   'P 1'
_cell_length_a   9.90507766
_cell_length_b   11.08175354
_cell_length_c   13.42384475
_cell_angle_alpha   90.00000000
_cell_angle_beta   90.00000000
_cell_angle_gamma   90.00000000
_symmetry_Int_Tables_number   1
_chemical_formula_structural   HgP14Pb
_chemical_formula_sum   'Hg4 P56 Pb4'
_cell_volume   1473.47676826
_cell_formula_units_Z   4
loop_
 _symmetry_equiv_pos_site_id
 _symmetry_equiv_pos_as_xyz
  1  'x, y, z'
loop_
 _atom_site_type_symbol
 _atom_site_label
 _atom_site_symmetry_multiplicity
 _atom_site_fract_x
 _atom_site_fract_y
 _atom_site_fract_z
 _atom_site_occupancy
  Hg  Hg0  1  0.250000  0.001113  0.186190  1
  Hg  Hg1  1  0.250000  0.498887  0.686190  1
  Hg  Hg2  1  0.750000  0.501113  0.313810  1
  Hg  Hg3  1  0.750000  0.998887  0.813810  1
  P  P4  1  0.922748  0.670429  0.826259  1
  P  P5  1  0.548066  0.638858  0.365126  1
  P  P6  1  0.048066  0.361142  0.634874  1
  P  P7  1  0.451934  0.138858  0.134874  1
  P  P8  1  0.750000  0.337859  0.469990  1
  P  P9  1  0.250000  0.662141  0.530010  1
  P  P10  1  0.250000  0.837859  0.030010  1
  P  P11  1  0.750000  0.162141  0.969990  1
  P  P12  1  0.076553  0.345670  0.472965  1
  P  P13  1  0.576553  0.654330  0.527035  1
  P  P14  1  0.923447  0.845670  0.027035  1
  P  P15  1  0.423447  0.154330  0.972965  1
  P  P16  1  0.923447  0.654330  0.527035  1
  P  P17  1  0.423447  0.345670  0.472965  1
  P  P18  1  0.076553  0.154330  0.972965  1
  P  P19  1  0.576553  0.845670  0.027035  1
  P  P20  1  0.250000  0.221534  0.447506  1
  P  P21  1  0.750000  0.778466  0.552494  1
  P  P22  1  0.750000  0.721534  0.052494  1
  P  P23  1  0.250000  0.278466  0.947506  1
  P  P24  1  0.583144  0.210710  0.437980  1
  P  P25  1  0.083144  0.789290  0.562020  1
  P  P26  1  0.416856  0.710710  0.062020  1
  P  P27  1  0.916856  0.289290  0.937980  1
  P  P28  1  0.416856  0.789290  0.562020  1
  P  P29  1  0.916856  0.210710  0.437980  1
  P  P30  1  0.583144  0.289290  0.937980  1
  P  P31  1  0.083144  0.710710  0.062020  1
  P  P32  1  0.250000  0.396606  0.083571  1
  P  P33  1  0.750000  0.603394  0.916429  1
  P  P34  1  0.750000  0.896606  0.416429  1
  P  P35  1  0.250000  0.103394  0.583571  1
  P  P36  1  0.578556  0.413785  0.075404  1
  P  P37  1  0.078556  0.586215  0.924596  1
  P  P38  1  0.421444  0.913785  0.424596  1
  P  P39  1  0.921444  0.086215  0.575404  1
  P  P40  1  0.421444  0.586215  0.924596  1
  P  P41  1  0.921444  0.413785  0.075404  1
  P  P42  1  0.578556  0.086215  0.575404  1
  P  P43  1  0.078556  0.913785  0.424596  1
  P  P44  1  0.750000  0.349678  0.168111  1
  P  P45  1  0.250000  0.650322  0.831889  1
  P  P46  1  0.250000  0.849678  0.331889  1
  P  P47  1  0.750000  0.150322  0.668111  1
  P  P48  1  0.077252  0.329571  0.173741  1
  P  P49  1  0.577252  0.670429  0.826259  1
  P  P50  1  0.922748  0.829571  0.326259  1
  P  P51  1  0.422748  0.170429  0.673741  1
  P  P52  1  0.451934  0.361142  0.634874  1
  P  P53  1  0.422748  0.329571  0.173741  1
  P  P54  1  0.077252  0.170429  0.673741  1
  P  P55  1  0.577252  0.829571  0.326259  1
  P  P56  1  0.048066  0.138858  0.134874  1
  P  P57  1  0.548066  0.861142  0.865126  1
  P  P58  1  0.951934  0.638858  0.365126  1
  P  P59  1  0.951934  0.861142  0.865126  1
  Pb  Pb60  1  0.750000  0.094533  0.170931  1
  Pb  Pb61  1  0.250000  0.905467  0.829069  1
  Pb  Pb62  1  0.250000  0.594533  0.329069  1
  Pb  Pb63  1  0.750000  0.405467  0.670931  1
