# generated using pymatgen
data_Ba2EuTaO6
_symmetry_space_group_name_H-M   'P 1'
_cell_length_a   6.10301174
_cell_length_b   6.10301174
_cell_length_c   6.10301174
_cell_angle_alpha   120.16495833
_cell_angle_beta   120.16495833
_cell_angle_gamma   89.71452047
_symmetry_Int_Tables_number   1
_chemical_formula_structural   Ba2EuTaO6
_chemical_formula_sum   'Ba2 Eu1 Ta1 O6'
_cell_volume   160.33472045
_cell_formula_units_Z   1
loop_
 _symmetry_equiv_pos_site_id
 _symmetry_equiv_pos_as_xyz
  1  'x, y, z'
loop_
 _atom_site_type_symbol
 _atom_site_label
 _atom_site_symmetry_multiplicity
 _atom_site_fract_x
 _atom_site_fract_y
 _atom_site_fract_z
 _atom_site_occupancy
  Ba  Ba0  1  0.250000  0.750000  0.500000  1
  Ba  Ba1  1  0.750000  0.250000  0.500000  1
  Eu  Eu2  1  0.000000  0.000000  0.000000  1
  Ta  Ta3  1  0.500000  0.500000  0.000000  1
  O  O4  1  0.249188  0.284484  0.533672  1
  O  O5  1  0.732147  0.732147  0.000000  1
  O  O6  1  0.284484  0.750812  0.035296  1
  O  O7  1  0.267853  0.267853  0.000000  1
  O  O8  1  0.750812  0.715516  0.466328  1
  O  O9  1  0.715516  0.249188  0.964704  1
