# generated using pymatgen
data_UVO5
_symmetry_space_group_name_H-M   'P 1'
_cell_length_a   4.11861193
_cell_length_b   7.26547201
_cell_length_c   12.64032301
_cell_angle_alpha   90.00000000
_cell_angle_beta   90.00000000
_cell_angle_gamma   90.00000000
_symmetry_Int_Tables_number   1
_chemical_formula_structural   UVO5
_chemical_formula_sum   'U4 V4 O20'
_cell_volume   378.24472422
_cell_formula_units_Z   4
loop_
 _symmetry_equiv_pos_site_id
 _symmetry_equiv_pos_as_xyz
  1  'x, y, z'
loop_
 _atom_site_type_symbol
 _atom_site_label
 _atom_site_symmetry_multiplicity
 _atom_site_fract_x
 _atom_site_fract_y
 _atom_site_fract_z
 _atom_site_occupancy
  U  U0  1  0.991591  0.750000  0.527680  1
  U  U1  1  0.991591  0.250000  0.972320  1
  U  U2  1  0.008409  0.250000  0.472320  1
  U  U3  1  0.008409  0.750000  0.027680  1
  V  V4  1  0.901127  0.500000  0.250000  1
  V  V5  1  0.098873  0.000000  0.750000  1
  V  V6  1  0.098873  0.500000  0.750000  1
  V  V7  1  0.901127  0.000000  0.250000  1
  O  O8  1  0.012955  0.448144  0.595579  1
  O  O9  1  0.012955  0.551856  0.904421  1
  O  O10  1  0.987045  0.948144  0.404421  1
  O  O11  1  0.987045  0.051856  0.095579  1
  O  O12  1  0.987045  0.551856  0.404421  1
  O  O13  1  0.987045  0.448144  0.095579  1
  O  O14  1  0.012955  0.051856  0.595579  1
  O  O15  1  0.012955  0.948144  0.904421  1
  O  O16  1  0.508309  0.750000  0.026841  1
  O  O17  1  0.508309  0.250000  0.473159  1
  O  O18  1  0.491691  0.250000  0.973159  1
  O  O19  1  0.491691  0.750000  0.526841  1
  O  O20  1  0.499741  0.000000  0.250000  1
  O  O21  1  0.500259  0.500000  0.750000  1
  O  O22  1  0.500259  0.000000  0.750000  1
  O  O23  1  0.499741  0.500000  0.250000  1
  O  O24  1  0.995764  0.750000  0.197509  1
  O  O25  1  0.995764  0.250000  0.302491  1
  O  O26  1  0.004236  0.250000  0.802491  1
  O  O27  1  0.004236  0.750000  0.697509  1
