# generated using pymatgen
data_Yb2Ge2O7
_symmetry_space_group_name_H-M   'P 1'
_cell_length_a   7.07125790
_cell_length_b   7.07125790
_cell_length_c   7.07125790
_cell_angle_alpha   60.00000000
_cell_angle_beta   60.00000000
_cell_angle_gamma   60.00000000
_symmetry_Int_Tables_number   1
_chemical_formula_structural   Yb2Ge2O7
_chemical_formula_sum   'Yb4 Ge4 O14'
_cell_volume   250.02016259
_cell_formula_units_Z   2
loop_
 _symmetry_equiv_pos_site_id
 _symmetry_equiv_pos_as_xyz
  1  'x, y, z'
loop_
 _atom_site_type_symbol
 _atom_site_label
 _atom_site_symmetry_multiplicity
 _atom_site_fract_x
 _atom_site_fract_y
 _atom_site_fract_z
 _atom_site_occupancy
  Yb  Yb0  1  0.625000  0.125000  0.125000  1
  Yb  Yb1  1  0.125000  0.125000  0.625000  1
  Yb  Yb2  1  0.125000  0.125000  0.125000  1
  Yb  Yb3  1  0.125000  0.625000  0.125000  1
  Ge  Ge4  1  0.125000  0.625000  0.625000  1
  Ge  Ge5  1  0.625000  0.625000  0.125000  1
  Ge  Ge6  1  0.625000  0.625000  0.625000  1
  Ge  Ge7  1  0.625000  0.125000  0.625000  1
  O  O8  1  0.700444  0.299556  0.299556  1
  O  O9  1  0.950444  0.549556  0.549556  1
  O  O10  1  0.299556  0.299556  0.700444  1
  O  O11  1  0.700444  0.299556  0.700444  1
  O  O12  1  0.299556  0.700444  0.299556  1
  O  O13  1  0.700444  0.700444  0.299556  1
  O  O14  1  0.950444  0.950444  0.549556  1
  O  O15  1  0.549556  0.549556  0.950444  1
  O  O16  1  0.250000  0.250000  0.250000  1
  O  O17  1  0.000000  0.000000  1.000000  1
  O  O18  1  0.299556  0.700444  0.700444  1
  O  O19  1  0.950444  0.549556  0.950444  1
  O  O20  1  0.549556  0.950444  0.549556  1
  O  O21  1  0.549556  0.950444  0.950444  1
