# generated using pymatgen
data_ZnH12(SO6)2
_symmetry_space_group_name_H-M   'P 1'
_cell_length_a   6.54089193
_cell_length_b   6.74881599
_cell_length_c   7.02231476
_cell_angle_alpha   101.80854223
_cell_angle_beta   96.42759793
_cell_angle_gamma   94.64625576
_symmetry_Int_Tables_number   1
_chemical_formula_structural   ZnH12(SO6)2
_chemical_formula_sum   'Zn1 H12 S2 O12'
_cell_volume   299.79481435
_cell_formula_units_Z   1
loop_
 _symmetry_equiv_pos_site_id
 _symmetry_equiv_pos_as_xyz
  1  'x, y, z'
loop_
 _atom_site_type_symbol
 _atom_site_label
 _atom_site_symmetry_multiplicity
 _atom_site_fract_x
 _atom_site_fract_y
 _atom_site_fract_z
 _atom_site_occupancy
  Zn  Zn0  1  0.000000  0.000000  0.000000  1
  H  H1  1  0.202110  0.066844  0.389568  1
  H  H2  1  0.797890  0.933156  0.610432  1
  H  H3  1  0.182680  0.831340  0.293294  1
  H  H4  1  0.701076  0.847319  0.180510  1
  H  H5  1  0.391090  0.182673  0.042598  1
  H  H6  1  0.608910  0.817327  0.957402  1
  H  H7  1  0.815850  0.323689  0.171074  1
  H  H8  1  0.184150  0.676311  0.828926  1
  H  H9  1  0.056963  0.402288  0.189710  1
  H  H10  1  0.943037  0.597712  0.810290  1
  H  H11  1  0.817320  0.168660  0.706706  1
  H  H12  1  0.298924  0.152681  0.819490  1
  S  S13  1  0.493430  0.546439  0.358356  1
  S  S14  1  0.506570  0.453561  0.641644  1
  O  O15  1  0.641517  0.729637  0.394027  1
  O  O16  1  0.723555  0.417123  0.688020  1
  O  O17  1  0.276445  0.582877  0.311980  1
  O  O18  1  0.445138  0.629865  0.775978  1
  O  O19  1  0.123353  0.959494  0.285633  1
  O  O20  1  0.876647  0.040506  0.714367  1
  O  O21  1  0.293946  0.093363  0.935952  1
  O  O22  1  0.706054  0.906637  0.064048  1
  O  O23  1  0.945583  0.299527  0.115311  1
  O  O24  1  0.054417  0.700473  0.884689  1
  O  O25  1  0.358483  0.270363  0.605973  1
  O  O26  1  0.554862  0.370135  0.224022  1
