# generated using pymatgen
data_Er5Mg24
_symmetry_space_group_name_H-M   'P 1'
_cell_length_a   9.72550634
_cell_length_b   9.72550634
_cell_length_c   9.72550634
_cell_angle_alpha   109.47122063
_cell_angle_beta   109.47122063
_cell_angle_gamma   109.47122063
_symmetry_Int_Tables_number   1
_chemical_formula_structural   Er5Mg24
_chemical_formula_sum   'Er5 Mg24'
_cell_volume   708.13290185
_cell_formula_units_Z   1
loop_
 _symmetry_equiv_pos_site_id
 _symmetry_equiv_pos_as_xyz
  1  'x, y, z'
loop_
 _atom_site_type_symbol
 _atom_site_label
 _atom_site_symmetry_multiplicity
 _atom_site_fract_x
 _atom_site_fract_y
 _atom_site_fract_z
 _atom_site_occupancy
  Er  Er0  1  1.000000  1.000000  0.372925  1
  Er  Er1  1  1.000000  0.372925  0.000000  1
  Er  Er2  1  0.372925  1.000000  0.000000  1
  Er  Er3  1  0.627075  0.627075  0.627075  1
  Er  Er4  1  1.000000  1.000000  0.000000  1
  Mg  Mg5  1  0.190647  0.190647  0.819580  1
  Mg  Mg6  1  0.371067  0.180420  0.371067  1
  Mg  Mg7  1  0.180420  0.371067  0.371067  1
  Mg  Mg8  1  1.000000  0.628933  0.809353  1
  Mg  Mg9  1  0.628933  1.000000  0.809353  1
  Mg  Mg10  1  0.389367  0.389367  0.712630  1
  Mg  Mg11  1  0.610633  0.323263  1.000000  1
  Mg  Mg12  1  0.323263  0.610633  0.000000  1
  Mg  Mg13  1  1.000000  0.323263  0.610633  1
  Mg  Mg14  1  0.287370  0.676737  0.676737  1
  Mg  Mg15  1  0.676737  0.287370  0.676737  1
  Mg  Mg16  1  0.323263  1.000000  0.610633  1
  Mg  Mg17  1  0.610633  1.000000  0.323263  1
  Mg  Mg18  1  1.000000  0.610633  0.323263  1
  Mg  Mg19  1  0.712630  0.389367  0.389367  1
  Mg  Mg20  1  0.389367  0.712630  0.389367  1
  Mg  Mg21  1  0.676737  0.676737  0.287370  1
  Mg  Mg22  1  0.371067  0.371067  0.180420  1
  Mg  Mg23  1  0.628933  0.809353  0.000000  1
  Mg  Mg24  1  0.809353  0.628933  0.000000  1
  Mg  Mg25  1  1.000000  0.809353  0.628933  1
  Mg  Mg26  1  0.819580  0.190647  0.190647  1
  Mg  Mg27  1  0.190647  0.819580  0.190647  1
  Mg  Mg28  1  0.809353  1.000000  0.628933  1
