# generated using pymatgen
data_SbXeF9
_symmetry_space_group_name_H-M   'P 1'
_cell_length_a   5.56440815
_cell_length_b   15.85542407
_cell_length_c   9.48985372
_cell_angle_alpha   90.00000000
_cell_angle_beta   111.99721765
_cell_angle_gamma   90.00000000
_symmetry_Int_Tables_number   1
_chemical_formula_structural   SbXeF9
_chemical_formula_sum   'Sb4 Xe4 F36'
_cell_volume   776.30206088
_cell_formula_units_Z   4
loop_
 _symmetry_equiv_pos_site_id
 _symmetry_equiv_pos_as_xyz
  1  'x, y, z'
loop_
 _atom_site_type_symbol
 _atom_site_label
 _atom_site_symmetry_multiplicity
 _atom_site_fract_x
 _atom_site_fract_y
 _atom_site_fract_z
 _atom_site_occupancy
  Sb  Sb0  1  0.457429  0.582094  0.222044  1
  Sb  Sb1  1  0.542571  0.082094  0.277956  1
  Sb  Sb2  1  0.542571  0.417906  0.777956  1
  Sb  Sb3  1  0.457429  0.917906  0.722044  1
  Xe  Xe4  1  0.889992  0.363318  0.280573  1
  Xe  Xe5  1  0.110008  0.863318  0.219427  1
  Xe  Xe6  1  0.110008  0.636682  0.719427  1
  Xe  Xe7  1  0.889992  0.136682  0.780573  1
  F  F8  1  0.700504  0.635145  0.154825  1
  F  F9  1  0.299496  0.135145  0.345175  1
  F  F10  1  0.299496  0.364855  0.845175  1
  F  F11  1  0.700504  0.864855  0.654825  1
  F  F12  1  0.206894  0.520717  0.273232  1
  F  F13  1  0.793106  0.020717  0.226768  1
  F  F14  1  0.793106  0.479283  0.726768  1
  F  F15  1  0.206894  0.979283  0.773232  1
  F  F16  1  0.567635  0.028903  0.664089  1
  F  F17  1  0.432365  0.528903  0.835911  1
  F  F18  1  0.432365  0.971097  0.335911  1
  F  F19  1  0.567635  0.471097  0.164089  1
  F  F20  1  0.683187  0.129804  0.913186  1
  F  F21  1  0.316813  0.629804  0.586814  1
  F  F22  1  0.316813  0.870196  0.086814  1
  F  F23  1  0.683187  0.370196  0.413186  1
  F  F24  1  0.075338  0.221096  0.935266  1
  F  F25  1  0.924662  0.721096  0.564734  1
  F  F26  1  0.924662  0.778904  0.064734  1
  F  F27  1  0.075338  0.278904  0.435266  1
  F  F28  1  0.159531  0.172278  0.699373  1
  F  F29  1  0.840469  0.672278  0.800627  1
  F  F30  1  0.840469  0.827722  0.300627  1
  F  F31  1  0.159531  0.327722  0.199373  1
  F  F32  1  0.714495  0.936507  0.920057  1
  F  F33  1  0.285505  0.436507  0.579943  1
  F  F34  1  0.285505  0.063493  0.079943  1
  F  F35  1  0.714495  0.563493  0.420057  1
  F  F36  1  0.353818  0.813096  0.780488  1
  F  F37  1  0.646182  0.313096  0.719512  1
  F  F38  1  0.646182  0.186904  0.219512  1
  F  F39  1  0.353818  0.686904  0.280488  1
  F  F40  1  0.203834  0.909851  0.516938  1
  F  F41  1  0.796166  0.409851  0.983062  1
  F  F42  1  0.796166  0.090149  0.483062  1
  F  F43  1  0.203834  0.590149  0.016938  1
