# generated using pymatgen
data_ZnH2(SeO4)2
_symmetry_space_group_name_H-M   'P 1'
_cell_length_a   5.16589667
_cell_length_b   8.78213233
_cell_length_c   8.54135117
_cell_angle_alpha   90.00000000
_cell_angle_beta   119.24249967
_cell_angle_gamma   90.00000000
_symmetry_Int_Tables_number   1
_chemical_formula_structural   ZnH2(SeO4)2
_chemical_formula_sum   'Zn2 H4 Se4 O16'
_cell_volume   338.11742382
_cell_formula_units_Z   2
loop_
 _symmetry_equiv_pos_site_id
 _symmetry_equiv_pos_as_xyz
  1  'x, y, z'
loop_
 _atom_site_type_symbol
 _atom_site_label
 _atom_site_symmetry_multiplicity
 _atom_site_fract_x
 _atom_site_fract_y
 _atom_site_fract_z
 _atom_site_occupancy
  Zn  Zn0  1  0.000000  0.000000  0.000000  1
  Zn  Zn1  1  0.000000  0.500000  0.500000  1
  H  H2  1  0.424289  0.990647  0.646603  1
  H  H3  1  0.575711  0.490647  0.853397  1
  H  H4  1  0.575711  0.009353  0.353397  1
  H  H5  1  0.424289  0.509353  0.146603  1
  Se  Se6  1  0.667399  0.816237  0.212234  1
  Se  Se7  1  0.332601  0.316237  0.287766  1
  Se  Se8  1  0.667399  0.683763  0.712234  1
  Se  Se9  1  0.332601  0.183763  0.787766  1
  O  O10  1  0.304210  0.087965  0.600199  1
  O  O11  1  0.695790  0.587965  0.899801  1
  O  O12  1  0.656551  0.355671  0.466554  1
  O  O13  1  0.343449  0.855671  0.033446  1
  O  O14  1  0.343449  0.644329  0.533446  1
  O  O15  1  0.656551  0.144329  0.966554  1
  O  O16  1  0.043560  0.363289  0.311070  1
  O  O17  1  0.956440  0.863289  0.188930  1
  O  O18  1  0.956440  0.636711  0.688930  1
  O  O19  1  0.043560  0.136711  0.811070  1
  O  O20  1  0.316622  0.133567  0.228938  1
  O  O21  1  0.683378  0.633567  0.271062  1
  O  O22  1  0.683378  0.866433  0.771062  1
  O  O23  1  0.316622  0.366433  0.728938  1
  O  O24  1  0.304210  0.412035  0.100199  1
  O  O25  1  0.695790  0.912035  0.399801  1
