# generated using pymatgen
data_ScCoGe2
_symmetry_space_group_name_H-M   'P 1'
_cell_length_a   7.97048942
_cell_length_b   9.19316911
_cell_length_c   10.12956575
_cell_angle_alpha   90.00000000
_cell_angle_beta   90.00000000
_cell_angle_gamma   90.00000000
_symmetry_Int_Tables_number   1
_chemical_formula_structural   ScCoGe2
_chemical_formula_sum   'Sc12 Co12 Ge24'
_cell_volume   742.23437944
_cell_formula_units_Z   12
loop_
 _symmetry_equiv_pos_site_id
 _symmetry_equiv_pos_as_xyz
  1  'x, y, z'
loop_
 _atom_site_type_symbol
 _atom_site_label
 _atom_site_symmetry_multiplicity
 _atom_site_fract_x
 _atom_site_fract_y
 _atom_site_fract_z
 _atom_site_occupancy
  Sc  Sc0  1  0.000000  0.335693  0.322088  1
  Sc  Sc1  1  0.000000  0.664307  0.677912  1
  Sc  Sc2  1  0.000000  0.835693  0.177912  1
  Sc  Sc3  1  0.000000  0.164307  0.822088  1
  Sc  Sc4  1  0.238114  0.674142  0.951983  1
  Sc  Sc5  1  0.238114  0.325858  0.048017  1
  Sc  Sc6  1  0.761886  0.174142  0.548017  1
  Sc  Sc7  1  0.761886  0.825858  0.451983  1
  Sc  Sc8  1  0.761886  0.325858  0.048017  1
  Sc  Sc9  1  0.761886  0.674142  0.951983  1
  Sc  Sc10  1  0.238114  0.825858  0.451983  1
  Sc  Sc11  1  0.238114  0.174142  0.548017  1
  Co  Co12  1  0.752573  0.000000  0.000000  1
  Co  Co13  1  0.247427  0.500000  0.500000  1
  Co  Co14  1  0.247427  0.000000  0.000000  1
  Co  Co15  1  0.752573  0.500000  0.500000  1
  Co  Co16  1  0.253242  0.089673  0.254043  1
  Co  Co17  1  0.253242  0.910327  0.745957  1
  Co  Co18  1  0.746758  0.589673  0.245957  1
  Co  Co19  1  0.746758  0.410327  0.754043  1
  Co  Co20  1  0.746758  0.910327  0.745957  1
  Co  Co21  1  0.746758  0.089673  0.254043  1
  Co  Co22  1  0.253242  0.410327  0.754043  1
  Co  Co23  1  0.253242  0.589673  0.245957  1
  Ge  Ge24  1  0.500000  0.541987  0.123112  1
  Ge  Ge25  1  0.500000  0.458013  0.876888  1
  Ge  Ge26  1  0.500000  0.041987  0.376888  1
  Ge  Ge27  1  0.500000  0.958013  0.623112  1
  Ge  Ge28  1  0.000000  0.040679  0.376273  1
  Ge  Ge29  1  0.000000  0.959321  0.623727  1
  Ge  Ge30  1  0.000000  0.540679  0.123727  1
  Ge  Ge31  1  0.000000  0.459321  0.876273  1
  Ge  Ge32  1  0.500000  0.127148  0.095812  1
  Ge  Ge33  1  0.500000  0.872852  0.904188  1
  Ge  Ge34  1  0.500000  0.627148  0.404188  1
  Ge  Ge35  1  0.500000  0.372852  0.595812  1
  Ge  Ge36  1  0.656783  0.341745  0.319340  1
  Ge  Ge37  1  0.656783  0.658255  0.680660  1
  Ge  Ge38  1  0.343217  0.841745  0.180660  1
  Ge  Ge39  1  0.343217  0.158255  0.819340  1
  Ge  Ge40  1  0.343217  0.658255  0.680660  1
  Ge  Ge41  1  0.343217  0.341745  0.319340  1
  Ge  Ge42  1  0.656783  0.158255  0.819340  1
  Ge  Ge43  1  0.656783  0.841745  0.180660  1
  Ge  Ge44  1  0.000000  0.373635  0.603660  1
  Ge  Ge45  1  0.000000  0.626365  0.396340  1
  Ge  Ge46  1  0.000000  0.873635  0.896340  1
  Ge  Ge47  1  0.000000  0.126365  0.103660  1
