# generated using pymatgen
data_RbZn2P2HO8
_symmetry_space_group_name_H-M   'P 1'
_cell_length_a   5.32866732
_cell_length_b   8.98167832
_cell_length_c   9.88787009
_cell_angle_alpha   75.27853095
_cell_angle_beta   77.57475718
_cell_angle_gamma   73.55920588
_symmetry_Int_Tables_number   1
_chemical_formula_structural   RbZn2P2HO8
_chemical_formula_sum   'Rb2 Zn4 P4 H2 O16'
_cell_volume   433.72237302
_cell_formula_units_Z   2
loop_
 _symmetry_equiv_pos_site_id
 _symmetry_equiv_pos_as_xyz
  1  'x, y, z'
loop_
 _atom_site_type_symbol
 _atom_site_label
 _atom_site_symmetry_multiplicity
 _atom_site_fract_x
 _atom_site_fract_y
 _atom_site_fract_z
 _atom_site_occupancy
  Rb  Rb0  1  0.708513  0.704868  0.822889  1
  Rb  Rb1  1  0.291487  0.295132  0.177111  1
  Zn  Zn2  1  0.809057  0.887943  0.388573  1
  Zn  Zn3  1  0.190943  0.112057  0.611427  1
  Zn  Zn4  1  0.610719  0.616942  0.272945  1
  Zn  Zn5  1  0.389281  0.383058  0.727055  1
  P  P6  1  0.105275  0.753845  0.112507  1
  P  P7  1  0.894725  0.246155  0.887493  1
  P  P8  1  0.669278  0.243766  0.449916  1
  P  P9  1  0.330722  0.756234  0.550084  1
  H  H10  1  0.059589  0.924506  0.902393  1
  H  H11  1  0.940411  0.075494  0.097607  1
  O  O12  1  0.967658  0.898263  0.183959  1
  O  O13  1  0.032342  0.101737  0.816041  1
  O  O14  1  0.066807  0.808806  0.949819  1
  O  O15  1  0.933193  0.191194  0.050181  1
  O  O16  1  0.643943  0.111157  0.383605  1
  O  O17  1  0.356057  0.888843  0.616395  1
  O  O18  1  0.952220  0.224961  0.476058  1
  O  O19  1  0.047780  0.775039  0.523942  1
  O  O20  1  0.594937  0.298528  0.885386  1
  O  O21  1  0.405063  0.701472  0.114614  1
  O  O22  1  0.425964  0.597451  0.650098  1
  O  O23  1  0.574036  0.402549  0.349902  1
  O  O24  1  0.469863  0.234213  0.595617  1
  O  O25  1  0.530137  0.765787  0.404383  1
  O  O26  1  0.024598  0.385977  0.824938  1
  O  O27  1  0.975402  0.614023  0.175062  1
