# generated using pymatgen
data_Th2Se5
_symmetry_space_group_name_H-M   'P 1'
_cell_length_a   8.00864364
_cell_length_b   8.02505226
_cell_length_c   10.78534768
_cell_angle_alpha   90.00000000
_cell_angle_beta   90.00000000
_cell_angle_gamma   90.00000000
_symmetry_Int_Tables_number   1
_chemical_formula_structural   Th2Se5
_chemical_formula_sum   'Th8 Se20'
_cell_volume   693.17196298
_cell_formula_units_Z   4
loop_
 _symmetry_equiv_pos_site_id
 _symmetry_equiv_pos_as_xyz
  1  'x, y, z'
loop_
 _atom_site_type_symbol
 _atom_site_label
 _atom_site_symmetry_multiplicity
 _atom_site_fract_x
 _atom_site_fract_y
 _atom_site_fract_z
 _atom_site_occupancy
  Th  Th0  1  0.757577  0.491752  0.852563  1
  Th  Th1  1  0.742423  0.991752  0.647437  1
  Th  Th2  1  0.257577  0.508248  0.647437  1
  Th  Th3  1  0.242423  0.008248  0.852563  1
  Th  Th4  1  0.242423  0.508248  0.147437  1
  Th  Th5  1  0.257577  0.008248  0.352563  1
  Th  Th6  1  0.742423  0.491752  0.352563  1
  Th  Th7  1  0.757577  0.991752  0.147437  1
  Se  Se8  1  0.629563  0.120900  0.393392  1
  Se  Se9  1  0.870437  0.620900  0.106608  1
  Se  Se10  1  0.129563  0.879100  0.106608  1
  Se  Se11  1  0.370437  0.379100  0.393392  1
  Se  Se12  1  0.370437  0.879100  0.606608  1
  Se  Se13  1  0.129563  0.379100  0.893392  1
  Se  Se14  1  0.870437  0.120900  0.893392  1
  Se  Se15  1  0.629563  0.620900  0.606608  1
  Se  Se16  1  0.113944  0.635213  0.396691  1
  Se  Se17  1  0.386056  0.135213  0.103309  1
  Se  Se18  1  0.613944  0.364787  0.103309  1
  Se  Se19  1  0.886056  0.864787  0.396691  1
  Se  Se20  1  0.886056  0.364787  0.603309  1
  Se  Se21  1  0.613944  0.864787  0.896691  1
  Se  Se22  1  0.386056  0.635213  0.896691  1
  Se  Se23  1  0.113944  0.135213  0.603309  1
  Se  Se24  1  0.000000  0.250000  0.247977  1
  Se  Se25  1  0.500000  0.750000  0.252023  1
  Se  Se26  1  0.000000  0.750000  0.752023  1
  Se  Se27  1  0.500000  0.250000  0.747977  1
