# generated using pymatgen
data_LaTiO3
_symmetry_space_group_name_H-M   'P 1'
_cell_length_a   5.56856009
_cell_length_b   5.67329718
_cell_length_c   7.93828829
_cell_angle_alpha   90.00000000
_cell_angle_beta   90.00000000
_cell_angle_gamma   90.00000000
_symmetry_Int_Tables_number   1
_chemical_formula_structural   LaTiO3
_chemical_formula_sum   'La4 Ti4 O12'
_cell_volume   250.78716776
_cell_formula_units_Z   4
loop_
 _symmetry_equiv_pos_site_id
 _symmetry_equiv_pos_as_xyz
  1  'x, y, z'
loop_
 _atom_site_type_symbol
 _atom_site_label
 _atom_site_symmetry_multiplicity
 _atom_site_fract_x
 _atom_site_fract_y
 _atom_site_fract_z
 _atom_site_occupancy
  La  La0  1  0.007558  0.952631  0.750000  1
  La  La1  1  0.492442  0.452631  0.750000  1
  La  La2  1  0.507558  0.547369  0.250000  1
  La  La3  1  0.992442  0.047369  0.250000  1
  Ti  Ti4  1  0.000000  0.500000  0.500000  1
  Ti  Ti5  1  0.500000  0.000000  0.000000  1
  Ti  Ti6  1  0.500000  0.000000  0.500000  1
  Ti  Ti7  1  0.000000  0.500000  0.000000  1
  O  O8  1  0.708517  0.289218  0.463156  1
  O  O9  1  0.791483  0.789218  0.036844  1
  O  O10  1  0.208517  0.210782  0.536844  1
  O  O11  1  0.291483  0.710782  0.963156  1
  O  O12  1  0.291483  0.710782  0.536844  1
  O  O13  1  0.208517  0.210782  0.963156  1
  O  O14  1  0.791483  0.789218  0.463156  1
  O  O15  1  0.708517  0.289218  0.036844  1
  O  O16  1  0.068557  0.486731  0.250000  1
  O  O17  1  0.431443  0.986731  0.250000  1
  O  O18  1  0.568557  0.013269  0.750000  1
  O  O19  1  0.931443  0.513269  0.750000  1
