# generated using pymatgen
data_LiNiO2
_symmetry_space_group_name_H-M   'P 1'
_cell_length_a   5.49428186
_cell_length_b   5.49428186
_cell_length_c   5.49428186
_cell_angle_alpha   151.60603025
_cell_angle_beta   145.07891657
_cell_angle_gamma   45.60187884
_symmetry_Int_Tables_number   1
_chemical_formula_structural   LiNiO2
_chemical_formula_sum   'Li1 Ni1 O2'
_cell_volume   45.00581496
_cell_formula_units_Z   1
loop_
 _symmetry_equiv_pos_site_id
 _symmetry_equiv_pos_as_xyz
  1  'x, y, z'
loop_
 _atom_site_type_symbol
 _atom_site_label
 _atom_site_symmetry_multiplicity
 _atom_site_fract_x
 _atom_site_fract_y
 _atom_site_fract_z
 _atom_site_occupancy
  Li  Li0  1  0.271753  0.271753  0.000000  1
  Ni  Ni1  1  0.007275  0.007275  0.000000  1
  O  O2  1  0.883619  0.383619  0.500000  1
  O  O3  1  0.130353  0.630353  0.500000  1
