# generated using pymatgen
data_K4Cu8Te11
_symmetry_space_group_name_H-M   'P 1'
_cell_length_a   12.65838415
_cell_length_b   12.65838415
_cell_length_c   18.60876014
_cell_angle_alpha   57.04783819
_cell_angle_beta   122.95216181
_cell_angle_gamma   148.62840032
_symmetry_Int_Tables_number   1
_chemical_formula_structural   K4Cu8Te11
_chemical_formula_sum   'K8 Cu16 Te22'
_cell_volume   1280.78487572
_cell_formula_units_Z   2
loop_
 _symmetry_equiv_pos_site_id
 _symmetry_equiv_pos_as_xyz
  1  'x, y, z'
loop_
 _atom_site_type_symbol
 _atom_site_label
 _atom_site_symmetry_multiplicity
 _atom_site_fract_x
 _atom_site_fract_y
 _atom_site_fract_z
 _atom_site_occupancy
  K  K0  1  0.249956  0.750044  0.912007  1
  K  K1  1  0.750044  0.249956  0.087993  1
  K  K2  1  0.145876  0.854124  0.527186  1
  K  K3  1  0.854124  0.145876  0.472814  1
  K  K4  1  0.625559  0.374441  0.667984  1
  K  K5  1  0.374441  0.625559  0.332016  1
  K  K6  1  0.436245  0.563755  0.777498  1
  K  K7  1  0.563755  0.436245  0.222502  1
  Cu  Cu8  1  0.935887  0.679772  0.117820  1
  Cu  Cu9  1  0.679772  0.935887  0.882180  1
  Cu  Cu10  1  0.064113  0.320228  0.882180  1
  Cu  Cu11  1  0.320228  0.064113  0.117820  1
  Cu  Cu12  1  0.728649  0.886113  0.057576  1
  Cu  Cu13  1  0.886113  0.728649  0.942424  1
  Cu  Cu14  1  0.271351  0.113887  0.942424  1
  Cu  Cu15  1  0.113887  0.271351  0.057576  1
  Cu  Cu16  1  0.393902  0.985756  0.387711  1
  Cu  Cu17  1  0.985756  0.393902  0.612289  1
  Cu  Cu18  1  0.606098  0.014244  0.612289  1
  Cu  Cu19  1  0.014244  0.606098  0.387711  1
  Cu  Cu20  1  0.803733  0.789365  0.336462  1
  Cu  Cu21  1  0.789365  0.803733  0.663538  1
  Cu  Cu22  1  0.210635  0.196267  0.336462  1
  Cu  Cu23  1  0.196267  0.210635  0.663538  1
  Te  Te24  1  0.187494  0.812506  0.056765  1
  Te  Te25  1  0.812506  0.187494  0.943235  1
  Te  Te26  1  0.042580  0.957420  0.594603  1
  Te  Te27  1  0.957420  0.042580  0.405397  1
  Te  Te28  1  0.516861  0.062761  0.273651  1
  Te  Te29  1  0.062761  0.516861  0.726349  1
  Te  Te30  1  0.483139  0.937239  0.726349  1
  Te  Te31  1  0.937239  0.483139  0.273651  1
  Te  Te32  1  0.301227  0.698773  0.531846  1
  Te  Te33  1  0.698773  0.301227  0.468154  1
  Te  Te34  1  0.432086  0.567914  0.561924  1
  Te  Te35  1  0.567914  0.432086  0.438076  1
  Te  Te36  1  0.615371  0.802555  0.180855  1
  Te  Te37  1  0.802555  0.615371  0.819145  1
  Te  Te38  1  0.384629  0.197445  0.819145  1
  Te  Te39  1  0.197445  0.384629  0.180855  1
  Te  Te40  1  0.567111  0.432889  0.019037  1
  Te  Te41  1  0.432889  0.567111  0.980963  1
  Te  Te42  1  0.909706  0.090294  0.688611  1
  Te  Te43  1  0.090294  0.909706  0.311389  1
  Te  Te44  1  0.963907  0.036093  0.875088  1
  Te  Te45  1  0.036093  0.963907  0.124912  1
