# generated using pymatgen
data_LaFeGe2O7
_symmetry_space_group_name_H-M   'P 1'
_cell_length_a   7.42080676
_cell_length_b   6.72827804
_cell_length_c   13.24634405
_cell_angle_alpha   90.00000000
_cell_angle_beta   117.29718756
_cell_angle_gamma   90.00000000
_symmetry_Int_Tables_number   1
_chemical_formula_structural   LaFeGe2O7
_chemical_formula_sum   'La4 Fe4 Ge8 O28'
_cell_volume   587.72858935
_cell_formula_units_Z   4
loop_
 _symmetry_equiv_pos_site_id
 _symmetry_equiv_pos_as_xyz
  1  'x, y, z'
loop_
 _atom_site_type_symbol
 _atom_site_label
 _atom_site_symmetry_multiplicity
 _atom_site_fract_x
 _atom_site_fract_y
 _atom_site_fract_z
 _atom_site_occupancy
  La  La0  1  0.758426  0.646719  0.524044  1
  La  La1  1  0.241574  0.146719  0.975956  1
  La  La2  1  0.241574  0.353281  0.475956  1
  La  La3  1  0.758426  0.853281  0.024044  1
  Fe  Fe4  1  0.787014  0.897311  0.768103  1
  Fe  Fe5  1  0.787014  0.602689  0.268103  1
  Fe  Fe6  1  0.212986  0.102689  0.231897  1
  Fe  Fe7  1  0.212986  0.397311  0.731897  1
  Ge  Ge8  1  0.214516  0.657435  0.958745  1
  Ge  Ge9  1  0.297734  0.909027  0.719198  1
  Ge  Ge10  1  0.214516  0.842565  0.458745  1
  Ge  Ge11  1  0.785484  0.342565  0.041255  1
  Ge  Ge12  1  0.702266  0.090973  0.280802  1
  Ge  Ge13  1  0.297734  0.590973  0.219198  1
  Ge  Ge14  1  0.702266  0.409027  0.780802  1
  Ge  Ge15  1  0.785484  0.157435  0.541255  1
  O  O16  1  0.156085  0.686162  0.686821  1
  O  O17  1  0.843915  0.186162  0.813179  1
  O  O18  1  0.843915  0.313838  0.313179  1
  O  O19  1  0.156085  0.813838  0.186821  1
  O  O20  1  0.793740  0.953252  0.626523  1
  O  O21  1  0.206260  0.453252  0.873477  1
  O  O22  1  0.206260  0.046748  0.373477  1
  O  O23  1  0.793740  0.546748  0.126523  1
  O  O24  1  0.747543  0.495130  0.921485  1
  O  O25  1  0.252457  0.995130  0.578515  1
  O  O26  1  0.252457  0.504870  0.078515  1
  O  O27  1  0.747543  0.004870  0.421485  1
  O  O28  1  0.010159  0.832714  0.921055  1
  O  O29  1  0.989841  0.332714  0.578945  1
  O  O30  1  0.989841  0.167286  0.078945  1
  O  O31  1  0.010159  0.667286  0.421055  1
  O  O32  1  0.590917  0.177215  0.016950  1
  O  O33  1  0.409083  0.677215  0.483050  1
  O  O34  1  0.409083  0.822785  0.983050  1
  O  O35  1  0.590917  0.322785  0.516950  1
  O  O36  1  0.778965  0.893342  0.221136  1
  O  O37  1  0.221035  0.393342  0.278864  1
  O  O38  1  0.221035  0.106658  0.778864  1
  O  O39  1  0.778965  0.606658  0.721136  1
  O  O40  1  0.563150  0.626306  0.303190  1
  O  O41  1  0.436850  0.126306  0.196810  1
  O  O42  1  0.436850  0.373694  0.696810  1
  O  O43  1  0.563150  0.873694  0.803190  1
