# generated using pymatgen
data_Zn(InSe2)2
_symmetry_space_group_name_H-M   'P 1'
_cell_length_a   7.15963019
_cell_length_b   7.15963019
_cell_length_c   7.15963019
_cell_angle_alpha   131.99913563
_cell_angle_beta   131.99913563
_cell_angle_gamma   70.23039207
_symmetry_Int_Tables_number   1
_chemical_formula_structural   Zn(InSe2)2
_chemical_formula_sum   'Zn1 In2 Se4'
_cell_volume   198.66661297
_cell_formula_units_Z   1
loop_
 _symmetry_equiv_pos_site_id
 _symmetry_equiv_pos_as_xyz
  1  'x, y, z'
loop_
 _atom_site_type_symbol
 _atom_site_label
 _atom_site_symmetry_multiplicity
 _atom_site_fract_x
 _atom_site_fract_y
 _atom_site_fract_z
 _atom_site_occupancy
  Zn  Zn0  1  0.000000  0.000000  0.000000  1
  In  In1  1  0.500000  0.500000  0.000000  1
  In  In2  1  0.250000  0.750000  0.500000  1
  Se  Se3  1  0.392046  0.912490  0.043084  1
  Se  Se4  1  0.869406  0.348962  0.956916  1
  Se  Se5  1  0.087510  0.130594  0.479556  1
  Se  Se6  1  0.651038  0.607954  0.520444  1
