# generated using pymatgen
data_RbTlF4
_symmetry_space_group_name_H-M   'P 1'
_cell_length_a   6.45444436
_cell_length_b   8.47228643
_cell_length_c   8.56395919
_cell_angle_alpha   90.00000000
_cell_angle_beta   90.00000000
_cell_angle_gamma   90.00000000
_symmetry_Int_Tables_number   1
_chemical_formula_structural   RbTlF4
_chemical_formula_sum   'Rb4 Tl4 F16'
_cell_volume   468.31069963
_cell_formula_units_Z   4
loop_
 _symmetry_equiv_pos_site_id
 _symmetry_equiv_pos_as_xyz
  1  'x, y, z'
loop_
 _atom_site_type_symbol
 _atom_site_label
 _atom_site_symmetry_multiplicity
 _atom_site_fract_x
 _atom_site_fract_y
 _atom_site_fract_z
 _atom_site_occupancy
  Rb  Rb0  1  0.490775  0.189937  0.750000  1
  Rb  Rb1  1  0.509225  0.810063  0.250000  1
  Rb  Rb2  1  0.509225  0.689937  0.750000  1
  Rb  Rb3  1  0.490775  0.310063  0.250000  1
  Tl  Tl4  1  0.000000  0.000000  0.000000  1
  Tl  Tl5  1  0.000000  0.000000  0.500000  1
  Tl  Tl6  1  0.000000  0.500000  0.000000  1
  Tl  Tl7  1  0.000000  0.500000  0.500000  1
  F  F8  1  0.700848  0.424344  0.564981  1
  F  F9  1  0.299152  0.575656  0.064981  1
  F  F10  1  0.299152  0.924344  0.564981  1
  F  F11  1  0.700848  0.075656  0.064981  1
  F  F12  1  0.299152  0.575656  0.435019  1
  F  F13  1  0.700848  0.424344  0.935019  1
  F  F14  1  0.700848  0.075656  0.435019  1
  F  F15  1  0.299152  0.924344  0.935019  1
  F  F16  1  0.133067  0.250000  0.000000  1
  F  F17  1  0.866933  0.750000  0.500000  1
  F  F18  1  0.866933  0.750000  0.000000  1
  F  F19  1  0.133067  0.250000  0.500000  1
  F  F20  1  0.888874  0.024647  0.750000  1
  F  F21  1  0.111126  0.975353  0.250000  1
  F  F22  1  0.111126  0.524647  0.750000  1
  F  F23  1  0.888874  0.475353  0.250000  1
