# generated using pymatgen
data_In4Bi2S9
_symmetry_space_group_name_H-M   'P 1'
_cell_length_a   11.32089429
_cell_length_b   3.97783772
_cell_length_c   16.53421495
_cell_angle_alpha   90.00000000
_cell_angle_beta   94.23048437
_cell_angle_gamma   90.00000000
_symmetry_Int_Tables_number   1
_chemical_formula_structural   In4Bi2S9
_chemical_formula_sum   'In8 Bi4 S18'
_cell_volume   742.55131041
_cell_formula_units_Z   2
loop_
 _symmetry_equiv_pos_site_id
 _symmetry_equiv_pos_as_xyz
  1  'x, y, z'
loop_
 _atom_site_type_symbol
 _atom_site_label
 _atom_site_symmetry_multiplicity
 _atom_site_fract_x
 _atom_site_fract_y
 _atom_site_fract_z
 _atom_site_occupancy
  In  In0  1  0.493502  0.250000  0.595145  1
  In  In1  1  0.265794  0.250000  0.919414  1
  In  In2  1  0.506498  0.750000  0.404855  1
  In  In3  1  0.734206  0.750000  0.080586  1
  In  In4  1  0.510189  0.750000  0.787841  1
  In  In5  1  0.858433  0.250000  0.316144  1
  In  In6  1  0.141567  0.750000  0.683856  1
  In  In7  1  0.489811  0.250000  0.212159  1
  Bi  Bi8  1  0.131588  0.750000  0.425133  1
  Bi  Bi9  1  0.895869  0.250000  0.902102  1
  Bi  Bi10  1  0.868412  0.250000  0.574867  1
  Bi  Bi11  1  0.104131  0.750000  0.097898  1
  S  S12  1  0.373770  0.250000  0.454950  1
  S  S13  1  0.092860  0.250000  0.315709  1
  S  S14  1  0.626230  0.750000  0.545050  1
  S  S15  1  0.412257  0.750000  0.916498  1
  S  S16  1  0.898254  0.750000  0.434130  1
  S  S17  1  0.087007  0.750000  0.940453  1
  S  S18  1  0.366856  0.750000  0.658549  1
  S  S19  1  0.853431  0.750000  0.217519  1
  S  S20  1  0.620912  0.250000  0.741886  1
  S  S21  1  0.587743  0.250000  0.083502  1
  S  S22  1  0.146569  0.250000  0.782481  1
  S  S23  1  0.912993  0.250000  0.059547  1
  S  S24  1  0.265790  0.250000  0.077887  1
  S  S25  1  0.379088  0.750000  0.258114  1
  S  S26  1  0.907140  0.750000  0.684291  1
  S  S27  1  0.633144  0.250000  0.341451  1
  S  S28  1  0.101746  0.250000  0.565870  1
  S  S29  1  0.734210  0.750000  0.922113  1
