# generated using pymatgen
data_AsS3(ClF2)3
_symmetry_space_group_name_H-M   'P 1'
_cell_length_a   7.82990377
_cell_length_b   8.45469534
_cell_length_c   10.34861694
_cell_angle_alpha   80.83597354
_cell_angle_beta   112.10423690
_cell_angle_gamma   115.88136079
_symmetry_Int_Tables_number   1
_chemical_formula_structural   AsS3(ClF2)3
_chemical_formula_sum   'As2 S6 Cl6 F12'
_cell_volume   571.04764619
_cell_formula_units_Z   2
loop_
 _symmetry_equiv_pos_site_id
 _symmetry_equiv_pos_as_xyz
  1  'x, y, z'
loop_
 _atom_site_type_symbol
 _atom_site_label
 _atom_site_symmetry_multiplicity
 _atom_site_fract_x
 _atom_site_fract_y
 _atom_site_fract_z
 _atom_site_occupancy
  As  As0  1  0.788554  0.745631  0.750571  1
  As  As1  1  0.211446  0.254369  0.249429  1
  S  S2  1  0.541445  0.221960  0.021335  1
  S  S3  1  0.346897  0.843112  0.082130  1
  S  S4  1  0.099066  0.325643  0.607389  1
  S  S5  1  0.900934  0.674357  0.392611  1
  S  S6  1  0.458555  0.778040  0.978665  1
  S  S7  1  0.653103  0.156888  0.917870  1
  Cl  Cl8  1  0.178934  0.717843  0.519090  1
  Cl  Cl9  1  0.500625  0.843159  0.293439  1
  Cl  Cl10  1  0.821066  0.282157  0.480910  1
  Cl  Cl11  1  0.100122  0.343929  0.796789  1
  Cl  Cl12  1  0.499375  0.156841  0.706561  1
  Cl  Cl13  1  0.899878  0.656071  0.203211  1
  F  F14  1  0.697419  0.866603  0.605320  1
  F  F15  1  0.534821  0.609866  0.742672  1
  F  F16  1  0.041181  0.881052  0.759606  1
  F  F17  1  0.228159  0.400573  0.364087  1
  F  F18  1  0.465179  0.390134  0.257328  1
  F  F19  1  0.958819  0.118948  0.240394  1
  F  F20  1  0.771841  0.599427  0.635913  1
  F  F21  1  0.876709  0.622776  0.896315  1
  F  F22  1  0.195416  0.108735  0.134830  1
  F  F23  1  0.123291  0.377224  0.103685  1
  F  F24  1  0.302581  0.133397  0.394680  1
  F  F25  1  0.804584  0.891265  0.865170  1
