# generated using pymatgen
data_NdMnO3
_symmetry_space_group_name_H-M   'P 1'
_cell_length_a   5.50227764
_cell_length_b   5.92061506
_cell_length_c   7.66844653
_cell_angle_alpha   90.00000000
_cell_angle_beta   90.00000000
_cell_angle_gamma   90.00000000
_symmetry_Int_Tables_number   1
_chemical_formula_structural   NdMnO3
_chemical_formula_sum   'Nd4 Mn4 O12'
_cell_volume   249.81396930
_cell_formula_units_Z   4
loop_
 _symmetry_equiv_pos_site_id
 _symmetry_equiv_pos_as_xyz
  1  'x, y, z'
loop_
 _atom_site_type_symbol
 _atom_site_label
 _atom_site_symmetry_multiplicity
 _atom_site_fract_x
 _atom_site_fract_y
 _atom_site_fract_z
 _atom_site_occupancy
  Nd  Nd0  1  0.515423  0.427873  0.250000  1
  Nd  Nd1  1  0.984577  0.927873  0.250000  1
  Nd  Nd2  1  0.484577  0.572127  0.750000  1
  Nd  Nd3  1  0.015423  0.072127  0.750000  1
  Mn  Mn4  1  0.000000  0.500000  0.000000  1
  Mn  Mn5  1  0.500000  0.000000  0.500000  1
  Mn  Mn6  1  0.000000  0.500000  0.500000  1
  Mn  Mn7  1  0.500000  0.000000  0.000000  1
  O  O8  1  0.402000  0.027222  0.250000  1
  O  O9  1  0.098000  0.527222  0.250000  1
  O  O10  1  0.598000  0.972778  0.750000  1
  O  O11  1  0.902000  0.472778  0.750000  1
  O  O12  1  0.786831  0.183599  0.048697  1
  O  O13  1  0.713169  0.683599  0.451303  1
  O  O14  1  0.213169  0.816401  0.548697  1
  O  O15  1  0.286831  0.316401  0.951303  1
  O  O16  1  0.213169  0.816401  0.951303  1
  O  O17  1  0.286831  0.316401  0.548697  1
  O  O18  1  0.786831  0.183599  0.451303  1
  O  O19  1  0.713169  0.683599  0.048697  1
