# generated using pymatgen
data_CaB2H10O9
_symmetry_space_group_name_H-M   'P 1'
_cell_length_a   6.52898505
_cell_length_b   7.82636881
_cell_length_c   8.13254280
_cell_angle_alpha   69.07153880
_cell_angle_beta   68.43495907
_cell_angle_gamma   73.78843754
_symmetry_Int_Tables_number   1
_chemical_formula_structural   CaB2H10O9
_chemical_formula_sum   'Ca2 B4 H20 O18'
_cell_volume   355.70312206
_cell_formula_units_Z   2
loop_
 _symmetry_equiv_pos_site_id
 _symmetry_equiv_pos_as_xyz
  1  'x, y, z'
loop_
 _atom_site_type_symbol
 _atom_site_label
 _atom_site_symmetry_multiplicity
 _atom_site_fract_x
 _atom_site_fract_y
 _atom_site_fract_z
 _atom_site_occupancy
  Ca  Ca0  1  0.595384  0.002569  0.235987  1
  Ca  Ca1  1  0.404616  0.997431  0.764013  1
  B  B2  1  0.849802  0.997488  0.792564  1
  B  B3  1  0.150198  0.002512  0.207436  1
  B  B4  1  0.624342  0.320734  0.841861  1
  B  B5  1  0.375658  0.679266  0.158139  1
  H  H6  1  0.194916  0.569452  0.522621  1
  H  H7  1  0.762256  0.491465  0.274236  1
  H  H8  1  0.237744  0.508535  0.725764  1
  H  H9  1  0.805084  0.430548  0.477379  1
  H  H10  1  0.121819  0.519566  0.307375  1
  H  H11  1  0.709760  0.694661  0.048906  1
  H  H12  1  0.101994  0.075344  0.557314  1
  H  H13  1  0.898006  0.924656  0.442686  1
  H  H14  1  0.993057  0.177635  0.007319  1
  H  H15  1  0.006943  0.822365  0.992681  1
  H  H16  1  0.910778  0.768633  0.700252  1
  H  H17  1  0.878181  0.480434  0.692625  1
  H  H18  1  0.323996  0.599471  0.960017  1
  H  H19  1  0.676004  0.400529  0.039983  1
  H  H20  1  0.351319  0.747234  0.577540  1
  H  H21  1  0.648681  0.252766  0.422460  1
  H  H22  1  0.590677  0.673550  0.604194  1
  H  H23  1  0.409323  0.326450  0.395806  1
  H  H24  1  0.290240  0.305339  0.951094  1
  H  H25  1  0.089222  0.231367  0.299748  1
  O  O26  1  0.197506  0.114029  0.302376  1
  O  O27  1  0.139615  0.592195  0.647558  1
  O  O28  1  0.068265  0.058438  0.690449  1
  O  O29  1  0.931735  0.941562  0.309551  1
  O  O30  1  0.145853  0.118869  0.015929  1
  O  O31  1  0.854147  0.881131  0.984071  1
  O  O32  1  0.509862  0.209215  0.443575  1
  O  O33  1  0.802494  0.885971  0.697624  1
  O  O34  1  0.346746  0.854887  0.194343  1
  O  O35  1  0.653254  0.145113  0.805657  1
  O  O36  1  0.860385  0.407805  0.352442  1
  O  O37  1  0.705477  0.285140  0.002980  1
  O  O38  1  0.259650  0.534214  0.320017  1
  O  O39  1  0.740350  0.465786  0.679983  1
  O  O40  1  0.382030  0.405412  0.879298  1
  O  O41  1  0.617970  0.594588  0.120702  1
  O  O42  1  0.490138  0.790785  0.556425  1
  O  O43  1  0.294523  0.714860  0.997020  1
