# generated using pymatgen
data_LaNi5H7
_symmetry_space_group_name_H-M   'P 1'
_cell_length_a   5.34802031
_cell_length_b   5.34802031
_cell_length_c   8.58551337
_cell_angle_alpha   90.00000000
_cell_angle_beta   90.00000000
_cell_angle_gamma   120.00000000
_symmetry_Int_Tables_number   1
_chemical_formula_structural   LaNi5H7
_chemical_formula_sum   'La2 Ni10 H14'
_cell_volume   212.65862217
_cell_formula_units_Z   2
loop_
 _symmetry_equiv_pos_site_id
 _symmetry_equiv_pos_as_xyz
  1  'x, y, z'
loop_
 _atom_site_type_symbol
 _atom_site_label
 _atom_site_symmetry_multiplicity
 _atom_site_fract_x
 _atom_site_fract_y
 _atom_site_fract_z
 _atom_site_occupancy
  La  La0  1  0.000000  0.000000  0.474850  1
  La  La1  1  0.000000  0.000000  0.974850  1
  Ni  Ni2  1  0.499932  0.500068  0.250158  1
  Ni  Ni3  1  0.000136  0.500068  0.250158  1
  Ni  Ni4  1  0.499932  0.999864  0.250158  1
  Ni  Ni5  1  0.500068  0.499932  0.750158  1
  Ni  Ni6  1  0.999864  0.499932  0.750158  1
  Ni  Ni7  1  0.500068  0.000136  0.750158  1
  Ni  Ni8  1  0.333333  0.666667  0.496584  1
  Ni  Ni9  1  0.666667  0.333333  0.996584  1
  Ni  Ni10  1  0.333333  0.666667  0.018501  1
  Ni  Ni11  1  0.666667  0.333333  0.518501  1
  H  H12  1  0.505118  0.494882  0.443197  1
  H  H13  1  0.989764  0.494882  0.443197  1
  H  H14  1  0.505118  0.010236  0.443197  1
  H  H15  1  0.494882  0.505118  0.943197  1
  H  H16  1  0.010236  0.505118  0.943197  1
  H  H17  1  0.494882  0.989764  0.943197  1
  H  H18  1  0.333333  0.666667  0.684492  1
  H  H19  1  0.666667  0.333333  0.184492  1
  H  H20  1  0.154521  0.845479  0.220135  1
  H  H21  1  0.690958  0.845479  0.220135  1
  H  H22  1  0.154521  0.309042  0.220135  1
  H  H23  1  0.845479  0.154521  0.720135  1
  H  H24  1  0.309042  0.154521  0.720135  1
  H  H25  1  0.845479  0.690958  0.720135  1
