# generated using pymatgen
data_CoReB
_symmetry_space_group_name_H-M   'P 1'
_cell_length_a   3.29159937
_cell_length_b   5.62657279
_cell_length_c   6.50772238
_cell_angle_alpha   90.00000000
_cell_angle_beta   90.00000000
_cell_angle_gamma   90.00000000
_symmetry_Int_Tables_number   1
_chemical_formula_structural   CoReB
_chemical_formula_sum   'Co4 Re4 B4'
_cell_volume   120.52577418
_cell_formula_units_Z   4
loop_
 _symmetry_equiv_pos_site_id
 _symmetry_equiv_pos_as_xyz
  1  'x, y, z'
loop_
 _atom_site_type_symbol
 _atom_site_label
 _atom_site_symmetry_multiplicity
 _atom_site_fract_x
 _atom_site_fract_y
 _atom_site_fract_z
 _atom_site_occupancy
  Co  Co0  1  0.750000  0.854526  0.555661  1
  Co  Co1  1  0.250000  0.145474  0.444339  1
  Co  Co2  1  0.750000  0.354526  0.944339  1
  Co  Co3  1  0.250000  0.645474  0.055661  1
  Re  Re4  1  0.250000  0.528890  0.671808  1
  Re  Re5  1  0.750000  0.471110  0.328192  1
  Re  Re6  1  0.250000  0.028890  0.828192  1
  Re  Re7  1  0.750000  0.971110  0.171808  1
  B  B8  1  0.250000  0.268405  0.124658  1
  B  B9  1  0.750000  0.731595  0.875342  1
  B  B10  1  0.250000  0.768405  0.375342  1
  B  B11  1  0.750000  0.231595  0.624658  1
