# generated using pymatgen
data_LaP2
_symmetry_space_group_name_H-M   'P 1'
_cell_length_a   9.40460668
_cell_length_b   9.40460668
_cell_length_c   8.84827661
_cell_angle_alpha   62.04109931
_cell_angle_beta   117.95890069
_cell_angle_gamma   83.72914530
_symmetry_Int_Tables_number   1
_chemical_formula_structural   LaP2
_chemical_formula_sum   'La8 P16'
_cell_volume   553.62085314
_cell_formula_units_Z   8
loop_
 _symmetry_equiv_pos_site_id
 _symmetry_equiv_pos_as_xyz
  1  'x, y, z'
loop_
 _atom_site_type_symbol
 _atom_site_label
 _atom_site_symmetry_multiplicity
 _atom_site_fract_x
 _atom_site_fract_y
 _atom_site_fract_z
 _atom_site_occupancy
  La  La0  1  0.831307  0.091924  0.442338  1
  La  La1  1  0.908076  0.168693  0.942338  1
  La  La2  1  0.443543  0.940930  0.501603  1
  La  La3  1  0.059070  0.556457  0.001603  1
  La  La4  1  0.516658  0.569205  0.352768  1
  La  La5  1  0.430795  0.483342  0.852768  1
  La  La6  1  0.274363  0.179780  0.696555  1
  La  La7  1  0.820220  0.725637  0.196555  1
  P  P8  1  0.452161  0.778764  0.905066  1
  P  P9  1  0.221236  0.547839  0.405066  1
  P  P10  1  0.216734  0.850594  0.896166  1
  P  P11  1  0.149406  0.783266  0.396166  1
  P  P12  1  0.034626  0.707658  0.589918  1
  P  P13  1  0.292342  0.965374  0.089918  1
  P  P14  1  0.578838  0.911299  0.251696  1
  P  P15  1  0.088701  0.421162  0.751696  1
  P  P16  1  0.803140  0.931341  0.800592  1
  P  P17  1  0.068659  0.196860  0.300592  1
  P  P18  1  0.564241  0.181196  0.599792  1
  P  P19  1  0.818804  0.435759  0.099792  1
  P  P20  1  0.695718  0.547125  0.759921  1
  P  P21  1  0.452875  0.304282  0.259921  1
  P  P22  1  0.895866  0.364578  0.545287  1
  P  P23  1  0.635422  0.104134  0.045287  1
