# generated using pymatgen
data_MnH8(ClO2)2
_symmetry_space_group_name_H-M   'P 1'
_cell_length_a   6.20306278
_cell_length_b   9.60522841
_cell_length_c   11.89835743
_cell_angle_alpha   90.00000000
_cell_angle_beta   111.73988382
_cell_angle_gamma   90.00000000
_symmetry_Int_Tables_number   1
_chemical_formula_structural   MnH8(ClO2)2
_chemical_formula_sum   'Mn4 H32 Cl8 O16'
_cell_volume   658.50358247
_cell_formula_units_Z   4
loop_
 _symmetry_equiv_pos_site_id
 _symmetry_equiv_pos_as_xyz
  1  'x, y, z'
loop_
 _atom_site_type_symbol
 _atom_site_label
 _atom_site_symmetry_multiplicity
 _atom_site_fract_x
 _atom_site_fract_y
 _atom_site_fract_z
 _atom_site_occupancy
  Mn  Mn0  1  0.252030  0.672428  0.266360  1
  Mn  Mn1  1  0.747970  0.172428  0.233640  1
  Mn  Mn2  1  0.747970  0.327572  0.733640  1
  Mn  Mn3  1  0.252030  0.827572  0.766360  1
  H  H4  1  0.996396  0.435242  0.137631  1
  H  H5  1  0.003604  0.935242  0.362369  1
  H  H6  1  0.003604  0.564758  0.862369  1
  H  H7  1  0.996396  0.064758  0.637631  1
  H  H8  1  0.864247  0.568406  0.061991  1
  H  H9  1  0.135753  0.068406  0.438009  1
  H  H10  1  0.135753  0.431594  0.938009  1
  H  H11  1  0.864247  0.931594  0.561991  1
  H  H12  1  0.473610  0.427363  0.404792  1
  H  H13  1  0.526390  0.927363  0.095208  1
  H  H14  1  0.526390  0.572637  0.595208  1
  H  H15  1  0.473610  0.072637  0.904792  1
  H  H16  1  0.206301  0.425794  0.389503  1
  H  H17  1  0.793699  0.925794  0.110497  1
  H  H18  1  0.510381  0.645130  0.115789  1
  H  H19  1  0.206301  0.074206  0.889503  1
  H  H20  1  0.826324  0.695678  0.298882  1
  H  H21  1  0.173676  0.195678  0.201118  1
  H  H22  1  0.173676  0.304322  0.701118  1
  H  H23  1  0.826324  0.804322  0.798882  1
  H  H24  1  0.026641  0.702152  0.428610  1
  H  H25  1  0.973359  0.202152  0.071390  1
  H  H26  1  0.973359  0.297848  0.571390  1
  H  H27  1  0.026641  0.797848  0.928610  1
  H  H28  1  0.568425  0.514619  0.199467  1
  H  H29  1  0.431575  0.014619  0.300533  1
  H  H30  1  0.431575  0.485381  0.800533  1
  H  H31  1  0.568425  0.985381  0.699467  1
  H  H32  1  0.510381  0.854870  0.615789  1
  H  H33  1  0.489619  0.354870  0.884211  1
  H  H34  1  0.489619  0.145130  0.384211  1
  H  H35  1  0.793699  0.574206  0.610497  1
  Cl  Cl36  1  0.150468  0.865821  0.114108  1
  Cl  Cl37  1  0.849532  0.365821  0.385892  1
  Cl  Cl38  1  0.849532  0.134179  0.885892  1
  Cl  Cl39  1  0.150468  0.634179  0.614108  1
  Cl  Cl40  1  0.530051  0.813120  0.440697  1
  Cl  Cl41  1  0.469949  0.313120  0.059303  1
  Cl  Cl42  1  0.530051  0.686880  0.940697  1
  Cl  Cl43  1  0.469949  0.186880  0.559303  1
  O  O44  1  0.000894  0.537524  0.130824  1
  O  O45  1  0.999106  0.037524  0.369176  1
  O  O46  1  0.999106  0.462476  0.869176  1
  O  O47  1  0.000894  0.962476  0.630824  1
  O  O48  1  0.324033  0.474286  0.366550  1
  O  O49  1  0.675967  0.974286  0.133450  1
  O  O50  1  0.675967  0.525714  0.633450  1
  O  O51  1  0.324033  0.025714  0.866550  1
  O  O52  1  0.984022  0.733535  0.343443  1
  O  O53  1  0.015978  0.233535  0.156557  1
  O  O54  1  0.015978  0.266465  0.656557  1
  O  O55  1  0.984022  0.766465  0.843443  1
  O  O56  1  0.542054  0.615766  0.200670  1
  O  O57  1  0.457946  0.115766  0.299330  1
  O  O58  1  0.542054  0.884234  0.700670  1
  O  O59  1  0.457946  0.384234  0.799330  1
