# generated using pymatgen
data_InCuS2
_symmetry_space_group_name_H-M   'P 1'
_cell_length_a   6.85972548
_cell_length_b   6.85972548
_cell_length_c   6.85972548
_cell_angle_alpha   132.15791225
_cell_angle_beta   132.15791225
_cell_angle_gamma   69.97973572
_symmetry_Int_Tables_number   1
_chemical_formula_structural   InCuS2
_chemical_formula_sum   'In2 Cu2 S4'
_cell_volume   173.91285522
_cell_formula_units_Z   2
loop_
 _symmetry_equiv_pos_site_id
 _symmetry_equiv_pos_as_xyz
  1  'x, y, z'
loop_
 _atom_site_type_symbol
 _atom_site_label
 _atom_site_symmetry_multiplicity
 _atom_site_fract_x
 _atom_site_fract_y
 _atom_site_fract_z
 _atom_site_occupancy
  In  In0  1  0.750000  0.250000  0.500000  1
  In  In1  1  0.000000  0.000000  0.000000  1
  Cu  Cu2  1  0.500000  0.500000  0.000000  1
  Cu  Cu3  1  0.250000  0.750000  0.500000  1
  S  S4  1  0.154602  0.125000  0.529602  1
  S  S5  1  0.875000  0.404602  0.029602  1
  S  S6  1  0.595398  0.625000  0.470398  1
  S  S7  1  0.375000  0.845398  0.970398  1
