# generated using pymatgen
data_Re3Te8Cl3
_symmetry_space_group_name_H-M   'P 1'
_cell_length_a   8.69506348
_cell_length_b   10.87883827
_cell_length_c   18.84558871
_cell_angle_alpha   90.00000000
_cell_angle_beta   90.00000000
_cell_angle_gamma   90.00000000
_symmetry_Int_Tables_number   1
_chemical_formula_structural   Re3Te8Cl3
_chemical_formula_sum   'Re12 Te32 Cl12'
_cell_volume   1782.64549560
_cell_formula_units_Z   4
loop_
 _symmetry_equiv_pos_site_id
 _symmetry_equiv_pos_as_xyz
  1  'x, y, z'
loop_
 _atom_site_type_symbol
 _atom_site_label
 _atom_site_symmetry_multiplicity
 _atom_site_fract_x
 _atom_site_fract_y
 _atom_site_fract_z
 _atom_site_occupancy
  Re  Re0  1  0.346969  0.067991  0.015249  1
  Re  Re1  1  0.846969  0.932009  0.484751  1
  Re  Re2  1  0.653031  0.067991  0.984751  1
  Re  Re3  1  0.153031  0.932009  0.515249  1
  Re  Re4  1  0.454089  0.192280  0.900207  1
  Re  Re5  1  0.954089  0.807720  0.599793  1
  Re  Re6  1  0.545911  0.192280  0.099793  1
  Re  Re7  1  0.045911  0.807720  0.400207  1
  Re  Re8  1  0.347286  0.316983  0.014849  1
  Re  Re9  1  0.847286  0.683017  0.485151  1
  Re  Re10  1  0.652714  0.316983  0.985151  1
  Re  Re11  1  0.152714  0.683017  0.514849  1
  Te  Te12  1  0.348808  0.807842  0.429257  1
  Te  Te13  1  0.848808  0.192158  0.070743  1
  Te  Te14  1  0.651192  0.807842  0.570743  1
  Te  Te15  1  0.151192  0.192158  0.929257  1
  Te  Te16  1  0.118223  0.822599  0.257897  1
  Te  Te17  1  0.618223  0.177401  0.242103  1
  Te  Te18  1  0.881777  0.822599  0.742103  1
  Te  Te19  1  0.381777  0.177401  0.757897  1
  Te  Te20  1  0.047008  0.057347  0.399099  1
  Te  Te21  1  0.547008  0.942653  0.100901  1
  Te  Te22  1  0.952992  0.057347  0.600901  1
  Te  Te23  1  0.452992  0.942653  0.899099  1
  Te  Te24  1  0.370963  0.514372  0.552540  1
  Te  Te25  1  0.870963  0.485628  0.947460  1
  Te  Te26  1  0.629037  0.514372  0.447460  1
  Te  Te27  1  0.129037  0.485628  0.052540  1
  Te  Te28  1  0.745426  0.806965  0.367401  1
  Te  Te29  1  0.245426  0.193035  0.132599  1
  Te  Te30  1  0.254574  0.806965  0.632599  1
  Te  Te31  1  0.754574  0.193035  0.867401  1
  Te  Te32  1  0.370190  0.102014  0.552607  1
  Te  Te33  1  0.870190  0.897986  0.947393  1
  Te  Te34  1  0.629810  0.102014  0.447393  1
  Te  Te35  1  0.129810  0.897986  0.052607  1
  Te  Te36  1  0.045467  0.558802  0.398033  1
  Te  Te37  1  0.545467  0.441198  0.101967  1
  Te  Te38  1  0.954533  0.558802  0.601967  1
  Te  Te39  1  0.454533  0.441198  0.898033  1
  Te  Te40  1  0.228870  0.308234  0.491446  1
  Te  Te41  1  0.728870  0.691766  0.008554  1
  Te  Te42  1  0.771130  0.308234  0.508554  1
  Te  Te43  1  0.271130  0.691766  0.991446  1
  Cl  Cl44  1  0.177332  0.335885  0.749751  1
  Cl  Cl45  1  0.677332  0.664115  0.750249  1
  Cl  Cl46  1  0.822668  0.335885  0.250249  1
  Cl  Cl47  1  0.322668  0.664115  0.249751  1
  Cl  Cl48  1  0.559383  0.324772  0.706940  1
  Cl  Cl49  1  0.059383  0.675228  0.793060  1
  Cl  Cl50  1  0.440617  0.324772  0.293060  1
  Cl  Cl51  1  0.940617  0.675228  0.206940  1
  Cl  Cl52  1  0.607037  0.003072  0.722265  1
  Cl  Cl53  1  0.107037  0.996928  0.777735  1
  Cl  Cl54  1  0.392963  0.003072  0.277735  1
  Cl  Cl55  1  0.892963  0.996928  0.222265  1
