# generated using pymatgen
data_ErFeO3
_symmetry_space_group_name_H-M   'P 1'
_cell_length_a   5.29520280
_cell_length_b   5.62966429
_cell_length_c   7.68570417
_cell_angle_alpha   90.00000000
_cell_angle_beta   90.00000000
_cell_angle_gamma   90.00000000
_symmetry_Int_Tables_number   1
_chemical_formula_structural   ErFeO3
_chemical_formula_sum   'Er4 Fe4 O12'
_cell_volume   229.11248691
_cell_formula_units_Z   4
loop_
 _symmetry_equiv_pos_site_id
 _symmetry_equiv_pos_as_xyz
  1  'x, y, z'
loop_
 _atom_site_type_symbol
 _atom_site_label
 _atom_site_symmetry_multiplicity
 _atom_site_fract_x
 _atom_site_fract_y
 _atom_site_fract_z
 _atom_site_occupancy
  Er  Er0  1  0.020338  0.928872  0.250000  1
  Er  Er1  1  0.520338  0.571128  0.750000  1
  Er  Er2  1  0.479662  0.428872  0.250000  1
  Er  Er3  1  0.979662  0.071128  0.750000  1
  Fe  Fe4  1  0.000000  0.500000  0.000000  1
  Fe  Fe5  1  0.500000  0.000000  0.000000  1
  Fe  Fe6  1  0.500000  0.000000  0.500000  1
  Fe  Fe7  1  0.000000  0.500000  0.500000  1
  O  O8  1  0.689586  0.307562  0.937933  1
  O  O9  1  0.189586  0.192438  0.062067  1
  O  O10  1  0.810414  0.807562  0.562067  1
  O  O11  1  0.310414  0.692438  0.437933  1
  O  O12  1  0.310414  0.692438  0.062067  1
  O  O13  1  0.810414  0.807562  0.937933  1
  O  O14  1  0.189586  0.192438  0.437933  1
  O  O15  1  0.689586  0.307562  0.562067  1
  O  O16  1  0.121770  0.453645  0.750000  1
  O  O17  1  0.621770  0.046355  0.250000  1
  O  O18  1  0.378230  0.953645  0.750000  1
  O  O19  1  0.878230  0.546355  0.250000  1
