# generated using pymatgen
data_Li2CuPO4
_symmetry_space_group_name_H-M   'P 1'
_cell_length_a   5.07350874
_cell_length_b   5.30863641
_cell_length_c   6.23335138
_cell_angle_alpha   90.00000000
_cell_angle_beta   90.00000000
_cell_angle_gamma   90.00000000
_symmetry_Int_Tables_number   1
_chemical_formula_structural   Li2CuPO4
_chemical_formula_sum   'Li4 Cu2 P2 O8'
_cell_volume   167.88542849
_cell_formula_units_Z   2
loop_
 _symmetry_equiv_pos_site_id
 _symmetry_equiv_pos_as_xyz
  1  'x, y, z'
loop_
 _atom_site_type_symbol
 _atom_site_label
 _atom_site_symmetry_multiplicity
 _atom_site_fract_x
 _atom_site_fract_y
 _atom_site_fract_z
 _atom_site_occupancy
  Li  Li0  1  0.001446  0.675517  0.749715  1
  Li  Li1  1  0.501446  0.324483  0.750285  1
  Li  Li2  1  0.001446  0.675517  0.250285  1
  Li  Li3  1  0.501446  0.324483  0.249715  1
  Cu  Cu4  1  0.501612  0.809492  0.500000  1
  Cu  Cu5  1  0.001612  0.190508  0.000000  1
  P  P6  1  0.497263  0.822265  0.000000  1
  P  P7  1  0.997263  0.177735  0.500000  1
  O  O8  1  0.110118  0.316577  0.702110  1
  O  O9  1  0.610118  0.683423  0.202110  1
  O  O10  1  0.692170  0.196217  0.500000  1
  O  O11  1  0.585827  0.103317  0.000000  1
  O  O12  1  0.192170  0.803783  0.000000  1
  O  O13  1  0.110118  0.316577  0.297890  1
  O  O14  1  0.085827  0.896683  0.500000  1
  O  O15  1  0.610118  0.683423  0.797890  1
