# generated using pymatgen
data_Nb3CuO8
_symmetry_space_group_name_H-M   'P 1'
_cell_length_a   7.66205721
_cell_length_b   5.10103252
_cell_length_c   15.56287294
_cell_angle_alpha   90.00000000
_cell_angle_beta   107.16848559
_cell_angle_gamma   90.00000000
_symmetry_Int_Tables_number   1
_chemical_formula_structural   Nb3CuO8
_chemical_formula_sum   'Nb12 Cu4 O32'
_cell_volume   581.16180958
_cell_formula_units_Z   4
loop_
 _symmetry_equiv_pos_site_id
 _symmetry_equiv_pos_as_xyz
  1  'x, y, z'
loop_
 _atom_site_type_symbol
 _atom_site_label
 _atom_site_symmetry_multiplicity
 _atom_site_fract_x
 _atom_site_fract_y
 _atom_site_fract_z
 _atom_site_occupancy
  Nb  Nb0  1  0.482875  0.240361  0.335076  1
  Nb  Nb1  1  0.517125  0.740361  0.164924  1
  Nb  Nb2  1  0.517125  0.759639  0.664924  1
  Nb  Nb3  1  0.482875  0.259639  0.835076  1
  Nb  Nb4  1  0.748589  0.745839  0.424103  1
  Nb  Nb5  1  0.251411  0.245839  0.075897  1
  Nb  Nb6  1  0.251411  0.254161  0.575897  1
  Nb  Nb7  1  0.748589  0.754161  0.924103  1
  Nb  Nb8  1  0.992039  0.235450  0.332677  1
  Nb  Nb9  1  0.007961  0.735450  0.167323  1
  Nb  Nb10  1  0.007961  0.764550  0.667323  1
  Nb  Nb11  1  0.992039  0.264550  0.832677  1
  Cu  Cu12  1  0.733926  0.241849  0.077760  1
  Cu  Cu13  1  0.266074  0.741849  0.422240  1
  Cu  Cu14  1  0.266074  0.758151  0.922240  1
  Cu  Cu15  1  0.733926  0.258151  0.577760  1
  O  O16  1  0.780324  0.419586  0.345265  1
  O  O17  1  0.219676  0.919586  0.154735  1
  O  O18  1  0.219676  0.580414  0.654735  1
  O  O19  1  0.780324  0.080414  0.845265  1
  O  O20  1  0.957768  0.925079  0.399961  1
  O  O21  1  0.042232  0.425079  0.100039  1
  O  O22  1  0.042232  0.074921  0.600039  1
  O  O23  1  0.957768  0.574921  0.899961  1
  O  O24  1  0.648363  0.072202  0.452221  1
  O  O25  1  0.351637  0.572202  0.047779  1
  O  O26  1  0.351637  0.927798  0.547779  1
  O  O27  1  0.648363  0.427798  0.952221  1
  O  O28  1  0.497260  0.567014  0.400733  1
  O  O29  1  0.502740  0.067014  0.099267  1
  O  O30  1  0.502740  0.432986  0.599267  1
  O  O31  1  0.497260  0.932986  0.900733  1
  O  O32  1  0.916495  0.430512  0.719193  1
  O  O33  1  0.083505  0.930512  0.780807  1
  O  O34  1  0.083505  0.569488  0.280807  1
  O  O35  1  0.916495  0.069488  0.219193  1
  O  O36  1  0.266247  0.402197  0.846650  1
  O  O37  1  0.733753  0.902197  0.653350  1
  O  O38  1  0.733753  0.597803  0.153350  1
  O  O39  1  0.266247  0.097803  0.346650  1
  O  O40  1  0.584391  0.584960  0.784019  1
  O  O41  1  0.415609  0.084960  0.715981  1
  O  O42  1  0.415609  0.415040  0.215981  1
  O  O43  1  0.584391  0.915040  0.284019  1
  O  O44  1  0.152042  0.099588  0.961119  1
  O  O45  1  0.847958  0.599588  0.538881  1
  O  O46  1  0.847958  0.900412  0.038881  1
  O  O47  1  0.152042  0.400412  0.461119  1
