# generated using pymatgen
data_NaP(HO2)2
_symmetry_space_group_name_H-M   'P 1'
_cell_length_a   6.90121869
_cell_length_b   13.50379588
_cell_length_c   7.54728939
_cell_angle_alpha   90.00000000
_cell_angle_beta   93.69905840
_cell_angle_gamma   90.00000000
_symmetry_Int_Tables_number   1
_chemical_formula_structural   NaP(HO2)2
_chemical_formula_sum   'Na8 P8 H16 O32'
_cell_volume   701.88657981
_cell_formula_units_Z   8
loop_
 _symmetry_equiv_pos_site_id
 _symmetry_equiv_pos_as_xyz
  1  'x, y, z'
loop_
 _atom_site_type_symbol
 _atom_site_label
 _atom_site_symmetry_multiplicity
 _atom_site_fract_x
 _atom_site_fract_y
 _atom_site_fract_z
 _atom_site_occupancy
  Na  Na0  1  0.863130  0.599988  0.003803  1
  Na  Na1  1  0.136870  0.099988  0.496197  1
  Na  Na2  1  0.136870  0.400012  0.996197  1
  Na  Na3  1  0.863130  0.900012  0.503803  1
  Na  Na4  1  0.367571  0.599961  0.260594  1
  Na  Na5  1  0.632429  0.099961  0.239406  1
  Na  Na6  1  0.632429  0.400039  0.739406  1
  Na  Na7  1  0.367571  0.900039  0.760594  1
  P  P8  1  0.332348  0.632523  0.859937  1
  P  P9  1  0.667652  0.132523  0.640063  1
  P  P10  1  0.667652  0.367477  0.140063  1
  P  P11  1  0.332348  0.867477  0.359937  1
  P  P12  1  0.824784  0.626942  0.519359  1
  P  P13  1  0.175216  0.126942  0.980641  1
  P  P14  1  0.175216  0.373058  0.480641  1
  P  P15  1  0.824784  0.873058  0.019359  1
  H  H16  1  0.004003  0.968045  0.848063  1
  H  H17  1  0.995997  0.468045  0.651937  1
  H  H18  1  0.995997  0.031955  0.151937  1
  H  H19  1  0.004003  0.531955  0.348063  1
  H  H20  1  0.057540  0.777751  0.158307  1
  H  H21  1  0.942460  0.277751  0.341693  1
  H  H22  1  0.942460  0.222249  0.841693  1
  H  H23  1  0.057540  0.722249  0.658307  1
  H  H24  1  0.488848  0.903169  0.126036  1
  H  H25  1  0.511152  0.403169  0.373964  1
  H  H26  1  0.511152  0.096831  0.873964  1
  H  H27  1  0.488848  0.596831  0.626036  1
  H  H28  1  0.553197  0.762067  0.481529  1
  H  H29  1  0.446803  0.262067  0.018471  1
  H  H30  1  0.446803  0.237933  0.518471  1
  H  H31  1  0.553197  0.737933  0.981529  1
  O  O32  1  0.523257  0.836815  0.482681  1
  O  O33  1  0.752485  0.225133  0.729828  1
  O  O34  1  0.752485  0.274867  0.229828  1
  O  O35  1  0.247515  0.774867  0.270172  1
  O  O36  1  0.523257  0.663185  0.982681  1
  O  O37  1  0.476743  0.163185  0.517319  1
  O  O38  1  0.476743  0.336815  0.017319  1
  O  O39  1  0.247515  0.725133  0.770172  1
  O  O40  1  0.205024  0.571770  0.974772  1
  O  O41  1  0.794976  0.071770  0.525228  1
  O  O42  1  0.794976  0.428230  0.025228  1
  O  O43  1  0.205024  0.928230  0.474772  1
  O  O44  1  0.413422  0.559015  0.715334  1
  O  O45  1  0.586578  0.059015  0.784666  1
  O  O46  1  0.586578  0.440985  0.284666  1
  O  O47  1  0.413422  0.940985  0.215334  1
  O  O48  1  0.609227  0.847513  0.978175  1
  O  O49  1  0.075594  0.227202  0.915447  1
  O  O50  1  0.075594  0.272798  0.415447  1
  O  O51  1  0.924406  0.772798  0.084553  1
  O  O52  1  0.853892  0.546648  0.661509  1
  O  O53  1  0.146108  0.046648  0.838491  1
  O  O54  1  0.146108  0.453352  0.338491  1
  O  O55  1  0.853892  0.953352  0.161509  1
  O  O56  1  0.916349  0.595519  0.341560  1
  O  O57  1  0.083651  0.095519  0.158440  1
  O  O58  1  0.083651  0.404481  0.658440  1
  O  O59  1  0.916349  0.904481  0.841560  1
  O  O60  1  0.609227  0.652487  0.478175  1
  O  O61  1  0.390773  0.152487  0.021825  1
  O  O62  1  0.390773  0.347513  0.521825  1
  O  O63  1  0.924406  0.727202  0.584553  1
