# generated using pymatgen
data_Sc3As2
_symmetry_space_group_name_H-M   'P 1'
_cell_length_a   3.84419400
_cell_length_b   10.33223511
_cell_length_c   10.45526473
_cell_angle_alpha   90.00000000
_cell_angle_beta   90.00000000
_cell_angle_gamma   90.00000000
_symmetry_Int_Tables_number   1
_chemical_formula_structural   Sc3As2
_chemical_formula_sum   'Sc12 As8'
_cell_volume   415.27387488
_cell_formula_units_Z   4
loop_
 _symmetry_equiv_pos_site_id
 _symmetry_equiv_pos_as_xyz
  1  'x, y, z'
loop_
 _atom_site_type_symbol
 _atom_site_label
 _atom_site_symmetry_multiplicity
 _atom_site_fract_x
 _atom_site_fract_y
 _atom_site_fract_z
 _atom_site_occupancy
  Sc  Sc0  1  0.250000  0.132397  0.548646  1
  Sc  Sc1  1  0.750000  0.867603  0.451354  1
  Sc  Sc2  1  0.250000  0.367603  0.048646  1
  Sc  Sc3  1  0.750000  0.632397  0.951354  1
  Sc  Sc4  1  0.250000  0.063644  0.872140  1
  Sc  Sc5  1  0.750000  0.936356  0.127860  1
  Sc  Sc6  1  0.250000  0.436356  0.372140  1
  Sc  Sc7  1  0.750000  0.563644  0.627860  1
  Sc  Sc8  1  0.250000  0.796464  0.723119  1
  Sc  Sc9  1  0.750000  0.203536  0.276881  1
  Sc  Sc10  1  0.250000  0.703536  0.223119  1
  Sc  Sc11  1  0.750000  0.296464  0.776881  1
  As  As12  1  0.250000  0.494646  0.813097  1
  As  As13  1  0.750000  0.505354  0.186903  1
  As  As14  1  0.250000  0.005354  0.313097  1
  As  As15  1  0.750000  0.994646  0.686903  1
  As  As16  1  0.250000  0.820942  0.986505  1
  As  As17  1  0.750000  0.179058  0.013495  1
  As  As18  1  0.250000  0.679058  0.486505  1
  As  As19  1  0.750000  0.320942  0.513495  1
