# generated using pymatgen
data_CeCO3F
_symmetry_space_group_name_H-M   'P 1'
_cell_length_a   7.16109253
_cell_length_b   7.16109253
_cell_length_c   9.86131688
_cell_angle_alpha   90.00000000
_cell_angle_beta   90.00000000
_cell_angle_gamma   120.00000000
_symmetry_Int_Tables_number   1
_chemical_formula_structural   CeCO3F
_chemical_formula_sum   'Ce6 C6 O18 F6'
_cell_volume   437.94958227
_cell_formula_units_Z   6
loop_
 _symmetry_equiv_pos_site_id
 _symmetry_equiv_pos_as_xyz
  1  'x, y, z'
loop_
 _atom_site_type_symbol
 _atom_site_label
 _atom_site_symmetry_multiplicity
 _atom_site_fract_x
 _atom_site_fract_y
 _atom_site_fract_z
 _atom_site_occupancy
  Ce  Ce0  1  0.340436  0.000000  0.500000  1
  Ce  Ce1  1  0.000000  0.340436  0.500000  1
  Ce  Ce2  1  0.659564  0.659564  0.000000  1
  Ce  Ce3  1  0.340436  0.000000  0.000000  1
  Ce  Ce4  1  0.659564  0.659564  0.500000  1
  Ce  Ce5  1  0.000000  0.340436  0.000000  1
  C  C6  1  0.708385  0.033233  0.250000  1
  C  C7  1  0.675152  0.966767  0.750000  1
  C  C8  1  0.966767  0.675152  0.250000  1
  C  C9  1  0.324848  0.291615  0.250000  1
  C  C10  1  0.291615  0.324848  0.750000  1
  C  C11  1  0.033233  0.708385  0.750000  1
  O  O12  1  0.211388  0.891548  0.750000  1
  O  O13  1  0.382090  0.327219  0.635550  1
  O  O14  1  0.054870  0.672781  0.135550  1
  O  O15  1  0.108452  0.319839  0.750000  1
  O  O16  1  0.617910  0.945130  0.364450  1
  O  O17  1  0.382090  0.327219  0.864450  1
  O  O18  1  0.945130  0.617910  0.635550  1
  O  O19  1  0.672781  0.054870  0.635550  1
  O  O20  1  0.327219  0.382090  0.364450  1
  O  O21  1  0.319839  0.108452  0.250000  1
  O  O22  1  0.680161  0.788612  0.750000  1
  O  O23  1  0.327219  0.382090  0.135550  1
  O  O24  1  0.672781  0.054870  0.864450  1
  O  O25  1  0.788612  0.680161  0.250000  1
  O  O26  1  0.945130  0.617910  0.864450  1
  O  O27  1  0.891548  0.211388  0.250000  1
  O  O28  1  0.054870  0.672781  0.364450  1
  O  O29  1  0.617910  0.945130  0.135550  1
  F  F30  1  0.333333  0.666667  0.549100  1
  F  F31  1  0.666667  0.333333  0.450900  1
  F  F32  1  0.666667  0.333333  0.049100  1
  F  F33  1  0.333333  0.666667  0.950900  1
  F  F34  1  0.000000  0.000000  0.500000  1
  F  F35  1  0.000000  0.000000  0.000000  1
