# generated using pymatgen
data_Cr2Se3
_symmetry_space_group_name_H-M   'P 1'
_cell_length_a   6.94430299
_cell_length_b   6.94430299
_cell_length_c   6.94430299
_cell_angle_alpha   54.49979551
_cell_angle_beta   54.49979551
_cell_angle_gamma   54.49979551
_symmetry_Int_Tables_number   1
_chemical_formula_structural   Cr2Se3
_chemical_formula_sum   'Cr4 Se6'
_cell_volume   206.43033972
_cell_formula_units_Z   2
loop_
 _symmetry_equiv_pos_site_id
 _symmetry_equiv_pos_as_xyz
  1  'x, y, z'
loop_
 _atom_site_type_symbol
 _atom_site_label
 _atom_site_symmetry_multiplicity
 _atom_site_fract_x
 _atom_site_fract_y
 _atom_site_fract_z
 _atom_site_occupancy
  Cr  Cr0  1  0.000000  0.000000  0.000000  1
  Cr  Cr1  1  0.500000  0.500000  0.500000  1
  Cr  Cr2  1  0.676095  0.676095  0.676095  1
  Cr  Cr3  1  0.323905  0.323905  0.323905  1
  Se  Se4  1  0.737924  0.095833  0.403751  1
  Se  Se5  1  0.403751  0.737924  0.095833  1
  Se  Se6  1  0.095833  0.403751  0.737924  1
  Se  Se7  1  0.262076  0.904167  0.596249  1
  Se  Se8  1  0.596249  0.262076  0.904167  1
  Se  Se9  1  0.904167  0.596249  0.262076  1
