# generated using pymatgen
data_Zn2PHO5
_symmetry_space_group_name_H-M   'P 1'
_cell_length_a   6.06249228
_cell_length_b   8.21356223
_cell_length_c   8.39598505
_cell_angle_alpha   90.00000000
_cell_angle_beta   90.00000000
_cell_angle_gamma   90.00000000
_symmetry_Int_Tables_number   1
_chemical_formula_structural   Zn2PHO5
_chemical_formula_sum   'Zn8 P4 H4 O20'
_cell_volume   418.07520087
_cell_formula_units_Z   4
loop_
 _symmetry_equiv_pos_site_id
 _symmetry_equiv_pos_as_xyz
  1  'x, y, z'
loop_
 _atom_site_type_symbol
 _atom_site_label
 _atom_site_symmetry_multiplicity
 _atom_site_fract_x
 _atom_site_fract_y
 _atom_site_fract_z
 _atom_site_occupancy
  Zn  Zn0  1  0.752782  0.000000  0.500000  1
  Zn  Zn1  1  0.747218  0.500000  0.000000  1
  Zn  Zn2  1  0.247218  0.000000  0.500000  1
  Zn  Zn3  1  0.252782  0.500000  0.000000  1
  Zn  Zn4  1  0.000000  0.135597  0.863196  1
  Zn  Zn5  1  0.000000  0.864403  0.136804  1
  Zn  Zn6  1  0.500000  0.635597  0.636804  1
  Zn  Zn7  1  0.500000  0.364403  0.363196  1
  P  P8  1  0.500000  0.249676  0.739188  1
  P  P9  1  0.500000  0.750324  0.260812  1
  P  P10  1  0.000000  0.749676  0.760812  1
  P  P11  1  0.000000  0.250324  0.239188  1
  H  H12  1  0.000000  0.224535  0.578633  1
  H  H13  1  0.000000  0.775465  0.421367  1
  H  H14  1  0.500000  0.724535  0.921367  1
  H  H15  1  0.500000  0.275465  0.078633  1
  O  O16  1  0.000000  0.114922  0.623666  1
  O  O17  1  0.000000  0.885078  0.376334  1
  O  O18  1  0.500000  0.614922  0.876334  1
  O  O19  1  0.500000  0.385078  0.123666  1
  O  O20  1  0.707683  0.733696  0.153032  1
  O  O21  1  0.707683  0.266304  0.846968  1
  O  O22  1  0.792317  0.233696  0.346968  1
  O  O23  1  0.792317  0.766304  0.653032  1
  O  O24  1  0.000000  0.113754  0.109077  1
  O  O25  1  0.000000  0.886246  0.890923  1
  O  O26  1  0.500000  0.613754  0.390923  1
  O  O27  1  0.500000  0.386246  0.609077  1
  O  O28  1  0.000000  0.416354  0.146989  1
  O  O29  1  0.000000  0.583646  0.853011  1
  O  O30  1  0.500000  0.916354  0.353011  1
  O  O31  1  0.500000  0.083646  0.646989  1
  O  O32  1  0.207683  0.233696  0.346968  1
  O  O33  1  0.207683  0.766304  0.653032  1
  O  O34  1  0.292317  0.733696  0.153032  1
  O  O35  1  0.292317  0.266304  0.846968  1
