# generated using pymatgen
data_GaCuCl4
_symmetry_space_group_name_H-M   'P 1'
_cell_length_a   5.57895263
_cell_length_b   5.57895263
_cell_length_c   10.23143447
_cell_angle_alpha   90.00000000
_cell_angle_beta   90.00000000
_cell_angle_gamma   90.00000000
_symmetry_Int_Tables_number   1
_chemical_formula_structural   GaCuCl4
_chemical_formula_sum   'Ga2 Cu2 Cl8'
_cell_volume   318.45045581
_cell_formula_units_Z   2
loop_
 _symmetry_equiv_pos_site_id
 _symmetry_equiv_pos_as_xyz
  1  'x, y, z'
loop_
 _atom_site_type_symbol
 _atom_site_label
 _atom_site_symmetry_multiplicity
 _atom_site_fract_x
 _atom_site_fract_y
 _atom_site_fract_z
 _atom_site_occupancy
  Ga  Ga0  1  0.000000  0.500000  0.250000  1
  Ga  Ga1  1  0.500000  0.000000  0.750000  1
  Cu  Cu2  1  0.000000  0.000000  0.000000  1
  Cu  Cu3  1  0.000000  0.000000  0.500000  1
  Cl  Cl4  1  0.267636  0.771815  0.625401  1
  Cl  Cl5  1  0.771815  0.732364  0.374599  1
  Cl  Cl6  1  0.228185  0.267636  0.374599  1
  Cl  Cl7  1  0.732364  0.771815  0.874599  1
  Cl  Cl8  1  0.267636  0.228185  0.874599  1
  Cl  Cl9  1  0.732364  0.228185  0.625401  1
  Cl  Cl10  1  0.771815  0.267636  0.125401  1
  Cl  Cl11  1  0.228185  0.732364  0.125401  1
