# generated using pymatgen
data_Cu2P3O10
_symmetry_space_group_name_H-M   'P 1'
_cell_length_a   4.76921532
_cell_length_b   8.30968902
_cell_length_c   9.18943411
_cell_angle_alpha   90.00000000
_cell_angle_beta   102.38202671
_cell_angle_gamma   90.00000000
_symmetry_Int_Tables_number   1
_chemical_formula_structural   Cu2P3O10
_chemical_formula_sum   'Cu4 P6 O20'
_cell_volume   355.71261006
_cell_formula_units_Z   2
loop_
 _symmetry_equiv_pos_site_id
 _symmetry_equiv_pos_as_xyz
  1  'x, y, z'
loop_
 _atom_site_type_symbol
 _atom_site_label
 _atom_site_symmetry_multiplicity
 _atom_site_fract_x
 _atom_site_fract_y
 _atom_site_fract_z
 _atom_site_occupancy
  Cu  Cu0  1  0.069590  0.064973  0.322365  1
  Cu  Cu1  1  0.069590  0.435027  0.322365  1
  Cu  Cu2  1  0.930410  0.564973  0.677635  1
  Cu  Cu3  1  0.930410  0.935027  0.677635  1
  P  P4  1  0.489146  0.250000  0.148663  1
  P  P5  1  0.592268  0.250000  0.550991  1
  P  P6  1  0.407732  0.750000  0.449009  1
  P  P7  1  0.510854  0.750000  0.851337  1
  P  P8  1  0.681649  0.750000  0.179539  1
  P  P9  1  0.318351  0.250000  0.820461  1
  O  O10  1  0.334659  0.095898  0.173917  1
  O  O11  1  0.154089  0.094548  0.805107  1
  O  O12  1  0.154089  0.405452  0.805107  1
  O  O13  1  0.192947  0.750000  0.759167  1
  O  O14  1  0.845911  0.905452  0.194893  1
  O  O15  1  0.845911  0.594548  0.194893  1
  O  O16  1  0.807053  0.250000  0.240833  1
  O  O17  1  0.755318  0.404013  0.529657  1
  O  O18  1  0.755318  0.095987  0.529657  1
  O  O19  1  0.712106  0.750000  0.554147  1
  O  O20  1  0.464583  0.750000  0.020578  1
  O  O21  1  0.447871  0.750000  0.281288  1
  O  O22  1  0.244682  0.904013  0.470343  1
  O  O23  1  0.665341  0.595898  0.826083  1
  O  O24  1  0.334659  0.404102  0.173917  1
  O  O25  1  0.665341  0.904102  0.826083  1
  O  O26  1  0.552129  0.250000  0.718712  1
  O  O27  1  0.535417  0.250000  0.979422  1
  O  O28  1  0.287894  0.250000  0.445853  1
  O  O29  1  0.244682  0.595987  0.470343  1
