# generated using pymatgen
data_ZnP2
_symmetry_space_group_name_H-M   'P 1'
_cell_length_a   5.10150732
_cell_length_b   5.10150732
_cell_length_c   18.62742069
_cell_angle_alpha   90.00000000
_cell_angle_beta   90.00000000
_cell_angle_gamma   90.00000000
_symmetry_Int_Tables_number   1
_chemical_formula_structural   ZnP2
_chemical_formula_sum   'Zn8 P16'
_cell_volume   484.78564480
_cell_formula_units_Z   8
loop_
 _symmetry_equiv_pos_site_id
 _symmetry_equiv_pos_as_xyz
  1  'x, y, z'
loop_
 _atom_site_type_symbol
 _atom_site_label
 _atom_site_symmetry_multiplicity
 _atom_site_fract_x
 _atom_site_fract_y
 _atom_site_fract_z
 _atom_site_occupancy
  Zn  Zn0  1  0.154092  0.635605  0.050694  1
  Zn  Zn1  1  0.864395  0.654092  0.300694  1
  Zn  Zn2  1  0.135605  0.345908  0.800694  1
  Zn  Zn3  1  0.654092  0.864395  0.699306  1
  Zn  Zn4  1  0.345908  0.135605  0.199306  1
  Zn  Zn5  1  0.845908  0.364395  0.550694  1
  Zn  Zn6  1  0.635605  0.154092  0.949306  1
  Zn  Zn7  1  0.364395  0.845908  0.449306  1
  P  P8  1  0.818396  0.301314  0.059506  1
  P  P9  1  0.198686  0.318396  0.309506  1
  P  P10  1  0.801314  0.681604  0.809506  1
  P  P11  1  0.318396  0.198686  0.690494  1
  P  P12  1  0.681604  0.801314  0.190494  1
  P  P13  1  0.181604  0.698686  0.559506  1
  P  P14  1  0.301314  0.818396  0.940494  1
  P  P15  1  0.698686  0.181604  0.440494  1
  P  P16  1  0.990447  0.980732  0.125921  1
  P  P17  1  0.519268  0.490447  0.375921  1
  P  P18  1  0.480732  0.509553  0.875921  1
  P  P19  1  0.490447  0.519268  0.624079  1
  P  P20  1  0.509553  0.480732  0.124079  1
  P  P21  1  0.009553  0.019268  0.625921  1
  P  P22  1  0.980732  0.990447  0.874079  1
  P  P23  1  0.019268  0.009553  0.374079  1
