# generated using pymatgen
data_CuHgSCl
_symmetry_space_group_name_H-M   'P 1'
_cell_length_a   4.05619674
_cell_length_b   9.98551717
_cell_length_c   18.39898074
_cell_angle_alpha   90.00000000
_cell_angle_beta   90.00000000
_cell_angle_gamma   90.00000000
_symmetry_Int_Tables_number   1
_chemical_formula_structural   CuHgSCl
_chemical_formula_sum   'Cu8 Hg8 S8 Cl8'
_cell_volume   745.21800502
_cell_formula_units_Z   8
loop_
 _symmetry_equiv_pos_site_id
 _symmetry_equiv_pos_as_xyz
  1  'x, y, z'
loop_
 _atom_site_type_symbol
 _atom_site_label
 _atom_site_symmetry_multiplicity
 _atom_site_fract_x
 _atom_site_fract_y
 _atom_site_fract_z
 _atom_site_occupancy
  Cu  Cu0  1  0.000000  0.901266  0.622730  1
  Cu  Cu1  1  0.000000  0.098734  0.377270  1
  Cu  Cu2  1  0.000000  0.401266  0.877270  1
  Cu  Cu3  1  0.000000  0.436182  0.427730  1
  Cu  Cu4  1  0.000000  0.936182  0.072270  1
  Cu  Cu5  1  0.000000  0.063818  0.927730  1
  Cu  Cu6  1  0.000000  0.563818  0.572270  1
  Cu  Cu7  1  0.000000  0.598734  0.122730  1
  Hg  Hg8  1  0.500000  0.257613  0.107891  1
  Hg  Hg9  1  0.500000  0.975421  0.235395  1
  Hg  Hg10  1  0.500000  0.024579  0.764605  1
  Hg  Hg11  1  0.500000  0.757613  0.392109  1
  Hg  Hg12  1  0.500000  0.524579  0.735395  1
  Hg  Hg13  1  0.500000  0.242387  0.607891  1
  Hg  Hg14  1  0.500000  0.742387  0.892109  1
  Hg  Hg15  1  0.500000  0.475421  0.264605  1
  S  S16  1  0.500000  0.487108  0.604146  1
  S  S17  1  0.500000  0.503726  0.866996  1
  S  S18  1  0.500000  0.496274  0.133004  1
  S  S19  1  0.500000  0.003726  0.633004  1
  S  S20  1  0.500000  0.996274  0.366996  1
  S  S21  1  0.500000  0.012892  0.104146  1
  S  S22  1  0.500000  0.512892  0.395854  1
  S  S23  1  0.500000  0.987108  0.895854  1
  Cl  Cl24  1  0.000000  0.267743  0.983549  1
  Cl  Cl25  1  0.000000  0.767743  0.516451  1
  Cl  Cl26  1  0.000000  0.749723  0.225305  1
  Cl  Cl27  1  0.000000  0.249723  0.274695  1
  Cl  Cl28  1  0.000000  0.732257  0.016451  1
  Cl  Cl29  1  0.000000  0.232257  0.483549  1
  Cl  Cl30  1  0.000000  0.750277  0.725305  1
  Cl  Cl31  1  0.000000  0.250277  0.774695  1
