# generated using pymatgen
data_UNi5Ge3
_symmetry_space_group_name_H-M   'P 1'
_cell_length_a   3.89347190
_cell_length_b   6.77255976
_cell_length_c   19.01832282
_cell_angle_alpha   90.00000000
_cell_angle_beta   90.00000000
_cell_angle_gamma   90.00000000
_symmetry_Int_Tables_number   1
_chemical_formula_structural   UNi5Ge3
_chemical_formula_sum   'U4 Ni20 Ge12'
_cell_volume   501.48980146
_cell_formula_units_Z   4
loop_
 _symmetry_equiv_pos_site_id
 _symmetry_equiv_pos_as_xyz
  1  'x, y, z'
loop_
 _atom_site_type_symbol
 _atom_site_label
 _atom_site_symmetry_multiplicity
 _atom_site_fract_x
 _atom_site_fract_y
 _atom_site_fract_z
 _atom_site_occupancy
  U  U0  1  0.250000  0.621825  0.645504  1
  U  U1  1  0.750000  0.378175  0.354496  1
  U  U2  1  0.750000  0.121825  0.854496  1
  U  U3  1  0.250000  0.878175  0.145504  1
  Ni  Ni4  1  0.750000  0.855581  0.390988  1
  Ni  Ni5  1  0.250000  0.410868  0.788778  1
  Ni  Ni6  1  0.750000  0.589132  0.211222  1
  Ni  Ni7  1  0.750000  0.910868  0.711222  1
  Ni  Ni8  1  0.250000  0.693147  0.299226  1
  Ni  Ni9  1  0.750000  0.306853  0.700774  1
  Ni  Ni10  1  0.750000  0.193147  0.200774  1
  Ni  Ni11  1  0.250000  0.806853  0.799226  1
  Ni  Ni12  1  0.250000  0.368975  0.496223  1
  Ni  Ni13  1  0.750000  0.631025  0.503777  1
  Ni  Ni14  1  0.750000  0.868975  0.003777  1
  Ni  Ni15  1  0.250000  0.131025  0.996223  1
  Ni  Ni16  1  0.250000  0.620476  0.014904  1
  Ni  Ni17  1  0.750000  0.379524  0.985096  1
  Ni  Ni18  1  0.750000  0.120476  0.485096  1
  Ni  Ni19  1  0.250000  0.144419  0.609012  1
  Ni  Ni20  1  0.250000  0.355581  0.109012  1
  Ni  Ni21  1  0.750000  0.644419  0.890988  1
  Ni  Ni22  1  0.250000  0.879524  0.514904  1
  Ni  Ni23  1  0.250000  0.089132  0.288778  1
  Ge  Ge24  1  0.250000  0.105438  0.732039  1
  Ge  Ge25  1  0.250000  0.646426  0.423784  1
  Ge  Ge26  1  0.750000  0.353574  0.576216  1
  Ge  Ge27  1  0.750000  0.146426  0.076216  1
  Ge  Ge28  1  0.250000  0.092932  0.412588  1
  Ge  Ge29  1  0.750000  0.907068  0.587412  1
  Ge  Ge30  1  0.750000  0.592932  0.087412  1
  Ge  Ge31  1  0.250000  0.407068  0.912588  1
  Ge  Ge32  1  0.250000  0.853574  0.923784  1
  Ge  Ge33  1  0.750000  0.605438  0.767961  1
  Ge  Ge34  1  0.750000  0.894562  0.267961  1
  Ge  Ge35  1  0.250000  0.394562  0.232039  1
