# generated using pymatgen
data_Er2CrS4
_symmetry_space_group_name_H-M   'P 1'
_cell_length_a   7.44033833
_cell_length_b   12.47331695
_cell_length_c   12.51851441
_cell_angle_alpha   90.00000000
_cell_angle_beta   90.00000000
_cell_angle_gamma   90.00000000
_symmetry_Int_Tables_number   1
_chemical_formula_structural   Er2CrS4
_chemical_formula_sum   'Er16 Cr8 S32'
_cell_volume   1161.78947031
_cell_formula_units_Z   8
loop_
 _symmetry_equiv_pos_site_id
 _symmetry_equiv_pos_as_xyz
  1  'x, y, z'
loop_
 _atom_site_type_symbol
 _atom_site_label
 _atom_site_symmetry_multiplicity
 _atom_site_fract_x
 _atom_site_fract_y
 _atom_site_fract_z
 _atom_site_occupancy
  Er  Er0  1  0.886287  0.892578  0.384783  1
  Er  Er1  1  0.113713  0.107422  0.884783  1
  Er  Er2  1  0.113713  0.392578  0.384783  1
  Er  Er3  1  0.886287  0.607422  0.884783  1
  Er  Er4  1  0.615479  0.127777  0.245497  1
  Er  Er5  1  0.384521  0.872223  0.745497  1
  Er  Er6  1  0.384521  0.627777  0.245497  1
  Er  Er7  1  0.615479  0.372223  0.745497  1
  Er  Er8  1  0.369143  0.366244  0.078585  1
  Er  Er9  1  0.630857  0.633756  0.578585  1
  Er  Er10  1  0.630857  0.866244  0.078585  1
  Er  Er11  1  0.369143  0.133756  0.578585  1
  Er  Er12  1  0.868737  0.365630  0.080021  1
  Er  Er13  1  0.131263  0.634370  0.580021  1
  Er  Er14  1  0.131263  0.865630  0.080021  1
  Er  Er15  1  0.868737  0.134370  0.580021  1
  Cr  Cr16  1  0.119512  0.127113  0.248255  1
  Cr  Cr17  1  0.880488  0.872887  0.748255  1
  Cr  Cr18  1  0.880488  0.627113  0.248255  1
  Cr  Cr19  1  0.119512  0.372887  0.748255  1
  Cr  Cr20  1  0.383893  0.889226  0.377692  1
  Cr  Cr21  1  0.616107  0.110774  0.877692  1
  Cr  Cr22  1  0.616107  0.389226  0.377692  1
  Cr  Cr23  1  0.383893  0.610774  0.877692  1
  S  S24  1  0.118446  0.209268  0.072855  1
  S  S25  1  0.881554  0.790732  0.572855  1
  S  S26  1  0.881554  0.709268  0.072855  1
  S  S27  1  0.118446  0.290732  0.572855  1
  S  S28  1  0.374207  0.975106  0.203800  1
  S  S29  1  0.625793  0.024894  0.703800  1
  S  S30  1  0.625793  0.475106  0.203800  1
  S  S31  1  0.374207  0.524894  0.703800  1
  S  S32  1  0.861444  0.271021  0.298188  1
  S  S33  1  0.138556  0.728979  0.798188  1
  S  S34  1  0.138556  0.771021  0.298188  1
  S  S35  1  0.861444  0.228979  0.798188  1
  S  S36  1  0.358330  0.264880  0.293731  1
  S  S37  1  0.641670  0.735120  0.793731  1
  S  S38  1  0.641670  0.764880  0.293731  1
  S  S39  1  0.358330  0.235120  0.793731  1
  S  S40  1  0.883006  0.990974  0.192248  1
  S  S41  1  0.116994  0.009026  0.692248  1
  S  S42  1  0.116994  0.490974  0.192248  1
  S  S43  1  0.883006  0.509026  0.692248  1
  S  S44  1  0.124128  0.450590  0.931067  1
  S  S45  1  0.875872  0.549410  0.431067  1
  S  S46  1  0.875872  0.950590  0.931067  1
  S  S47  1  0.124128  0.049410  0.431067  1
  S  S48  1  0.618127  0.289267  0.548096  1
  S  S49  1  0.381873  0.710733  0.048096  1
  S  S50  1  0.381873  0.789267  0.548096  1
  S  S51  1  0.618127  0.210733  0.048096  1
  S  S52  1  0.616308  0.471095  0.940891  1
  S  S53  1  0.383692  0.528905  0.440891  1
  S  S54  1  0.383692  0.971095  0.940891  1
  S  S55  1  0.616308  0.028905  0.440891  1
