# generated using pymatgen
data_Ba2Cu3(BrO2)2
_symmetry_space_group_name_H-M   'P 1'
_cell_length_a   8.46275046
_cell_length_b   8.46275046
_cell_length_c   8.46275046
_cell_angle_alpha   141.29492313
_cell_angle_beta   141.29492313
_cell_angle_gamma   55.89231851
_symmetry_Int_Tables_number   1
_chemical_formula_structural   Ba2Cu3(BrO2)2
_chemical_formula_sum   'Ba2 Cu3 Br2 O4'
_cell_volume   235.17873240
_cell_formula_units_Z   1
loop_
 _symmetry_equiv_pos_site_id
 _symmetry_equiv_pos_as_xyz
  1  'x, y, z'
loop_
 _atom_site_type_symbol
 _atom_site_label
 _atom_site_symmetry_multiplicity
 _atom_site_fract_x
 _atom_site_fract_y
 _atom_site_fract_z
 _atom_site_occupancy
  Ba  Ba0  1  0.631396  0.631396  0.000000  1
  Ba  Ba1  1  0.368604  0.368604  0.000000  1
  Cu  Cu2  1  0.500000  0.000000  0.500000  1
  Cu  Cu3  1  0.000000  0.500000  0.500000  1
  Cu  Cu4  1  0.000000  0.000000  0.000000  1
  Br  Br5  1  0.250000  0.750000  0.500000  1
  Br  Br6  1  0.750000  0.250000  0.500000  1
  O  O7  1  0.240982  0.759018  1.000000  1
  O  O8  1  0.759018  0.759018  0.518036  1
  O  O9  1  0.240982  0.240982  0.481964  1
  O  O10  1  0.759018  0.240982  0.000000  1
