# generated using pymatgen
data_MnSn2
_symmetry_space_group_name_H-M   'P 1'
_cell_length_a   5.41100949
_cell_length_b   5.41100949
_cell_length_c   5.41100949
_cell_angle_alpha   104.54056868
_cell_angle_beta   104.54056868
_cell_angle_gamma   119.85912130
_symmetry_Int_Tables_number   1
_chemical_formula_structural   MnSn2
_chemical_formula_sum   'Mn2 Sn4'
_cell_volume   118.90557671
_cell_formula_units_Z   2
loop_
 _symmetry_equiv_pos_site_id
 _symmetry_equiv_pos_as_xyz
  1  'x, y, z'
loop_
 _atom_site_type_symbol
 _atom_site_label
 _atom_site_symmetry_multiplicity
 _atom_site_fract_x
 _atom_site_fract_y
 _atom_site_fract_z
 _atom_site_occupancy
  Mn  Mn0  1  0.750000  0.750000  0.000000  1
  Mn  Mn1  1  0.250000  0.250000  0.000000  1
  Sn  Sn2  1  0.336262  0.836262  0.172524  1
  Sn  Sn3  1  0.663738  0.163738  0.827476  1
  Sn  Sn4  1  0.836262  0.663738  0.500000  1
  Sn  Sn5  1  0.163738  0.336262  0.500000  1
