# generated using pymatgen
data_Tl2GeTe5
_symmetry_space_group_name_H-M   'P 1'
_cell_length_a   8.49613765
_cell_length_b   8.49613765
_cell_length_c   15.10032353
_cell_angle_alpha   90.00000000
_cell_angle_beta   90.00000000
_cell_angle_gamma   90.00000000
_symmetry_Int_Tables_number   1
_chemical_formula_structural   Tl2GeTe5
_chemical_formula_sum   'Tl8 Ge4 Te20'
_cell_volume   1090.00711443
_cell_formula_units_Z   4
loop_
 _symmetry_equiv_pos_site_id
 _symmetry_equiv_pos_as_xyz
  1  'x, y, z'
loop_
 _atom_site_type_symbol
 _atom_site_label
 _atom_site_symmetry_multiplicity
 _atom_site_fract_x
 _atom_site_fract_y
 _atom_site_fract_z
 _atom_site_occupancy
  Tl  Tl0  1  0.000000  0.000000  0.620872  1
  Tl  Tl1  1  0.500000  0.500000  0.379128  1
  Tl  Tl2  1  0.000000  0.000000  0.379128  1
  Tl  Tl3  1  0.500000  0.500000  0.620872  1
  Tl  Tl4  1  0.000000  0.000000  0.877632  1
  Tl  Tl5  1  0.500000  0.500000  0.122368  1
  Tl  Tl6  1  0.000000  0.000000  0.122368  1
  Tl  Tl7  1  0.500000  0.500000  0.877632  1
  Ge  Ge8  1  0.500000  0.000000  0.381621  1
  Ge  Ge9  1  0.500000  0.000000  0.618379  1
  Ge  Ge10  1  0.000000  0.500000  0.381621  1
  Ge  Ge11  1  0.000000  0.500000  0.618379  1
  Te  Te12  1  0.686587  0.186587  0.000000  1
  Te  Te13  1  0.313413  0.813413  0.000000  1
  Te  Te14  1  0.832893  0.332893  0.500000  1
  Te  Te15  1  0.167107  0.667107  0.500000  1
  Te  Te16  1  0.186587  0.313413  0.000000  1
  Te  Te17  1  0.813413  0.686587  0.000000  1
  Te  Te18  1  0.500000  0.000000  0.128019  1
  Te  Te19  1  0.500000  0.000000  0.871981  1
  Te  Te20  1  0.000000  0.500000  0.128019  1
  Te  Te21  1  0.000000  0.500000  0.871981  1
  Te  Te22  1  0.178091  0.321909  0.719912  1
  Te  Te23  1  0.821909  0.678091  0.719912  1
  Te  Te24  1  0.821909  0.678091  0.280088  1
  Te  Te25  1  0.178091  0.321909  0.280088  1
  Te  Te26  1  0.321909  0.821909  0.719912  1
  Te  Te27  1  0.678091  0.178091  0.719912  1
  Te  Te28  1  0.321909  0.821909  0.280088  1
  Te  Te29  1  0.678091  0.178091  0.280088  1
  Te  Te30  1  0.332893  0.167107  0.500000  1
  Te  Te31  1  0.667107  0.832893  0.500000  1
