# generated using pymatgen
data_MnCu2GeS4
_symmetry_space_group_name_H-M   'P 1'
_cell_length_a   6.23957470
_cell_length_b   6.50448263
_cell_length_c   7.59316442
_cell_angle_alpha   90.00000000
_cell_angle_beta   90.00000000
_cell_angle_gamma   90.00000000
_symmetry_Int_Tables_number   1
_chemical_formula_structural   MnCu2GeS4
_chemical_formula_sum   'Mn2 Cu4 Ge2 S8'
_cell_volume   308.17013652
_cell_formula_units_Z   2
loop_
 _symmetry_equiv_pos_site_id
 _symmetry_equiv_pos_as_xyz
  1  'x, y, z'
loop_
 _atom_site_type_symbol
 _atom_site_label
 _atom_site_symmetry_multiplicity
 _atom_site_fract_x
 _atom_site_fract_y
 _atom_site_fract_z
 _atom_site_occupancy
  Mn  Mn0  1  0.502326  0.840898  0.000000  1
  Mn  Mn1  1  0.002326  0.159102  0.500000  1
  Cu  Cu2  1  0.009523  0.675168  0.751199  1
  Cu  Cu3  1  0.009523  0.675168  0.248801  1
  Cu  Cu4  1  0.509523  0.324832  0.251199  1
  Cu  Cu5  1  0.509523  0.324832  0.748801  1
  Ge  Ge6  1  0.501967  0.826470  0.500000  1
  Ge  Ge7  1  0.001967  0.173530  0.000000  1
  S  S8  1  0.377235  0.659004  0.741822  1
  S  S9  1  0.877235  0.340996  0.758178  1
  S  S10  1  0.877235  0.340996  0.241822  1
  S  S11  1  0.377235  0.659004  0.258178  1
  S  S12  1  0.366803  0.183878  0.000000  1
  S  S13  1  0.886797  0.842665  0.000000  1
  S  S14  1  0.866803  0.816122  0.500000  1
  S  S15  1  0.386797  0.157335  0.500000  1
