# generated using pymatgen
data_Cd2P3I
_symmetry_space_group_name_H-M   'P 1'
_cell_length_a   6.30839862
_cell_length_b   6.30839862
_cell_length_c   7.64209475
_cell_angle_alpha   83.71225133
_cell_angle_beta   96.28774867
_cell_angle_gamma   83.34524788
_symmetry_Int_Tables_number   1
_chemical_formula_structural   Cd2P3I
_chemical_formula_sum   'Cd4 P6 I2'
_cell_volume   297.94842259
_cell_formula_units_Z   2
loop_
 _symmetry_equiv_pos_site_id
 _symmetry_equiv_pos_as_xyz
  1  'x, y, z'
loop_
 _atom_site_type_symbol
 _atom_site_label
 _atom_site_symmetry_multiplicity
 _atom_site_fract_x
 _atom_site_fract_y
 _atom_site_fract_z
 _atom_site_occupancy
  Cd  Cd0  1  0.393153  0.894882  0.718690  1
  Cd  Cd1  1  0.894882  0.393153  0.781310  1
  Cd  Cd2  1  0.606847  0.105118  0.281310  1
  Cd  Cd3  1  0.105118  0.606847  0.218690  1
  P  P4  1  0.693909  0.693909  0.250000  1
  P  P5  1  0.653975  0.435307  0.458496  1
  P  P6  1  0.564693  0.346025  0.958496  1
  P  P7  1  0.306091  0.306091  0.750000  1
  P  P8  1  0.435307  0.653975  0.041504  1
  P  P9  1  0.346025  0.564693  0.541504  1
  I  I10  1  0.119512  0.119512  0.250000  1
  I  I11  1  0.880488  0.880488  0.750000  1
