# generated using pymatgen
data_Zr2Te
_symmetry_space_group_name_H-M   'P 1'
_cell_length_a   3.85583865
_cell_length_b   10.77049643
_cell_length_c   20.11477775
_cell_angle_alpha   90.00000000
_cell_angle_beta   90.00000000
_cell_angle_gamma   90.00000000
_symmetry_Int_Tables_number   1
_chemical_formula_structural   Zr2Te
_chemical_formula_sum   'Zr24 Te12'
_cell_volume   835.35256749
_cell_formula_units_Z   12
loop_
 _symmetry_equiv_pos_site_id
 _symmetry_equiv_pos_as_xyz
  1  'x, y, z'
loop_
 _atom_site_type_symbol
 _atom_site_label
 _atom_site_symmetry_multiplicity
 _atom_site_fract_x
 _atom_site_fract_y
 _atom_site_fract_z
 _atom_site_occupancy
  Zr  Zr0  1  0.250000  0.609338  0.984647  1
  Zr  Zr1  1  0.750000  0.390662  0.015353  1
  Zr  Zr2  1  0.750000  0.109338  0.515353  1
  Zr  Zr3  1  0.250000  0.890662  0.484647  1
  Zr  Zr4  1  0.250000  0.077795  0.645668  1
  Zr  Zr5  1  0.750000  0.922205  0.354332  1
  Zr  Zr6  1  0.750000  0.577795  0.854332  1
  Zr  Zr7  1  0.250000  0.422205  0.145668  1
  Zr  Zr8  1  0.250000  0.388255  0.533029  1
  Zr  Zr9  1  0.750000  0.611745  0.466971  1
  Zr  Zr10  1  0.750000  0.888255  0.966971  1
  Zr  Zr11  1  0.250000  0.111745  0.033029  1
  Zr  Zr12  1  0.250000  0.146662  0.395866  1
  Zr  Zr13  1  0.750000  0.853338  0.604134  1
  Zr  Zr14  1  0.750000  0.646662  0.104134  1
  Zr  Zr15  1  0.250000  0.353338  0.895866  1
  Zr  Zr16  1  0.250000  0.457621  0.341365  1
  Zr  Zr17  1  0.750000  0.542379  0.658635  1
  Zr  Zr18  1  0.750000  0.957621  0.158635  1
  Zr  Zr19  1  0.250000  0.042379  0.841365  1
  Zr  Zr20  1  0.250000  0.752387  0.224314  1
  Zr  Zr21  1  0.750000  0.247613  0.775686  1
  Zr  Zr22  1  0.750000  0.252387  0.275686  1
  Zr  Zr23  1  0.250000  0.747613  0.724314  1
  Te  Te24  1  0.250000  0.461942  0.760215  1
  Te  Te25  1  0.750000  0.538058  0.239785  1
  Te  Te26  1  0.750000  0.961942  0.739785  1
  Te  Te27  1  0.250000  0.038058  0.260215  1
  Te  Te28  1  0.250000  0.780746  0.869164  1
  Te  Te29  1  0.750000  0.219254  0.130836  1
  Te  Te30  1  0.750000  0.280746  0.630836  1
  Te  Te31  1  0.250000  0.719254  0.369164  1
  Te  Te32  1  0.250000  0.661263  0.572776  1
  Te  Te33  1  0.750000  0.338737  0.427224  1
  Te  Te34  1  0.750000  0.161263  0.927224  1
  Te  Te35  1  0.250000  0.838737  0.072776  1
