# generated using pymatgen
data_H5BrNO
_symmetry_space_group_name_H-M   'P 1'
_cell_length_a   6.72730457
_cell_length_b   7.33065096
_cell_length_c   7.83034270
_cell_angle_alpha   90.00000000
_cell_angle_beta   111.67391048
_cell_angle_gamma   90.00000000
_symmetry_Int_Tables_number   1
_chemical_formula_structural   H5BrNO
_chemical_formula_sum   'H20 Br4 N4 O4'
_cell_volume   358.85642864
_cell_formula_units_Z   4
loop_
 _symmetry_equiv_pos_site_id
 _symmetry_equiv_pos_as_xyz
  1  'x, y, z'
loop_
 _atom_site_type_symbol
 _atom_site_label
 _atom_site_symmetry_multiplicity
 _atom_site_fract_x
 _atom_site_fract_y
 _atom_site_fract_z
 _atom_site_occupancy
  H  H0  1  0.870449  0.195272  0.865693  1
  H  H1  1  0.129551  0.695272  0.634307  1
  H  H2  1  0.129551  0.804728  0.134307  1
  H  H3  1  0.870449  0.304728  0.365693  1
  H  H4  1  0.761668  0.092978  0.985901  1
  H  H5  1  0.238332  0.592978  0.514099  1
  H  H6  1  0.238332  0.907022  0.014099  1
  H  H7  1  0.761668  0.407022  0.485901  1
  H  H8  1  0.596555  0.042696  0.699321  1
  H  H9  1  0.403445  0.542696  0.800679  1
  H  H10  1  0.403445  0.957304  0.300679  1
  H  H11  1  0.596555  0.457304  0.199321  1
  H  H12  1  0.405236  0.628217  0.095170  1
  H  H13  1  0.594764  0.128217  0.404830  1
  H  H14  1  0.594764  0.371783  0.904830  1
  H  H15  1  0.405236  0.871783  0.595170  1
  H  H16  1  0.344825  0.352941  0.904473  1
  H  H17  1  0.655175  0.852941  0.595527  1
  H  H18  1  0.655175  0.647059  0.095527  1
  H  H19  1  0.344825  0.147059  0.404473  1
  Br  Br20  1  0.160311  0.392885  0.290546  1
  Br  Br21  1  0.839689  0.892885  0.209454  1
  Br  Br22  1  0.839689  0.607115  0.709454  1
  Br  Br23  1  0.160311  0.107115  0.790546  1
  N  N24  1  0.533408  0.549570  0.085508  1
  N  N25  1  0.466592  0.049570  0.414492  1
  N  N26  1  0.533408  0.950430  0.585508  1
  N  N27  1  0.466592  0.450430  0.914492  1
  O  O28  1  0.729359  0.177267  0.877550  1
  O  O29  1  0.270641  0.822733  0.122450  1
  O  O30  1  0.270641  0.677267  0.622450  1
  O  O31  1  0.729359  0.322733  0.377550  1
