# generated using pymatgen
data_Rb3Nb2Br9
_symmetry_space_group_name_H-M   'P 1'
_cell_length_a   7.86767761
_cell_length_b   7.86767761
_cell_length_c   18.27810696
_cell_angle_alpha   90.00000000
_cell_angle_beta   90.00000000
_cell_angle_gamma   120.00000000
_symmetry_Int_Tables_number   1
_chemical_formula_structural   Rb3Nb2Br9
_chemical_formula_sum   'Rb6 Nb4 Br18'
_cell_volume   979.83953253
_cell_formula_units_Z   2
loop_
 _symmetry_equiv_pos_site_id
 _symmetry_equiv_pos_as_xyz
  1  'x, y, z'
loop_
 _atom_site_type_symbol
 _atom_site_label
 _atom_site_symmetry_multiplicity
 _atom_site_fract_x
 _atom_site_fract_y
 _atom_site_fract_z
 _atom_site_occupancy
  Rb  Rb0  1  0.000000  0.000000  0.250000  1
  Rb  Rb1  1  0.000000  0.000000  0.750000  1
  Rb  Rb2  1  0.333333  0.666667  0.067120  1
  Rb  Rb3  1  0.666667  0.333333  0.567120  1
  Rb  Rb4  1  0.333333  0.666667  0.432880  1
  Rb  Rb5  1  0.666667  0.333333  0.932880  1
  Nb  Nb6  1  0.333333  0.666667  0.824444  1
  Nb  Nb7  1  0.666667  0.333333  0.324444  1
  Nb  Nb8  1  0.666667  0.333333  0.175556  1
  Nb  Nb9  1  0.333333  0.666667  0.675556  1
  Br  Br10  1  0.825313  0.174687  0.405983  1
  Br  Br11  1  0.825313  0.650625  0.405983  1
  Br  Br12  1  0.349375  0.174687  0.405983  1
  Br  Br13  1  0.650625  0.825313  0.905983  1
  Br  Br14  1  0.174687  0.349375  0.594017  1
  Br  Br15  1  0.174687  0.825313  0.905983  1
  Br  Br16  1  0.174687  0.349375  0.905983  1
  Br  Br17  1  0.825313  0.174687  0.094017  1
  Br  Br18  1  0.349375  0.174687  0.094017  1
  Br  Br19  1  0.650625  0.825313  0.594017  1
  Br  Br20  1  0.495628  0.991255  0.250000  1
  Br  Br21  1  0.504372  0.495628  0.750000  1
  Br  Br22  1  0.991255  0.495628  0.750000  1
  Br  Br23  1  0.008745  0.504372  0.250000  1
  Br  Br24  1  0.495628  0.504372  0.250000  1
  Br  Br25  1  0.504372  0.008745  0.750000  1
  Br  Br26  1  0.825313  0.650625  0.094017  1
  Br  Br27  1  0.174687  0.825313  0.594017  1
