# generated using pymatgen
data_V2Ga5
_symmetry_space_group_name_H-M   'P 1'
_cell_length_a   8.99258534
_cell_length_b   8.99258534
_cell_length_c   2.68199475
_cell_angle_alpha   90.00000000
_cell_angle_beta   90.00000000
_cell_angle_gamma   90.00000000
_symmetry_Int_Tables_number   1
_chemical_formula_structural   V2Ga5
_chemical_formula_sum   'V4 Ga10'
_cell_volume   216.88377277
_cell_formula_units_Z   2
loop_
 _symmetry_equiv_pos_site_id
 _symmetry_equiv_pos_as_xyz
  1  'x, y, z'
loop_
 _atom_site_type_symbol
 _atom_site_label
 _atom_site_symmetry_multiplicity
 _atom_site_fract_x
 _atom_site_fract_y
 _atom_site_fract_z
 _atom_site_occupancy
  V  V0  1  0.680027  0.180027  0.500000  1
  V  V1  1  0.319973  0.819973  0.500000  1
  V  V2  1  0.180027  0.319973  0.500000  1
  V  V3  1  0.819973  0.680027  0.500000  1
  Ga  Ga4  1  0.500000  0.000000  0.000000  1
  Ga  Ga5  1  0.000000  0.500000  0.000000  1
  Ga  Ga6  1  0.560625  0.706246  0.000000  1
  Ga  Ga7  1  0.439375  0.293754  0.000000  1
  Ga  Ga8  1  0.060625  0.793754  0.000000  1
  Ga  Ga9  1  0.939375  0.206246  0.000000  1
  Ga  Ga10  1  0.293754  0.560625  0.000000  1
  Ga  Ga11  1  0.706246  0.439375  0.000000  1
  Ga  Ga12  1  0.206246  0.060625  0.000000  1
  Ga  Ga13  1  0.793754  0.939375  0.000000  1
