# generated using pymatgen
data_SrIn2Ir
_symmetry_space_group_name_H-M   'P 1'
_cell_length_a   5.98833650
_cell_length_b   5.98833650
_cell_length_c   8.18679076
_cell_angle_alpha   90.00000000
_cell_angle_beta   90.00000000
_cell_angle_gamma   137.50467731
_symmetry_Int_Tables_number   1
_chemical_formula_structural   SrIn2Ir
_chemical_formula_sum   'Sr2 In4 Ir2'
_cell_volume   198.32192830
_cell_formula_units_Z   2
loop_
 _symmetry_equiv_pos_site_id
 _symmetry_equiv_pos_as_xyz
  1  'x, y, z'
loop_
 _atom_site_type_symbol
 _atom_site_label
 _atom_site_symmetry_multiplicity
 _atom_site_fract_x
 _atom_site_fract_y
 _atom_site_fract_z
 _atom_site_occupancy
  Sr  Sr0  1  0.939242  0.060758  0.750000  1
  Sr  Sr1  1  0.060758  0.939242  0.250000  1
  In  In2  1  0.654524  0.345476  0.947338  1
  In  In3  1  0.654524  0.345476  0.552662  1
  In  In4  1  0.345476  0.654524  0.052662  1
  In  In5  1  0.345476  0.654524  0.447338  1
  Ir  Ir6  1  0.219988  0.780012  0.750000  1
  Ir  Ir7  1  0.780012  0.219988  0.250000  1
