# generated using pymatgen
data_Mn6Si7Ni16
_symmetry_space_group_name_H-M   'P 1'
_cell_length_a   7.83118041
_cell_length_b   7.83118041
_cell_length_c   7.83118041
_cell_angle_alpha   60.00000000
_cell_angle_beta   60.00000000
_cell_angle_gamma   60.00000000
_symmetry_Int_Tables_number   1
_chemical_formula_structural   Mn6Si7Ni16
_chemical_formula_sum   'Mn6 Si7 Ni16'
_cell_volume   339.59922437
_cell_formula_units_Z   1
loop_
 _symmetry_equiv_pos_site_id
 _symmetry_equiv_pos_as_xyz
  1  'x, y, z'
loop_
 _atom_site_type_symbol
 _atom_site_label
 _atom_site_symmetry_multiplicity
 _atom_site_fract_x
 _atom_site_fract_y
 _atom_site_fract_z
 _atom_site_occupancy
  Mn  Mn0  1  0.693886  0.306114  0.306114  1
  Mn  Mn1  1  0.306114  0.693886  0.306114  1
  Mn  Mn2  1  0.693886  0.306114  0.693886  1
  Mn  Mn3  1  0.693886  0.693886  0.306114  1
  Mn  Mn4  1  0.306114  0.306114  0.693886  1
  Mn  Mn5  1  0.306114  0.693886  0.693886  1
  Si  Si6  1  0.000000  0.000000  0.000000  1
  Si  Si7  1  0.000000  0.500000  0.500000  1
  Si  Si8  1  0.000000  0.500000  1.000000  1
  Si  Si9  1  0.500000  0.000000  0.500000  1
  Si  Si10  1  0.500000  0.000000  0.000000  1
  Si  Si11  1  0.500000  0.500000  1.000000  1
  Si  Si12  1  1.000000  1.000000  0.500000  1
  Ni  Ni13  1  0.665451  0.003648  0.665451  1
  Ni  Ni14  1  0.334549  0.334549  0.334549  1
  Ni  Ni15  1  0.334549  0.334549  0.996352  1
  Ni  Ni16  1  0.996352  0.334549  0.334549  1
  Ni  Ni17  1  0.665451  0.665451  0.003648  1
  Ni  Ni18  1  0.003648  0.665451  0.665451  1
  Ni  Ni19  1  0.665451  0.665451  0.665451  1
  Ni  Ni20  1  0.334549  0.996352  0.334549  1
  Ni  Ni21  1  0.882393  0.352821  0.882393  1
  Ni  Ni22  1  0.117607  0.117607  0.117607  1
  Ni  Ni23  1  0.117607  0.117607  0.647179  1
  Ni  Ni24  1  0.647179  0.117607  0.117607  1
  Ni  Ni25  1  0.882393  0.882393  0.352821  1
  Ni  Ni26  1  0.352821  0.882393  0.882393  1
  Ni  Ni27  1  0.882393  0.882393  0.882393  1
  Ni  Ni28  1  0.117607  0.647179  0.117607  1
