# generated using pymatgen
data_Sc3C4
_symmetry_space_group_name_H-M   'P 1'
_cell_length_a   7.51921038
_cell_length_b   7.51921038
_cell_length_c   15.08178544
_cell_angle_alpha   90.00000000
_cell_angle_beta   90.00000000
_cell_angle_gamma   90.00000000
_symmetry_Int_Tables_number   1
_chemical_formula_structural   Sc3C4
_chemical_formula_sum   'Sc30 C40'
_cell_volume   852.70189920
_cell_formula_units_Z   10
loop_
 _symmetry_equiv_pos_site_id
 _symmetry_equiv_pos_as_xyz
  1  'x, y, z'
loop_
 _atom_site_type_symbol
 _atom_site_label
 _atom_site_symmetry_multiplicity
 _atom_site_fract_x
 _atom_site_fract_y
 _atom_site_fract_z
 _atom_site_occupancy
  Sc  Sc0  1  0.787410  0.600440  0.643414  1
  Sc  Sc1  1  0.212590  0.399560  0.643414  1
  Sc  Sc2  1  0.100440  0.287410  0.856586  1
  Sc  Sc3  1  0.600440  0.212590  0.643414  1
  Sc  Sc4  1  0.399560  0.787410  0.643414  1
  Sc  Sc5  1  0.712590  0.100440  0.856586  1
  Sc  Sc6  1  0.287410  0.899560  0.856586  1
  Sc  Sc7  1  0.899560  0.712590  0.856586  1
  Sc  Sc8  1  0.212590  0.399560  0.356586  1
  Sc  Sc9  1  0.787410  0.600440  0.356586  1
  Sc  Sc10  1  0.899560  0.712590  0.143414  1
  Sc  Sc11  1  0.399560  0.787410  0.356586  1
  Sc  Sc12  1  0.600440  0.212590  0.356586  1
  Sc  Sc13  1  0.287410  0.899560  0.143414  1
  Sc  Sc14  1  0.712590  0.100440  0.143414  1
  Sc  Sc15  1  0.100440  0.287410  0.143414  1
  Sc  Sc16  1  0.301377  0.096808  0.500000  1
  Sc  Sc17  1  0.698623  0.903192  0.500000  1
  Sc  Sc18  1  0.596808  0.801377  0.000000  1
  Sc  Sc19  1  0.096808  0.698623  0.500000  1
  Sc  Sc20  1  0.903192  0.301377  0.500000  1
  Sc  Sc21  1  0.198623  0.596808  0.000000  1
  Sc  Sc22  1  0.801377  0.403192  0.000000  1
  Sc  Sc23  1  0.403192  0.198623  0.000000  1
  Sc  Sc24  1  0.500000  0.500000  0.812321  1
  Sc  Sc25  1  0.000000  0.000000  0.687679  1
  Sc  Sc26  1  0.500000  0.500000  0.187679  1
  Sc  Sc27  1  0.000000  0.000000  0.312321  1
  Sc  Sc28  1  0.500000  0.500000  0.500000  1
  Sc  Sc29  1  0.000000  0.000000  0.000000  1
  C  C30  1  0.350020  0.149980  0.750000  1
  C  C31  1  0.850020  0.350020  0.750000  1
  C  C32  1  0.149980  0.649980  0.750000  1
  C  C33  1  0.649980  0.850020  0.750000  1
  C  C34  1  0.649980  0.850020  0.250000  1
  C  C35  1  0.149980  0.649980  0.250000  1
  C  C36  1  0.850020  0.350020  0.250000  1
  C  C37  1  0.350020  0.149980  0.250000  1
  C  C38  1  0.692625  0.902623  0.667456  1
  C  C39  1  0.307375  0.097377  0.667456  1
  C  C40  1  0.402623  0.192625  0.832544  1
  C  C41  1  0.902623  0.307375  0.667456  1
  C  C42  1  0.097377  0.692625  0.667456  1
  C  C43  1  0.807375  0.402623  0.832544  1
  C  C44  1  0.192625  0.597377  0.832544  1
  C  C45  1  0.597377  0.807375  0.832544  1
  C  C46  1  0.307375  0.097377  0.332544  1
  C  C47  1  0.692625  0.902623  0.332544  1
  C  C48  1  0.597377  0.807375  0.167456  1
  C  C49  1  0.097377  0.692625  0.332544  1
  C  C50  1  0.902623  0.307375  0.332544  1
  C  C51  1  0.192625  0.597377  0.167456  1
  C  C52  1  0.807375  0.402623  0.167456  1
  C  C53  1  0.402623  0.192625  0.167456  1
  C  C54  1  0.393274  0.803313  0.500000  1
  C  C55  1  0.606726  0.196687  0.500000  1
  C  C56  1  0.303313  0.893274  0.000000  1
  C  C57  1  0.803313  0.606726  0.500000  1
  C  C58  1  0.196687  0.393274  0.500000  1
  C  C59  1  0.106726  0.303313  0.000000  1
  C  C60  1  0.000000  0.000000  0.542835  1
  C  C61  1  0.500000  0.500000  0.957165  1
  C  C62  1  0.000000  0.000000  0.457165  1
  C  C63  1  0.500000  0.500000  0.042835  1
  C  C64  1  0.000000  0.000000  0.156694  1
  C  C65  1  0.500000  0.500000  0.343306  1
  C  C66  1  0.000000  0.000000  0.843306  1
  C  C67  1  0.500000  0.500000  0.656694  1
  C  C68  1  0.696687  0.106726  0.000000  1
  C  C69  1  0.893274  0.696687  0.000000  1
