# generated using pymatgen
data_K(InAu2)2
_symmetry_space_group_name_H-M   'P 1'
_cell_length_a   7.57643208
_cell_length_b   7.57643208
_cell_length_c   7.57643208
_cell_angle_alpha   108.77212417
_cell_angle_beta   108.77212417
_cell_angle_gamma   110.87864748
_symmetry_Int_Tables_number   1
_chemical_formula_structural   K(InAu2)2
_chemical_formula_sum   'K2 In4 Au8'
_cell_volume   334.63794040
_cell_formula_units_Z   2
loop_
 _symmetry_equiv_pos_site_id
 _symmetry_equiv_pos_as_xyz
  1  'x, y, z'
loop_
 _atom_site_type_symbol
 _atom_site_label
 _atom_site_symmetry_multiplicity
 _atom_site_fract_x
 _atom_site_fract_y
 _atom_site_fract_z
 _atom_site_occupancy
  K  K0  1  0.750000  0.750000  0.000000  1
  K  K1  1  0.250000  0.250000  0.000000  1
  In  In2  1  0.853343  0.353343  0.206685  1
  In  In3  1  0.646657  0.853343  0.500000  1
  In  In4  1  0.353343  0.146657  0.500000  1
  In  In5  1  0.146657  0.646657  0.793315  1
  Au  Au6  1  0.315125  0.515055  0.500000  1
  Au  Au7  1  0.815125  0.315125  0.800071  1
  Au  Au8  1  0.015055  0.815125  0.500000  1
  Au  Au9  1  0.515055  0.015055  0.199929  1
  Au  Au10  1  0.184875  0.684875  0.199929  1
  Au  Au11  1  0.984945  0.184875  0.500000  1
  Au  Au12  1  0.684875  0.484945  0.500000  1
  Au  Au13  1  0.484945  0.984945  0.800071  1
