# generated using pymatgen
data_PtBr3
_symmetry_space_group_name_H-M   'P 1'
_cell_length_a   13.74759260
_cell_length_b   13.74759260
_cell_length_c   13.74759260
_cell_angle_alpha   115.10259712
_cell_angle_beta   115.10259712
_cell_angle_gamma   115.10259712
_symmetry_Int_Tables_number   1
_chemical_formula_structural   PtBr3
_chemical_formula_sum   'Pt12 Br36'
_cell_volume   1440.44578055
_cell_formula_units_Z   12
loop_
 _symmetry_equiv_pos_site_id
 _symmetry_equiv_pos_as_xyz
  1  'x, y, z'
loop_
 _atom_site_type_symbol
 _atom_site_label
 _atom_site_symmetry_multiplicity
 _atom_site_fract_x
 _atom_site_fract_y
 _atom_site_fract_z
 _atom_site_occupancy
  Pt  Pt0  1  0.228885  0.475611  0.801300  1
  Pt  Pt1  1  0.801300  0.228885  0.475611  1
  Pt  Pt2  1  0.475611  0.801300  0.228885  1
  Pt  Pt3  1  0.771115  0.524389  0.198700  1
  Pt  Pt4  1  0.198700  0.771115  0.524389  1
  Pt  Pt5  1  0.524389  0.198700  0.771115  1
  Pt  Pt6  1  0.757024  0.835475  0.935039  1
  Pt  Pt7  1  0.935039  0.757024  0.835475  1
  Pt  Pt8  1  0.835475  0.935039  0.757024  1
  Pt  Pt9  1  0.242976  0.164525  0.064961  1
  Pt  Pt10  1  0.064961  0.242976  0.164525  1
  Pt  Pt11  1  0.164525  0.064961  0.242976  1
  Br  Br12  1  0.762712  0.347042  0.832903  1
  Br  Br13  1  0.832903  0.762712  0.347042  1
  Br  Br14  1  0.347042  0.832903  0.762712  1
  Br  Br15  1  0.237288  0.652958  0.167097  1
  Br  Br16  1  0.167097  0.237288  0.652958  1
  Br  Br17  1  0.652958  0.167097  0.237288  1
  Br  Br18  1  0.554395  0.050149  0.396497  1
  Br  Br19  1  0.396497  0.554395  0.050149  1
  Br  Br20  1  0.050149  0.396497  0.554395  1
  Br  Br21  1  0.445605  0.949851  0.603503  1
  Br  Br22  1  0.603503  0.445605  0.949851  1
  Br  Br23  1  0.949852  0.603503  0.445605  1
  Br  Br24  1  0.699670  0.602326  0.776401  1
  Br  Br25  1  0.602326  0.776401  0.699670  1
  Br  Br26  1  0.776401  0.699670  0.602326  1
  Br  Br27  1  0.300330  0.397674  0.223599  1
  Br  Br28  1  0.397674  0.223599  0.300330  1
  Br  Br29  1  0.223599  0.300330  0.397674  1
  Br  Br30  1  0.174313  0.923594  0.903194  1
  Br  Br31  1  0.923594  0.903194  0.174313  1
  Br  Br32  1  0.903194  0.174313  0.923594  1
  Br  Br33  1  0.825687  0.076406  0.096806  1
  Br  Br34  1  0.076406  0.096806  0.825687  1
  Br  Br35  1  0.096806  0.825687  0.076406  1
  Br  Br36  1  0.310369  0.728695  0.973438  1
  Br  Br37  1  0.728695  0.973438  0.310369  1
  Br  Br38  1  0.973438  0.310369  0.728695  1
  Br  Br39  1  0.689631  0.271305  0.026562  1
  Br  Br40  1  0.271305  0.026562  0.689631  1
  Br  Br41  1  0.026562  0.689631  0.271305  1
  Br  Br42  1  0.373089  0.148662  0.536510  1
  Br  Br43  1  0.148662  0.536510  0.373089  1
  Br  Br44  1  0.536510  0.373089  0.148662  1
  Br  Br45  1  0.626911  0.851338  0.463490  1
  Br  Br46  1  0.851338  0.463490  0.626911  1
  Br  Br47  1  0.463490  0.626911  0.851338  1
