# generated using pymatgen
data_CaAs2(HO2)4
_symmetry_space_group_name_H-M   'P 1'
_cell_length_a   5.77457976
_cell_length_b   7.94510010
_cell_length_c   8.75632866
_cell_angle_alpha   111.40361612
_cell_angle_beta   109.15302660
_cell_angle_gamma   92.84010362
_symmetry_Int_Tables_number   1
_chemical_formula_structural   CaAs2(HO2)4
_chemical_formula_sum   'Ca2 As4 H8 O16'
_cell_volume   346.71953868
_cell_formula_units_Z   2
loop_
 _symmetry_equiv_pos_site_id
 _symmetry_equiv_pos_as_xyz
  1  'x, y, z'
loop_
 _atom_site_type_symbol
 _atom_site_label
 _atom_site_symmetry_multiplicity
 _atom_site_fract_x
 _atom_site_fract_y
 _atom_site_fract_z
 _atom_site_occupancy
  Ca  Ca0  1  0.309034  0.184736  0.082342  1
  Ca  Ca1  1  0.690966  0.815264  0.917658  1
  As  As2  1  0.328348  0.770477  0.183997  1
  As  As3  1  0.671652  0.229523  0.816003  1
  As  As4  1  0.977725  0.240796  0.342901  1
  As  As5  1  0.022275  0.759204  0.657099  1
  H  H6  1  0.500000  0.000000  0.500000  1
  H  H7  1  0.000000  0.500000  0.000000  1
  H  H8  1  0.648849  0.628157  0.271598  1
  H  H9  1  0.351151  0.371843  0.728402  1
  H  H10  1  0.269855  0.516653  0.498170  1
  H  H11  1  0.730145  0.483347  0.501830  1
  H  H12  1  0.914958  0.178582  0.568246  1
  H  H13  1  0.085042  0.821418  0.431754  1
  O  O14  1  0.999127  0.063846  0.171241  1
  O  O15  1  0.230013  0.404700  0.382199  1
  O  O16  1  0.931369  0.786898  0.455290  1
  O  O17  1  0.769987  0.595300  0.617801  1
  O  O18  1  0.292831  0.679076  0.685189  1
  O  O19  1  0.707169  0.320924  0.314811  1
  O  O20  1  0.973232  0.335423  0.959333  1
  O  O21  1  0.026768  0.664577  0.040667  1
  O  O22  1  0.528502  0.091915  0.880472  1
  O  O23  1  0.471498  0.908085  0.119528  1
  O  O24  1  0.521217  0.420177  0.822373  1
  O  O25  1  0.478783  0.579823  0.177627  1
  O  O26  1  0.670893  0.125810  0.605701  1
  O  O27  1  0.329107  0.874190  0.394299  1
  O  O28  1  0.068631  0.213102  0.544710  1
  O  O29  1  0.000873  0.936154  0.828759  1
