# generated using pymatgen
data_Cu4As2O9
_symmetry_space_group_name_H-M   'P 1'
_cell_length_a   6.51290927
_cell_length_b   8.32979382
_cell_length_c   14.08438612
_cell_angle_alpha   90.00000000
_cell_angle_beta   90.00000000
_cell_angle_gamma   90.00000000
_symmetry_Int_Tables_number   1
_chemical_formula_structural   Cu4As2O9
_chemical_formula_sum   'Cu16 As8 O36'
_cell_volume   764.09472697
_cell_formula_units_Z   4
loop_
 _symmetry_equiv_pos_site_id
 _symmetry_equiv_pos_as_xyz
  1  'x, y, z'
loop_
 _atom_site_type_symbol
 _atom_site_label
 _atom_site_symmetry_multiplicity
 _atom_site_fract_x
 _atom_site_fract_y
 _atom_site_fract_z
 _atom_site_occupancy
  Cu  Cu0  1  0.250000  0.365057  0.449613  1
  Cu  Cu1  1  0.750000  0.634943  0.550387  1
  Cu  Cu2  1  0.250000  0.865057  0.050387  1
  Cu  Cu3  1  0.750000  0.134943  0.949613  1
  Cu  Cu4  1  0.992767  0.352973  0.654851  1
  Cu  Cu5  1  0.492767  0.647027  0.345149  1
  Cu  Cu6  1  0.507233  0.852973  0.845149  1
  Cu  Cu7  1  0.007233  0.147027  0.154851  1
  Cu  Cu8  1  0.007233  0.647027  0.345149  1
  Cu  Cu9  1  0.507233  0.352973  0.654851  1
  Cu  Cu10  1  0.492767  0.147027  0.154851  1
  Cu  Cu11  1  0.992767  0.852973  0.845149  1
  Cu  Cu12  1  0.250000  0.573583  0.913242  1
  Cu  Cu13  1  0.750000  0.426417  0.086758  1
  Cu  Cu14  1  0.250000  0.073583  0.586758  1
  Cu  Cu15  1  0.750000  0.926417  0.413242  1
  As  As16  1  0.250000  0.500428  0.156472  1
  As  As17  1  0.750000  0.499572  0.843528  1
  As  As18  1  0.250000  0.000428  0.343528  1
  As  As19  1  0.750000  0.999572  0.656472  1
  As  As20  1  0.250000  0.155772  0.909554  1
  As  As21  1  0.750000  0.844228  0.090446  1
  As  As22  1  0.250000  0.655772  0.590446  1
  As  As23  1  0.750000  0.344228  0.409553  1
  O  O24  1  0.250000  0.353961  0.884144  1
  O  O25  1  0.750000  0.646039  0.115856  1
  O  O26  1  0.250000  0.853961  0.615856  1
  O  O27  1  0.750000  0.146039  0.384144  1
  O  O28  1  0.250000  0.310658  0.591626  1
  O  O29  1  0.750000  0.689342  0.408374  1
  O  O30  1  0.250000  0.810658  0.908374  1
  O  O31  1  0.750000  0.189342  0.091626  1
  O  O32  1  0.966671  0.620075  0.852065  1
  O  O33  1  0.466671  0.379925  0.147935  1
  O  O34  1  0.533329  0.120075  0.647935  1
  O  O35  1  0.033329  0.879925  0.352065  1
  O  O36  1  0.033329  0.379925  0.147935  1
  O  O37  1  0.533329  0.620075  0.852065  1
  O  O38  1  0.250000  0.630335  0.060913  1
  O  O39  1  0.466671  0.879925  0.352065  1
  O  O40  1  0.025008  0.581690  0.641947  1
  O  O41  1  0.525008  0.418310  0.358053  1
  O  O42  1  0.474992  0.081690  0.858053  1
  O  O43  1  0.974992  0.918310  0.141947  1
  O  O44  1  0.974992  0.418310  0.358053  1
  O  O45  1  0.474992  0.581690  0.641947  1
  O  O46  1  0.525008  0.918310  0.141947  1
  O  O47  1  0.025008  0.081690  0.858053  1
  O  O48  1  0.750000  0.885143  0.761368  1
  O  O49  1  0.250000  0.114857  0.238632  1
  O  O50  1  0.750000  0.385143  0.738632  1
  O  O51  1  0.250000  0.614857  0.261368  1
  O  O52  1  0.750000  0.899614  0.971321  1
  O  O53  1  0.250000  0.100386  0.028679  1
  O  O54  1  0.750000  0.399614  0.528679  1
  O  O55  1  0.250000  0.600386  0.471321  1
  O  O56  1  0.750000  0.869665  0.560913  1
  O  O57  1  0.250000  0.130335  0.439087  1
  O  O58  1  0.750000  0.369665  0.939087  1
  O  O59  1  0.966671  0.120075  0.647935  1
