# generated using pymatgen
data_Rb3Sb2Br9
_symmetry_space_group_name_H-M   'P 1'
_cell_length_a   8.05060876
_cell_length_b   8.05060876
_cell_length_c   9.77617868
_cell_angle_alpha   90.00000000
_cell_angle_beta   90.00000000
_cell_angle_gamma   120.00000000
_symmetry_Int_Tables_number   1
_chemical_formula_structural   Rb3Sb2Br9
_chemical_formula_sum   'Rb3 Sb2 Br9'
_cell_volume   548.72810570
_cell_formula_units_Z   1
loop_
 _symmetry_equiv_pos_site_id
 _symmetry_equiv_pos_as_xyz
  1  'x, y, z'
loop_
 _atom_site_type_symbol
 _atom_site_label
 _atom_site_symmetry_multiplicity
 _atom_site_fract_x
 _atom_site_fract_y
 _atom_site_fract_z
 _atom_site_occupancy
  Rb  Rb0  1  0.000000  0.000000  0.000000  1
  Rb  Rb1  1  0.666667  0.333333  0.669764  1
  Rb  Rb2  1  0.333333  0.666667  0.330236  1
  Sb  Sb3  1  0.666667  0.333333  0.187992  1
  Sb  Sb4  1  0.333333  0.666667  0.812008  1
  Br  Br5  1  0.827844  0.172156  0.338797  1
  Br  Br6  1  0.827844  0.655688  0.338797  1
  Br  Br7  1  0.344312  0.172156  0.338797  1
  Br  Br8  1  0.655688  0.827844  0.661203  1
  Br  Br9  1  0.172156  0.344312  0.661203  1
  Br  Br10  1  0.500000  0.500000  0.000000  1
  Br  Br11  1  0.500000  0.000000  0.000000  1
  Br  Br12  1  0.000000  0.500000  0.000000  1
  Br  Br13  1  0.172156  0.827844  0.661203  1
