# generated using pymatgen
data_Nd2(SO4)3
_symmetry_space_group_name_H-M   'P 1'
_cell_length_a   11.34984374
_cell_length_b   11.34984374
_cell_length_c   7.00254927
_cell_angle_alpha   73.65240170
_cell_angle_beta   106.34759830
_cell_angle_gamma   145.38840673
_symmetry_Int_Tables_number   1
_chemical_formula_structural   Nd2(SO4)3
_chemical_formula_sum   'Nd4 S6 O24'
_cell_volume   489.60772652
_cell_formula_units_Z   2
loop_
 _symmetry_equiv_pos_site_id
 _symmetry_equiv_pos_as_xyz
  1  'x, y, z'
loop_
 _atom_site_type_symbol
 _atom_site_label
 _atom_site_symmetry_multiplicity
 _atom_site_fract_x
 _atom_site_fract_y
 _atom_site_fract_z
 _atom_site_occupancy
  Nd  Nd0  1  0.485654  0.221800  0.631021  1
  Nd  Nd1  1  0.221800  0.485654  0.868979  1
  Nd  Nd2  1  0.514346  0.778200  0.368979  1
  Nd  Nd3  1  0.778200  0.514346  0.131021  1
  S  S4  1  0.665579  0.665579  0.250000  1
  S  S5  1  0.334421  0.334421  0.750000  1
  S  S6  1  0.633492  0.999973  0.821734  1
  S  S7  1  0.999973  0.633492  0.678266  1
  S  S8  1  0.366508  0.000027  0.178266  1
  S  S9  1  0.000027  0.366508  0.321734  1
  O  O10  1  0.479153  0.591014  0.143624  1
  O  O11  1  0.591014  0.479153  0.356376  1
  O  O12  1  0.520847  0.408986  0.856376  1
  O  O13  1  0.408986  0.520847  0.643624  1
  O  O14  1  0.856192  0.150602  0.874290  1
  O  O15  1  0.150602  0.856192  0.625710  1
  O  O16  1  0.143808  0.849398  0.125710  1
  O  O17  1  0.849398  0.143808  0.374290  1
  O  O18  1  0.761317  0.808729  0.390343  1
  O  O19  1  0.808729  0.761317  0.109657  1
  O  O20  1  0.840918  0.536947  0.801959  1
  O  O21  1  0.536947  0.840918  0.698041  1
  O  O22  1  0.159082  0.463053  0.198041  1
  O  O23  1  0.463053  0.159082  0.301959  1
  O  O24  1  0.896081  0.397762  0.210125  1
  O  O25  1  0.397762  0.896081  0.289875  1
  O  O26  1  0.103919  0.602238  0.789875  1
  O  O27  1  0.602238  0.103919  0.710125  1
  O  O28  1  0.127827  0.482099  0.504422  1
  O  O29  1  0.482099  0.127827  0.995578  1
  O  O30  1  0.872173  0.517901  0.495578  1
  O  O31  1  0.517901  0.872173  0.004422  1
  O  O32  1  0.191271  0.238683  0.890343  1
  O  O33  1  0.238683  0.191271  0.609657  1
