# generated using pymatgen
data_SrAl
_symmetry_space_group_name_H-M   'P 1'
_cell_length_a   12.77133376
_cell_length_b   12.77133376
_cell_length_c   12.77133376
_cell_angle_alpha   90.00000000
_cell_angle_beta   90.00000000
_cell_angle_gamma   90.00000000
_symmetry_Int_Tables_number   1
_chemical_formula_structural   SrAl
_chemical_formula_sum   'Sr32 Al32'
_cell_volume   2083.09350149
_cell_formula_units_Z   32
loop_
 _symmetry_equiv_pos_site_id
 _symmetry_equiv_pos_as_xyz
  1  'x, y, z'
loop_
 _atom_site_type_symbol
 _atom_site_label
 _atom_site_symmetry_multiplicity
 _atom_site_fract_x
 _atom_site_fract_y
 _atom_site_fract_z
 _atom_site_occupancy
  Sr  Sr0  1  0.201681  0.936307  0.981530  1
  Sr  Sr1  1  0.295195  0.704805  0.204805  1
  Sr  Sr2  1  0.704805  0.204805  0.295195  1
  Sr  Sr3  1  0.795195  0.795195  0.795195  1
  Sr  Sr4  1  0.807760  0.692240  0.307760  1
  Sr  Sr5  1  0.692240  0.307760  0.807760  1
  Sr  Sr6  1  0.307760  0.807760  0.692240  1
  Sr  Sr7  1  0.192240  0.192240  0.192240  1
  Sr  Sr8  1  0.018470  0.701681  0.563693  1
  Sr  Sr9  1  0.518470  0.798319  0.436307  1
  Sr  Sr10  1  0.981530  0.201681  0.936307  1
  Sr  Sr11  1  0.798319  0.436307  0.518470  1
  Sr  Sr12  1  0.936307  0.981530  0.201681  1
  Sr  Sr13  1  0.436307  0.518470  0.798319  1
  Sr  Sr14  1  0.701681  0.563693  0.018470  1
  Sr  Sr15  1  0.563693  0.018470  0.701681  1
  Sr  Sr16  1  0.204805  0.295195  0.704805  1
  Sr  Sr17  1  0.298319  0.063693  0.481530  1
  Sr  Sr18  1  0.063693  0.481530  0.298319  1
  Sr  Sr19  1  0.481530  0.298319  0.063693  1
  Sr  Sr20  1  0.302788  0.562235  0.498777  1
  Sr  Sr21  1  0.802788  0.937765  0.501223  1
  Sr  Sr22  1  0.697212  0.062235  0.001223  1
  Sr  Sr23  1  0.937765  0.501223  0.802788  1
  Sr  Sr24  1  0.001223  0.697212  0.062235  1
  Sr  Sr25  1  0.501223  0.802788  0.937765  1
  Sr  Sr26  1  0.562235  0.498777  0.302788  1
  Sr  Sr27  1  0.498777  0.302788  0.562235  1
  Sr  Sr28  1  0.062235  0.001223  0.697212  1
  Sr  Sr29  1  0.437765  0.998777  0.197212  1
  Sr  Sr30  1  0.998777  0.197212  0.437765  1
  Sr  Sr31  1  0.197212  0.437765  0.998777  1
  Al  Al32  1  0.064205  0.435795  0.564205  1
  Al  Al33  1  0.435795  0.564205  0.064205  1
  Al  Al34  1  0.564205  0.064205  0.435795  1
  Al  Al35  1  0.935795  0.935795  0.935795  1
  Al  Al36  1  0.436443  0.063557  0.936443  1
  Al  Al37  1  0.063557  0.936443  0.436443  1
  Al  Al38  1  0.936443  0.436443  0.063557  1
  Al  Al39  1  0.563557  0.563557  0.563557  1
  Al  Al40  1  0.258542  0.678280  0.923492  1
  Al  Al41  1  0.758542  0.821720  0.076508  1
  Al  Al42  1  0.741458  0.178280  0.576508  1
  Al  Al43  1  0.821720  0.076508  0.758542  1
  Al  Al44  1  0.576508  0.741458  0.178280  1
  Al  Al45  1  0.076508  0.758542  0.821720  1
  Al  Al46  1  0.678280  0.923492  0.258542  1
  Al  Al47  1  0.236210  0.812633  0.433494  1
  Al  Al48  1  0.178280  0.576508  0.741458  1
  Al  Al49  1  0.321720  0.423492  0.241458  1
  Al  Al50  1  0.423492  0.241458  0.321720  1
  Al  Al51  1  0.241458  0.321720  0.423492  1
  Al  Al52  1  0.263790  0.187367  0.933494  1
  Al  Al53  1  0.763790  0.312633  0.066506  1
  Al  Al54  1  0.736210  0.687367  0.566506  1
  Al  Al55  1  0.312633  0.066506  0.763790  1
  Al  Al56  1  0.566506  0.736210  0.687367  1
  Al  Al57  1  0.066506  0.763790  0.312633  1
  Al  Al58  1  0.187367  0.933494  0.263790  1
  Al  Al59  1  0.933494  0.263790  0.187367  1
  Al  Al60  1  0.687367  0.566506  0.736210  1
  Al  Al61  1  0.812633  0.433494  0.236210  1
  Al  Al62  1  0.433494  0.236210  0.812633  1
  Al  Al63  1  0.923492  0.258542  0.678280  1
