# generated using pymatgen
data_NaVP2O7
_symmetry_space_group_name_H-M   'P 1'
_cell_length_a   7.43929888
_cell_length_b   8.10416721
_cell_length_c   9.71148443
_cell_angle_alpha   90.00000000
_cell_angle_beta   111.84303809
_cell_angle_gamma   90.00000000
_symmetry_Int_Tables_number   1
_chemical_formula_structural   NaVP2O7
_chemical_formula_sum   'Na4 V4 P8 O28'
_cell_volume   543.46386767
_cell_formula_units_Z   4
loop_
 _symmetry_equiv_pos_site_id
 _symmetry_equiv_pos_as_xyz
  1  'x, y, z'
loop_
 _atom_site_type_symbol
 _atom_site_label
 _atom_site_symmetry_multiplicity
 _atom_site_fract_x
 _atom_site_fract_y
 _atom_site_fract_z
 _atom_site_occupancy
  Na  Na0  1  0.786711  0.471780  0.291058  1
  Na  Na1  1  0.213289  0.971780  0.208942  1
  Na  Na2  1  0.213289  0.528220  0.708942  1
  Na  Na3  1  0.786711  0.028220  0.791058  1
  V  V4  1  0.760114  0.007994  0.249158  1
  V  V5  1  0.239886  0.507994  0.250842  1
  V  V6  1  0.239886  0.992006  0.750842  1
  V  V7  1  0.760114  0.492006  0.749158  1
  P  P8  1  0.427363  0.756374  0.045157  1
  P  P9  1  0.572637  0.256374  0.454843  1
  P  P10  1  0.572637  0.243626  0.954843  1
  P  P11  1  0.427363  0.743626  0.545157  1
  P  P12  1  0.827042  0.710656  0.047164  1
  P  P13  1  0.172958  0.210656  0.452836  1
  P  P14  1  0.172958  0.289344  0.952836  1
  P  P15  1  0.827042  0.789344  0.547164  1
  O  O16  1  0.312524  0.639576  0.101202  1
  O  O17  1  0.687476  0.139576  0.398798  1
  O  O18  1  0.687476  0.360424  0.898798  1
  O  O19  1  0.312524  0.860424  0.601202  1
  O  O20  1  0.866127  0.890406  0.099917  1
  O  O21  1  0.133873  0.390406  0.400083  1
  O  O22  1  0.133873  0.109594  0.900083  1
  O  O23  1  0.866127  0.609594  0.599917  1
  O  O24  1  0.965887  0.587743  0.153908  1
  O  O25  1  0.034113  0.087743  0.346092  1
  O  O26  1  0.034113  0.412257  0.846092  1
  O  O27  1  0.965887  0.912257  0.653908  1
  O  O28  1  0.623959  0.655739  0.062308  1
  O  O29  1  0.376041  0.155739  0.437692  1
  O  O30  1  0.376041  0.344261  0.937692  1
  O  O31  1  0.623959  0.844261  0.562308  1
  O  O32  1  0.487906  0.914334  0.139119  1
  O  O33  1  0.512094  0.414334  0.360881  1
  O  O34  1  0.512094  0.085666  0.860881  1
  O  O35  1  0.487906  0.585666  0.639119  1
  O  O36  1  0.806898  0.804403  0.384994  1
  O  O37  1  0.193102  0.304403  0.115006  1
  O  O38  1  0.193102  0.195597  0.615006  1
  O  O39  1  0.806898  0.695597  0.884994  1
  O  O40  1  0.679886  0.210762  0.121135  1
  O  O41  1  0.320114  0.710762  0.378865  1
  O  O42  1  0.320114  0.789238  0.878865  1
  O  O43  1  0.679886  0.289238  0.621135  1
