# generated using pymatgen
data_Gd2NCl3
_symmetry_space_group_name_H-M   'P 1'
_cell_length_a   6.17203263
_cell_length_b   6.77507805
_cell_length_c   13.15226621
_cell_angle_alpha   90.00000000
_cell_angle_beta   90.00000000
_cell_angle_gamma   90.00000000
_symmetry_Int_Tables_number   1
_chemical_formula_structural   Gd2NCl3
_chemical_formula_sum   'Gd8 N4 Cl12'
_cell_volume   549.97520060
_cell_formula_units_Z   4
loop_
 _symmetry_equiv_pos_site_id
 _symmetry_equiv_pos_as_xyz
  1  'x, y, z'
loop_
 _atom_site_type_symbol
 _atom_site_label
 _atom_site_symmetry_multiplicity
 _atom_site_fract_x
 _atom_site_fract_y
 _atom_site_fract_z
 _atom_site_occupancy
  Gd  Gd0  1  0.992407  0.327636  0.408174  1
  Gd  Gd1  1  0.492407  0.172364  0.091826  1
  Gd  Gd2  1  0.507593  0.327636  0.591826  1
  Gd  Gd3  1  0.007593  0.172364  0.908174  1
  Gd  Gd4  1  0.007593  0.672364  0.591826  1
  Gd  Gd5  1  0.507593  0.827636  0.908174  1
  Gd  Gd6  1  0.492407  0.672364  0.408174  1
  Gd  Gd7  1  0.992407  0.827636  0.091826  1
  N  N8  1  0.750000  0.509991  0.500000  1
  N  N9  1  0.250000  0.990009  0.000000  1
  N  N10  1  0.250000  0.490009  0.500000  1
  N  N11  1  0.750000  0.009991  0.000000  1
  Cl  Cl12  1  0.110768  0.134794  0.220571  1
  Cl  Cl13  1  0.610768  0.365206  0.279429  1
  Cl  Cl14  1  0.389232  0.134794  0.779429  1
  Cl  Cl15  1  0.889232  0.365206  0.720571  1
  Cl  Cl16  1  0.750000  0.502617  0.000000  1
  Cl  Cl17  1  0.250000  0.997383  0.500000  1
  Cl  Cl18  1  0.250000  0.497383  0.000000  1
  Cl  Cl19  1  0.750000  0.002617  0.500000  1
  Cl  Cl20  1  0.110768  0.634794  0.279429  1
  Cl  Cl21  1  0.610768  0.865206  0.220571  1
  Cl  Cl22  1  0.389232  0.634794  0.720571  1
  Cl  Cl23  1  0.889232  0.865206  0.779429  1
