# generated using pymatgen
data_Ge2Pt3
_symmetry_space_group_name_H-M   'P 1'
_cell_length_a   6.99753132
_cell_length_b   7.65188870
_cell_length_c   12.40575790
_cell_angle_alpha   90.00000000
_cell_angle_beta   90.00000000
_cell_angle_gamma   90.00000000
_symmetry_Int_Tables_number   1
_chemical_formula_structural   Ge2Pt3
_chemical_formula_sum   'Ge16 Pt24'
_cell_volume   664.25800526
_cell_formula_units_Z   8
loop_
 _symmetry_equiv_pos_site_id
 _symmetry_equiv_pos_as_xyz
  1  'x, y, z'
loop_
 _atom_site_type_symbol
 _atom_site_label
 _atom_site_symmetry_multiplicity
 _atom_site_fract_x
 _atom_site_fract_y
 _atom_site_fract_z
 _atom_site_occupancy
  Ge  Ge0  1  0.872747  0.750000  0.006013  1
  Ge  Ge1  1  0.372747  0.250000  0.493987  1
  Ge  Ge2  1  0.127253  0.250000  0.993987  1
  Ge  Ge3  1  0.627253  0.750000  0.506013  1
  Ge  Ge4  1  0.378666  0.750000  0.009678  1
  Ge  Ge5  1  0.878666  0.250000  0.490322  1
  Ge  Ge6  1  0.621334  0.250000  0.990322  1
  Ge  Ge7  1  0.121334  0.750000  0.509678  1
  Ge  Ge8  1  0.625494  0.472915  0.254397  1
  Ge  Ge9  1  0.125494  0.527085  0.245603  1
  Ge  Ge10  1  0.374506  0.972915  0.745603  1
  Ge  Ge11  1  0.874506  0.027085  0.754397  1
  Ge  Ge12  1  0.374506  0.527085  0.745603  1
  Ge  Ge13  1  0.874506  0.472915  0.754397  1
  Ge  Ge14  1  0.625494  0.027085  0.254397  1
  Ge  Ge15  1  0.125494  0.972915  0.245603  1
  Pt  Pt16  1  0.845315  0.750000  0.215987  1
  Pt  Pt17  1  0.345315  0.250000  0.284013  1
  Pt  Pt18  1  0.154685  0.250000  0.784013  1
  Pt  Pt19  1  0.654685  0.750000  0.715987  1
  Pt  Pt20  1  0.409055  0.750000  0.217948  1
  Pt  Pt21  1  0.909055  0.250000  0.282052  1
  Pt  Pt22  1  0.590945  0.250000  0.782052  1
  Pt  Pt23  1  0.090945  0.750000  0.717948  1
  Pt  Pt24  1  0.871614  0.059317  0.088266  1
  Pt  Pt25  1  0.371614  0.940683  0.411734  1
  Pt  Pt26  1  0.128386  0.559317  0.911734  1
  Pt  Pt27  1  0.628386  0.440683  0.588266  1
  Pt  Pt28  1  0.128386  0.940683  0.911734  1
  Pt  Pt29  1  0.628386  0.059317  0.588266  1
  Pt  Pt30  1  0.871614  0.440683  0.088266  1
  Pt  Pt31  1  0.371614  0.559317  0.411734  1
  Pt  Pt32  1  0.377136  0.058614  0.091025  1
  Pt  Pt33  1  0.877136  0.941386  0.408975  1
  Pt  Pt34  1  0.622864  0.558614  0.908975  1
  Pt  Pt35  1  0.122864  0.441386  0.591025  1
  Pt  Pt36  1  0.622864  0.941386  0.908975  1
  Pt  Pt37  1  0.122864  0.058614  0.591025  1
  Pt  Pt38  1  0.377136  0.441386  0.091025  1
  Pt  Pt39  1  0.877136  0.558614  0.408975  1
