# generated using pymatgen
data_PrSnPt
_symmetry_space_group_name_H-M   'P 1'
_cell_length_a   7.67590112
_cell_length_b   7.67590112
_cell_length_c   4.17851928
_cell_angle_alpha   90.00000000
_cell_angle_beta   90.00000000
_cell_angle_gamma   120.00000000
_symmetry_Int_Tables_number   1
_chemical_formula_structural   PrSnPt
_chemical_formula_sum   'Pr3 Sn3 Pt3'
_cell_volume   213.21206940
_cell_formula_units_Z   3
loop_
 _symmetry_equiv_pos_site_id
 _symmetry_equiv_pos_as_xyz
  1  'x, y, z'
loop_
 _atom_site_type_symbol
 _atom_site_label
 _atom_site_symmetry_multiplicity
 _atom_site_fract_x
 _atom_site_fract_y
 _atom_site_fract_z
 _atom_site_occupancy
  Pr  Pr0  1  0.589324  0.589324  0.000000  1
  Pr  Pr1  1  0.410676  0.000000  0.000000  1
  Pr  Pr2  1  0.000000  0.410676  0.000000  1
  Sn  Sn3  1  0.000000  0.747622  0.500000  1
  Sn  Sn4  1  0.252378  0.252378  0.500000  1
  Sn  Sn5  1  0.747622  0.000000  0.500000  1
  Pt  Pt6  1  0.666667  0.333333  0.500000  1
  Pt  Pt7  1  0.000000  0.000000  0.000000  1
  Pt  Pt8  1  0.333333  0.666667  0.500000  1
