# generated using pymatgen
data_La3Si2S8I
_symmetry_space_group_name_H-M   'P 1'
_cell_length_a   9.03719413
_cell_length_b   9.03719413
_cell_length_c   10.98758535
_cell_angle_alpha   82.89020838
_cell_angle_beta   97.10979162
_cell_angle_gamma   127.58006141
_symmetry_Int_Tables_number   1
_chemical_formula_structural   La3Si2S8I
_chemical_formula_sum   'La6 Si4 S16 I2'
_cell_volume   704.36423479
_cell_formula_units_Z   2
loop_
 _symmetry_equiv_pos_site_id
 _symmetry_equiv_pos_as_xyz
  1  'x, y, z'
loop_
 _atom_site_type_symbol
 _atom_site_label
 _atom_site_symmetry_multiplicity
 _atom_site_fract_x
 _atom_site_fract_y
 _atom_site_fract_z
 _atom_site_occupancy
  La  La0  1  0.594119  0.594119  0.750000  1
  La  La1  1  0.405881  0.405881  0.250000  1
  La  La2  1  0.923164  0.319043  0.819611  1
  La  La3  1  0.319043  0.923164  0.680389  1
  La  La4  1  0.076836  0.680957  0.180389  1
  La  La5  1  0.680957  0.076836  0.319611  1
  Si  Si6  1  0.696682  0.377060  0.530151  1
  Si  Si7  1  0.303318  0.622940  0.469849  1
  Si  Si8  1  0.622940  0.303318  0.030151  1
  Si  Si9  1  0.377060  0.696682  0.969849  1
  S  S10  1  0.582553  0.720826  0.456452  1
  S  S11  1  0.720826  0.582553  0.043548  1
  S  S12  1  0.417447  0.279174  0.543548  1
  S  S13  1  0.279174  0.417447  0.956452  1
  S  S14  1  0.449835  0.750288  0.159368  1
  S  S15  1  0.249712  0.550165  0.659368  1
  S  S16  1  0.750288  0.449835  0.340632  1
  S  S17  1  0.550165  0.249712  0.840632  1
  S  S18  1  0.597217  0.887219  0.852116  1
  S  S19  1  0.887219  0.597217  0.647884  1
  S  S20  1  0.402783  0.112781  0.147884  1
  S  S21  1  0.112781  0.402783  0.352116  1
  S  S22  1  0.150607  0.711608  0.914091  1
  S  S23  1  0.711608  0.150607  0.585909  1
  S  S24  1  0.849393  0.288392  0.085909  1
  S  S25  1  0.288392  0.849393  0.414091  1
  I  I26  1  0.986808  0.986808  0.250000  1
  I  I27  1  0.013192  0.013192  0.750000  1
