# generated using pymatgen
data_Cu9(PO4)8
_symmetry_space_group_name_H-M   'P 1'
_cell_length_a   8.79099152
_cell_length_b   8.96234475
_cell_length_c   9.16673231
_cell_angle_alpha   111.43969168
_cell_angle_beta   99.46772727
_cell_angle_gamma   106.54172958
_symmetry_Int_Tables_number   1
_chemical_formula_structural   Cu9(PO4)8
_chemical_formula_sum   'Cu9 P8 O32'
_cell_volume   614.54622306
_cell_formula_units_Z   1
loop_
 _symmetry_equiv_pos_site_id
 _symmetry_equiv_pos_as_xyz
  1  'x, y, z'
loop_
 _atom_site_type_symbol
 _atom_site_label
 _atom_site_symmetry_multiplicity
 _atom_site_fract_x
 _atom_site_fract_y
 _atom_site_fract_z
 _atom_site_occupancy
  Cu  Cu0  1  0.791093  0.275129  0.068677  1
  Cu  Cu1  1  0.716094  0.889453  0.440804  1
  Cu  Cu2  1  0.351016  0.686110  0.444859  1
  Cu  Cu3  1  0.000000  0.500000  0.500000  1
  Cu  Cu4  1  0.648984  0.313890  0.555141  1
  Cu  Cu5  1  0.000000  0.000000  0.000000  1
  Cu  Cu6  1  0.283906  0.110547  0.559196  1
  Cu  Cu7  1  0.208907  0.724871  0.931323  1
  Cu  Cu8  1  0.500000  0.500000  0.000000  1
  P  P9  1  0.596552  0.068302  0.712861  1
  P  P10  1  0.836040  0.623535  0.898548  1
  P  P11  1  0.350363  0.578945  0.733603  1
  P  P12  1  0.030132  0.881181  0.649301  1
  P  P13  1  0.969868  0.118819  0.350699  1
  P  P14  1  0.649637  0.421055  0.266397  1
  P  P15  1  0.163960  0.376465  0.101452  1
  P  P16  1  0.403448  0.931698  0.287139  1
  O  O17  1  0.090385  0.741511  0.548612  1
  O  O18  1  0.285693  0.483208  0.039696  1
  O  O19  1  0.570218  0.911221  0.279050  1
  O  O20  1  0.880604  0.939305  0.343567  1
  O  O21  1  0.584626  0.244102  0.110233  1
  O  O22  1  0.594312  0.555178  0.227865  1
  O  O23  1  0.185420  0.199734  0.060824  1
  O  O24  1  0.844870  0.460760  0.287877  1
  O  O25  1  0.309369  0.930065  0.129569  1
  O  O26  1  0.690631  0.069935  0.870431  1
  O  O27  1  0.984065  0.342990  0.009874  1
  O  O28  1  0.714307  0.516792  0.960304  1
  O  O29  1  0.429782  0.088779  0.720950  1
  O  O30  1  0.119396  0.060695  0.656433  1
  O  O31  1  0.415374  0.755898  0.889767  1
  O  O32  1  0.405688  0.444822  0.772135  1
  O  O33  1  0.814580  0.800266  0.939176  1
  O  O34  1  0.155130  0.539240  0.712123  1
  O  O35  1  0.716451  0.202644  0.674603  1
  O  O36  1  0.283549  0.797356  0.325397  1
  O  O37  1  0.805105  0.532049  0.708709  1
  O  O38  1  0.159995  0.164212  0.412793  1
  O  O39  1  0.442455  0.117722  0.433103  1
  O  O40  1  0.398765  0.582132  0.583139  1
  O  O41  1  0.067822  0.885118  0.824145  1
  O  O42  1  0.909615  0.258489  0.451388  1
  O  O43  1  0.601235  0.417868  0.416861  1
  O  O44  1  0.557545  0.882278  0.566897  1
  O  O45  1  0.840005  0.835788  0.587207  1
  O  O46  1  0.194895  0.467951  0.291291  1
  O  O47  1  0.932178  0.114882  0.175855  1
  O  O48  1  0.015935  0.657010  0.990126  1
