# generated using pymatgen
data_Bi2(PSe3)3
_symmetry_space_group_name_H-M   'P 1'
_cell_length_a   9.66253957
_cell_length_b   7.63246587
_cell_length_c   23.59912646
_cell_angle_alpha   90.00000000
_cell_angle_beta   112.74202763
_cell_angle_gamma   90.00000000
_symmetry_Int_Tables_number   1
_chemical_formula_structural   Bi2(PSe3)3
_chemical_formula_sum   'Bi8 P12 Se36'
_cell_volume   1605.10332698
_cell_formula_units_Z   4
loop_
 _symmetry_equiv_pos_site_id
 _symmetry_equiv_pos_as_xyz
  1  'x, y, z'
loop_
 _atom_site_type_symbol
 _atom_site_label
 _atom_site_symmetry_multiplicity
 _atom_site_fract_x
 _atom_site_fract_y
 _atom_site_fract_z
 _atom_site_occupancy
  Bi  Bi0  1  0.109543  0.310056  0.851209  1
  Bi  Bi1  1  0.890457  0.810056  0.648791  1
  Bi  Bi2  1  0.890457  0.689944  0.148791  1
  Bi  Bi3  1  0.109543  0.189944  0.351209  1
  Bi  Bi4  1  0.431248  0.415148  0.161462  1
  Bi  Bi5  1  0.568752  0.915148  0.338538  1
  Bi  Bi6  1  0.568752  0.584852  0.838538  1
  Bi  Bi7  1  0.431248  0.084852  0.661462  1
  P  P8  1  0.924996  0.444426  0.953231  1
  P  P9  1  0.075004  0.944426  0.546769  1
  P  P10  1  0.075004  0.555574  0.046769  1
  P  P11  1  0.924996  0.055574  0.453231  1
  P  P12  1  0.577902  0.561603  0.646316  1
  P  P13  1  0.422098  0.061603  0.853684  1
  P  P14  1  0.422098  0.438397  0.353684  1
  P  P15  1  0.577902  0.938397  0.146316  1
  P  P16  1  0.253107  0.657504  0.313779  1
  P  P17  1  0.746893  0.157504  0.186221  1
  P  P18  1  0.746893  0.342496  0.686221  1
  P  P19  1  0.253107  0.842496  0.813779  1
  Se  Se20  1  0.720098  0.240584  0.768563  1
  Se  Se21  1  0.028214  0.544077  0.296528  1
  Se  Se22  1  0.028214  0.955923  0.796528  1
  Se  Se23  1  0.971786  0.455923  0.703472  1
  Se  Se24  1  0.662542  0.358047  0.111082  1
  Se  Se25  1  0.337458  0.858047  0.388918  1
  Se  Se26  1  0.337458  0.641953  0.888918  1
  Se  Se27  1  0.662542  0.141953  0.611082  1
  Se  Se28  1  0.650773  0.737121  0.219435  1
  Se  Se29  1  0.349227  0.237121  0.280565  1
  Se  Se30  1  0.349227  0.262879  0.780565  1
  Se  Se31  1  0.971786  0.044077  0.203472  1
  Se  Se32  1  0.353094  0.055221  0.122216  1
  Se  Se33  1  0.646906  0.555221  0.377784  1
  Se  Se34  1  0.646906  0.944779  0.877784  1
  Se  Se35  1  0.353094  0.444779  0.622216  1
  Se  Se36  1  0.625366  0.847466  0.066161  1
  Se  Se37  1  0.374634  0.347466  0.433839  1
  Se  Se38  1  0.374634  0.152534  0.933839  1
  Se  Se39  1  0.625366  0.652534  0.566161  1
  Se  Se40  1  0.698781  0.083520  0.455672  1
  Se  Se41  1  0.301219  0.583520  0.044328  1
  Se  Se42  1  0.301219  0.916480  0.544328  1
  Se  Se43  1  0.698781  0.416480  0.955672  1
  Se  Se44  1  0.927435  0.870010  0.382103  1
  Se  Se45  1  0.072565  0.370010  0.117897  1
  Se  Se46  1  0.072565  0.129990  0.617897  1
  Se  Se47  1  0.927435  0.629990  0.882103  1
  Se  Se48  1  0.027738  0.311076  0.447076  1
  Se  Se49  1  0.972262  0.811076  0.052924  1
  Se  Se50  1  0.972262  0.688924  0.552924  1
  Se  Se51  1  0.027738  0.188924  0.947076  1
  Se  Se52  1  0.279902  0.759416  0.231437  1
  Se  Se53  1  0.720098  0.259416  0.268563  1
  Se  Se54  1  0.650773  0.762879  0.719435  1
  Se  Se55  1  0.279902  0.740584  0.731437  1
