# generated using pymatgen
data_LiCrPO4F
_symmetry_space_group_name_H-M   'P 1'
_cell_length_a   5.20330490
_cell_length_b   5.35509879
_cell_length_c   7.28399749
_cell_angle_alpha   106.97999589
_cell_angle_beta   108.37660076
_cell_angle_gamma   98.10905866
_symmetry_Int_Tables_number   1
_chemical_formula_structural   LiCrPO4F
_chemical_formula_sum   'Li2 Cr2 P2 O8 F2'
_cell_volume   178.03589778
_cell_formula_units_Z   2
loop_
 _symmetry_equiv_pos_site_id
 _symmetry_equiv_pos_as_xyz
  1  'x, y, z'
loop_
 _atom_site_type_symbol
 _atom_site_label
 _atom_site_symmetry_multiplicity
 _atom_site_fract_x
 _atom_site_fract_y
 _atom_site_fract_z
 _atom_site_occupancy
  Li  Li0  1  0.271821  0.615492  0.189537  1
  Li  Li1  1  0.728179  0.384508  0.810463  1
  Cr  Cr2  1  0.000000  0.000000  0.000000  1
  Cr  Cr3  1  0.000000  0.000000  0.500000  1
  P  P4  1  0.322246  0.642598  0.761284  1
  P  P5  1  0.677754  0.357402  0.238716  1
  O  O6  1  0.307275  0.340211  0.657353  1
  O  O7  1  0.692725  0.659789  0.342647  1
  O  O8  1  0.369156  0.245483  0.082676  1
  O  O9  1  0.745742  0.212800  0.394160  1
  O  O10  1  0.630844  0.754517  0.917324  1
  O  O11  1  0.254258  0.787200  0.605840  1
  O  O12  1  0.122752  0.666081  0.885961  1
  O  O13  1  0.877248  0.333919  0.114039  1
  F  F14  1  0.125958  0.932275  0.263169  1
  F  F15  1  0.874042  0.067725  0.736831  1
