# generated using pymatgen
data_LiUF5
_symmetry_space_group_name_H-M   'P 1'
_cell_length_a   11.09752813
_cell_length_b   11.09752813
_cell_length_c   11.09752813
_cell_angle_alpha   95.11101403
_cell_angle_beta   95.11101403
_cell_angle_gamma   145.26825165
_symmetry_Int_Tables_number   1
_chemical_formula_structural   LiUF5
_chemical_formula_sum   'Li8 U8 F40'
_cell_volume   743.17382575
_cell_formula_units_Z   8
loop_
 _symmetry_equiv_pos_site_id
 _symmetry_equiv_pos_as_xyz
  1  'x, y, z'
loop_
 _atom_site_type_symbol
 _atom_site_label
 _atom_site_symmetry_multiplicity
 _atom_site_fract_x
 _atom_site_fract_y
 _atom_site_fract_z
 _atom_site_occupancy
  Li  Li0  1  0.689023  0.175008  0.653426  1
  Li  Li1  1  0.285597  0.439023  0.014015  1
  Li  Li2  1  0.425008  0.271582  0.985985  1
  Li  Li3  1  0.521582  0.035597  0.346574  1
  Li  Li4  1  0.560977  0.574992  0.846574  1
  Li  Li5  1  0.964403  0.310977  0.485985  1
  Li  Li6  1  0.824992  0.478418  0.514015  1
  Li  Li7  1  0.728418  0.714403  0.153426  1
  U  U8  1  0.323180  0.691511  0.756445  1
  U  U9  1  0.816735  0.073180  0.131670  1
  U  U10  1  0.941511  0.685066  0.868330  1
  U  U11  1  0.935066  0.566735  0.243555  1
  U  U12  1  0.926820  0.058489  0.743555  1
  U  U13  1  0.433265  0.676820  0.368330  1
  U  U14  1  0.308489  0.064934  0.631670  1
  U  U15  1  0.314934  0.183265  0.256445  1
  F  F16  1  0.944375  0.780951  0.233862  1
  F  F17  1  0.960513  0.694375  0.663424  1
  F  F18  1  0.030951  0.297089  0.336576  1
  F  F19  1  0.547089  0.710513  0.766138  1
  F  F20  1  0.305625  0.969049  0.266138  1
  F  F21  1  0.289487  0.055625  0.836576  1
  F  F22  1  0.219049  0.452911  0.163424  1
  F  F23  1  0.702911  0.039487  0.733862  1
  F  F24  1  0.697459  0.831448  0.284378  1
  F  F25  1  0.663081  0.447459  0.366011  1
  F  F26  1  0.081448  0.297070  0.633989  1
  F  F27  1  0.547070  0.413081  0.715622  1
  F  F28  1  0.552541  0.918552  0.215622  1
  F  F29  1  0.586919  0.302541  0.133989  1
  F  F30  1  0.168552  0.452930  0.866011  1
  F  F31  1  0.702930  0.336919  0.784378  1
  F  F32  1  0.015657  0.056589  0.176297  1
  F  F33  1  0.089360  0.765657  0.459068  1
  F  F34  1  0.306589  0.630292  0.540932  1
  F  F35  1  0.880292  0.839360  0.823703  1
  F  F36  1  0.234343  0.693411  0.323703  1
  F  F37  1  0.160640  0.984343  0.040932  1
  F  F38  1  0.943411  0.119708  0.959068  1
  F  F39  1  0.369708  0.910640  0.676297  1
  F  F40  1  0.391810  0.440640  0.362647  1
  F  F41  1  0.279163  0.141810  0.451170  1
  F  F42  1  0.690640  0.827993  0.548830  1
  F  F43  1  0.077993  0.029163  0.637353  1
  F  F44  1  0.858190  0.309360  0.137353  1
  F  F45  1  0.970837  0.608190  0.048830  1
  F  F46  1  0.559360  0.922007  0.951170  1
  F  F47  1  0.172007  0.720837  0.862647  1
  F  F48  1  0.437144  0.402275  0.131828  1
  F  F49  1  0.555316  0.187144  0.534869  1
  F  F50  1  0.652275  0.020447  0.465131  1
  F  F51  1  0.270447  0.305316  0.868172  1
  F  F52  1  0.812856  0.347725  0.368172  1
  F  F53  1  0.694684  0.562856  0.965131  1
  F  F54  1  0.597725  0.729553  0.034869  1
  F  F55  1  0.979553  0.444684  0.631828  1
