# generated using pymatgen
data_KIO4
_symmetry_space_group_name_H-M   'P 1'
_cell_length_a   7.66930509
_cell_length_b   7.66930509
_cell_length_c   7.66930509
_cell_angle_alpha   135.10240220
_cell_angle_beta   135.10240220
_cell_angle_gamma   65.37113118
_symmetry_Int_Tables_number   1
_chemical_formula_structural   KIO4
_chemical_formula_sum   'K2 I2 O8'
_cell_volume   221.44250684
_cell_formula_units_Z   2
loop_
 _symmetry_equiv_pos_site_id
 _symmetry_equiv_pos_as_xyz
  1  'x, y, z'
loop_
 _atom_site_type_symbol
 _atom_site_label
 _atom_site_symmetry_multiplicity
 _atom_site_fract_x
 _atom_site_fract_y
 _atom_site_fract_z
 _atom_site_occupancy
  K  K0  1  0.750000  0.250000  0.500000  1
  K  K1  1  0.000000  0.000000  0.000000  1
  I  I2  1  0.500000  0.500000  0.000000  1
  I  I3  1  0.250000  0.750000  0.500000  1
  O  O4  1  0.641731  0.550735  0.348210  1
  O  O5  1  0.300735  0.452526  0.409004  1
  O  O6  1  0.043522  0.891731  0.590996  1
  O  O7  1  0.202526  0.293522  0.651790  1
  O  O8  1  0.547474  0.956478  0.848210  1
  O  O9  1  0.706478  0.358269  0.909004  1
  O  O10  1  0.449265  0.797474  0.090996  1
  O  O11  1  0.108269  0.699265  0.151790  1
