# generated using pymatgen
data_Sn7Os3
_symmetry_space_group_name_H-M   'P 1'
_cell_length_a   8.23332372
_cell_length_b   8.23332372
_cell_length_c   8.23332372
_cell_angle_alpha   109.47122063
_cell_angle_beta   109.47122063
_cell_angle_gamma   109.47122063
_symmetry_Int_Tables_number   1
_chemical_formula_structural   Sn7Os3
_chemical_formula_sum   'Sn14 Os6'
_cell_volume   429.63898711
_cell_formula_units_Z   2
loop_
 _symmetry_equiv_pos_site_id
 _symmetry_equiv_pos_as_xyz
  1  'x, y, z'
loop_
 _atom_site_type_symbol
 _atom_site_label
 _atom_site_symmetry_multiplicity
 _atom_site_fract_x
 _atom_site_fract_y
 _atom_site_fract_z
 _atom_site_occupancy
  Sn  Sn0  1  0.500000  0.250000  0.750000  1
  Sn  Sn1  1  0.250000  0.750000  0.500000  1
  Sn  Sn2  1  0.750000  0.250000  0.500000  1
  Sn  Sn3  1  0.250000  0.500000  0.750000  1
  Sn  Sn4  1  0.750000  0.500000  0.250000  1
  Sn  Sn5  1  0.500000  0.750000  0.250000  1
  Sn  Sn6  1  0.321960  0.321960  0.321960  1
  Sn  Sn7  1  0.321960  0.000000  1.000000  1
  Sn  Sn8  1  0.000000  0.321960  0.000000  1
  Sn  Sn9  1  0.000000  0.000000  0.321960  1
  Sn  Sn10  1  0.000000  0.678040  0.000000  1
  Sn  Sn11  1  0.000000  0.000000  0.678040  1
  Sn  Sn12  1  0.678040  0.000000  0.000000  1
  Sn  Sn13  1  0.678040  0.678040  0.678040  1
  Os  Os14  1  0.000000  0.655901  0.655901  1
  Os  Os15  1  0.344099  0.344099  0.000000  1
  Os  Os16  1  0.655901  0.655901  0.000000  1
  Os  Os17  1  0.655901  0.000000  0.655901  1
  Os  Os18  1  0.344099  0.000000  0.344099  1
  Os  Os19  1  0.000000  0.344099  0.344099  1
