# generated using pymatgen
data_RbTe6
_symmetry_space_group_name_H-M   'P 1'
_cell_length_a   7.15635090
_cell_length_b   7.15635090
_cell_length_c   12.66172155
_cell_angle_alpha   71.25971391
_cell_angle_beta   108.74028609
_cell_angle_gamma   117.74225332
_symmetry_Int_Tables_number   1
_chemical_formula_structural   RbTe6
_chemical_formula_sum   'Rb2 Te12'
_cell_volume   531.95418922
_cell_formula_units_Z   2
loop_
 _symmetry_equiv_pos_site_id
 _symmetry_equiv_pos_as_xyz
  1  'x, y, z'
loop_
 _atom_site_type_symbol
 _atom_site_label
 _atom_site_symmetry_multiplicity
 _atom_site_fract_x
 _atom_site_fract_y
 _atom_site_fract_z
 _atom_site_occupancy
  Rb  Rb0  1  0.626298  0.626298  0.250000  1
  Rb  Rb1  1  0.373702  0.373702  0.750000  1
  Te  Te2  1  0.235748  0.799459  0.353986  1
  Te  Te3  1  0.799459  0.235748  0.146014  1
  Te  Te4  1  0.763285  0.130292  0.408385  1
  Te  Te5  1  0.130292  0.763285  0.091615  1
  Te  Te6  1  0.236715  0.869708  0.591615  1
  Te  Te7  1  0.869708  0.236715  0.908385  1
  Te  Te8  1  0.220274  0.376636  0.442583  1
  Te  Te9  1  0.376636  0.220274  0.057417  1
  Te  Te10  1  0.779726  0.623364  0.557417  1
  Te  Te11  1  0.623364  0.779726  0.942583  1
  Te  Te12  1  0.200541  0.764252  0.853986  1
  Te  Te13  1  0.764252  0.200541  0.646014  1
