# generated using pymatgen
data_CuSeO3
_symmetry_space_group_name_H-M   'P 1'
_cell_length_a   6.03593781
_cell_length_b   7.26511207
_cell_length_c   12.36079801
_cell_angle_alpha   90.00000000
_cell_angle_beta   90.00000000
_cell_angle_gamma   90.00000000
_symmetry_Int_Tables_number   1
_chemical_formula_structural   CuSeO3
_chemical_formula_sum   'Cu8 Se8 O24'
_cell_volume   542.04280506
_cell_formula_units_Z   8
loop_
 _symmetry_equiv_pos_site_id
 _symmetry_equiv_pos_as_xyz
  1  'x, y, z'
loop_
 _atom_site_type_symbol
 _atom_site_label
 _atom_site_symmetry_multiplicity
 _atom_site_fract_x
 _atom_site_fract_y
 _atom_site_fract_z
 _atom_site_occupancy
  Cu  Cu0  1  0.845798  0.424966  0.593686  1
  Cu  Cu1  1  0.345798  0.575034  0.906314  1
  Cu  Cu2  1  0.654202  0.924966  0.406314  1
  Cu  Cu3  1  0.154202  0.075034  0.093686  1
  Cu  Cu4  1  0.154202  0.575034  0.406314  1
  Cu  Cu5  1  0.654202  0.424966  0.093686  1
  Cu  Cu6  1  0.345798  0.075034  0.593686  1
  Cu  Cu7  1  0.845798  0.924966  0.906314  1
  Se  Se8  1  0.890657  0.951538  0.644424  1
  Se  Se9  1  0.390657  0.048462  0.855576  1
  Se  Se10  1  0.609343  0.451538  0.355576  1
  Se  Se11  1  0.109343  0.548462  0.144424  1
  Se  Se12  1  0.109343  0.048462  0.355576  1
  Se  Se13  1  0.609343  0.951538  0.144424  1
  Se  Se14  1  0.390657  0.548462  0.644424  1
  Se  Se15  1  0.890657  0.451538  0.855576  1
  O  O16  1  0.027182  0.644806  0.909826  1
  O  O17  1  0.527182  0.355194  0.590174  1
  O  O18  1  0.472818  0.144806  0.090174  1
  O  O19  1  0.972818  0.855194  0.409826  1
  O  O20  1  0.972818  0.355194  0.090174  1
  O  O21  1  0.472818  0.644806  0.409826  1
  O  O22  1  0.527182  0.855194  0.909826  1
  O  O23  1  0.027182  0.144806  0.590174  1
  O  O24  1  0.640193  0.461639  0.933514  1
  O  O25  1  0.140193  0.538361  0.566486  1
  O  O26  1  0.859807  0.961639  0.066486  1
  O  O27  1  0.359807  0.038361  0.433514  1
  O  O28  1  0.359807  0.538361  0.066486  1
  O  O29  1  0.859807  0.461639  0.433514  1
  O  O30  1  0.140193  0.038361  0.933514  1
  O  O31  1  0.640193  0.961639  0.566486  1
  O  O32  1  0.793567  0.040654  0.764407  1
  O  O33  1  0.293567  0.959346  0.735593  1
  O  O34  1  0.706433  0.540654  0.235593  1
  O  O35  1  0.206433  0.459346  0.264407  1
  O  O36  1  0.206433  0.959346  0.235593  1
  O  O37  1  0.706433  0.040654  0.264407  1
  O  O38  1  0.293567  0.459346  0.764407  1
  O  O39  1  0.793567  0.540654  0.735593  1
