# generated using pymatgen
data_KH9O5
_symmetry_space_group_name_H-M   'P 1'
_cell_length_a   7.15753936
_cell_length_b   11.29377561
_cell_length_c   7.17209484
_cell_angle_alpha   90.00000000
_cell_angle_beta   99.18241583
_cell_angle_gamma   90.00000000
_symmetry_Int_Tables_number   1
_chemical_formula_structural   KH9O5
_chemical_formula_sum   'K4 H36 O20'
_cell_volume   572.33143163
_cell_formula_units_Z   4
loop_
 _symmetry_equiv_pos_site_id
 _symmetry_equiv_pos_as_xyz
  1  'x, y, z'
loop_
 _atom_site_type_symbol
 _atom_site_label
 _atom_site_symmetry_multiplicity
 _atom_site_fract_x
 _atom_site_fract_y
 _atom_site_fract_z
 _atom_site_occupancy
  K  K0  1  0.568419  0.839085  0.150177  1
  K  K1  1  0.431581  0.339085  0.349823  1
  K  K2  1  0.431581  0.160915  0.849823  1
  K  K3  1  0.568419  0.660915  0.650177  1
  H  H4  1  0.034125  0.907092  0.878776  1
  H  H5  1  0.965875  0.407092  0.621224  1
  H  H6  1  0.965875  0.092908  0.121224  1
  H  H7  1  0.034125  0.592908  0.378776  1
  H  H8  1  0.092749  0.907746  0.103348  1
  H  H9  1  0.907251  0.407746  0.396652  1
  H  H10  1  0.907251  0.092254  0.896652  1
  H  H11  1  0.092749  0.592254  0.603348  1
  H  H12  1  0.921873  0.756269  0.487892  1
  H  H13  1  0.078127  0.256269  0.012108  1
  H  H14  1  0.078127  0.243731  0.512108  1
  H  H15  1  0.921873  0.743731  0.987892  1
  H  H16  1  0.862611  0.880008  0.572476  1
  H  H17  1  0.137389  0.380008  0.927524  1
  H  H18  1  0.237899  0.900643  0.396255  1
  H  H19  1  0.137389  0.119992  0.427524  1
  H  H20  1  0.336725  0.054679  0.258595  1
  H  H21  1  0.663275  0.554679  0.241405  1
  H  H22  1  0.663275  0.945321  0.741405  1
  H  H23  1  0.336725  0.445321  0.758595  1
  H  H24  1  0.542951  0.100877  0.337805  1
  H  H25  1  0.457049  0.600877  0.162195  1
  H  H26  1  0.457049  0.899123  0.662195  1
  H  H27  1  0.542951  0.399123  0.837805  1
  H  H28  1  0.983313  0.534571  0.840823  1
  H  H29  1  0.016687  0.034571  0.659177  1
  H  H30  1  0.016687  0.465429  0.159177  1
  H  H31  1  0.983313  0.965429  0.340823  1
  H  H32  1  0.237534  0.732491  0.966489  1
  H  H33  1  0.762466  0.232491  0.533511  1
  H  H34  1  0.762466  0.267509  0.033511  1
  H  H35  1  0.237534  0.767509  0.466489  1
  H  H36  1  0.237899  0.599357  0.896255  1
  H  H37  1  0.762101  0.099357  0.603745  1
  H  H38  1  0.762101  0.400643  0.103745  1
  H  H39  1  0.862611  0.619992  0.072476  1
  O  O40  1  0.093020  0.855706  0.988285  1
  O  O41  1  0.906980  0.355706  0.511715  1
  O  O42  1  0.906980  0.144294  0.011715  1
  O  O43  1  0.093020  0.644294  0.488285  1
  O  O44  1  0.819488  0.816863  0.476500  1
  O  O45  1  0.180512  0.316863  0.023500  1
  O  O46  1  0.180512  0.183137  0.523500  1
  O  O47  1  0.819488  0.683137  0.976500  1
  O  O48  1  0.460345  0.071819  0.221607  1
  O  O49  1  0.539655  0.571819  0.278393  1
  O  O50  1  0.539655  0.928181  0.778393  1
  O  O51  1  0.460345  0.428181  0.721607  1
  O  O52  1  0.323509  0.836049  0.458115  1
  O  O53  1  0.676491  0.336049  0.041885  1
  O  O54  1  0.676491  0.163951  0.541885  1
  O  O55  1  0.323509  0.663951  0.958115  1
  O  O56  1  0.084240  0.001160  0.282377  1
  O  O57  1  0.915760  0.501160  0.217623  1
  O  O58  1  0.915760  0.998840  0.717623  1
  O  O59  1  0.084240  0.498840  0.782377  1
