# generated using pymatgen
data_CeFeGe3
_symmetry_space_group_name_H-M   'P 1'
_cell_length_a   5.82641127
_cell_length_b   5.82641127
_cell_length_c   5.82641127
_cell_angle_alpha   136.73742855
_cell_angle_beta   136.73742855
_cell_angle_gamma   62.84229621
_symmetry_Int_Tables_number   1
_chemical_formula_structural   CeFeGe3
_chemical_formula_sum   'Ce1 Fe1 Ge3'
_cell_volume   91.74478868
_cell_formula_units_Z   1
loop_
 _symmetry_equiv_pos_site_id
 _symmetry_equiv_pos_as_xyz
  1  'x, y, z'
loop_
 _atom_site_type_symbol
 _atom_site_label
 _atom_site_symmetry_multiplicity
 _atom_site_fract_x
 _atom_site_fract_y
 _atom_site_fract_z
 _atom_site_occupancy
  Ce  Ce0  1  0.327758  0.327758  0.000000  1
  Fe  Fe1  1  0.998854  0.998854  0.000000  1
  Ge  Ge2  1  0.090266  0.590266  0.500000  1
  Ge  Ge3  1  0.771256  0.771256  0.000000  1
  Ge  Ge4  1  0.590266  0.090266  0.500000  1
