# generated using pymatgen
data_Li3InO3
_symmetry_space_group_name_H-M   'P 1'
_cell_length_a   5.70886349
_cell_length_b   5.70886349
_cell_length_c   10.43252482
_cell_angle_alpha   90.00000000
_cell_angle_beta   90.00000000
_cell_angle_gamma   120.00000000
_symmetry_Int_Tables_number   1
_chemical_formula_structural   Li3InO3
_chemical_formula_sum   'Li12 In4 O12'
_cell_volume   294.45529962
_cell_formula_units_Z   4
loop_
 _symmetry_equiv_pos_site_id
 _symmetry_equiv_pos_as_xyz
  1  'x, y, z'
loop_
 _atom_site_type_symbol
 _atom_site_label
 _atom_site_symmetry_multiplicity
 _atom_site_fract_x
 _atom_site_fract_y
 _atom_site_fract_z
 _atom_site_occupancy
  Li  Li0  1  0.053967  0.371058  0.070566  1
  Li  Li1  1  0.317091  0.946033  0.070566  1
  Li  Li2  1  0.628942  0.682909  0.070566  1
  Li  Li3  1  0.628942  0.946033  0.429434  1
  Li  Li4  1  0.053967  0.682909  0.429434  1
  Li  Li5  1  0.317091  0.371058  0.429434  1
  Li  Li6  1  0.946033  0.628942  0.929434  1
  Li  Li7  1  0.682909  0.053967  0.929434  1
  Li  Li8  1  0.371058  0.317091  0.929434  1
  Li  Li9  1  0.371058  0.053967  0.570566  1
  Li  Li10  1  0.946033  0.317091  0.570566  1
  Li  Li11  1  0.682909  0.628942  0.570566  1
  In  In12  1  0.666667  0.333333  0.250000  1
  In  In13  1  0.333333  0.666667  0.750000  1
  In  In14  1  0.000000  0.000000  0.250000  1
  In  In15  1  0.000000  0.000000  0.750000  1
  O  O16  1  0.958617  0.296707  0.377443  1
  O  O17  1  0.338090  0.041383  0.377443  1
  O  O18  1  0.703293  0.661910  0.377443  1
  O  O19  1  0.703293  0.041383  0.122557  1
  O  O20  1  0.958617  0.661910  0.122557  1
  O  O21  1  0.338090  0.296707  0.122557  1
  O  O22  1  0.041383  0.703293  0.622557  1
  O  O23  1  0.661910  0.958617  0.622557  1
  O  O24  1  0.296707  0.338090  0.622557  1
  O  O25  1  0.296707  0.958617  0.877443  1
  O  O26  1  0.041383  0.338090  0.877443  1
  O  O27  1  0.661910  0.703293  0.877443  1
