# generated using pymatgen
data_SiRh
_symmetry_space_group_name_H-M   'P 1'
_cell_length_a   4.62172329
_cell_length_b   4.60255100
_cell_length_c   5.62734727
_cell_angle_alpha   90.00000000
_cell_angle_beta   115.13581483
_cell_angle_gamma   90.00000000
_symmetry_Int_Tables_number   1
_chemical_formula_structural   SiRh
_chemical_formula_sum   'Si4 Rh4'
_cell_volume   108.36784754
_cell_formula_units_Z   4
loop_
 _symmetry_equiv_pos_site_id
 _symmetry_equiv_pos_as_xyz
  1  'x, y, z'
loop_
 _atom_site_type_symbol
 _atom_site_label
 _atom_site_symmetry_multiplicity
 _atom_site_fract_x
 _atom_site_fract_y
 _atom_site_fract_z
 _atom_site_occupancy
  Si  Si0  1  0.787402  0.352924  0.057993  1
  Si  Si1  1  0.212598  0.852924  0.442007  1
  Si  Si2  1  0.212598  0.647076  0.942007  1
  Si  Si3  1  0.787402  0.147076  0.557993  1
  Rh  Rh4  1  0.299768  0.356336  0.618755  1
  Rh  Rh5  1  0.700232  0.856336  0.881245  1
  Rh  Rh6  1  0.700232  0.643664  0.381245  1
  Rh  Rh7  1  0.299768  0.143664  0.118755  1
