# generated using pymatgen
data_Dy(AlCl4)3
_symmetry_space_group_name_H-M   'P 1'
_cell_length_a   10.81647318
_cell_length_b   10.81647318
_cell_length_c   16.03529900
_cell_angle_alpha   90.00000000
_cell_angle_beta   90.00000000
_cell_angle_gamma   120.00000000
_symmetry_Int_Tables_number   1
_chemical_formula_structural   Dy(AlCl4)3
_chemical_formula_sum   'Dy3 Al9 Cl36'
_cell_volume   1624.72195740
_cell_formula_units_Z   3
loop_
 _symmetry_equiv_pos_site_id
 _symmetry_equiv_pos_as_xyz
  1  'x, y, z'
loop_
 _atom_site_type_symbol
 _atom_site_label
 _atom_site_symmetry_multiplicity
 _atom_site_fract_x
 _atom_site_fract_y
 _atom_site_fract_z
 _atom_site_occupancy
  Dy  Dy0  1  0.990205  0.495103  0.000000  1
  Dy  Dy1  1  0.504897  0.009795  0.666667  1
  Dy  Dy2  1  0.504897  0.495103  0.333333  1
  Al  Al3  1  0.731279  0.268721  0.833333  1
  Al  Al4  1  0.128809  0.763764  0.603513  1
  Al  Al5  1  0.236236  0.365045  0.936846  1
  Al  Al6  1  0.634955  0.871191  0.270179  1
  Al  Al7  1  0.731279  0.462558  0.166667  1
  Al  Al8  1  0.537442  0.268721  0.500000  1
  Al  Al9  1  0.128809  0.365045  0.396487  1
  Al  Al10  1  0.634955  0.763764  0.729821  1
  Al  Al11  1  0.236236  0.871191  0.063154  1
  Cl  Cl12  1  0.008148  0.841928  0.544802  1
  Cl  Cl13  1  0.833780  0.991852  0.211469  1
  Cl  Cl14  1  0.158072  0.166220  0.878135  1
  Cl  Cl15  1  0.790581  0.590064  0.279374  1
  Cl  Cl16  1  0.409936  0.200517  0.612707  1
  Cl  Cl17  1  0.799483  0.209419  0.946040  1
  Cl  Cl18  1  0.409936  0.209419  0.387293  1
  Cl  Cl19  1  0.799483  0.590064  0.053960  1
  Cl  Cl20  1  0.790581  0.200517  0.720626  1
  Cl  Cl21  1  0.226573  0.345656  0.278270  1
  Cl  Cl22  1  0.654344  0.880917  0.611603  1
  Cl  Cl23  1  0.119083  0.773427  0.944937  1
  Cl  Cl24  1  0.654344  0.773427  0.388397  1
  Cl  Cl25  1  0.119083  0.345656  0.055063  1
  Cl  Cl26  1  0.226573  0.880917  0.721730  1
  Cl  Cl27  1  0.504482  0.661872  0.205269  1
  Cl  Cl28  1  0.338128  0.842611  0.538602  1
  Cl  Cl29  1  0.157389  0.495518  0.871935  1
  Cl  Cl30  1  0.338128  0.495518  0.461398  1
  Cl  Cl31  1  0.157389  0.661872  0.128065  1
  Cl  Cl32  1  0.504482  0.842611  0.794731  1
  Cl  Cl33  1  0.662077  0.496729  0.481860  1
  Cl  Cl34  1  0.503271  0.165348  0.815194  1
  Cl  Cl35  1  0.834652  0.337923  0.148527  1
  Cl  Cl36  1  0.503271  0.337923  0.184806  1
  Cl  Cl37  1  0.834652  0.496729  0.851473  1
  Cl  Cl38  1  0.662077  0.165348  0.518140  1
  Cl  Cl39  1  0.030933  0.488899  0.376285  1
  Cl  Cl40  1  0.511101  0.542034  0.709618  1
  Cl  Cl41  1  0.457966  0.969067  0.042952  1
  Cl  Cl42  1  0.511101  0.969067  0.290382  1
  Cl  Cl43  1  0.457966  0.488899  0.957048  1
  Cl  Cl44  1  0.030933  0.542034  0.623715  1
  Cl  Cl45  1  0.008148  0.166220  0.455198  1
  Cl  Cl46  1  0.833780  0.841928  0.788531  1
  Cl  Cl47  1  0.158072  0.991852  0.121865  1
