# generated using pymatgen
data_Ba5(GaS4)2
_symmetry_space_group_name_H-M   'P 1'
_cell_length_a   12.93405273
_cell_length_b   12.93405273
_cell_length_c   12.02954686
_cell_angle_alpha   90.00000000
_cell_angle_beta   90.00000000
_cell_angle_gamma   123.30877112
_symmetry_Int_Tables_number   1
_chemical_formula_structural   Ba5(GaS4)2
_chemical_formula_sum   'Ba20 Ga8 S32'
_cell_volume   1681.82589667
_cell_formula_units_Z   4
loop_
 _symmetry_equiv_pos_site_id
 _symmetry_equiv_pos_as_xyz
  1  'x, y, z'
loop_
 _atom_site_type_symbol
 _atom_site_label
 _atom_site_symmetry_multiplicity
 _atom_site_fract_x
 _atom_site_fract_y
 _atom_site_fract_z
 _atom_site_occupancy
  Ba  Ba0  1  0.007181  0.507181  0.750000  1
  Ba  Ba1  1  0.492819  0.992819  0.250000  1
  Ba  Ba2  1  0.992819  0.492819  0.250000  1
  Ba  Ba3  1  0.507181  0.007181  0.750000  1
  Ba  Ba4  1  0.064049  0.259677  0.505020  1
  Ba  Ba5  1  0.435951  0.240323  0.005020  1
  Ba  Ba6  1  0.759677  0.564049  0.994980  1
  Ba  Ba7  1  0.740323  0.935951  0.494980  1
  Ba  Ba8  1  0.935951  0.740323  0.494980  1
  Ba  Ba9  1  0.564049  0.759677  0.994980  1
  Ba  Ba10  1  0.240323  0.435951  0.005020  1
  Ba  Ba11  1  0.259677  0.064049  0.505020  1
  Ba  Ba12  1  0.394131  0.597044  0.340418  1
  Ba  Ba13  1  0.105869  0.902956  0.840418  1
  Ba  Ba14  1  0.097044  0.894131  0.159582  1
  Ba  Ba15  1  0.402956  0.605869  0.659582  1
  Ba  Ba16  1  0.605869  0.402956  0.659582  1
  Ba  Ba17  1  0.894131  0.097044  0.159582  1
  Ba  Ba18  1  0.902956  0.105869  0.840418  1
  Ba  Ba19  1  0.597044  0.394131  0.340418  1
  Ga  Ga20  1  0.750202  0.249798  0.500000  1
  Ga  Ga21  1  0.749798  0.250202  1.000000  1
  Ga  Ga22  1  0.249798  0.750202  0.500000  1
  Ga  Ga23  1  0.250202  0.749798  0.000000  1
  Ga  Ga24  1  0.187469  0.187469  0.232525  1
  Ga  Ga25  1  0.312531  0.312531  0.732525  1
  Ga  Ga26  1  0.687469  0.687469  0.267475  1
  Ga  Ga27  1  0.812531  0.812531  0.767475  1
  S  S28  1  0.144839  0.144839  0.041216  1
  S  S29  1  0.355161  0.355161  0.541216  1
  S  S30  1  0.644839  0.644839  0.458784  1
  S  S31  1  0.855161  0.855161  0.958784  1
  S  S32  1  0.835985  0.652446  0.741922  1
  S  S33  1  0.664015  0.847554  0.241922  1
  S  S34  1  0.152446  0.335985  0.758078  1
  S  S35  1  0.347554  0.164015  0.258078  1
  S  S36  1  0.164015  0.347554  0.258078  1
  S  S37  1  0.335985  0.152446  0.758078  1
  S  S38  1  0.847554  0.664015  0.241922  1
  S  S39  1  0.652446  0.835985  0.741922  1
  S  S40  1  0.959319  0.335278  0.003419  1
  S  S41  1  0.540681  0.164722  0.503419  1
  S  S42  1  0.030815  0.030815  0.348139  1
  S  S43  1  0.835278  0.459319  0.496581  1
  S  S44  1  0.040681  0.664722  0.996581  1
  S  S45  1  0.459319  0.835278  0.496581  1
  S  S46  1  0.164722  0.540681  0.503419  1
  S  S47  1  0.335278  0.959319  0.003419  1
  S  S48  1  0.812758  0.186466  0.352186  1
  S  S49  1  0.687242  0.313534  0.852186  1
  S  S50  1  0.686466  0.312758  0.147814  1
  S  S51  1  0.813534  0.187242  0.647814  1
  S  S52  1  0.187242  0.813534  0.647814  1
  S  S53  1  0.312758  0.686466  0.147814  1
  S  S54  1  0.313534  0.687242  0.852186  1
  S  S55  1  0.186466  0.812758  0.352186  1
  S  S56  1  0.969185  0.969185  0.651861  1
  S  S57  1  0.530815  0.530815  0.151861  1
  S  S58  1  0.469185  0.469185  0.848139  1
  S  S59  1  0.664722  0.040681  0.996581  1
