# generated using pymatgen
data_K2ZnBr4
_symmetry_space_group_name_H-M   'P 1'
_cell_length_a   7.41874489
_cell_length_b   7.66314676
_cell_length_c   9.28128120
_cell_angle_alpha   90.00000000
_cell_angle_beta   108.53215374
_cell_angle_gamma   90.00000000
_symmetry_Int_Tables_number   1
_chemical_formula_structural   K2ZnBr4
_chemical_formula_sum   'K4 Zn2 Br8'
_cell_volume   500.28844316
_cell_formula_units_Z   2
loop_
 _symmetry_equiv_pos_site_id
 _symmetry_equiv_pos_as_xyz
  1  'x, y, z'
loop_
 _atom_site_type_symbol
 _atom_site_label
 _atom_site_symmetry_multiplicity
 _atom_site_fract_x
 _atom_site_fract_y
 _atom_site_fract_z
 _atom_site_occupancy
  K  K0  1  0.227889  0.757062  0.427876  1
  K  K1  1  0.772111  0.257062  0.572124  1
  K  K2  1  0.288494  0.756360  0.952553  1
  K  K3  1  0.711506  0.256360  0.047447  1
  Zn  Zn4  1  0.719771  0.742683  0.795785  1
  Zn  Zn5  1  0.280229  0.242683  0.204215  1
  Br  Br6  1  0.896795  0.729528  0.065884  1
  Br  Br7  1  0.103205  0.229528  0.934116  1
  Br  Br8  1  0.922381  0.732785  0.635216  1
  Br  Br9  1  0.077619  0.232785  0.364784  1
  Br  Br10  1  0.511956  0.997893  0.739952  1
  Br  Br11  1  0.488044  0.497893  0.260048  1
  Br  Br12  1  0.494750  0.498880  0.733510  1
  Br  Br13  1  0.505250  0.998880  0.266490  1
