# generated using pymatgen
data_LaInNi2
_symmetry_space_group_name_H-M   'P 1'
_cell_length_a   4.13690771
_cell_length_b   5.27073929
_cell_length_c   7.16672642
_cell_angle_alpha   90.00000000
_cell_angle_beta   90.00000000
_cell_angle_gamma   90.00000000
_symmetry_Int_Tables_number   1
_chemical_formula_structural   LaInNi2
_chemical_formula_sum   'La2 In2 Ni4'
_cell_volume   156.26733061
_cell_formula_units_Z   2
loop_
 _symmetry_equiv_pos_site_id
 _symmetry_equiv_pos_as_xyz
  1  'x, y, z'
loop_
 _atom_site_type_symbol
 _atom_site_label
 _atom_site_symmetry_multiplicity
 _atom_site_fract_x
 _atom_site_fract_y
 _atom_site_fract_z
 _atom_site_occupancy
  La  La0  1  0.000000  0.750000  0.271993  1
  La  La1  1  0.000000  0.250000  0.728007  1
  In  In2  1  0.500000  0.250000  0.341224  1
  In  In3  1  0.500000  0.750000  0.658776  1
  Ni  Ni4  1  0.000000  0.250000  0.108226  1
  Ni  Ni5  1  0.000000  0.750000  0.891774  1
  Ni  Ni6  1  0.500000  0.000000  0.000000  1
  Ni  Ni7  1  0.500000  0.500000  0.000000  1
