# generated using pymatgen
data_KMnCl3
_symmetry_space_group_name_H-M   'P 1'
_cell_length_a   7.02772304
_cell_length_b   7.15781859
_cell_length_c   10.08013668
_cell_angle_alpha   90.00000000
_cell_angle_beta   90.00000000
_cell_angle_gamma   90.00000000
_symmetry_Int_Tables_number   1
_chemical_formula_structural   KMnCl3
_chemical_formula_sum   'K4 Mn4 Cl12'
_cell_volume   507.06279498
_cell_formula_units_Z   4
loop_
 _symmetry_equiv_pos_site_id
 _symmetry_equiv_pos_as_xyz
  1  'x, y, z'
loop_
 _atom_site_type_symbol
 _atom_site_label
 _atom_site_symmetry_multiplicity
 _atom_site_fract_x
 _atom_site_fract_y
 _atom_site_fract_z
 _atom_site_occupancy
  K  K0  1  0.987327  0.049591  0.250000  1
  K  K1  1  0.487327  0.450409  0.750000  1
  K  K2  1  0.512673  0.549591  0.250000  1
  K  K3  1  0.012673  0.950409  0.750000  1
  Mn  Mn4  1  0.500000  0.000000  0.000000  1
  Mn  Mn5  1  0.000000  0.500000  0.000000  1
  Mn  Mn6  1  0.000000  0.500000  0.500000  1
  Mn  Mn7  1  0.500000  0.000000  0.500000  1
  Cl  Cl8  1  0.707192  0.292018  0.469143  1
  Cl  Cl9  1  0.207192  0.207982  0.530857  1
  Cl  Cl10  1  0.792808  0.792018  0.030857  1
  Cl  Cl11  1  0.292808  0.707982  0.969143  1
  Cl  Cl12  1  0.292808  0.707982  0.530857  1
  Cl  Cl13  1  0.792808  0.792018  0.469143  1
  Cl  Cl14  1  0.207192  0.207982  0.969143  1
  Cl  Cl15  1  0.707192  0.292018  0.030857  1
  Cl  Cl16  1  0.060472  0.493572  0.250000  1
  Cl  Cl17  1  0.560472  0.006428  0.750000  1
  Cl  Cl18  1  0.439528  0.993572  0.250000  1
  Cl  Cl19  1  0.939528  0.506428  0.750000  1
