# generated using pymatgen
data_BaGe2S5
_symmetry_space_group_name_H-M   'P 1'
_cell_length_a   10.76610128
_cell_length_b   10.76610128
_cell_length_c   10.76610128
_cell_angle_alpha   60.00000000
_cell_angle_beta   60.00000000
_cell_angle_gamma   60.00000000
_symmetry_Int_Tables_number   1
_chemical_formula_structural   BaGe2S5
_chemical_formula_sum   'Ba4 Ge8 S20'
_cell_volume   882.38960980
_cell_formula_units_Z   4
loop_
 _symmetry_equiv_pos_site_id
 _symmetry_equiv_pos_as_xyz
  1  'x, y, z'
loop_
 _atom_site_type_symbol
 _atom_site_label
 _atom_site_symmetry_multiplicity
 _atom_site_fract_x
 _atom_site_fract_y
 _atom_site_fract_z
 _atom_site_occupancy
  Ba  Ba0  1  0.625000  0.125000  0.125000  1
  Ba  Ba1  1  0.125000  0.125000  0.625000  1
  Ba  Ba2  1  0.125000  0.125000  0.125000  1
  Ba  Ba3  1  0.125000  0.625000  0.125000  1
  Ge  Ge4  1  0.832999  0.501004  0.832999  1
  Ge  Ge5  1  0.417001  0.417001  0.417001  1
  Ge  Ge6  1  0.748996  0.417001  0.417001  1
  Ge  Ge7  1  0.417001  0.417001  0.748996  1
  Ge  Ge8  1  0.501004  0.832999  0.832999  1
  Ge  Ge9  1  0.832999  0.832999  0.501004  1
  Ge  Ge10  1  0.832999  0.832999  0.832999  1
  Ge  Ge11  1  0.417001  0.748996  0.417001  1
  S  S12  1  0.673037  0.326963  0.673037  1
  S  S13  1  0.923037  0.576963  0.923037  1
  S  S14  1  0.673037  0.326963  0.326963  1
  S  S15  1  0.326963  0.326963  0.673037  1
  S  S16  1  0.673037  0.673037  0.326963  1
  S  S17  1  0.326963  0.673037  0.673037  1
  S  S18  1  0.576963  0.923037  0.576963  1
  S  S19  1  0.923037  0.923037  0.576963  1
  S  S20  1  0.576963  0.576963  0.923037  1
  S  S21  1  0.923037  0.576963  0.576963  1
  S  S22  1  0.576963  0.923037  0.923037  1
  S  S23  1  0.326963  0.673037  0.326963  1
  S  S24  1  0.334442  0.996674  0.334442  1
  S  S25  1  0.915558  0.915558  0.915558  1
  S  S26  1  0.915558  0.915558  0.253326  1
  S  S27  1  0.253326  0.915558  0.915558  1
  S  S28  1  0.334442  0.334442  0.996674  1
  S  S29  1  0.996674  0.334442  0.334442  1
  S  S30  1  0.334442  0.334442  0.334442  1
  S  S31  1  0.915558  0.253326  0.915558  1
