# generated using pymatgen
data_Sr2Cu2O5
_symmetry_space_group_name_H-M   'P 1'
_cell_length_a   3.75151600
_cell_length_b   5.54652976
_cell_length_c   11.03750519
_cell_angle_alpha   90.00000000
_cell_angle_beta   90.00000000
_cell_angle_gamma   90.00000000
_symmetry_Int_Tables_number   1
_chemical_formula_structural   Sr2Cu2O5
_chemical_formula_sum   'Sr4 Cu4 O10'
_cell_volume   229.66725059
_cell_formula_units_Z   2
loop_
 _symmetry_equiv_pos_site_id
 _symmetry_equiv_pos_as_xyz
  1  'x, y, z'
loop_
 _atom_site_type_symbol
 _atom_site_label
 _atom_site_symmetry_multiplicity
 _atom_site_fract_x
 _atom_site_fract_y
 _atom_site_fract_z
 _atom_site_occupancy
  Sr  Sr0  1  0.500000  0.213043  0.865036  1
  Sr  Sr1  1  0.500000  0.786957  0.134964  1
  Sr  Sr2  1  0.500000  0.713043  0.634964  1
  Sr  Sr3  1  0.500000  0.286957  0.365036  1
  Cu  Cu4  1  0.000000  0.242208  0.622557  1
  Cu  Cu5  1  0.000000  0.757792  0.377443  1
  Cu  Cu6  1  0.000000  0.742208  0.877443  1
  Cu  Cu7  1  0.000000  0.257792  0.122557  1
  O  O8  1  0.000000  0.500000  0.500000  1
  O  O9  1  0.000000  0.000000  0.000000  1
  O  O10  1  0.000000  0.982486  0.730768  1
  O  O11  1  0.000000  0.017514  0.269232  1
  O  O12  1  0.000000  0.482486  0.769232  1
  O  O13  1  0.000000  0.517514  0.230768  1
  O  O14  1  0.500000  0.207112  0.596238  1
  O  O15  1  0.500000  0.792888  0.403762  1
  O  O16  1  0.500000  0.292888  0.096238  1
  O  O17  1  0.500000  0.707112  0.903762  1
