# generated using pymatgen
data_P4SeO6
_symmetry_space_group_name_H-M   'P 1'
_cell_length_a   10.98709220
_cell_length_b   6.75631018
_cell_length_c   12.37808377
_cell_angle_alpha   90.00000000
_cell_angle_beta   109.84403533
_cell_angle_gamma   90.00000000
_symmetry_Int_Tables_number   1
_chemical_formula_structural   P4SeO6
_chemical_formula_sum   'P16 Se4 O24'
_cell_volume   864.29110662
_cell_formula_units_Z   4
loop_
 _symmetry_equiv_pos_site_id
 _symmetry_equiv_pos_as_xyz
  1  'x, y, z'
loop_
 _atom_site_type_symbol
 _atom_site_label
 _atom_site_symmetry_multiplicity
 _atom_site_fract_x
 _atom_site_fract_y
 _atom_site_fract_z
 _atom_site_occupancy
  P  P0  1  0.665381  0.463540  0.789484  1
  P  P1  1  0.334619  0.963540  0.710516  1
  P  P2  1  0.334619  0.536460  0.210516  1
  P  P3  1  0.665381  0.036460  0.289484  1
  P  P4  1  0.569838  0.243582  0.952275  1
  P  P5  1  0.430162  0.743582  0.547725  1
  P  P6  1  0.430162  0.756418  0.047725  1
  P  P7  1  0.569838  0.256418  0.452275  1
  P  P8  1  0.822485  0.135595  0.928566  1
  P  P9  1  0.177515  0.635595  0.571434  1
  P  P10  1  0.177515  0.864405  0.071434  1
  P  P11  1  0.822485  0.364405  0.428566  1
  P  P12  1  0.792811  0.510061  0.037333  1
  P  P13  1  0.207189  0.010061  0.462667  1
  P  P14  1  0.207189  0.489939  0.962667  1
  P  P15  1  0.792811  0.989939  0.537333  1
  Se  Se16  1  0.887313  0.706486  0.165238  1
  Se  Se17  1  0.112687  0.206486  0.334762  1
  Se  Se18  1  0.112687  0.293514  0.834762  1
  Se  Se19  1  0.887313  0.793514  0.665238  1
  O  O20  1  0.683730  0.085439  0.950273  1
  O  O21  1  0.316270  0.585439  0.549727  1
  O  O22  1  0.316270  0.914561  0.049727  1
  O  O23  1  0.683730  0.414561  0.450273  1
  O  O24  1  0.765600  0.274045  0.810522  1
  O  O25  1  0.234400  0.774045  0.689478  1
  O  O26  1  0.234400  0.725955  0.189478  1
  O  O27  1  0.765600  0.225955  0.310522  1
  O  O28  1  0.548829  0.366888  0.830862  1
  O  O29  1  0.451171  0.866888  0.669138  1
  O  O30  1  0.451171  0.633112  0.169138  1
  O  O31  1  0.548829  0.133112  0.330862  1
  O  O32  1  0.661518  0.412408  0.046584  1
  O  O33  1  0.338482  0.912408  0.453416  1
  O  O34  1  0.338482  0.587592  0.953416  1
  O  O35  1  0.661518  0.087592  0.546584  1
  O  O36  1  0.743435  0.598604  0.907566  1
  O  O37  1  0.256565  0.098604  0.592434  1
  O  O38  1  0.256565  0.401396  0.092434  1
  O  O39  1  0.743435  0.901396  0.407566  1
  O  O40  1  0.876704  0.181463  0.527092  1
  O  O41  1  0.123296  0.681463  0.972908  1
  O  O42  1  0.123296  0.818537  0.472908  1
  O  O43  1  0.876704  0.318537  0.027092  1
