# generated using pymatgen
data_Li3ThF7
_symmetry_space_group_name_H-M   'P 1'
_cell_length_a   6.94621466
_cell_length_b   6.94621466
_cell_length_c   12.26452355
_cell_angle_alpha   90.00000000
_cell_angle_beta   90.00000000
_cell_angle_gamma   90.00000000
_symmetry_Int_Tables_number   1
_chemical_formula_structural   Li3ThF7
_chemical_formula_sum   'Li12 Th4 F28'
_cell_volume   591.76201157
_cell_formula_units_Z   4
loop_
 _symmetry_equiv_pos_site_id
 _symmetry_equiv_pos_as_xyz
  1  'x, y, z'
loop_
 _atom_site_type_symbol
 _atom_site_label
 _atom_site_symmetry_multiplicity
 _atom_site_fract_x
 _atom_site_fract_y
 _atom_site_fract_z
 _atom_site_occupancy
  Li  Li0  1  0.500000  0.500000  0.000000  1
  Li  Li1  1  0.375027  0.624973  0.250000  1
  Li  Li2  1  0.875027  0.875027  0.250000  1
  Li  Li3  1  0.124973  0.124973  0.250000  1
  Li  Li4  1  0.624973  0.375027  0.250000  1
  Li  Li5  1  0.000000  0.000000  0.000000  1
  Li  Li6  1  0.000000  0.000000  0.500000  1
  Li  Li7  1  0.500000  0.500000  0.500000  1
  Li  Li8  1  0.875027  0.124973  0.750000  1
  Li  Li9  1  0.375027  0.375027  0.750000  1
  Li  Li10  1  0.624973  0.624973  0.750000  1
  Li  Li11  1  0.124973  0.875027  0.750000  1
  Th  Th12  1  0.500000  0.000000  0.640796  1
  Th  Th13  1  0.000000  0.500000  0.859204  1
  Th  Th14  1  0.000000  0.500000  0.359204  1
  Th  Th15  1  0.500000  0.000000  0.140796  1
  F  F16  1  0.840030  0.159970  0.250000  1
  F  F17  1  0.159970  0.840030  0.250000  1
  F  F18  1  0.659970  0.659970  0.250000  1
  F  F19  1  0.340030  0.340030  0.250000  1
  F  F20  1  0.500000  0.000000  0.315703  1
  F  F21  1  0.000000  0.500000  0.184297  1
  F  F22  1  0.000000  0.500000  0.684297  1
  F  F23  1  0.500000  0.000000  0.815703  1
  F  F24  1  0.407488  0.704924  0.087027  1
  F  F25  1  0.795076  0.907488  0.087027  1
  F  F26  1  0.204924  0.092512  0.087027  1
  F  F27  1  0.907488  0.795076  0.412973  1
  F  F28  1  0.092512  0.204924  0.412973  1
  F  F29  1  0.592512  0.295076  0.087027  1
  F  F30  1  0.704924  0.407488  0.412973  1
  F  F31  1  0.295076  0.592512  0.412973  1
  F  F32  1  0.092512  0.795076  0.912973  1
  F  F33  1  0.704924  0.592512  0.912973  1
  F  F34  1  0.295076  0.407488  0.912973  1
  F  F35  1  0.592512  0.704924  0.587027  1
  F  F36  1  0.407488  0.295076  0.587027  1
  F  F37  1  0.907488  0.204924  0.912973  1
  F  F38  1  0.795076  0.092512  0.587027  1
  F  F39  1  0.204924  0.907488  0.587027  1
  F  F40  1  0.340030  0.659970  0.750000  1
  F  F41  1  0.840030  0.840030  0.750000  1
  F  F42  1  0.159970  0.159970  0.750000  1
  F  F43  1  0.659970  0.340030  0.750000  1
