# generated using pymatgen
data_Tl2PdSe2
_symmetry_space_group_name_H-M   'P 1'
_cell_length_a   3.74679118
_cell_length_b   6.21106359
_cell_length_c   11.59350610
_cell_angle_alpha   90.00000000
_cell_angle_beta   90.00000000
_cell_angle_gamma   90.00000000
_symmetry_Int_Tables_number   1
_chemical_formula_structural   Tl2PdSe2
_chemical_formula_sum   'Tl4 Pd2 Se4'
_cell_volume   269.79895285
_cell_formula_units_Z   2
loop_
 _symmetry_equiv_pos_site_id
 _symmetry_equiv_pos_as_xyz
  1  'x, y, z'
loop_
 _atom_site_type_symbol
 _atom_site_label
 _atom_site_symmetry_multiplicity
 _atom_site_fract_x
 _atom_site_fract_y
 _atom_site_fract_z
 _atom_site_occupancy
  Tl  Tl0  1  0.000000  0.610524  0.153208  1
  Tl  Tl1  1  0.000000  0.389476  0.846792  1
  Tl  Tl2  1  0.000000  0.110524  0.346792  1
  Tl  Tl3  1  0.000000  0.889476  0.653208  1
  Pd  Pd4  1  0.000000  0.000000  0.000000  1
  Pd  Pd5  1  0.000000  0.500000  0.500000  1
  Se  Se6  1  0.500000  0.675773  0.389516  1
  Se  Se7  1  0.500000  0.324227  0.610484  1
  Se  Se8  1  0.500000  0.175773  0.110484  1
  Se  Se9  1  0.500000  0.824227  0.889516  1
