# generated using pymatgen
data_SeO3
_symmetry_space_group_name_H-M   'P 1'
_cell_length_a   10.09495780
_cell_length_b   10.09495780
_cell_length_c   5.55221848
_cell_angle_alpha   90.00000000
_cell_angle_beta   90.00000000
_cell_angle_gamma   90.00000000
_symmetry_Int_Tables_number   1
_chemical_formula_structural   SeO3
_chemical_formula_sum   'Se8 O24'
_cell_volume   565.81644130
_cell_formula_units_Z   8
loop_
 _symmetry_equiv_pos_site_id
 _symmetry_equiv_pos_as_xyz
  1  'x, y, z'
loop_
 _atom_site_type_symbol
 _atom_site_label
 _atom_site_symmetry_multiplicity
 _atom_site_fract_x
 _atom_site_fract_y
 _atom_site_fract_z
 _atom_site_occupancy
  Se  Se0  1  0.510896  0.278801  0.560834  1
  Se  Se1  1  0.489104  0.721199  0.560834  1
  Se  Se2  1  0.278801  0.489104  0.439166  1
  Se  Se3  1  0.721199  0.510896  0.439166  1
  Se  Se4  1  0.778801  0.010896  0.060834  1
  Se  Se5  1  0.989104  0.778801  0.939166  1
  Se  Se6  1  0.010896  0.221199  0.939166  1
  Se  Se7  1  0.221199  0.989104  0.060834  1
  O  O8  1  0.594535  0.259653  0.805866  1
  O  O9  1  0.405465  0.740347  0.805866  1
  O  O10  1  0.259653  0.405465  0.194134  1
  O  O11  1  0.740347  0.594535  0.194134  1
  O  O12  1  0.759653  0.094535  0.305866  1
  O  O13  1  0.905465  0.759653  0.694134  1
  O  O14  1  0.094535  0.240347  0.694134  1
  O  O15  1  0.240347  0.905465  0.305866  1
  O  O16  1  0.117199  0.898634  0.845934  1
  O  O17  1  0.101366  0.117199  0.154066  1
  O  O18  1  0.898634  0.882801  0.154066  1
  O  O19  1  0.882801  0.101366  0.845934  1
  O  O20  1  0.617199  0.601366  0.654066  1
  O  O21  1  0.382801  0.398634  0.654066  1
  O  O22  1  0.398634  0.617199  0.345934  1
  O  O23  1  0.601366  0.382801  0.345934  1
  O  O24  1  0.335515  0.052840  0.895429  1
  O  O25  1  0.947160  0.335515  0.104571  1
  O  O26  1  0.052840  0.664485  0.104571  1
  O  O27  1  0.664485  0.947160  0.895429  1
  O  O28  1  0.835515  0.447160  0.604571  1
  O  O29  1  0.164485  0.552840  0.604571  1
  O  O30  1  0.552840  0.835515  0.395429  1
  O  O31  1  0.447160  0.164485  0.395429  1
