# generated using pymatgen
data_NbInSe2
_symmetry_space_group_name_H-M   'P 1'
_cell_length_a   3.46461538
_cell_length_b   3.46461538
_cell_length_c   9.39144015
_cell_angle_alpha   90.00000000
_cell_angle_beta   90.00000000
_cell_angle_gamma   120.00000000
_symmetry_Int_Tables_number   1
_chemical_formula_structural   NbInSe2
_chemical_formula_sum   'Nb1 In1 Se2'
_cell_volume   97.62766124
_cell_formula_units_Z   1
loop_
 _symmetry_equiv_pos_site_id
 _symmetry_equiv_pos_as_xyz
  1  'x, y, z'
loop_
 _atom_site_type_symbol
 _atom_site_label
 _atom_site_symmetry_multiplicity
 _atom_site_fract_x
 _atom_site_fract_y
 _atom_site_fract_z
 _atom_site_occupancy
  Nb  Nb0  1  0.000000  0.000000  0.500000  1
  In  In1  1  0.666667  0.333333  0.000000  1
  Se  Se2  1  0.666667  0.333333  0.678414  1
  Se  Se3  1  0.666667  0.333333  0.321586  1
