# generated using pymatgen
data_Li3MnPCO7
_symmetry_space_group_name_H-M   'P 1'
_cell_length_a   5.00708166
_cell_length_b   6.58497117
_cell_length_c   8.62497777
_cell_angle_alpha   90.00000000
_cell_angle_beta   95.74158192
_cell_angle_gamma   90.00000000
_symmetry_Int_Tables_number   1
_chemical_formula_structural   Li3MnPCO7
_chemical_formula_sum   'Li6 Mn2 P2 C2 O14'
_cell_volume   282.95169277
_cell_formula_units_Z   2
loop_
 _symmetry_equiv_pos_site_id
 _symmetry_equiv_pos_as_xyz
  1  'x, y, z'
loop_
 _atom_site_type_symbol
 _atom_site_label
 _atom_site_symmetry_multiplicity
 _atom_site_fract_x
 _atom_site_fract_y
 _atom_site_fract_z
 _atom_site_occupancy
  Li  Li0  1  0.737641  0.978796  0.266885  1
  Li  Li1  1  0.262359  0.021204  0.733115  1
  Li  Li2  1  0.783925  0.250000  0.895400  1
  Li  Li3  1  0.216075  0.750000  0.104600  1
  Li  Li4  1  0.262359  0.478796  0.733115  1
  Li  Li5  1  0.737641  0.521204  0.266885  1
  Mn  Mn6  1  0.779280  0.750000  0.656550  1
  Mn  Mn7  1  0.220720  0.250000  0.343450  1
  P  P8  1  0.731998  0.250000  0.590632  1
  P  P9  1  0.268002  0.750000  0.409368  1
  C  C10  1  0.687822  0.750000  0.962505  1
  C  C11  1  0.312178  0.250000  0.037495  1
  O  O12  1  0.496922  0.250000  0.156199  1
  O  O13  1  0.936632  0.750000  0.935710  1
  O  O14  1  0.183255  0.750000  0.576736  1
  O  O15  1  0.503078  0.750000  0.843801  1
  O  O16  1  0.156537  0.565664  0.309922  1
  O  O17  1  0.816745  0.250000  0.423264  1
  O  O18  1  0.156537  0.934336  0.309922  1
  O  O19  1  0.843463  0.434336  0.690078  1
  O  O20  1  0.843463  0.065664  0.690078  1
  O  O21  1  0.417970  0.250000  0.579017  1
  O  O22  1  0.616924  0.750000  0.103872  1
  O  O23  1  0.383076  0.250000  0.896128  1
  O  O24  1  0.582030  0.750000  0.420983  1
  O  O25  1  0.063368  0.250000  0.064290  1
