# generated using pymatgen
data_TlHg5Cl11
_symmetry_space_group_name_H-M   'P 1'
_cell_length_a   9.64043555
_cell_length_b   9.64043555
_cell_length_c   6.68874630
_cell_angle_alpha   72.27037565
_cell_angle_beta   107.72962435
_cell_angle_gamma   79.16762751
_symmetry_Int_Tables_number   1
_chemical_formula_structural   TlHg5Cl11
_chemical_formula_sum   'Tl1 Hg5 Cl11'
_cell_volume   536.32377363
_cell_formula_units_Z   1
loop_
 _symmetry_equiv_pos_site_id
 _symmetry_equiv_pos_as_xyz
  1  'x, y, z'
loop_
 _atom_site_type_symbol
 _atom_site_label
 _atom_site_symmetry_multiplicity
 _atom_site_fract_x
 _atom_site_fract_y
 _atom_site_fract_z
 _atom_site_occupancy
  Tl  Tl0  1  0.500000  0.500000  0.500000  1
  Hg  Hg1  1  0.000000  0.000000  0.500000  1
  Hg  Hg2  1  0.152039  0.516702  0.816749  1
  Hg  Hg3  1  0.516702  0.152039  0.183251  1
  Hg  Hg4  1  0.847961  0.483298  0.183251  1
  Hg  Hg5  1  0.483298  0.847961  0.816749  1
  Cl  Cl6  1  0.500000  0.500000  0.000000  1
  Cl  Cl7  1  0.085800  0.666006  0.433611  1
  Cl  Cl8  1  0.666006  0.085800  0.566389  1
  Cl  Cl9  1  0.914200  0.333994  0.566389  1
  Cl  Cl10  1  0.333994  0.914200  0.433611  1
  Cl  Cl11  1  0.795261  0.635353  0.804352  1
  Cl  Cl12  1  0.853605  0.146395  0.115929  1
  Cl  Cl13  1  0.146395  0.853605  0.884071  1
  Cl  Cl14  1  0.364647  0.204739  0.804352  1
  Cl  Cl15  1  0.204739  0.364647  0.195648  1
  Cl  Cl16  1  0.635353  0.795261  0.195648  1
