# generated using pymatgen
data_K4PbO3
_symmetry_space_group_name_H-M   'P 1'
_cell_length_a   6.66701541
_cell_length_b   11.74599584
_cell_length_c   18.97148086
_cell_angle_alpha   90.00000000
_cell_angle_beta   90.00000000
_cell_angle_gamma   90.00000000
_symmetry_Int_Tables_number   1
_chemical_formula_structural   K4PbO3
_chemical_formula_sum   'K32 Pb8 O24'
_cell_volume   1485.67061533
_cell_formula_units_Z   8
loop_
 _symmetry_equiv_pos_site_id
 _symmetry_equiv_pos_as_xyz
  1  'x, y, z'
loop_
 _atom_site_type_symbol
 _atom_site_label
 _atom_site_symmetry_multiplicity
 _atom_site_fract_x
 _atom_site_fract_y
 _atom_site_fract_z
 _atom_site_occupancy
  K  K0  1  0.945062  0.381166  0.201075  1
  K  K1  1  0.445062  0.118834  0.798925  1
  K  K2  1  0.054938  0.881166  0.298925  1
  K  K3  1  0.554938  0.618834  0.701075  1
  K  K4  1  0.054938  0.618834  0.798925  1
  K  K5  1  0.554938  0.881166  0.201075  1
  K  K6  1  0.945062  0.118834  0.701075  1
  K  K7  1  0.445062  0.381166  0.298925  1
  K  K8  1  0.764949  0.187831  0.943197  1
  K  K9  1  0.264949  0.312169  0.056803  1
  K  K10  1  0.235051  0.687831  0.556803  1
  K  K11  1  0.735051  0.812169  0.443197  1
  K  K12  1  0.235051  0.812169  0.056803  1
  K  K13  1  0.735051  0.687831  0.943197  1
  K  K14  1  0.764949  0.312169  0.443197  1
  K  K15  1  0.264949  0.187831  0.556803  1
  K  K16  1  0.747301  0.054626  0.533606  1
  K  K17  1  0.247301  0.445374  0.466394  1
  K  K18  1  0.252699  0.554626  0.966394  1
  K  K19  1  0.752699  0.945374  0.033606  1
  K  K20  1  0.252699  0.945374  0.466394  1
  K  K21  1  0.752699  0.554626  0.533606  1
  K  K22  1  0.747301  0.445374  0.033606  1
  K  K23  1  0.247301  0.054626  0.966394  1
  K  K24  1  0.626883  0.172275  0.147659  1
  K  K25  1  0.126883  0.327725  0.852341  1
  K  K26  1  0.373117  0.672275  0.352341  1
  K  K27  1  0.873117  0.827725  0.647659  1
  K  K28  1  0.373117  0.827725  0.852341  1
  K  K29  1  0.873117  0.672275  0.147659  1
  K  K30  1  0.626883  0.327725  0.647659  1
  K  K31  1  0.126883  0.172275  0.352341  1
  Pb  Pb32  1  0.610979  0.062173  0.345677  1
  Pb  Pb33  1  0.110979  0.437827  0.654323  1
  Pb  Pb34  1  0.389021  0.562173  0.154323  1
  Pb  Pb35  1  0.889021  0.937827  0.845677  1
  Pb  Pb36  1  0.389021  0.937827  0.654323  1
  Pb  Pb37  1  0.889021  0.562173  0.345677  1
  Pb  Pb38  1  0.610979  0.437827  0.845677  1
  Pb  Pb39  1  0.110979  0.062173  0.154323  1
  O  O40  1  0.957383  0.351617  0.565608  1
  O  O41  1  0.457383  0.148383  0.434392  1
  O  O42  1  0.042617  0.851617  0.934392  1
  O  O43  1  0.542617  0.648383  0.065608  1
  O  O44  1  0.042617  0.648383  0.434392  1
  O  O45  1  0.542617  0.851617  0.565608  1
  O  O46  1  0.957383  0.148383  0.065608  1
  O  O47  1  0.457383  0.351617  0.934392  1
  O  O48  1  0.542691  0.393626  0.157251  1
  O  O49  1  0.042691  0.106374  0.842749  1
  O  O50  1  0.457309  0.893626  0.342749  1
  O  O51  1  0.957309  0.606374  0.657251  1
  O  O52  1  0.457309  0.606374  0.842749  1
  O  O53  1  0.957309  0.893626  0.157251  1
  O  O54  1  0.542691  0.106374  0.657251  1
  O  O55  1  0.042691  0.393626  0.342749  1
  O  O56  1  0.887573  0.488590  0.900453  1
  O  O57  1  0.387573  0.011410  0.099547  1
  O  O58  1  0.112427  0.988590  0.599547  1
  O  O59  1  0.612427  0.511410  0.400453  1
  O  O60  1  0.112427  0.511410  0.099547  1
  O  O61  1  0.612427  0.988590  0.900453  1
  O  O62  1  0.887573  0.011410  0.400453  1
  O  O63  1  0.387573  0.488590  0.599547  1
