# generated using pymatgen
data_TbGeIr
_symmetry_space_group_name_H-M   'P 1'
_cell_length_a   4.34966967
_cell_length_b   6.94923608
_cell_length_c   7.60112365
_cell_angle_alpha   90.00000000
_cell_angle_beta   90.00000000
_cell_angle_gamma   90.00000000
_symmetry_Int_Tables_number   1
_chemical_formula_structural   TbGeIr
_chemical_formula_sum   'Tb4 Ge4 Ir4'
_cell_volume   229.75826313
_cell_formula_units_Z   4
loop_
 _symmetry_equiv_pos_site_id
 _symmetry_equiv_pos_as_xyz
  1  'x, y, z'
loop_
 _atom_site_type_symbol
 _atom_site_label
 _atom_site_symmetry_multiplicity
 _atom_site_fract_x
 _atom_site_fract_y
 _atom_site_fract_z
 _atom_site_occupancy
  Tb  Tb0  1  0.750000  0.499606  0.307400  1
  Tb  Tb1  1  0.250000  0.000394  0.807400  1
  Tb  Tb2  1  0.750000  0.999606  0.192600  1
  Tb  Tb3  1  0.250000  0.500394  0.692600  1
  Ge  Ge4  1  0.250000  0.793875  0.393080  1
  Ge  Ge5  1  0.250000  0.293875  0.106920  1
  Ge  Ge6  1  0.750000  0.206125  0.606920  1
  Ge  Ge7  1  0.750000  0.706125  0.893080  1
  Ir  Ir8  1  0.250000  0.661535  0.068773  1
  Ir  Ir9  1  0.250000  0.161535  0.431227  1
  Ir  Ir10  1  0.750000  0.838465  0.568773  1
  Ir  Ir11  1  0.750000  0.338465  0.931227  1
