# generated using pymatgen
data_MnBiO3
_symmetry_space_group_name_H-M   'P 1'
_cell_length_a   5.63032850
_cell_length_b   5.63032850
_cell_length_c   9.99411586
_cell_angle_alpha   72.14434576
_cell_angle_beta   107.85565424
_cell_angle_gamma   119.18812328
_symmetry_Int_Tables_number   1
_chemical_formula_structural   MnBiO3
_chemical_formula_sum   'Mn4 Bi4 O12'
_cell_volume   258.52096313
_cell_formula_units_Z   4
loop_
 _symmetry_equiv_pos_site_id
 _symmetry_equiv_pos_as_xyz
  1  'x, y, z'
loop_
 _atom_site_type_symbol
 _atom_site_label
 _atom_site_symmetry_multiplicity
 _atom_site_fract_x
 _atom_site_fract_y
 _atom_site_fract_z
 _atom_site_occupancy
  Mn  Mn0  1  0.786914  0.786914  0.250000  1
  Mn  Mn1  1  0.213086  0.213086  0.750000  1
  Mn  Mn2  1  0.500000  1.000000  0.500000  1
  Mn  Mn3  1  1.000000  0.500000  0.000000  1
  Bi  Bi4  1  0.645694  0.920323  0.876630  1
  Bi  Bi5  1  0.920323  0.645694  0.623370  1
  Bi  Bi6  1  0.354306  0.079677  0.123370  1
  Bi  Bi7  1  0.079677  0.354306  0.376630  1
  O  O8  1  0.730385  0.920447  0.420896  1
  O  O9  1  0.920447  0.730385  0.079104  1
  O  O10  1  0.269615  0.079553  0.579104  1
  O  O11  1  0.079553  0.269615  0.920896  1
  O  O12  1  0.287148  0.579788  0.627654  1
  O  O13  1  0.579788  0.287148  0.872346  1
  O  O14  1  0.712852  0.420212  0.372346  1
  O  O15  1  0.420212  0.712852  0.127654  1
  O  O16  1  0.104696  0.806872  0.834283  1
  O  O17  1  0.806872  0.104696  0.665717  1
  O  O18  1  0.895304  0.193128  0.165717  1
  O  O19  1  0.193128  0.895304  0.334283  1
