# generated using pymatgen
data_Si3Rh5
_symmetry_space_group_name_H-M   'P 1'
_cell_length_a   3.91139314
_cell_length_b   5.39539827
_cell_length_c   10.30614591
_cell_angle_alpha   90.00000000
_cell_angle_beta   90.00000000
_cell_angle_gamma   90.00000000
_symmetry_Int_Tables_number   1
_chemical_formula_structural   Si3Rh5
_chemical_formula_sum   'Si6 Rh10'
_cell_volume   217.49599530
_cell_formula_units_Z   2
loop_
 _symmetry_equiv_pos_site_id
 _symmetry_equiv_pos_as_xyz
  1  'x, y, z'
loop_
 _atom_site_type_symbol
 _atom_site_label
 _atom_site_symmetry_multiplicity
 _atom_site_fract_x
 _atom_site_fract_y
 _atom_site_fract_z
 _atom_site_occupancy
  Si  Si0  1  0.500000  0.096210  0.654391  1
  Si  Si1  1  0.500000  0.903790  0.345609  1
  Si  Si2  1  0.500000  0.596210  0.845609  1
  Si  Si3  1  0.500000  0.403790  0.154391  1
  Si  Si4  1  0.000000  0.500000  0.500000  1
  Si  Si5  1  0.000000  0.000000  0.000000  1
  Rh  Rh6  1  0.500000  0.333118  0.392628  1
  Rh  Rh7  1  0.500000  0.666882  0.607372  1
  Rh  Rh8  1  0.500000  0.833118  0.107372  1
  Rh  Rh9  1  0.500000  0.166882  0.892628  1
  Rh  Rh10  1  0.000000  0.339420  0.712767  1
  Rh  Rh11  1  0.000000  0.660580  0.287233  1
  Rh  Rh12  1  0.000000  0.839420  0.787233  1
  Rh  Rh13  1  0.000000  0.160580  0.212767  1
  Rh  Rh14  1  0.000000  0.500000  0.000000  1
  Rh  Rh15  1  0.000000  0.000000  0.500000  1
