# generated using pymatgen
data_DySi3Rh5
_symmetry_space_group_name_H-M   'P 1'
_cell_length_a   15.65155042
_cell_length_b   15.65155042
_cell_length_c   3.88198632
_cell_angle_alpha   90.00000000
_cell_angle_beta   90.00000000
_cell_angle_gamma   120.00000000
_symmetry_Int_Tables_number   1
_chemical_formula_structural   DySi3Rh5
_chemical_formula_sum   'Dy6 Si18 Rh30'
_cell_volume   823.56780619
_cell_formula_units_Z   6
loop_
 _symmetry_equiv_pos_site_id
 _symmetry_equiv_pos_as_xyz
  1  'x, y, z'
loop_
 _atom_site_type_symbol
 _atom_site_label
 _atom_site_symmetry_multiplicity
 _atom_site_fract_x
 _atom_site_fract_y
 _atom_site_fract_z
 _atom_site_occupancy
  Dy  Dy0  1  0.606107  0.899720  0.250000  1
  Dy  Dy1  1  0.706387  0.606107  0.750000  1
  Dy  Dy2  1  0.899720  0.293613  0.750000  1
  Dy  Dy3  1  0.100280  0.706387  0.250000  1
  Dy  Dy4  1  0.293613  0.393893  0.250000  1
  Dy  Dy5  1  0.393893  0.100280  0.750000  1
  Si  Si6  1  0.441636  0.760183  0.750000  1
  Si  Si7  1  0.681453  0.441636  0.250000  1
  Si  Si8  1  0.760183  0.318547  0.250000  1
  Si  Si9  1  0.239817  0.681453  0.750000  1
  Si  Si10  1  0.318547  0.558364  0.750000  1
  Si  Si11  1  0.558364  0.239817  0.250000  1
  Si  Si12  1  0.880008  0.130250  0.250000  1
  Si  Si13  1  0.119992  0.869750  0.750000  1
  Si  Si14  1  0.130250  0.250243  0.750000  1
  Si  Si15  1  0.250243  0.119992  0.250000  1
  Si  Si16  1  0.370858  0.938106  0.250000  1
  Si  Si17  1  0.432752  0.370858  0.750000  1
  Si  Si18  1  0.938106  0.567248  0.750000  1
  Si  Si19  1  0.061894  0.432752  0.250000  1
  Si  Si20  1  0.567248  0.629142  0.250000  1
  Si  Si21  1  0.629142  0.061894  0.750000  1
  Si  Si22  1  0.749757  0.880008  0.750000  1
  Si  Si23  1  0.869750  0.749757  0.250000  1
  Rh  Rh24  1  0.463733  0.924876  0.750000  1
  Rh  Rh25  1  0.153231  0.414423  0.750000  1
  Rh  Rh26  1  0.261191  0.846769  0.750000  1
  Rh  Rh27  1  0.738809  0.153231  0.250000  1
  Rh  Rh28  1  0.846769  0.585577  0.250000  1
  Rh  Rh29  1  0.414423  0.261191  0.250000  1
  Rh  Rh30  1  0.652102  0.223368  0.750000  1
  Rh  Rh31  1  0.428734  0.652102  0.250000  1
  Rh  Rh32  1  0.223368  0.571266  0.250000  1
  Rh  Rh33  1  0.776632  0.428734  0.750000  1
  Rh  Rh34  1  0.571266  0.347898  0.750000  1
  Rh  Rh35  1  0.347898  0.776632  0.250000  1
  Rh  Rh36  1  0.143137  0.029531  0.750000  1
  Rh  Rh37  1  0.113606  0.143137  0.250000  1
  Rh  Rh38  1  0.029531  0.886394  0.250000  1
  Rh  Rh39  1  0.970469  0.113606  0.750000  1
  Rh  Rh40  1  0.886394  0.856863  0.750000  1
  Rh  Rh41  1  0.856863  0.970469  0.250000  1
  Rh  Rh42  1  0.924876  0.461142  0.250000  1
  Rh  Rh43  1  0.075124  0.538858  0.750000  1
  Rh  Rh44  1  0.461142  0.536267  0.750000  1
  Rh  Rh45  1  0.536267  0.075124  0.250000  1
  Rh  Rh46  1  0.728670  0.771945  0.250000  1
  Rh  Rh47  1  0.956725  0.728670  0.750000  1
  Rh  Rh48  1  0.771945  0.043275  0.750000  1
  Rh  Rh49  1  0.228055  0.956725  0.250000  1
  Rh  Rh50  1  0.043275  0.271330  0.250000  1
  Rh  Rh51  1  0.271330  0.228055  0.750000  1
  Rh  Rh52  1  0.585577  0.738809  0.750000  1
  Rh  Rh53  1  0.538858  0.463733  0.250000  1
