# generated using pymatgen
data_Cr4As3
_symmetry_space_group_name_H-M   'P 1'
_cell_length_a   6.75026007
_cell_length_b   6.75026007
_cell_length_c   9.32520299
_cell_angle_alpha   76.84934930
_cell_angle_beta   103.15065070
_cell_angle_gamma   149.31142808
_symmetry_Int_Tables_number   1
_chemical_formula_structural   Cr4As3
_chemical_formula_sum   'Cr8 As6'
_cell_volume   210.74146989
_cell_formula_units_Z   2
loop_
 _symmetry_equiv_pos_site_id
 _symmetry_equiv_pos_as_xyz
  1  'x, y, z'
loop_
 _atom_site_type_symbol
 _atom_site_label
 _atom_site_symmetry_multiplicity
 _atom_site_fract_x
 _atom_site_fract_y
 _atom_site_fract_z
 _atom_site_occupancy
  Cr  Cr0  1  0.000000  1.000000  0.500000  1
  Cr  Cr1  1  0.352367  0.647633  0.053622  1
  Cr  Cr2  1  0.647633  0.352367  0.946378  1
  Cr  Cr3  1  0.782573  0.217427  0.333943  1
  Cr  Cr4  1  0.217427  0.782573  0.666057  1
  Cr  Cr5  1  0.566657  0.433343  0.202681  1
  Cr  Cr6  1  0.433343  0.566657  0.797319  1
  Cr  Cr7  1  0.000000  0.000000  0.000000  1
  As  As8  1  0.938025  0.061975  0.228754  1
  As  As9  1  0.061975  0.938025  0.771246  1
  As  As10  1  0.639511  0.360489  0.479911  1
  As  As11  1  0.360489  0.639511  0.520089  1
  As  As12  1  0.189050  0.810950  0.149762  1
  As  As13  1  0.810950  0.189050  0.850238  1
