# generated using pymatgen
data_Ca5(AlBi3)2
_symmetry_space_group_name_H-M   'P 1'
_cell_length_a   4.58792201
_cell_length_b   7.58767341
_cell_length_c   23.58029317
_cell_angle_alpha   90.00000000
_cell_angle_beta   90.00000000
_cell_angle_gamma   90.00000000
_symmetry_Int_Tables_number   1
_chemical_formula_structural   Ca5(AlBi3)2
_chemical_formula_sum   'Ca10 Al4 Bi12'
_cell_volume   820.86900334
_cell_formula_units_Z   2
loop_
 _symmetry_equiv_pos_site_id
 _symmetry_equiv_pos_as_xyz
  1  'x, y, z'
loop_
 _atom_site_type_symbol
 _atom_site_label
 _atom_site_symmetry_multiplicity
 _atom_site_fract_x
 _atom_site_fract_y
 _atom_site_fract_z
 _atom_site_occupancy
  Ca  Ca0  1  0.000000  0.534730  0.411371  1
  Ca  Ca1  1  0.000000  0.465270  0.588629  1
  Ca  Ca2  1  0.000000  0.034730  0.088629  1
  Ca  Ca3  1  0.000000  0.965270  0.911371  1
  Ca  Ca4  1  0.000000  0.270801  0.755167  1
  Ca  Ca5  1  0.000000  0.729199  0.244833  1
  Ca  Ca6  1  0.000000  0.770801  0.744833  1
  Ca  Ca7  1  0.000000  0.229199  0.255167  1
  Ca  Ca8  1  0.000000  0.500000  0.000000  1
  Ca  Ca9  1  0.000000  0.000000  0.500000  1
  Al  Al10  1  0.500000  0.817656  0.620819  1
  Al  Al11  1  0.500000  0.182344  0.379181  1
  Al  Al12  1  0.500000  0.317656  0.879181  1
  Al  Al13  1  0.500000  0.682344  0.120819  1
  Bi  Bi14  1  0.000000  0.036668  0.636215  1
  Bi  Bi15  1  0.000000  0.963332  0.363785  1
  Bi  Bi16  1  0.000000  0.536668  0.863785  1
  Bi  Bi17  1  0.000000  0.463332  0.136215  1
  Bi  Bi18  1  0.500000  0.989339  0.188335  1
  Bi  Bi19  1  0.500000  0.010661  0.811665  1
  Bi  Bi20  1  0.500000  0.489339  0.311665  1
  Bi  Bi21  1  0.500000  0.510661  0.688335  1
  Bi  Bi22  1  0.500000  0.793289  0.002526  1
  Bi  Bi23  1  0.500000  0.206711  0.997474  1
  Bi  Bi24  1  0.500000  0.293289  0.497474  1
  Bi  Bi25  1  0.500000  0.706711  0.502526  1
