# generated using pymatgen
data_Sb3(BrF8)2
_symmetry_space_group_name_H-M   'P 1'
_cell_length_a   7.88231433
_cell_length_b   7.88231433
_cell_length_c   14.81219115
_cell_angle_alpha   86.09708964
_cell_angle_beta   93.90291036
_cell_angle_gamma   120.16828351
_symmetry_Int_Tables_number   1
_chemical_formula_structural   Sb3(BrF8)2
_chemical_formula_sum   'Sb6 Br4 F32'
_cell_volume   793.18634389
_cell_formula_units_Z   2
loop_
 _symmetry_equiv_pos_site_id
 _symmetry_equiv_pos_as_xyz
  1  'x, y, z'
loop_
 _atom_site_type_symbol
 _atom_site_label
 _atom_site_symmetry_multiplicity
 _atom_site_fract_x
 _atom_site_fract_y
 _atom_site_fract_z
 _atom_site_occupancy
  Sb  Sb0  1  0.986387  0.728583  0.121205  1
  Sb  Sb1  1  0.728583  0.986387  0.378795  1
  Sb  Sb2  1  0.271417  0.013613  0.621205  1
  Sb  Sb3  1  0.013613  0.271417  0.878795  1
  Sb  Sb4  1  1.000000  0.500000  0.500000  1
  Sb  Sb5  1  0.500000  0.000000  0.000000  1
  Br  Br6  1  0.403164  0.266307  0.296581  1
  Br  Br7  1  0.266307  0.403164  0.203419  1
  Br  Br8  1  0.596836  0.733693  0.703419  1
  Br  Br9  1  0.733693  0.596836  0.796581  1
  F  F10  1  0.183571  0.348355  0.983118  1
  F  F11  1  0.348355  0.183571  0.516882  1
  F  F12  1  0.816429  0.651645  0.016882  1
  F  F13  1  0.651645  0.816429  0.483118  1
  F  F14  1  0.214985  0.407211  0.795441  1
  F  F15  1  0.407211  0.214985  0.704559  1
  F  F16  1  0.785015  0.592789  0.204559  1
  F  F17  1  0.592789  0.785015  0.295441  1
  F  F18  1  0.802977  0.172241  0.790615  1
  F  F19  1  0.172241  0.802977  0.709385  1
  F  F20  1  0.877029  0.211367  0.475562  1
  F  F21  1  0.211367  0.877029  0.024438  1
  F  F22  1  0.122971  0.788633  0.524438  1
  F  F23  1  0.788633  0.122971  0.975562  1
  F  F24  1  0.805767  0.514788  0.423039  1
  F  F25  1  0.514788  0.805767  0.076961  1
  F  F26  1  0.194233  0.485212  0.576961  1
  F  F27  1  0.485212  0.194233  0.923039  1
  F  F28  1  0.162272  0.564306  0.400424  1
  F  F29  1  0.564306  0.162272  0.099576  1
  F  F30  1  0.837728  0.435694  0.599576  1
  F  F31  1  0.435694  0.837728  0.900424  1
  F  F32  1  0.969833  0.986907  0.379491  1
  F  F33  1  0.986907  0.969833  0.120509  1
  F  F34  1  0.030167  0.013093  0.620509  1
  F  F35  1  0.013093  0.030167  0.879491  1
  F  F36  1  0.514028  0.031861  0.390997  1
  F  F37  1  0.031861  0.514028  0.109003  1
  F  F38  1  0.485972  0.968139  0.609003  1
  F  F39  1  0.968139  0.485972  0.890997  1
  F  F40  1  0.827759  0.197023  0.290615  1
  F  F41  1  0.197023  0.827759  0.209385  1
