# generated using pymatgen
data_GeRh2
_symmetry_space_group_name_H-M   'P 1'
_cell_length_a   4.06254371
_cell_length_b   5.53218340
_cell_length_c   7.67230999
_cell_angle_alpha   90.00000000
_cell_angle_beta   90.00000000
_cell_angle_gamma   90.00000000
_symmetry_Int_Tables_number   1
_chemical_formula_structural   GeRh2
_chemical_formula_sum   'Ge4 Rh8'
_cell_volume   172.43314824
_cell_formula_units_Z   4
loop_
 _symmetry_equiv_pos_site_id
 _symmetry_equiv_pos_as_xyz
  1  'x, y, z'
loop_
 _atom_site_type_symbol
 _atom_site_label
 _atom_site_symmetry_multiplicity
 _atom_site_fract_x
 _atom_site_fract_y
 _atom_site_fract_z
 _atom_site_occupancy
  Ge  Ge0  1  0.750000  0.286883  0.395863  1
  Ge  Ge1  1  0.250000  0.713117  0.604137  1
  Ge  Ge2  1  0.750000  0.786883  0.104137  1
  Ge  Ge3  1  0.250000  0.213117  0.895863  1
  Rh  Rh4  1  0.750000  0.970682  0.795100  1
  Rh  Rh5  1  0.250000  0.029318  0.204900  1
  Rh  Rh6  1  0.750000  0.470682  0.704900  1
  Rh  Rh7  1  0.250000  0.529318  0.295100  1
  Rh  Rh8  1  0.750000  0.837202  0.430432  1
  Rh  Rh9  1  0.250000  0.162798  0.569568  1
  Rh  Rh10  1  0.750000  0.337202  0.069568  1
  Rh  Rh11  1  0.250000  0.662798  0.930432  1
