# generated using pymatgen
data_La(GePt)2
_symmetry_space_group_name_H-M   'P 1'
_cell_length_a   5.96043204
_cell_length_b   5.96043204
_cell_length_c   5.96043204
_cell_angle_alpha   136.07781674
_cell_angle_beta   136.07781674
_cell_angle_gamma   63.86005226
_symmetry_Int_Tables_number   1
_chemical_formula_structural   La(GePt)2
_chemical_formula_sum   'La1 Ge2 Pt2'
_cell_volume   100.53890948
_cell_formula_units_Z   1
loop_
 _symmetry_equiv_pos_site_id
 _symmetry_equiv_pos_as_xyz
  1  'x, y, z'
loop_
 _atom_site_type_symbol
 _atom_site_label
 _atom_site_symmetry_multiplicity
 _atom_site_fract_x
 _atom_site_fract_y
 _atom_site_fract_z
 _atom_site_occupancy
  La  La0  1  0.000000  0.000000  0.000000  1
  Ge  Ge1  1  0.627486  0.627486  0.000000  1
  Ge  Ge2  1  0.372514  0.372514  0.000000  1
  Pt  Pt3  1  0.750000  0.250000  0.500000  1
  Pt  Pt4  1  0.250000  0.750000  0.500000  1
