# generated using pymatgen
data_NaNO2
_symmetry_space_group_name_H-M   'P 1'
_cell_length_a   4.32301498
_cell_length_b   4.32301498
_cell_length_c   4.32301498
_cell_angle_alpha   130.31512819
_cell_angle_beta   101.25834733
_cell_angle_gamma   99.07781118
_symmetry_Int_Tables_number   1
_chemical_formula_structural   NaNO2
_chemical_formula_sum   'Na1 N1 O2'
_cell_volume   55.88779121
_cell_formula_units_Z   1
loop_
 _symmetry_equiv_pos_site_id
 _symmetry_equiv_pos_as_xyz
  1  'x, y, z'
loop_
 _atom_site_type_symbol
 _atom_site_label
 _atom_site_symmetry_multiplicity
 _atom_site_fract_x
 _atom_site_fract_y
 _atom_site_fract_z
 _atom_site_occupancy
  Na  Na0  1  0.914301  0.414301  0.500000  1
  N  N1  1  0.376236  0.876236  0.500000  1
  O  O2  1  0.304099  0.999182  0.304917  1
  O  O3  1  0.694264  0.999182  0.695083  1
