# generated using pymatgen
data_Nb6C5
_symmetry_space_group_name_H-M   'P 1'
_cell_length_a   5.51006158
_cell_length_b   5.51006158
_cell_length_c   5.51213780
_cell_angle_alpha   80.28765820
_cell_angle_beta   99.71234180
_cell_angle_gamma   60.13233209
_symmetry_Int_Tables_number   1
_chemical_formula_structural   Nb6C5
_chemical_formula_sum   'Nb6 C5'
_cell_volume   136.64954329
_cell_formula_units_Z   1
loop_
 _symmetry_equiv_pos_site_id
 _symmetry_equiv_pos_as_xyz
  1  'x, y, z'
loop_
 _atom_site_type_symbol
 _atom_site_label
 _atom_site_symmetry_multiplicity
 _atom_site_fract_x
 _atom_site_fract_y
 _atom_site_fract_z
 _atom_site_occupancy
  Nb  Nb0  1  0.735565  0.264435  0.264419  1
  Nb  Nb1  1  0.264435  0.735565  0.735581  1
  Nb  Nb2  1  0.083091  0.563720  0.253672  1
  Nb  Nb3  1  0.563720  0.083091  0.746328  1
  Nb  Nb4  1  0.916909  0.436280  0.746328  1
  Nb  Nb5  1  0.436280  0.916909  0.253672  1
  C  C6  1  0.500000  0.500000  0.500000  1
  C  C7  1  0.664811  0.664811  0.000000  1
  C  C8  1  0.335189  0.335189  0.000000  1
  C  C9  1  0.833242  0.833242  0.500000  1
  C  C10  1  0.166758  0.166758  0.500000  1
