# generated using pymatgen
data_MnP
_symmetry_space_group_name_H-M   'P 1'
_cell_length_a   3.15394105
_cell_length_b   5.19100991
_cell_length_c   5.84953159
_cell_angle_alpha   90.00000000
_cell_angle_beta   90.00000000
_cell_angle_gamma   90.00000000
_symmetry_Int_Tables_number   1
_chemical_formula_structural   MnP
_chemical_formula_sum   'Mn4 P4'
_cell_volume   95.76934572
_cell_formula_units_Z   4
loop_
 _symmetry_equiv_pos_site_id
 _symmetry_equiv_pos_as_xyz
  1  'x, y, z'
loop_
 _atom_site_type_symbol
 _atom_site_label
 _atom_site_symmetry_multiplicity
 _atom_site_fract_x
 _atom_site_fract_y
 _atom_site_fract_z
 _atom_site_occupancy
  Mn  Mn0  1  0.250000  0.504400  0.695933  1
  Mn  Mn1  1  0.750000  0.495600  0.304067  1
  Mn  Mn2  1  0.250000  0.004400  0.804067  1
  Mn  Mn3  1  0.750000  0.995600  0.195933  1
  P  P4  1  0.250000  0.686728  0.069329  1
  P  P5  1  0.750000  0.313272  0.930671  1
  P  P6  1  0.250000  0.186728  0.430671  1
  P  P7  1  0.750000  0.813272  0.569329  1
