# generated using pymatgen
data_Li3Zr4F19
_symmetry_space_group_name_H-M   'P 1'
_cell_length_a   5.53204454
_cell_length_b   11.02619067
_cell_length_c   12.96371974
_cell_angle_alpha   107.75879029
_cell_angle_beta   92.36135441
_cell_angle_gamma   103.11908339
_symmetry_Int_Tables_number   1
_chemical_formula_structural   Li3Zr4F19
_chemical_formula_sum   'Li6 Zr8 F38'
_cell_volume   728.20070754
_cell_formula_units_Z   2
loop_
 _symmetry_equiv_pos_site_id
 _symmetry_equiv_pos_as_xyz
  1  'x, y, z'
loop_
 _atom_site_type_symbol
 _atom_site_label
 _atom_site_symmetry_multiplicity
 _atom_site_fract_x
 _atom_site_fract_y
 _atom_site_fract_z
 _atom_site_occupancy
  Li  Li0  1  0.716572  0.739705  0.488354  1
  Li  Li1  1  0.409568  0.510074  0.207464  1
  Li  Li2  1  0.590432  0.489926  0.792536  1
  Li  Li3  1  0.474958  0.164108  0.058847  1
  Li  Li4  1  0.525042  0.835892  0.941153  1
  Li  Li5  1  0.283428  0.260295  0.511646  1
  Zr  Zr6  1  0.862670  0.383244  0.366303  1
  Zr  Zr7  1  0.137330  0.616756  0.633697  1
  Zr  Zr8  1  0.899535  0.051936  0.208905  1
  Zr  Zr9  1  0.100465  0.948064  0.791095  1
  Zr  Zr10  1  0.938040  0.661864  0.053057  1
  Zr  Zr11  1  0.061960  0.338136  0.946943  1
  Zr  Zr12  1  0.665490  0.122934  0.630724  1
  Zr  Zr13  1  0.334510  0.877066  0.369276  1
  F  F14  1  0.830005  0.246964  0.786454  1
  F  F15  1  0.169995  0.753036  0.213546  1
  F  F16  1  0.637948  0.451046  0.287741  1
  F  F17  1  0.334822  0.408388  0.868250  1
  F  F18  1  0.665178  0.591612  0.131750  1
  F  F19  1  0.299161  0.322846  0.062976  1
  F  F20  1  0.700839  0.677154  0.937024  1
  F  F21  1  0.362052  0.548954  0.712259  1
  F  F22  1  0.373854  0.070295  0.494859  1
  F  F23  1  0.626146  0.929705  0.505141  1
  F  F24  1  0.507405  0.275508  0.653042  1
  F  F25  1  0.492595  0.724492  0.346958  1
  F  F26  1  0.871463  0.570837  0.486823  1
  F  F27  1  0.128537  0.429163  0.513177  1
  F  F28  1  0.660272  0.001756  0.073570  1
  F  F29  1  0.339728  0.998244  0.926430  1
  F  F30  1  0.965403  0.782513  0.644266  1
  F  F31  1  0.034597  0.217487  0.355734  1
  F  F32  1  0.243896  0.746439  0.997815  1
  F  F33  1  0.756104  0.253561  0.002185  1
  F  F34  1  0.148464  0.458734  0.296521  1
  F  F35  1  0.851536  0.541266  0.703479  1
  F  F36  1  0.873395  0.480357  0.917274  1
  F  F37  1  0.126605  0.519643  0.082726  1
  F  F38  1  0.414647  0.698690  0.560343  1
  F  F39  1  0.585353  0.301310  0.439657  1
  F  F40  1  0.612094  0.981097  0.296552  1
  F  F41  1  0.387906  0.018903  0.703448  1
  F  F42  1  0.734252  0.216396  0.218455  1
  F  F43  1  0.265748  0.783604  0.781545  1
  F  F44  1  0.118980  0.987219  0.310459  1
  F  F45  1  0.881020  0.012781  0.689541  1
  F  F46  1  0.200645  0.111172  0.144187  1
  F  F47  1  0.799355  0.888828  0.855813  1
  F  F48  1  0.955135  0.190524  0.562448  1
  F  F49  1  0.044865  0.809476  0.437552  1
  F  F50  1  0.124065  0.148375  0.874854  1
  F  F51  1  0.875935  0.851625  0.125146  1
