# generated using pymatgen
data_CuH6CN2O3
_symmetry_space_group_name_H-M   'P 1'
_cell_length_a   5.83442371
_cell_length_b   10.96202656
_cell_length_c   7.62831903
_cell_angle_alpha   90.00000000
_cell_angle_beta   94.54298007
_cell_angle_gamma   90.00000000
_symmetry_Int_Tables_number   1
_chemical_formula_structural   CuH6CN2O3
_chemical_formula_sum   'Cu4 H24 C4 N8 O12'
_cell_volume   486.35238231
_cell_formula_units_Z   4
loop_
 _symmetry_equiv_pos_site_id
 _symmetry_equiv_pos_as_xyz
  1  'x, y, z'
loop_
 _atom_site_type_symbol
 _atom_site_label
 _atom_site_symmetry_multiplicity
 _atom_site_fract_x
 _atom_site_fract_y
 _atom_site_fract_z
 _atom_site_occupancy
  Cu  Cu0  1  0.139402  0.574482  0.689627  1
  Cu  Cu1  1  0.860598  0.074482  0.810373  1
  Cu  Cu2  1  0.860598  0.425518  0.310373  1
  Cu  Cu3  1  0.139402  0.925518  0.189627  1
  H  H4  1  0.707525  0.606054  0.742420  1
  H  H5  1  0.292475  0.106054  0.757580  1
  H  H6  1  0.292475  0.393946  0.257580  1
  H  H7  1  0.707525  0.893946  0.242420  1
  H  H8  1  0.748640  0.470815  0.659967  1
  H  H9  1  0.251360  0.970815  0.840033  1
  H  H10  1  0.251360  0.529185  0.340033  1
  H  H11  1  0.748640  0.029185  0.159967  1
  H  H12  1  0.803763  0.491972  0.871326  1
  H  H13  1  0.196237  0.991972  0.628674  1
  H  H14  1  0.196237  0.508028  0.128674  1
  H  H15  1  0.803763  0.008028  0.371326  1
  H  H16  1  0.391117  0.406601  0.836425  1
  H  H17  1  0.608883  0.906601  0.663575  1
  H  H18  1  0.608883  0.593399  0.163575  1
  H  H19  1  0.391117  0.093399  0.336425  1
  H  H20  1  0.148776  0.345386  0.755304  1
  H  H21  1  0.851224  0.845386  0.744696  1
  H  H22  1  0.851224  0.654614  0.244696  1
  H  H23  1  0.148776  0.154614  0.255304  1
  H  H24  1  0.359610  0.375424  0.624498  1
  H  H25  1  0.640390  0.875424  0.875502  1
  H  H26  1  0.640390  0.624576  0.375502  1
  H  H27  1  0.359610  0.124576  0.124498  1
  C  C28  1  0.264622  0.743243  0.040558  1
  C  C29  1  0.735378  0.243243  0.459442  1
  C  C30  1  0.735378  0.256757  0.959442  1
  C  C31  1  0.264622  0.756757  0.540558  1
  N  N32  1  0.816949  0.532819  0.750948  1
  N  N33  1  0.183051  0.032819  0.749052  1
  N  N34  1  0.183051  0.467181  0.249052  1
  N  N35  1  0.816949  0.967181  0.250948  1
  N  N36  1  0.273794  0.407301  0.728281  1
  N  N37  1  0.726206  0.907301  0.771719  1
  N  N38  1  0.726206  0.592699  0.271719  1
  N  N39  1  0.273794  0.092699  0.228281  1
  O  O40  1  0.070914  0.746402  0.616643  1
  O  O41  1  0.929086  0.246402  0.883357  1
  O  O42  1  0.929086  0.253598  0.383357  1
  O  O43  1  0.070914  0.753598  0.116643  1
  O  O44  1  0.331251  0.855306  0.474883  1
  O  O45  1  0.668749  0.355306  0.025117  1
  O  O46  1  0.668749  0.144694  0.525117  1
  O  O47  1  0.331251  0.644694  0.974883  1
  O  O48  1  0.383336  0.654100  0.542387  1
  O  O49  1  0.616664  0.154100  0.957613  1
  O  O50  1  0.616664  0.345900  0.457613  1
  O  O51  1  0.383336  0.845900  0.042387  1
