# generated using pymatgen
data_CaP2H6O7
_symmetry_space_group_name_H-M   'P 1'
_cell_length_a   6.83746722
_cell_length_b   7.12946694
_cell_length_c   8.16158049
_cell_angle_alpha   68.54981100
_cell_angle_beta   84.91720235
_cell_angle_gamma   84.22361684
_symmetry_Int_Tables_number   1
_chemical_formula_structural   CaP2H6O7
_chemical_formula_sum   'Ca2 P4 H12 O14'
_cell_volume   367.84249070
_cell_formula_units_Z   2
loop_
 _symmetry_equiv_pos_site_id
 _symmetry_equiv_pos_as_xyz
  1  'x, y, z'
loop_
 _atom_site_type_symbol
 _atom_site_label
 _atom_site_symmetry_multiplicity
 _atom_site_fract_x
 _atom_site_fract_y
 _atom_site_fract_z
 _atom_site_occupancy
  Ca  Ca0  1  0.640810  0.631911  0.263733  1
  Ca  Ca1  1  0.359190  0.368089  0.736267  1
  P  P2  1  0.743983  0.097299  0.309400  1
  P  P3  1  0.256017  0.902701  0.690600  1
  P  P4  1  0.186707  0.543901  0.283002  1
  P  P5  1  0.813293  0.456099  0.716998  1
  H  H6  1  0.175534  0.140560  0.109332  1
  H  H7  1  0.824466  0.859440  0.890668  1
  H  H8  1  0.405680  0.109060  0.126732  1
  H  H9  1  0.594320  0.890940  0.873268  1
  H  H10  1  0.980227  0.881490  0.264376  1
  H  H11  1  0.019773  0.118510  0.735624  1
  H  H12  1  0.738127  0.071302  0.488971  1
  H  H13  1  0.261873  0.928698  0.511029  1
  H  H14  1  0.148990  0.346987  0.300583  1
  H  H15  1  0.851010  0.653013  0.699417  1
  H  H16  1  0.302628  0.635984  0.988580  1
  H  H17  1  0.697372  0.364016  0.011420  1
  O  O18  1  0.311666  0.539626  0.429766  1
  O  O19  1  0.713853  0.324695  0.206273  1
  O  O20  1  0.399293  0.036287  0.719378  1
  O  O21  1  0.600707  0.963713  0.280622  1
  O  O22  1  0.035004  0.972474  0.736880  1
  O  O23  1  0.964996  0.027526  0.263120  1
  O  O24  1  0.698401  0.815232  0.954159  1
  O  O25  1  0.301599  0.184768  0.045841  1
  O  O26  1  0.989157  0.667983  0.261651  1
  O  O27  1  0.010843  0.332017  0.738349  1
  O  O28  1  0.333057  0.624673  0.114163  1
  O  O29  1  0.666943  0.375327  0.885837  1
  O  O30  1  0.286147  0.675305  0.793727  1
  O  O31  1  0.688334  0.460374  0.570234  1
