# generated using pymatgen
data_Li2FePCO7
_symmetry_space_group_name_H-M   'P 1'
_cell_length_a   5.09429288
_cell_length_b   6.40292645
_cell_length_c   8.55393109
_cell_angle_alpha   90.00000000
_cell_angle_beta   93.70769480
_cell_angle_gamma   90.00000000
_symmetry_Int_Tables_number   1
_chemical_formula_structural   Li2FePCO7
_chemical_formula_sum   'Li4 Fe2 P2 C2 O14'
_cell_volume   278.43140176
_cell_formula_units_Z   2
loop_
 _symmetry_equiv_pos_site_id
 _symmetry_equiv_pos_as_xyz
  1  'x, y, z'
loop_
 _atom_site_type_symbol
 _atom_site_label
 _atom_site_symmetry_multiplicity
 _atom_site_fract_x
 _atom_site_fract_y
 _atom_site_fract_z
 _atom_site_occupancy
  Li  Li0  1  0.785141  0.012562  0.212147  1
  Li  Li1  1  0.214859  0.987438  0.787853  1
  Li  Li2  1  0.214859  0.512562  0.787853  1
  Li  Li3  1  0.785141  0.487438  0.212147  1
  Fe  Fe4  1  0.786722  0.750000  0.646958  1
  Fe  Fe5  1  0.213278  0.250000  0.353042  1
  P  P6  1  0.727131  0.250000  0.575694  1
  P  P7  1  0.272869  0.750000  0.424306  1
  C  C8  1  0.742948  0.750000  0.940249  1
  C  C9  1  0.257052  0.250000  0.059751  1
  O  O10  1  0.172124  0.942891  0.331174  1
  O  O11  1  0.973868  0.750000  0.880044  1
  O  O12  1  0.457821  0.250000  0.165965  1
  O  O13  1  0.542179  0.750000  0.834035  1
  O  O14  1  0.172124  0.557109  0.331174  1
  O  O15  1  0.169378  0.750000  0.592003  1
  O  O16  1  0.026132  0.250000  0.119956  1
  O  O17  1  0.827876  0.442891  0.668826  1
  O  O18  1  0.827876  0.057109  0.668826  1
  O  O19  1  0.420576  0.250000  0.555360  1
  O  O20  1  0.714146  0.750000  0.085879  1
  O  O21  1  0.285854  0.250000  0.914121  1
  O  O22  1  0.579424  0.750000  0.444640  1
  O  O23  1  0.830622  0.250000  0.407997  1
