# generated using pymatgen
data_Pr2O3
_symmetry_space_group_name_H-M   'P 1'
_cell_length_a   3.89925048
_cell_length_b   3.89925048
_cell_length_c   6.13763859
_cell_angle_alpha   90.00000000
_cell_angle_beta   90.00000000
_cell_angle_gamma   120.00000000
_symmetry_Int_Tables_number   1
_chemical_formula_structural   Pr2O3
_chemical_formula_sum   'Pr2 O3'
_cell_volume   80.81541583
_cell_formula_units_Z   1
loop_
 _symmetry_equiv_pos_site_id
 _symmetry_equiv_pos_as_xyz
  1  'x, y, z'
loop_
 _atom_site_type_symbol
 _atom_site_label
 _atom_site_symmetry_multiplicity
 _atom_site_fract_x
 _atom_site_fract_y
 _atom_site_fract_z
 _atom_site_occupancy
  Pr  Pr0  1  0.666667  0.333333  0.751301  1
  Pr  Pr1  1  0.333333  0.666667  0.248699  1
  O  O2  1  0.666667  0.333333  0.355365  1
  O  O3  1  0.333333  0.666667  0.644635  1
  O  O4  1  0.000000  0.000000  0.000000  1
