# generated using pymatgen
data_Fe7C3
_symmetry_space_group_name_H-M   'P 1'
_cell_length_a   4.51734404
_cell_length_b   6.85711195
_cell_length_c   11.76210685
_cell_angle_alpha   90.00000000
_cell_angle_beta   90.00000000
_cell_angle_gamma   90.00000000
_symmetry_Int_Tables_number   1
_chemical_formula_structural   Fe7C3
_chemical_formula_sum   'Fe28 C12'
_cell_volume   364.34224312
_cell_formula_units_Z   4
loop_
 _symmetry_equiv_pos_site_id
 _symmetry_equiv_pos_as_xyz
  1  'x, y, z'
loop_
 _atom_site_type_symbol
 _atom_site_label
 _atom_site_symmetry_multiplicity
 _atom_site_fract_x
 _atom_site_fract_y
 _atom_site_fract_z
 _atom_site_occupancy
  Fe  Fe0  1  0.942001  0.563747  0.190959  1
  Fe  Fe1  1  0.057999  0.436253  0.809041  1
  Fe  Fe2  1  0.423036  0.750000  0.127903  1
  Fe  Fe3  1  0.697773  0.750000  0.800598  1
  Fe  Fe4  1  0.802227  0.250000  0.300598  1
  Fe  Fe5  1  0.302227  0.250000  0.199402  1
  Fe  Fe6  1  0.942001  0.936253  0.190959  1
  Fe  Fe7  1  0.275428  0.250000  0.412284  1
  Fe  Fe8  1  0.224572  0.750000  0.912284  1
  Fe  Fe9  1  0.442001  0.563747  0.309041  1
  Fe  Fe10  1  0.252419  0.066330  0.016153  1
  Fe  Fe11  1  0.057999  0.063747  0.809041  1
  Fe  Fe12  1  0.442001  0.936253  0.309041  1
  Fe  Fe13  1  0.576964  0.250000  0.872097  1
  Fe  Fe14  1  0.747581  0.566330  0.983847  1
  Fe  Fe15  1  0.247581  0.933670  0.516153  1
  Fe  Fe16  1  0.197773  0.750000  0.699402  1
  Fe  Fe17  1  0.747581  0.933670  0.983847  1
  Fe  Fe18  1  0.247581  0.566330  0.516153  1
  Fe  Fe19  1  0.557999  0.063747  0.690959  1
  Fe  Fe20  1  0.775428  0.250000  0.087716  1
  Fe  Fe21  1  0.923036  0.750000  0.372097  1
  Fe  Fe22  1  0.724572  0.750000  0.587716  1
  Fe  Fe23  1  0.252419  0.433670  0.016153  1
  Fe  Fe24  1  0.752419  0.433670  0.483847  1
  Fe  Fe25  1  0.076964  0.250000  0.627903  1
  Fe  Fe26  1  0.752419  0.066330  0.483847  1
  Fe  Fe27  1  0.557999  0.436253  0.690959  1
  C  C28  1  0.043555  0.026072  0.352068  1
  C  C29  1  0.956445  0.973928  0.647932  1
  C  C30  1  0.543555  0.473928  0.147932  1
  C  C31  1  0.467380  0.250000  0.561339  1
  C  C32  1  0.456445  0.973928  0.852068  1
  C  C33  1  0.456445  0.526072  0.852068  1
  C  C34  1  0.043555  0.473928  0.352068  1
  C  C35  1  0.967380  0.250000  0.938661  1
  C  C36  1  0.956445  0.526072  0.647932  1
  C  C37  1  0.032620  0.750000  0.061339  1
  C  C38  1  0.532620  0.750000  0.438661  1
  C  C39  1  0.543555  0.026072  0.147932  1
