# generated using pymatgen
data_CeP2O7
_symmetry_space_group_name_H-M   'P 1'
_cell_length_a   8.90650344
_cell_length_b   8.90650344
_cell_length_c   8.90650344
_cell_angle_alpha   90.00000000
_cell_angle_beta   90.00000000
_cell_angle_gamma   90.00000000
_symmetry_Int_Tables_number   1
_chemical_formula_structural   CeP2O7
_chemical_formula_sum   'Ce4 P8 O28'
_cell_volume   706.51554199
_cell_formula_units_Z   4
loop_
 _symmetry_equiv_pos_site_id
 _symmetry_equiv_pos_as_xyz
  1  'x, y, z'
loop_
 _atom_site_type_symbol
 _atom_site_label
 _atom_site_symmetry_multiplicity
 _atom_site_fract_x
 _atom_site_fract_y
 _atom_site_fract_z
 _atom_site_occupancy
  Ce  Ce0  1  0.500000  0.000000  0.500000  1
  Ce  Ce1  1  0.000000  0.000000  0.000000  1
  Ce  Ce2  1  0.500000  0.500000  0.000000  1
  Ce  Ce3  1  0.000000  0.500000  0.500000  1
  P  P4  1  0.602842  0.897158  0.102842  1
  P  P5  1  0.102842  0.602842  0.897158  1
  P  P6  1  0.397158  0.102842  0.897158  1
  P  P7  1  0.897158  0.397158  0.102842  1
  P  P8  1  0.897158  0.102842  0.602842  1
  P  P9  1  0.397158  0.397158  0.397158  1
  P  P10  1  0.602842  0.602842  0.602842  1
  P  P11  1  0.102842  0.897158  0.397158  1
  O  O12  1  0.556267  0.734771  0.072374  1
  O  O13  1  0.072374  0.556267  0.734771  1
  O  O14  1  0.500000  0.500000  0.500000  1
  O  O15  1  0.265229  0.572374  0.943733  1
  O  O16  1  0.765229  0.927626  0.056267  1
  O  O17  1  0.427626  0.443733  0.234771  1
  O  O18  1  0.427626  0.056267  0.734771  1
  O  O19  1  0.500000  0.000000  0.000000  1
  O  O20  1  0.572374  0.943733  0.265229  1
  O  O21  1  0.072374  0.943733  0.234771  1
  O  O22  1  0.443733  0.265229  0.927626  1
  O  O23  1  0.927626  0.443733  0.265229  1
  O  O24  1  0.943733  0.234771  0.072374  1
  O  O25  1  0.927626  0.056267  0.765229  1
  O  O26  1  0.572374  0.556267  0.765229  1
  O  O27  1  0.943733  0.265229  0.572374  1
  O  O28  1  0.056267  0.734771  0.427626  1
  O  O29  1  0.556267  0.765229  0.572374  1
  O  O30  1  0.234771  0.072374  0.943733  1
  O  O31  1  0.056267  0.765229  0.927626  1
  O  O32  1  0.265229  0.927626  0.443733  1
  O  O33  1  0.765229  0.572374  0.556267  1
  O  O34  1  0.443733  0.234771  0.427626  1
  O  O35  1  0.734771  0.072374  0.556267  1
  O  O36  1  0.000000  0.000000  0.500000  1
  O  O37  1  0.000000  0.500000  0.000000  1
  O  O38  1  0.234771  0.427626  0.443733  1
  O  O39  1  0.734771  0.427626  0.056267  1
