# generated using pymatgen
data_Ga9Ni13
_symmetry_space_group_name_H-M   'P 1'
_cell_length_a   6.35373661
_cell_length_b   6.35373661
_cell_length_c   8.47684528
_cell_angle_alpha   62.79193581
_cell_angle_beta   117.20806419
_cell_angle_gamma   103.09612737
_symmetry_Int_Tables_number   1
_chemical_formula_structural   Ga9Ni13
_chemical_formula_sum   'Ga9 Ni13'
_cell_volume   270.60346297
_cell_formula_units_Z   1
loop_
 _symmetry_equiv_pos_site_id
 _symmetry_equiv_pos_as_xyz
  1  'x, y, z'
loop_
 _atom_site_type_symbol
 _atom_site_label
 _atom_site_symmetry_multiplicity
 _atom_site_fract_x
 _atom_site_fract_y
 _atom_site_fract_z
 _atom_site_occupancy
  Ga  Ga0  1  0.171437  0.249332  0.691047  1
  Ga  Ga1  1  0.249332  0.171437  0.308953  1
  Ga  Ga2  1  0.828563  0.750668  0.308953  1
  Ga  Ga3  1  0.750668  0.828563  0.691047  1
  Ga  Ga4  1  0.829572  0.170428  0.887241  1
  Ga  Ga5  1  0.170428  0.829572  0.112759  1
  Ga  Ga6  1  0.291915  0.708085  0.832659  1
  Ga  Ga7  1  0.708085  0.291915  0.167341  1
  Ga  Ga8  1  0.500000  0.500000  0.500000  1
  Ni  Ni9  1  0.065170  0.457741  0.339081  1
  Ni  Ni10  1  0.457741  0.065170  0.660919  1
  Ni  Ni11  1  0.934830  0.542259  0.660919  1
  Ni  Ni12  1  0.542259  0.934830  0.339081  1
  Ni  Ni13  1  0.550870  0.449130  0.821246  1
  Ni  Ni14  1  0.449130  0.550870  0.178754  1
  Ni  Ni15  1  0.741798  0.258202  0.487635  1
  Ni  Ni16  1  0.258202  0.741798  0.512365  1
  Ni  Ni17  1  0.259901  0.259901  0.000000  1
  Ni  Ni18  1  0.000000  1.000000  0.500000  1
  Ni  Ni19  1  0.000000  0.500000  0.000000  1
  Ni  Ni20  1  0.500000  0.000000  0.000000  1
  Ni  Ni21  1  0.740099  0.740099  0.000000  1
