# generated using pymatgen
data_ThP7
_symmetry_space_group_name_H-M   'P 1'
_cell_length_a   5.63346011
_cell_length_b   10.26069161
_cell_length_c   10.45611503
_cell_angle_alpha   90.00000000
_cell_angle_beta   90.00000000
_cell_angle_gamma   90.00000000
_symmetry_Int_Tables_number   1
_chemical_formula_structural   ThP7
_chemical_formula_sum   'Th4 P28'
_cell_volume   604.39687574
_cell_formula_units_Z   4
loop_
 _symmetry_equiv_pos_site_id
 _symmetry_equiv_pos_as_xyz
  1  'x, y, z'
loop_
 _atom_site_type_symbol
 _atom_site_label
 _atom_site_symmetry_multiplicity
 _atom_site_fract_x
 _atom_site_fract_y
 _atom_site_fract_z
 _atom_site_occupancy
  Th  Th0  1  0.637166  0.489290  0.669214  1
  Th  Th1  1  0.137166  0.010710  0.330786  1
  Th  Th2  1  0.362834  0.989290  0.830786  1
  Th  Th3  1  0.862834  0.510710  0.169214  1
  P  P4  1  0.009921  0.758921  0.498717  1
  P  P5  1  0.509921  0.741079  0.501283  1
  P  P6  1  0.990079  0.258921  0.001283  1
  P  P7  1  0.490079  0.241079  0.998717  1
  P  P8  1  0.677933  0.754169  0.795353  1
  P  P9  1  0.177933  0.745831  0.204647  1
  P  P10  1  0.322067  0.254169  0.704647  1
  P  P11  1  0.822067  0.245831  0.295353  1
  P  P12  1  0.549431  0.731781  0.286203  1
  P  P13  1  0.049431  0.768219  0.713797  1
  P  P14  1  0.450569  0.231781  0.213797  1
  P  P15  1  0.950569  0.268219  0.786203  1
  P  P16  1  0.272047  0.759055  0.000376  1
  P  P17  1  0.772047  0.740945  0.999624  1
  P  P18  1  0.727953  0.259055  0.499624  1
  P  P19  1  0.227953  0.240945  0.500376  1
  P  P20  1  0.636730  0.941457  0.260121  1
  P  P21  1  0.136730  0.558543  0.739879  1
  P  P22  1  0.363270  0.441457  0.239879  1
  P  P23  1  0.863270  0.058543  0.760121  1
  P  P24  1  0.207929  0.550762  0.948303  1
  P  P25  1  0.707929  0.949238  0.051697  1
  P  P26  1  0.792071  0.050762  0.551697  1
  P  P27  1  0.292071  0.449238  0.448303  1
  P  P28  1  0.558542  0.448581  0.948555  1
  P  P29  1  0.058542  0.051419  0.051445  1
  P  P30  1  0.441458  0.948581  0.551445  1
  P  P31  1  0.941458  0.551419  0.448555  1
