# generated using pymatgen
data_Bi2Pd3S2
_symmetry_space_group_name_H-M   'P 1'
_cell_length_a   7.32269263
_cell_length_b   7.32269263
_cell_length_c   7.32269263
_cell_angle_alpha   109.47122063
_cell_angle_beta   109.47122063
_cell_angle_gamma   109.47122063
_symmetry_Int_Tables_number   1
_chemical_formula_structural   Bi2Pd3S2
_chemical_formula_sum   'Bi4 Pd6 S4'
_cell_volume   302.26685309
_cell_formula_units_Z   2
loop_
 _symmetry_equiv_pos_site_id
 _symmetry_equiv_pos_as_xyz
  1  'x, y, z'
loop_
 _atom_site_type_symbol
 _atom_site_label
 _atom_site_symmetry_multiplicity
 _atom_site_fract_x
 _atom_site_fract_y
 _atom_site_fract_z
 _atom_site_occupancy
  Bi  Bi0  1  0.492588  0.500000  1.000000  1
  Bi  Bi1  1  0.500000  0.000000  0.492588  1
  Bi  Bi2  1  1.000000  0.492588  0.500000  1
  Bi  Bi3  1  0.007412  0.007412  0.007412  1
  Pd  Pd4  1  0.250000  0.529175  0.279175  1
  Pd  Pd5  1  0.970825  0.220825  0.750000  1
  Pd  Pd6  1  0.220825  0.750000  0.970825  1
  Pd  Pd7  1  0.529175  0.279175  0.250000  1
  Pd  Pd8  1  0.279175  0.250000  0.529175  1
  Pd  Pd9  1  0.750000  0.970825  0.220825  1
  S  S10  1  0.946032  0.500000  0.000000  1
  S  S11  1  0.553968  0.553968  0.553968  1
  S  S12  1  0.500000  0.000000  0.946032  1
  S  S13  1  0.000000  0.946032  0.500000  1
