# generated using pymatgen
data_Na2Te2O5
_symmetry_space_group_name_H-M   'P 1'
_cell_length_a   12.21044066
_cell_length_b   12.21044066
_cell_length_c   9.97121050
_cell_angle_alpha   77.41618844
_cell_angle_beta   102.58381156
_cell_angle_gamma   156.48442941
_symmetry_Int_Tables_number   1
_chemical_formula_structural   Na2Te2O5
_chemical_formula_sum   'Na8 Te8 O20'
_cell_volume   578.29903190
_cell_formula_units_Z   4
loop_
 _symmetry_equiv_pos_site_id
 _symmetry_equiv_pos_as_xyz
  1  'x, y, z'
loop_
 _atom_site_type_symbol
 _atom_site_label
 _atom_site_symmetry_multiplicity
 _atom_site_fract_x
 _atom_site_fract_y
 _atom_site_fract_z
 _atom_site_occupancy
  Na  Na0  1  0.181415  0.838973  0.205647  1
  Na  Na1  1  0.838973  0.181415  0.294353  1
  Na  Na2  1  0.818585  0.161027  0.794353  1
  Na  Na3  1  0.161027  0.818585  0.705647  1
  Na  Na4  1  0.039513  0.936374  0.411823  1
  Na  Na5  1  0.936374  0.039513  0.088177  1
  Na  Na6  1  0.960487  0.063626  0.588177  1
  Na  Na7  1  0.063626  0.960487  0.911823  1
  Te  Te8  1  0.570171  0.451908  0.180460  1
  Te  Te9  1  0.451908  0.570171  0.319540  1
  Te  Te10  1  0.429829  0.548092  0.819540  1
  Te  Te11  1  0.548092  0.429829  0.680460  1
  Te  Te12  1  0.784604  0.406143  0.452734  1
  Te  Te13  1  0.406143  0.784604  0.047266  1
  Te  Te14  1  0.215396  0.593857  0.547266  1
  Te  Te15  1  0.593857  0.215396  0.952734  1
  O  O16  1  0.998117  0.505398  0.365753  1
  O  O17  1  0.505398  0.998117  0.134247  1
  O  O18  1  0.001883  0.494602  0.634247  1
  O  O19  1  0.494602  0.001883  0.865753  1
  O  O20  1  0.652503  0.362281  0.250046  1
  O  O21  1  0.362281  0.652503  0.249954  1
  O  O22  1  0.347497  0.637719  0.749954  1
  O  O23  1  0.637719  0.347497  0.750046  1
  O  O24  1  0.522535  0.432919  0.361969  1
  O  O25  1  0.432919  0.522535  0.138031  1
  O  O26  1  0.477465  0.567081  0.638031  1
  O  O27  1  0.567081  0.477465  0.861969  1
  O  O28  1  0.937204  0.832898  0.155037  1
  O  O29  1  0.832898  0.937204  0.344963  1
  O  O30  1  0.062796  0.167102  0.844963  1
  O  O31  1  0.167102  0.062796  0.655037  1
  O  O32  1  0.240172  0.944142  0.963415  1
  O  O33  1  0.944142  0.240172  0.536585  1
  O  O34  1  0.759828  0.055858  0.036585  1
  O  O35  1  0.055858  0.759828  0.463415  1
