# generated using pymatgen
data_CuTeO3
_symmetry_space_group_name_H-M   'P 1'
_cell_length_a   5.82166481
_cell_length_b   6.06974077
_cell_length_c   7.20050394
_cell_angle_alpha   90.00000000
_cell_angle_beta   90.00000000
_cell_angle_gamma   90.00000000
_symmetry_Int_Tables_number   1
_chemical_formula_structural   CuTeO3
_chemical_formula_sum   'Cu4 Te4 O12'
_cell_volume   254.43698020
_cell_formula_units_Z   4
loop_
 _symmetry_equiv_pos_site_id
 _symmetry_equiv_pos_as_xyz
  1  'x, y, z'
loop_
 _atom_site_type_symbol
 _atom_site_label
 _atom_site_symmetry_multiplicity
 _atom_site_fract_x
 _atom_site_fract_y
 _atom_site_fract_z
 _atom_site_occupancy
  Cu  Cu0  1  0.000000  0.500000  0.000000  1
  Cu  Cu1  1  0.500000  0.000000  0.000000  1
  Cu  Cu2  1  0.500000  0.000000  0.500000  1
  Cu  Cu3  1  0.000000  0.500000  0.500000  1
  Te  Te4  1  0.993074  0.992411  0.250000  1
  Te  Te5  1  0.493074  0.507589  0.750000  1
  Te  Te6  1  0.506926  0.492411  0.250000  1
  Te  Te7  1  0.006926  0.007589  0.750000  1
  O  O8  1  0.411973  0.699632  0.442902  1
  O  O9  1  0.911973  0.800368  0.557098  1
  O  O10  1  0.088027  0.199632  0.057098  1
  O  O11  1  0.588027  0.300368  0.942902  1
  O  O12  1  0.588027  0.300368  0.557098  1
  O  O13  1  0.088027  0.199632  0.442902  1
  O  O14  1  0.911973  0.800368  0.942902  1
  O  O15  1  0.411973  0.699632  0.057098  1
  O  O16  1  0.662418  0.050788  0.250000  1
  O  O17  1  0.162418  0.449212  0.750000  1
  O  O18  1  0.837582  0.550788  0.250000  1
  O  O19  1  0.337582  0.949212  0.750000  1
