# generated using pymatgen
data_USCl9
_symmetry_space_group_name_H-M   'P 1'
_cell_length_a   11.07882715
_cell_length_b   11.16055442
_cell_length_c   11.70112230
_cell_angle_alpha   90.00000000
_cell_angle_beta   90.00000000
_cell_angle_gamma   90.00000000
_symmetry_Int_Tables_number   1
_chemical_formula_structural   USCl9
_chemical_formula_sum   'U4 S4 Cl36'
_cell_volume   1446.79525155
_cell_formula_units_Z   4
loop_
 _symmetry_equiv_pos_site_id
 _symmetry_equiv_pos_as_xyz
  1  'x, y, z'
loop_
 _atom_site_type_symbol
 _atom_site_label
 _atom_site_symmetry_multiplicity
 _atom_site_fract_x
 _atom_site_fract_y
 _atom_site_fract_z
 _atom_site_occupancy
  U  U0  1  0.325599  0.223558  0.767819  1
  U  U1  1  0.674401  0.723558  0.732181  1
  U  U2  1  0.825599  0.276442  0.232181  1
  U  U3  1  0.174401  0.776442  0.267819  1
  S  S4  1  0.289486  0.325618  0.340884  1
  S  S5  1  0.210514  0.674382  0.840884  1
  S  S6  1  0.789486  0.174382  0.659116  1
  S  S7  1  0.710514  0.825618  0.159116  1
  Cl  Cl8  1  0.148447  0.580998  0.379351  1
  Cl  Cl9  1  0.851553  0.080998  0.120649  1
  Cl  Cl10  1  0.648447  0.919002  0.620649  1
  Cl  Cl11  1  0.351553  0.419002  0.879351  1
  Cl  Cl12  1  0.293206  0.662092  0.115330  1
  Cl  Cl13  1  0.706794  0.162092  0.384670  1
  Cl  Cl14  1  0.793206  0.837908  0.884670  1
  Cl  Cl15  1  0.206794  0.337908  0.615330  1
  Cl  Cl16  1  0.365490  0.819519  0.378193  1
  Cl  Cl17  1  0.634510  0.319519  0.121807  1
  Cl  Cl18  1  0.865490  0.680481  0.621807  1
  Cl  Cl19  1  0.134510  0.180481  0.878193  1
  Cl  Cl20  1  0.053798  0.886586  0.416397  1
  Cl  Cl21  1  0.946202  0.386586  0.083603  1
  Cl  Cl22  1  0.553798  0.613414  0.583603  1
  Cl  Cl23  1  0.446202  0.113414  0.916397  1
  Cl  Cl24  1  0.206455  0.966291  0.155487  1
  Cl  Cl25  1  0.793545  0.466291  0.344513  1
  Cl  Cl26  1  0.706455  0.533709  0.844513  1
  Cl  Cl27  1  0.293545  0.033709  0.655487  1
  Cl  Cl28  1  0.981082  0.734080  0.156205  1
  Cl  Cl29  1  0.018918  0.234080  0.343795  1
  Cl  Cl30  1  0.481082  0.765920  0.843795  1
  Cl  Cl31  1  0.518918  0.265920  0.656205  1
  Cl  Cl32  1  0.061244  0.579933  0.876884  1
  Cl  Cl33  1  0.438756  0.420067  0.376884  1
  Cl  Cl34  1  0.561244  0.920067  0.123116  1
  Cl  Cl35  1  0.938756  0.079933  0.623116  1
  Cl  Cl36  1  0.282899  0.330948  0.169830  1
  Cl  Cl37  1  0.717101  0.830948  0.330170  1
  Cl  Cl38  1  0.782899  0.169052  0.830170  1
  Cl  Cl39  1  0.217101  0.669052  0.669830  1
  Cl  Cl40  1  0.341414  0.157250  0.373306  1
  Cl  Cl41  1  0.658586  0.657250  0.126694  1
  Cl  Cl42  1  0.841414  0.342750  0.626694  1
  Cl  Cl43  1  0.158586  0.842750  0.873306  1
