# generated using pymatgen
data_SbBrF8
_symmetry_space_group_name_H-M   'P 1'
_cell_length_a   5.99039117
_cell_length_b   10.24253224
_cell_length_c   11.23724129
_cell_angle_alpha   90.00000000
_cell_angle_beta   90.00000000
_cell_angle_gamma   90.00000000
_symmetry_Int_Tables_number   1
_chemical_formula_structural   SbBrF8
_chemical_formula_sum   'Sb4 Br4 F32'
_cell_volume   689.48088196
_cell_formula_units_Z   4
loop_
 _symmetry_equiv_pos_site_id
 _symmetry_equiv_pos_as_xyz
  1  'x, y, z'
loop_
 _atom_site_type_symbol
 _atom_site_label
 _atom_site_symmetry_multiplicity
 _atom_site_fract_x
 _atom_site_fract_y
 _atom_site_fract_z
 _atom_site_occupancy
  Sb  Sb0  1  0.882724  0.000000  0.250000  1
  Sb  Sb1  1  0.117276  0.500000  0.250000  1
  Sb  Sb2  1  0.117276  0.000000  0.750000  1
  Sb  Sb3  1  0.882724  0.500000  0.750000  1
  Br  Br4  1  0.500000  0.750000  0.050674  1
  Br  Br5  1  0.500000  0.250000  0.449326  1
  Br  Br6  1  0.500000  0.250000  0.949326  1
  Br  Br7  1  0.500000  0.750000  0.550674  1
  F  F8  1  0.098597  0.385984  0.816737  1
  F  F9  1  0.098597  0.614016  0.683263  1
  F  F10  1  0.901403  0.885984  0.683263  1
  F  F11  1  0.901403  0.114016  0.816737  1
  F  F12  1  0.901403  0.614016  0.183263  1
  F  F13  1  0.901403  0.385984  0.316737  1
  F  F14  1  0.098597  0.114016  0.316737  1
  F  F15  1  0.098597  0.885984  0.183263  1
  F  F16  1  0.636026  0.888689  0.188333  1
  F  F17  1  0.636026  0.111311  0.311667  1
  F  F18  1  0.363974  0.388689  0.311667  1
  F  F19  1  0.363974  0.611311  0.188333  1
  F  F20  1  0.363974  0.111311  0.811667  1
  F  F21  1  0.363974  0.888689  0.688333  1
  F  F22  1  0.636026  0.611311  0.688333  1
  F  F23  1  0.636026  0.388689  0.811667  1
  F  F24  1  0.617574  0.854945  0.942944  1
  F  F25  1  0.617574  0.145055  0.557056  1
  F  F26  1  0.382426  0.354945  0.557056  1
  F  F27  1  0.382426  0.645055  0.942944  1
  F  F28  1  0.382426  0.145055  0.057056  1
  F  F29  1  0.382426  0.854945  0.442944  1
  F  F30  1  0.617574  0.645055  0.442944  1
  F  F31  1  0.617574  0.354945  0.057056  1
  F  F32  1  0.862309  0.901807  0.392777  1
  F  F33  1  0.862309  0.098193  0.107223  1
  F  F34  1  0.137691  0.401807  0.107223  1
  F  F35  1  0.137691  0.598193  0.392777  1
  F  F36  1  0.137691  0.098193  0.607223  1
  F  F37  1  0.137691  0.901807  0.892777  1
  F  F38  1  0.862309  0.598193  0.892777  1
  F  F39  1  0.862309  0.401807  0.607223  1
