# generated using pymatgen
data_NaH6ClO5
_symmetry_space_group_name_H-M   'P 1'
_cell_length_a   5.49585652
_cell_length_b   6.53362381
_cell_length_c   9.00594983
_cell_angle_alpha   108.77732679
_cell_angle_beta   88.02301364
_cell_angle_gamma   109.07404181
_symmetry_Int_Tables_number   1
_chemical_formula_structural   NaH6ClO5
_chemical_formula_sum   'Na2 H12 Cl2 O10'
_cell_volume   288.45854500
_cell_formula_units_Z   2
loop_
 _symmetry_equiv_pos_site_id
 _symmetry_equiv_pos_as_xyz
  1  'x, y, z'
loop_
 _atom_site_type_symbol
 _atom_site_label
 _atom_site_symmetry_multiplicity
 _atom_site_fract_x
 _atom_site_fract_y
 _atom_site_fract_z
 _atom_site_occupancy
  Na  Na0  1  0.732928  0.458414  0.601459  1
  Na  Na1  1  0.267072  0.541586  0.398541  1
  H  H2  1  0.255085  0.093795  0.431244  1
  H  H3  1  0.744915  0.906205  0.568756  1
  H  H4  1  0.155034  0.234608  0.580773  1
  H  H5  1  0.844966  0.765392  0.419227  1
  H  H6  1  0.701376  0.313050  0.254835  1
  H  H7  1  0.298624  0.686950  0.745165  1
  H  H8  1  0.382525  0.314483  0.065401  1
  H  H9  1  0.617475  0.685517  0.934599  1
  H  H10  1  0.594676  0.555742  0.148746  1
  H  H11  1  0.405324  0.444258  0.851254  1
  H  H12  1  0.196056  0.882383  0.739530  1
  H  H13  1  0.803944  0.117617  0.260470  1
  Cl  Cl14  1  0.082523  0.814045  0.137399  1
  Cl  Cl15  1  0.917477  0.185955  0.862601  1
  O  O16  1  0.710099  0.747589  0.493238  1
  O  O17  1  0.289901  0.252411  0.506762  1
  O  O18  1  0.489706  0.409292  0.165043  1
  O  O19  1  0.510294  0.590708  0.834957  1
  O  O20  1  0.204186  0.178025  0.869838  1
  O  O21  1  0.795814  0.821975  0.130162  1
  O  O22  1  0.845125  0.183219  0.693258  1
  O  O23  1  0.154875  0.816781  0.306742  1
  O  O24  1  0.180508  0.720906  0.682853  1
  O  O25  1  0.819492  0.279094  0.317147  1
