# generated using pymatgen
data_Ba2As2Se5
_symmetry_space_group_name_H-M   'P 1'
_cell_length_a   9.59548115
_cell_length_b   12.62787232
_cell_length_c   10.27203931
_cell_angle_alpha   90.00000000
_cell_angle_beta   117.18709631
_cell_angle_gamma   90.00000000
_symmetry_Int_Tables_number   1
_chemical_formula_structural   Ba2As2Se5
_chemical_formula_sum   'Ba8 As8 Se20'
_cell_volume   1107.15642462
_cell_formula_units_Z   4
loop_
 _symmetry_equiv_pos_site_id
 _symmetry_equiv_pos_as_xyz
  1  'x, y, z'
loop_
 _atom_site_type_symbol
 _atom_site_label
 _atom_site_symmetry_multiplicity
 _atom_site_fract_x
 _atom_site_fract_y
 _atom_site_fract_z
 _atom_site_occupancy
  Ba  Ba0  1  0.823684  0.068751  0.653905  1
  Ba  Ba1  1  0.176316  0.568751  0.346095  1
  Ba  Ba2  1  0.329601  0.065504  0.643905  1
  Ba  Ba3  1  0.670399  0.565504  0.356095  1
  Ba  Ba4  1  0.583627  0.219296  0.160051  1
  Ba  Ba5  1  0.416373  0.719296  0.839949  1
  Ba  Ba6  1  0.076151  0.226767  0.140822  1
  Ba  Ba7  1  0.923849  0.726767  0.859178  1
  As  As8  1  0.234434  0.376374  0.751606  1
  As  As9  1  0.219053  0.489274  0.008002  1
  As  As10  1  0.780947  0.989274  0.991998  1
  As  As11  1  0.765566  0.876374  0.248394  1
  As  As12  1  0.397163  0.918389  0.262817  1
  As  As13  1  0.602837  0.418389  0.737183  1
  As  As14  1  0.964136  0.301476  0.487475  1
  As  As15  1  0.035864  0.801476  0.512525  1
  Se  Se16  1  0.661501  0.834757  0.428463  1
  Se  Se17  1  0.338499  0.334757  0.571537  1
  Se  Se18  1  0.506244  0.446918  0.925004  1
  Se  Se19  1  0.493756  0.946918  0.074996  1
  Se  Se20  1  0.048614  0.619930  0.605416  1
  Se  Se21  1  0.701522  0.168410  0.899436  1
  Se  Se22  1  0.951386  0.119930  0.394584  1
  Se  Se23  1  0.298478  0.668410  0.100564  1
  Se  Se24  1  0.628183  0.895601  0.763145  1
  Se  Se25  1  0.371817  0.395601  0.236855  1
  Se  Se26  1  0.884696  0.395688  0.260799  1
  Se  Se27  1  0.115304  0.895688  0.739201  1
  Se  Se28  1  0.215983  0.209118  0.859586  1
  Se  Se29  1  0.784017  0.709118  0.140414  1
  Se  Se30  1  0.564111  0.593535  0.632473  1
  Se  Se31  1  0.435889  0.093535  0.367527  1
  Se  Se32  1  0.264883  0.815441  0.476779  1
  Se  Se33  1  0.735117  0.315441  0.523221  1
  Se  Se34  1  0.958695  0.480072  0.986648  1
  Se  Se35  1  0.041305  0.980072  0.013352  1
