# generated using pymatgen
data_Dy(FeGe)2
_symmetry_space_group_name_H-M   'P 1'
_cell_length_a   5.81413482
_cell_length_b   5.81413482
_cell_length_c   5.81413482
_cell_angle_alpha   139.99984290
_cell_angle_beta   139.99984290
_cell_angle_gamma   57.85353714
_symmetry_Int_Tables_number   1
_chemical_formula_structural   Dy(FeGe)2
_chemical_formula_sum   'Dy1 Fe2 Ge2'
_cell_volume   80.49120169
_cell_formula_units_Z   1
loop_
 _symmetry_equiv_pos_site_id
 _symmetry_equiv_pos_as_xyz
  1  'x, y, z'
loop_
 _atom_site_type_symbol
 _atom_site_label
 _atom_site_symmetry_multiplicity
 _atom_site_fract_x
 _atom_site_fract_y
 _atom_site_fract_z
 _atom_site_occupancy
  Dy  Dy0  1  0.000000  0.000000  0.000000  1
  Fe  Fe1  1  0.750000  0.250000  0.500000  1
  Fe  Fe2  1  0.250000  0.750000  0.500000  1
  Ge  Ge3  1  0.627802  0.627802  0.000000  1
  Ge  Ge4  1  0.372198  0.372198  0.000000  1
