# generated using pymatgen
data_BaTe2F10
_symmetry_space_group_name_H-M   'P 1'
_cell_length_a   9.16643377
_cell_length_b   9.16643377
_cell_length_c   10.48028921
_cell_angle_alpha   68.33754476
_cell_angle_beta   111.66245524
_cell_angle_gamma   148.65479957
_symmetry_Int_Tables_number   1
_chemical_formula_structural   BaTe2F10
_chemical_formula_sum   'Ba2 Te4 F20'
_cell_volume   423.07349952
_cell_formula_units_Z   2
loop_
 _symmetry_equiv_pos_site_id
 _symmetry_equiv_pos_as_xyz
  1  'x, y, z'
loop_
 _atom_site_type_symbol
 _atom_site_label
 _atom_site_symmetry_multiplicity
 _atom_site_fract_x
 _atom_site_fract_y
 _atom_site_fract_z
 _atom_site_occupancy
  Ba  Ba0  1  0.957172  0.957172  0.750000  1
  Ba  Ba1  1  0.042828  0.042828  0.250000  1
  Te  Te2  1  0.602645  0.286130  0.568338  1
  Te  Te3  1  0.286130  0.602645  0.931662  1
  Te  Te4  1  0.397355  0.713870  0.431662  1
  Te  Te5  1  0.713870  0.397355  0.068338  1
  F  F6  1  0.448065  0.043085  0.744448  1
  F  F7  1  0.043085  0.448065  0.755552  1
  F  F8  1  0.551935  0.956915  0.255552  1
  F  F9  1  0.956915  0.551935  0.244448  1
  F  F10  1  0.811743  0.598205  0.655800  1
  F  F11  1  0.598205  0.811743  0.844200  1
  F  F12  1  0.507180  0.359418  0.877929  1
  F  F13  1  0.359418  0.507180  0.622071  1
  F  F14  1  0.492820  0.640582  0.122071  1
  F  F15  1  0.640582  0.492820  0.377929  1
  F  F16  1  0.057891  0.722324  0.962793  1
  F  F17  1  0.722324  0.057891  0.537207  1
  F  F18  1  0.942109  0.277676  0.037207  1
  F  F19  1  0.277676  0.942109  0.462793  1
  F  F20  1  0.821574  0.699265  0.052893  1
  F  F21  1  0.699265  0.821574  0.447107  1
  F  F22  1  0.178426  0.300735  0.947107  1
  F  F23  1  0.300735  0.178426  0.552893  1
  F  F24  1  0.401795  0.188257  0.155800  1
  F  F25  1  0.188257  0.401795  0.344200  1
