# generated using pymatgen
data_Pr2InGe2
_symmetry_space_group_name_H-M   'P 1'
_cell_length_a   7.62124278
_cell_length_b   7.62124278
_cell_length_c   4.40453623
_cell_angle_alpha   90.00000000
_cell_angle_beta   90.00000000
_cell_angle_gamma   90.00000000
_symmetry_Int_Tables_number   1
_chemical_formula_structural   Pr2InGe2
_chemical_formula_sum   'Pr4 In2 Ge4'
_cell_volume   255.83018205
_cell_formula_units_Z   2
loop_
 _symmetry_equiv_pos_site_id
 _symmetry_equiv_pos_as_xyz
  1  'x, y, z'
loop_
 _atom_site_type_symbol
 _atom_site_label
 _atom_site_symmetry_multiplicity
 _atom_site_fract_x
 _atom_site_fract_y
 _atom_site_fract_z
 _atom_site_occupancy
  Pr  Pr0  1  0.319942  0.819942  0.500000  1
  Pr  Pr1  1  0.819942  0.680058  0.500000  1
  Pr  Pr2  1  0.180058  0.319942  0.500000  1
  Pr  Pr3  1  0.680058  0.180058  0.500000  1
  In  In4  1  0.000000  0.000000  0.000000  1
  In  In5  1  0.500000  0.500000  0.000000  1
  Ge  Ge6  1  0.381479  0.118521  0.000000  1
  Ge  Ge7  1  0.881479  0.381479  0.000000  1
  Ge  Ge8  1  0.118521  0.618521  0.000000  1
  Ge  Ge9  1  0.618521  0.881479  0.000000  1
