# generated using pymatgen
data_YbMg2
_symmetry_space_group_name_H-M   'P 1'
_cell_length_a   6.24984275
_cell_length_b   6.24984275
_cell_length_c   9.97402004
_cell_angle_alpha   90.00000000
_cell_angle_beta   90.00000000
_cell_angle_gamma   120.00000000
_symmetry_Int_Tables_number   1
_chemical_formula_structural   YbMg2
_chemical_formula_sum   'Yb4 Mg8'
_cell_volume   337.39531595
_cell_formula_units_Z   4
loop_
 _symmetry_equiv_pos_site_id
 _symmetry_equiv_pos_as_xyz
  1  'x, y, z'
loop_
 _atom_site_type_symbol
 _atom_site_label
 _atom_site_symmetry_multiplicity
 _atom_site_fract_x
 _atom_site_fract_y
 _atom_site_fract_z
 _atom_site_occupancy
  Yb  Yb0  1  0.333333  0.666667  0.938502  1
  Yb  Yb1  1  0.666667  0.333333  0.438502  1
  Yb  Yb2  1  0.666667  0.333333  0.061498  1
  Yb  Yb3  1  0.333333  0.666667  0.561498  1
  Mg  Mg4  1  0.831198  0.662397  0.750000  1
  Mg  Mg5  1  0.168802  0.831198  0.250000  1
  Mg  Mg6  1  0.662397  0.831198  0.250000  1
  Mg  Mg7  1  0.337603  0.168802  0.750000  1
  Mg  Mg8  1  0.000000  0.000000  0.000000  1
  Mg  Mg9  1  0.000000  0.000000  0.500000  1
  Mg  Mg10  1  0.168802  0.337603  0.250000  1
  Mg  Mg11  1  0.831198  0.168802  0.750000  1
