# generated using pymatgen
data_VO2
_symmetry_space_group_name_H-M   'P 1'
_cell_length_a   5.92524692
_cell_length_b   5.92524692
_cell_length_c   5.92524692
_cell_angle_alpha   60.00000000
_cell_angle_beta   60.00000000
_cell_angle_gamma   60.00000000
_symmetry_Int_Tables_number   1
_chemical_formula_structural   VO2
_chemical_formula_sum   'V4 O8'
_cell_volume   147.09718509
_cell_formula_units_Z   4
loop_
 _symmetry_equiv_pos_site_id
 _symmetry_equiv_pos_as_xyz
  1  'x, y, z'
loop_
 _atom_site_type_symbol
 _atom_site_label
 _atom_site_symmetry_multiplicity
 _atom_site_fract_x
 _atom_site_fract_y
 _atom_site_fract_z
 _atom_site_occupancy
  V  V0  1  0.125000  0.125000  0.125000  1
  V  V1  1  0.125000  0.125000  0.625000  1
  V  V2  1  0.125000  0.625000  0.125000  1
  V  V3  1  0.625000  0.125000  0.125000  1
  O  O4  1  0.923629  0.358790  0.358790  1
  O  O5  1  0.358790  0.358790  0.358790  1
  O  O6  1  0.326371  0.891210  0.891210  1
  O  O7  1  0.891210  0.891210  0.326371  1
  O  O8  1  0.891210  0.891210  0.891210  1
  O  O9  1  0.891210  0.326371  0.891210  1
  O  O10  1  0.358790  0.923629  0.358790  1
  O  O11  1  0.358790  0.358790  0.923629  1
