# generated using pymatgen
data_CeInIr
_symmetry_space_group_name_H-M   'P 1'
_cell_length_a   7.56709375
_cell_length_b   7.56709375
_cell_length_c   4.02450637
_cell_angle_alpha   90.00000000
_cell_angle_beta   90.00000000
_cell_angle_gamma   120.00000000
_symmetry_Int_Tables_number   1
_chemical_formula_structural   CeInIr
_chemical_formula_sum   'Ce3 In3 Ir3'
_cell_volume   199.57285940
_cell_formula_units_Z   3
loop_
 _symmetry_equiv_pos_site_id
 _symmetry_equiv_pos_as_xyz
  1  'x, y, z'
loop_
 _atom_site_type_symbol
 _atom_site_label
 _atom_site_symmetry_multiplicity
 _atom_site_fract_x
 _atom_site_fract_y
 _atom_site_fract_z
 _atom_site_occupancy
  Ce  Ce0  1  0.411810  0.411810  0.000000  1
  Ce  Ce1  1  0.588190  0.000000  0.000000  1
  Ce  Ce2  1  0.000000  0.588190  0.000000  1
  In  In3  1  0.000000  0.252072  0.500000  1
  In  In4  1  0.747928  0.747928  0.500000  1
  In  In5  1  0.252072  0.000000  0.500000  1
  Ir  Ir6  1  0.000000  0.000000  0.000000  1
  Ir  Ir7  1  0.333333  0.666667  0.500000  1
  Ir  Ir8  1  0.666667  0.333333  0.500000  1
