# generated using pymatgen
data_MoN
_symmetry_space_group_name_H-M   'P 1'
_cell_length_a   5.77228020
_cell_length_b   5.77228020
_cell_length_c   5.67810225
_cell_angle_alpha   90.00000000
_cell_angle_beta   90.00000000
_cell_angle_gamma   120.00000000
_symmetry_Int_Tables_number   1
_chemical_formula_structural   MoN
_chemical_formula_sum   'Mo8 N8'
_cell_volume   163.84328607
_cell_formula_units_Z   8
loop_
 _symmetry_equiv_pos_site_id
 _symmetry_equiv_pos_as_xyz
  1  'x, y, z'
loop_
 _atom_site_type_symbol
 _atom_site_label
 _atom_site_symmetry_multiplicity
 _atom_site_fract_x
 _atom_site_fract_y
 _atom_site_fract_z
 _atom_site_occupancy
  Mo  Mo0  1  0.512247  0.487753  0.747632  1
  Mo  Mo1  1  0.024495  0.512247  0.247632  1
  Mo  Mo2  1  0.487753  0.975505  0.247632  1
  Mo  Mo3  1  0.512247  0.024495  0.747632  1
  Mo  Mo4  1  0.487753  0.512247  0.247632  1
  Mo  Mo5  1  0.975505  0.487753  0.747632  1
  Mo  Mo6  1  0.000000  0.000000  0.258122  1
  Mo  Mo7  1  0.000000  0.000000  0.758122  1
  N  N8  1  0.166319  0.332638  0.992288  1
  N  N9  1  0.332638  0.166319  0.492288  1
  N  N10  1  0.833681  0.667362  0.492288  1
  N  N11  1  0.833681  0.166319  0.492288  1
  N  N12  1  0.666667  0.333333  0.022118  1
  N  N13  1  0.166319  0.833681  0.992288  1
  N  N14  1  0.667362  0.833681  0.992288  1
  N  N15  1  0.333333  0.666667  0.522118  1
