# generated using pymatgen
data_Cd2P6O17
_symmetry_space_group_name_H-M   'P 1'
_cell_length_a   5.61178216
_cell_length_b   18.38817681
_cell_length_c   7.71470974
_cell_angle_alpha   90.00000000
_cell_angle_beta   111.36939675
_cell_angle_gamma   90.00000000
_symmetry_Int_Tables_number   1
_chemical_formula_structural   Cd2P6O17
_chemical_formula_sum   'Cd4 P12 O34'
_cell_volume   741.35397241
_cell_formula_units_Z   2
loop_
 _symmetry_equiv_pos_site_id
 _symmetry_equiv_pos_as_xyz
  1  'x, y, z'
loop_
 _atom_site_type_symbol
 _atom_site_label
 _atom_site_symmetry_multiplicity
 _atom_site_fract_x
 _atom_site_fract_y
 _atom_site_fract_z
 _atom_site_occupancy
  Cd  Cd0  1  0.095144  0.072942  0.856061  1
  Cd  Cd1  1  0.904856  0.572942  0.643939  1
  Cd  Cd2  1  0.904856  0.927058  0.143939  1
  Cd  Cd3  1  0.095144  0.427058  0.356061  1
  P  P4  1  0.492423  0.029678  0.305235  1
  P  P5  1  0.507577  0.529678  0.194765  1
  P  P6  1  0.507577  0.970322  0.694765  1
  P  P7  1  0.492423  0.470322  0.805235  1
  P  P8  1  0.736981  0.168175  0.418904  1
  P  P9  1  0.263019  0.668175  0.081096  1
  P  P10  1  0.263019  0.831825  0.581096  1
  P  P11  1  0.736981  0.331825  0.918904  1
  P  P12  1  0.707256  0.178232  0.022455  1
  P  P13  1  0.292744  0.678232  0.477545  1
  P  P14  1  0.292744  0.821768  0.977545  1
  P  P15  1  0.707256  0.321768  0.522455  1
  O  O16  1  0.233929  0.012150  0.160109  1
  O  O17  1  0.766071  0.512150  0.339891  1
  O  O18  1  0.766071  0.987850  0.839891  1
  O  O19  1  0.233929  0.487850  0.660109  1
  O  O20  1  0.733456  0.010831  0.276185  1
  O  O21  1  0.266544  0.510831  0.223815  1
  O  O22  1  0.266544  0.989169  0.723815  1
  O  O23  1  0.733456  0.489169  0.776185  1
  O  O24  1  0.500000  0.000000  0.500000  1
  O  O25  1  0.500000  0.500000  0.000000  1
  O  O26  1  0.491435  0.117318  0.343037  1
  O  O27  1  0.508565  0.617318  0.156963  1
  O  O28  1  0.508565  0.882682  0.656963  1
  O  O29  1  0.491435  0.382682  0.843037  1
  O  O30  1  0.952821  0.139001  0.578004  1
  O  O31  1  0.047179  0.639001  0.921996  1
  O  O32  1  0.604781  0.238731  0.460295  1
  O  O33  1  0.395219  0.738731  0.039705  1
  O  O34  1  0.395219  0.761269  0.539705  1
  O  O35  1  0.604781  0.261269  0.960295  1
  O  O36  1  0.933386  0.335134  0.469204  1
  O  O37  1  0.066614  0.835134  0.030796  1
  O  O38  1  0.066614  0.664866  0.530796  1
  O  O39  1  0.933386  0.164866  0.969204  1
  O  O40  1  0.479471  0.369569  0.461021  1
  O  O41  1  0.520529  0.869569  0.038979  1
  O  O42  1  0.520529  0.630431  0.538979  1
  O  O43  1  0.479471  0.130431  0.961021  1
  O  O44  1  0.819232  0.312752  0.749317  1
  O  O45  1  0.180768  0.812752  0.750683  1
  O  O46  1  0.180768  0.687248  0.250683  1
  O  O47  1  0.819232  0.187248  0.249317  1
  O  O48  1  0.952821  0.360999  0.078004  1
  O  O49  1  0.047179  0.860999  0.421996  1
