# generated using pymatgen
data_Ca(IO3)2
_symmetry_space_group_name_H-M   'P 1'
_cell_length_a   7.25692559
_cell_length_b   11.46479875
_cell_length_c   8.82961594
_cell_angle_alpha   90.00000000
_cell_angle_beta   126.31396338
_cell_angle_gamma   90.00000000
_symmetry_Int_Tables_number   1
_chemical_formula_structural   Ca(IO3)2
_chemical_formula_sum   'Ca4 I8 O24'
_cell_volume   591.94253504
_cell_formula_units_Z   4
loop_
 _symmetry_equiv_pos_site_id
 _symmetry_equiv_pos_as_xyz
  1  'x, y, z'
loop_
 _atom_site_type_symbol
 _atom_site_label
 _atom_site_symmetry_multiplicity
 _atom_site_fract_x
 _atom_site_fract_y
 _atom_site_fract_z
 _atom_site_occupancy
  Ca  Ca0  1  0.225705  0.899711  0.003062  1
  Ca  Ca1  1  0.774295  0.100289  0.996938  1
  Ca  Ca2  1  0.225705  0.600289  0.503062  1
  Ca  Ca3  1  0.774295  0.399711  0.496938  1
  I  I4  1  0.679912  0.785994  0.943396  1
  I  I5  1  0.320088  0.214006  0.056604  1
  I  I6  1  0.679912  0.714006  0.443396  1
  I  I7  1  0.320088  0.285994  0.556604  1
  I  I8  1  0.762425  0.424685  0.036917  1
  I  I9  1  0.237575  0.924685  0.463083  1
  I  I10  1  0.237575  0.575315  0.963083  1
  I  I11  1  0.762425  0.075315  0.536917  1
  O  O12  1  0.025266  0.039097  0.326712  1
  O  O13  1  0.058270  0.793548  0.376925  1
  O  O14  1  0.543409  0.753442  0.196468  1
  O  O15  1  0.974734  0.539097  0.173288  1
  O  O16  1  0.378634  0.906837  0.344823  1
  O  O17  1  0.467745  0.608408  0.404130  1
  O  O18  1  0.121574  0.101522  0.026058  1
  O  O19  1  0.456591  0.253442  0.303532  1
  O  O20  1  0.878426  0.601522  0.473942  1
  O  O21  1  0.456591  0.246558  0.803532  1
  O  O22  1  0.378634  0.593163  0.844823  1
  O  O23  1  0.058270  0.706452  0.876925  1
  O  O24  1  0.025266  0.460903  0.826712  1
  O  O25  1  0.467745  0.891592  0.904130  1
  O  O26  1  0.121574  0.398478  0.526058  1
  O  O27  1  0.974734  0.960903  0.673288  1
  O  O28  1  0.543409  0.746558  0.696468  1
  O  O29  1  0.941730  0.206452  0.623075  1
  O  O30  1  0.532255  0.391592  0.595870  1
  O  O31  1  0.621366  0.093163  0.655177  1
  O  O32  1  0.621366  0.406837  0.155177  1
  O  O33  1  0.941730  0.293548  0.123075  1
  O  O34  1  0.532255  0.108408  0.095870  1
  O  O35  1  0.878426  0.898478  0.973942  1
