# generated using pymatgen
data_Rb2PrCl5
_symmetry_space_group_name_H-M   'P 1'
_cell_length_a   8.39185965
_cell_length_b   9.02279080
_cell_length_c   13.47205908
_cell_angle_alpha   90.00000000
_cell_angle_beta   90.00000000
_cell_angle_gamma   90.00000000
_symmetry_Int_Tables_number   1
_chemical_formula_structural   Rb2PrCl5
_chemical_formula_sum   'Rb8 Pr4 Cl20'
_cell_volume   1020.07728919
_cell_formula_units_Z   4
loop_
 _symmetry_equiv_pos_site_id
 _symmetry_equiv_pos_as_xyz
  1  'x, y, z'
loop_
 _atom_site_type_symbol
 _atom_site_label
 _atom_site_symmetry_multiplicity
 _atom_site_fract_x
 _atom_site_fract_y
 _atom_site_fract_z
 _atom_site_occupancy
  Rb  Rb0  1  0.442324  0.506189  0.670820  1
  Rb  Rb1  1  0.942324  0.493811  0.829180  1
  Rb  Rb2  1  0.557676  0.006189  0.329180  1
  Rb  Rb3  1  0.057676  0.993811  0.170820  1
  Rb  Rb4  1  0.942324  0.006189  0.829180  1
  Rb  Rb5  1  0.442324  0.993811  0.670820  1
  Rb  Rb6  1  0.057676  0.506189  0.170820  1
  Rb  Rb7  1  0.557676  0.493811  0.329180  1
  Pr  Pr8  1  0.928547  0.750000  0.504913  1
  Pr  Pr9  1  0.428547  0.250000  0.995087  1
  Pr  Pr10  1  0.071453  0.250000  0.495087  1
  Pr  Pr11  1  0.571453  0.750000  0.004913  1
  Cl  Cl12  1  0.338096  0.957813  0.929196  1
  Cl  Cl13  1  0.838096  0.042187  0.570804  1
  Cl  Cl14  1  0.661904  0.457813  0.070804  1
  Cl  Cl15  1  0.161904  0.542187  0.429196  1
  Cl  Cl16  1  0.661904  0.042187  0.070804  1
  Cl  Cl17  1  0.161904  0.957813  0.429196  1
  Cl  Cl18  1  0.338096  0.542187  0.929196  1
  Cl  Cl19  1  0.838096  0.457813  0.570804  1
  Cl  Cl20  1  0.385034  0.750000  0.177117  1
  Cl  Cl21  1  0.885034  0.250000  0.322883  1
  Cl  Cl22  1  0.614966  0.250000  0.822883  1
  Cl  Cl23  1  0.114966  0.750000  0.677117  1
  Cl  Cl24  1  0.093162  0.250000  0.989624  1
  Cl  Cl25  1  0.593162  0.750000  0.510376  1
  Cl  Cl26  1  0.906838  0.750000  0.010376  1
  Cl  Cl27  1  0.406838  0.250000  0.489624  1
  Cl  Cl28  1  0.652424  0.750000  0.802951  1
  Cl  Cl29  1  0.152424  0.250000  0.697049  1
  Cl  Cl30  1  0.347576  0.250000  0.197049  1
  Cl  Cl31  1  0.847576  0.750000  0.302951  1
