# generated using pymatgen
data_RbTiI3
_symmetry_space_group_name_H-M   'P 1'
_cell_length_a   14.13681795
_cell_length_b   14.13681795
_cell_length_c   7.00956230
_cell_angle_alpha   90.00000000
_cell_angle_beta   90.00000000
_cell_angle_gamma   120.00000000
_symmetry_Int_Tables_number   1
_chemical_formula_structural   RbTiI3
_chemical_formula_sum   'Rb6 Ti6 I18'
_cell_volume   1213.17893878
_cell_formula_units_Z   6
loop_
 _symmetry_equiv_pos_site_id
 _symmetry_equiv_pos_as_xyz
  1  'x, y, z'
loop_
 _atom_site_type_symbol
 _atom_site_label
 _atom_site_symmetry_multiplicity
 _atom_site_fract_x
 _atom_site_fract_y
 _atom_site_fract_z
 _atom_site_occupancy
  Rb  Rb0  1  0.670118  0.670118  0.786163  1
  Rb  Rb1  1  0.000000  0.670118  0.286163  1
  Rb  Rb2  1  0.670118  0.000000  0.286163  1
  Rb  Rb3  1  0.329882  0.000000  0.786163  1
  Rb  Rb4  1  0.000000  0.329882  0.786163  1
  Rb  Rb5  1  0.329882  0.329882  0.286163  1
  Ti  Ti6  1  0.666667  0.333333  0.086572  1
  Ti  Ti7  1  0.333333  0.666667  0.586572  1
  Ti  Ti8  1  0.666667  0.333333  0.586572  1
  Ti  Ti9  1  0.333333  0.666667  0.086572  1
  Ti  Ti10  1  0.000000  0.000000  0.494271  1
  Ti  Ti11  1  0.000000  0.000000  0.994271  1
  I  I12  1  0.162834  0.000000  0.243115  1
  I  I13  1  0.162834  0.162834  0.743115  1
  I  I14  1  0.000000  0.837166  0.743115  1
  I  I15  1  0.000000  0.162834  0.243115  1
  I  I16  1  0.837166  0.837166  0.243115  1
  I  I17  1  0.837166  0.000000  0.743115  1
  I  I18  1  0.504099  0.171196  0.337126  1
  I  I19  1  0.332903  0.504099  0.837126  1
  I  I20  1  0.171196  0.667097  0.837126  1
  I  I21  1  0.828804  0.332903  0.337126  1
  I  I22  1  0.667097  0.495901  0.337126  1
  I  I23  1  0.495901  0.828804  0.837126  1
  I  I24  1  0.667097  0.171196  0.837126  1
  I  I25  1  0.504099  0.332903  0.837126  1
  I  I26  1  0.828804  0.495901  0.837126  1
  I  I27  1  0.171196  0.504099  0.337126  1
  I  I28  1  0.332903  0.828804  0.337126  1
  I  I29  1  0.495901  0.667097  0.337126  1
