# generated using pymatgen
data_ThB2C
_symmetry_space_group_name_H-M   'P 1'
_cell_length_a   5.43838701
_cell_length_b   5.43838701
_cell_length_c   5.43838701
_cell_angle_alpha   75.98962559
_cell_angle_beta   75.98962559
_cell_angle_gamma   75.98962559
_symmetry_Int_Tables_number   1
_chemical_formula_structural   ThB2C
_chemical_formula_sum   'Th3 B6 C3'
_cell_volume   148.51459237
_cell_formula_units_Z   3
loop_
 _symmetry_equiv_pos_site_id
 _symmetry_equiv_pos_as_xyz
  1  'x, y, z'
loop_
 _atom_site_type_symbol
 _atom_site_label
 _atom_site_symmetry_multiplicity
 _atom_site_fract_x
 _atom_site_fract_y
 _atom_site_fract_z
 _atom_site_occupancy
  Th  Th0  1  0.315803  0.315803  0.315803  1
  Th  Th1  1  0.684197  0.684197  0.684197  1
  Th  Th2  1  0.000000  0.000000  0.000000  1
  B  B3  1  0.775917  0.224083  0.500000  1
  B  B4  1  0.224083  0.500000  0.775917  1
  B  B5  1  0.500000  0.775917  0.224083  1
  B  B6  1  0.224083  0.775917  0.500000  1
  B  B7  1  0.500000  0.224083  0.775917  1
  B  B8  1  0.775917  0.500000  0.224083  1
  C  C9  1  0.500000  0.000000  1.000000  1
  C  C10  1  0.000000  0.500000  0.000000  1
  C  C11  1  0.000000  0.000000  0.500000  1
