# generated using pymatgen
data_K2Bi8Se13
_symmetry_space_group_name_H-M   'P 1'
_cell_length_a   14.00908897
_cell_length_b   14.00908897
_cell_length_c   12.38874535
_cell_angle_alpha   87.66677121
_cell_angle_beta   92.33322879
_cell_angle_gamma   162.68077945
_symmetry_Int_Tables_number   1
_chemical_formula_structural   K2Bi8Se13
_chemical_formula_sum   'K2 Bi8 Se13'
_cell_volume   723.18648244
_cell_formula_units_Z   1
loop_
 _symmetry_equiv_pos_site_id
 _symmetry_equiv_pos_as_xyz
  1  'x, y, z'
loop_
 _atom_site_type_symbol
 _atom_site_label
 _atom_site_symmetry_multiplicity
 _atom_site_fract_x
 _atom_site_fract_y
 _atom_site_fract_z
 _atom_site_occupancy
  K  K0  1  0.586957  0.413043  0.052624  1
  K  K1  1  0.413043  0.586957  0.947376  1
  Bi  Bi2  1  0.557441  0.442559  0.382015  1
  Bi  Bi3  1  0.281286  0.718714  0.129999  1
  Bi  Bi4  1  0.718714  0.281286  0.870001  1
  Bi  Bi5  1  0.074306  0.925694  0.703857  1
  Bi  Bi6  1  0.925694  0.074306  0.296143  1
  Bi  Bi7  1  0.187676  0.812324  0.454382  1
  Bi  Bi8  1  0.812324  0.187676  0.545618  1
  Bi  Bi9  1  0.442559  0.557441  0.617985  1
  Se  Se10  1  0.858430  0.141570  0.117753  1
  Se  Se11  1  0.000000  0.000000  0.500000  1
  Se  Se12  1  0.289304  0.710696  0.910620  1
  Se  Se13  1  0.710696  0.289304  0.089380  1
  Se  Se14  1  0.141570  0.858430  0.882247  1
  Se  Se15  1  0.628182  0.371818  0.569311  1
  Se  Se16  1  0.254611  0.745389  0.641800  1
  Se  Se17  1  0.745389  0.254611  0.358200  1
  Se  Se18  1  0.371818  0.628182  0.430689  1
  Se  Se19  1  0.518099  0.481901  0.797804  1
  Se  Se20  1  0.481901  0.518099  0.202196  1
  Se  Se21  1  0.108763  0.891237  0.275776  1
  Se  Se22  1  0.891237  0.108763  0.724224  1
