# generated using pymatgen
data_Na3TiCl6
_symmetry_space_group_name_H-M   'P 1'
_cell_length_a   6.76136325
_cell_length_b   7.12282672
_cell_length_c   11.99634641
_cell_angle_alpha   90.00000000
_cell_angle_beta   124.16908646
_cell_angle_gamma   90.00000000
_symmetry_Int_Tables_number   1
_chemical_formula_structural   Na3TiCl6
_chemical_formula_sum   'Na6 Ti2 Cl12'
_cell_volume   478.01620380
_cell_formula_units_Z   2
loop_
 _symmetry_equiv_pos_site_id
 _symmetry_equiv_pos_as_xyz
  1  'x, y, z'
loop_
 _atom_site_type_symbol
 _atom_site_label
 _atom_site_symmetry_multiplicity
 _atom_site_fract_x
 _atom_site_fract_y
 _atom_site_fract_z
 _atom_site_occupancy
  Na  Na0  1  0.280421  0.080950  0.756142  1
  Na  Na1  1  0.719579  0.580950  0.743858  1
  Na  Na2  1  0.500000  0.000000  0.500000  1
  Na  Na3  1  0.500000  0.500000  0.000000  1
  Na  Na4  1  0.719579  0.919050  0.243858  1
  Na  Na5  1  0.280421  0.419050  0.256142  1
  Ti  Ti6  1  0.000000  0.500000  0.500000  1
  Ti  Ti7  1  0.000000  0.000000  0.000000  1
  Cl  Cl8  1  0.100588  0.450600  0.729945  1
  Cl  Cl9  1  0.640504  0.676720  0.436882  1
  Cl  Cl10  1  0.359496  0.176720  0.063118  1
  Cl  Cl11  1  0.359496  0.323280  0.563118  1
  Cl  Cl12  1  0.771908  0.287913  0.930247  1
  Cl  Cl13  1  0.228092  0.787913  0.569753  1
  Cl  Cl14  1  0.228092  0.712087  0.069753  1
  Cl  Cl15  1  0.771908  0.212087  0.430247  1
  Cl  Cl16  1  0.899412  0.549400  0.270055  1
  Cl  Cl17  1  0.100588  0.049400  0.229945  1
  Cl  Cl18  1  0.640504  0.823280  0.936882  1
  Cl  Cl19  1  0.899412  0.950600  0.770055  1
