# generated using pymatgen
data_Cs2UCl6
_symmetry_space_group_name_H-M   'P 1'
_cell_length_a   7.64304938
_cell_length_b   7.64304938
_cell_length_c   6.31889691
_cell_angle_alpha   90.00000000
_cell_angle_beta   90.00000000
_cell_angle_gamma   120.00000000
_symmetry_Int_Tables_number   1
_chemical_formula_structural   Cs2UCl6
_chemical_formula_sum   'Cs2 U1 Cl6'
_cell_volume   319.67246725
_cell_formula_units_Z   1
loop_
 _symmetry_equiv_pos_site_id
 _symmetry_equiv_pos_as_xyz
  1  'x, y, z'
loop_
 _atom_site_type_symbol
 _atom_site_label
 _atom_site_symmetry_multiplicity
 _atom_site_fract_x
 _atom_site_fract_y
 _atom_site_fract_z
 _atom_site_occupancy
  Cs  Cs0  1  0.666667  0.333333  0.261982  1
  Cs  Cs1  1  0.333333  0.666667  0.738018  1
  U  U2  1  0.000000  0.000000  0.000000  1
  Cl  Cl3  1  0.835070  0.164930  0.767361  1
  Cl  Cl4  1  0.835070  0.670140  0.767361  1
  Cl  Cl5  1  0.329860  0.164930  0.767361  1
  Cl  Cl6  1  0.164930  0.835070  0.232639  1
  Cl  Cl7  1  0.164930  0.329860  0.232639  1
  Cl  Cl8  1  0.670140  0.835070  0.232639  1
