# generated using pymatgen
data_Bi4Se3
_symmetry_space_group_name_H-M   'P 1'
_cell_length_a   13.84029085
_cell_length_b   13.84029085
_cell_length_c   13.84029085
_cell_angle_alpha   17.99432476
_cell_angle_beta   17.99432476
_cell_angle_gamma   17.99432476
_symmetry_Int_Tables_number   1
_chemical_formula_structural   Bi4Se3
_chemical_formula_sum   'Bi4 Se3'
_cell_volume   220.91267000
_cell_formula_units_Z   1
loop_
 _symmetry_equiv_pos_site_id
 _symmetry_equiv_pos_as_xyz
  1  'x, y, z'
loop_
 _atom_site_type_symbol
 _atom_site_label
 _atom_site_symmetry_multiplicity
 _atom_site_fract_x
 _atom_site_fract_y
 _atom_site_fract_z
 _atom_site_occupancy
  Bi  Bi0  1  0.287528  0.287528  0.287528  1
  Bi  Bi1  1  0.712472  0.712472  0.712472  1
  Bi  Bi2  1  0.145432  0.145432  0.145432  1
  Bi  Bi3  1  0.854568  0.854568  0.854568  1
  Se  Se4  1  0.000000  0.000000  0.000000  1
  Se  Se5  1  0.416217  0.416217  0.416217  1
  Se  Se6  1  0.583783  0.583783  0.583783  1
