# generated using pymatgen
data_HIO3
_symmetry_space_group_name_H-M   'P 1'
_cell_length_a   5.71643709
_cell_length_b   5.89039595
_cell_length_c   8.00415994
_cell_angle_alpha   90.00000000
_cell_angle_beta   90.00000000
_cell_angle_gamma   90.00000000
_symmetry_Int_Tables_number   1
_chemical_formula_structural   HIO3
_chemical_formula_sum   'H4 I4 O12'
_cell_volume   269.51669689
_cell_formula_units_Z   4
loop_
 _symmetry_equiv_pos_site_id
 _symmetry_equiv_pos_as_xyz
  1  'x, y, z'
loop_
 _atom_site_type_symbol
 _atom_site_label
 _atom_site_symmetry_multiplicity
 _atom_site_fract_x
 _atom_site_fract_y
 _atom_site_fract_z
 _atom_site_occupancy
  H  H0  1  0.269650  0.679005  0.640330  1
  H  H1  1  0.769650  0.820995  0.359670  1
  H  H2  1  0.730350  0.179005  0.859670  1
  H  H3  1  0.230350  0.320995  0.140330  1
  I  I4  1  0.303231  0.092954  0.655807  1
  I  I5  1  0.803231  0.407046  0.344193  1
  I  I6  1  0.696769  0.592954  0.844193  1
  I  I7  1  0.196769  0.907046  0.155807  1
  O  O8  1  0.932105  0.021614  0.258403  1
  O  O9  1  0.432105  0.478386  0.741597  1
  O  O10  1  0.067895  0.521614  0.241597  1
  O  O11  1  0.567895  0.978386  0.758403  1
  O  O12  1  0.327250  0.195702  0.088656  1
  O  O13  1  0.827250  0.304298  0.911344  1
  O  O14  1  0.672750  0.695702  0.411344  1
  O  O15  1  0.172750  0.804298  0.588656  1
  O  O16  1  0.086084  0.839885  0.950338  1
  O  O17  1  0.586084  0.660115  0.049662  1
  O  O18  1  0.913916  0.339885  0.549662  1
  O  O19  1  0.413916  0.160115  0.450338  1
