# generated using pymatgen
data_MgH14SO11
_symmetry_space_group_name_H-M   'P 1'
_cell_length_a   6.80479132
_cell_length_b   11.99295786
_cell_length_c   12.08126514
_cell_angle_alpha   90.00000000
_cell_angle_beta   90.00000000
_cell_angle_gamma   90.00000000
_symmetry_Int_Tables_number   1
_chemical_formula_structural   MgH14SO11
_chemical_formula_sum   'Mg4 H56 S4 O44'
_cell_volume   985.94692014
_cell_formula_units_Z   4
loop_
 _symmetry_equiv_pos_site_id
 _symmetry_equiv_pos_as_xyz
  1  'x, y, z'
loop_
 _atom_site_type_symbol
 _atom_site_label
 _atom_site_symmetry_multiplicity
 _atom_site_fract_x
 _atom_site_fract_y
 _atom_site_fract_z
 _atom_site_occupancy
  Mg  Mg0  1  0.037667  0.919322  0.106765  1
  Mg  Mg1  1  0.537667  0.580678  0.893235  1
  Mg  Mg2  1  0.962333  0.419322  0.393235  1
  Mg  Mg3  1  0.462333  0.080678  0.606765  1
  H  H4  1  0.482002  0.016082  0.867867  1
  H  H5  1  0.982002  0.483918  0.132133  1
  H  H6  1  0.517998  0.516082  0.632133  1
  H  H7  1  0.017998  0.983918  0.367867  1
  H  H8  1  0.538477  0.065227  0.985087  1
  H  H9  1  0.038477  0.434773  0.014913  1
  H  H10  1  0.461523  0.565227  0.514913  1
  H  H11  1  0.961523  0.934773  0.485087  1
  H  H12  1  0.104235  0.096425  0.501154  1
  H  H13  1  0.604235  0.403575  0.498846  1
  H  H14  1  0.895765  0.596425  0.998846  1
  H  H15  1  0.395765  0.903575  0.001154  1
  H  H16  1  0.174614  0.221484  0.530808  1
  H  H17  1  0.674614  0.278516  0.469192  1
  H  H18  1  0.825386  0.721484  0.969192  1
  H  H19  1  0.325386  0.778516  0.030808  1
  H  H20  1  0.733350  0.082352  0.442302  1
  H  H21  1  0.233350  0.417648  0.557698  1
  H  H22  1  0.266650  0.582352  0.057698  1
  H  H23  1  0.766650  0.917648  0.942302  1
  H  H24  1  0.534623  0.136842  0.392198  1
  H  H25  1  0.034623  0.363158  0.607802  1
  H  H26  1  0.465377  0.636842  0.107802  1
  H  H27  1  0.965377  0.863158  0.892198  1
  H  H28  1  0.477879  0.894810  0.472492  1
  H  H29  1  0.977879  0.605190  0.527508  1
  H  H30  1  0.397999  0.266991  0.725207  1
  H  H31  1  0.522121  0.394810  0.027508  1
  H  H32  1  0.300507  0.878844  0.555449  1
  H  H33  1  0.800507  0.621156  0.444551  1
  H  H34  1  0.699493  0.378844  0.944551  1
  H  H35  1  0.199493  0.121156  0.055449  1
  H  H36  1  0.758900  0.953613  0.685151  1
  H  H37  1  0.258900  0.546387  0.314849  1
  H  H38  1  0.241100  0.453613  0.814849  1
  H  H39  1  0.741100  0.046387  0.185151  1
  H  H40  1  0.811103  0.077459  0.726467  1
  H  H41  1  0.311103  0.422541  0.273533  1
  H  H42  1  0.188897  0.577459  0.773533  1
  H  H43  1  0.688897  0.922541  0.226467  1
  H  H44  1  0.240864  0.952268  0.754815  1
  H  H45  1  0.740864  0.547732  0.245185  1
  H  H46  1  0.759136  0.452268  0.745185  1
  H  H47  1  0.259136  0.047732  0.254815  1
  H  H48  1  0.195781  0.079462  0.775429  1
  H  H49  1  0.695781  0.420538  0.224571  1
  H  H50  1  0.804219  0.579462  0.724571  1
  H  H51  1  0.304219  0.920538  0.275429  1
  H  H52  1  0.630867  0.265333  0.700717  1
  H  H53  1  0.130867  0.234667  0.299283  1
  H  H54  1  0.369133  0.765333  0.799283  1
  H  H55  1  0.869133  0.734667  0.200717  1
  H  H56  1  0.102001  0.733009  0.225207  1
  H  H57  1  0.602001  0.766991  0.774793  1
  H  H58  1  0.897999  0.233009  0.274793  1
  H  H59  1  0.022121  0.105190  0.972492  1
  S  S60  1  0.496524  0.220802  0.179838  1
  S  S61  1  0.996524  0.279198  0.820162  1
  S  S62  1  0.503476  0.720802  0.320162  1
  S  S63  1  0.003476  0.779198  0.679838  1
  O  O64  1  0.553038  0.998589  0.937440  1
  O  O65  1  0.053038  0.501411  0.062560  1
  O  O66  1  0.446962  0.498589  0.562560  1
  O  O67  1  0.946962  0.001411  0.437440  1
  O  O68  1  0.206475  0.141694  0.539287  1
  O  O69  1  0.706475  0.358306  0.460713  1
  O  O70  1  0.793525  0.641694  0.960713  1
  O  O71  1  0.293525  0.858306  0.039287  1
  O  O72  1  0.615166  0.128604  0.459840  1
  O  O73  1  0.115166  0.371396  0.540160  1
  O  O74  1  0.384834  0.628604  0.040160  1
  O  O75  1  0.884834  0.871396  0.959840  1
  O  O76  1  0.423583  0.921939  0.543039  1
  O  O77  1  0.923583  0.578061  0.456961  1
  O  O78  1  0.576417  0.421939  0.956961  1
  O  O79  1  0.076417  0.078061  0.043039  1
  O  O80  1  0.728183  0.034236  0.675282  1
  O  O81  1  0.228183  0.465764  0.324718  1
  O  O82  1  0.271817  0.534236  0.824718  1
  O  O83  1  0.771817  0.965764  0.175282  1
  O  O84  1  0.303299  0.027599  0.753235  1
  O  O85  1  0.803299  0.472401  0.246765  1
  O  O86  1  0.696701  0.527599  0.746765  1
  O  O87  1  0.196701  0.972401  0.253235  1
  O  O88  1  0.501787  0.236544  0.676151  1
  O  O89  1  0.001787  0.263456  0.323849  1
  O  O90  1  0.498213  0.736544  0.823849  1
  O  O91  1  0.998213  0.763456  0.176151  1
  O  O92  1  0.132962  0.822272  0.772267  1
  O  O93  1  0.632962  0.677728  0.227733  1
  O  O94  1  0.867038  0.322272  0.727733  1
  O  O95  1  0.367038  0.177728  0.272267  1
  O  O96  1  0.798269  0.816052  0.701388  1
  O  O97  1  0.298269  0.683948  0.298612  1
  O  O98  1  0.201731  0.316052  0.798612  1
  O  O99  1  0.701731  0.183948  0.201388  1
  O  O100  1  0.013165  0.654287  0.678377  1
  O  O101  1  0.513165  0.845713  0.321623  1
  O  O102  1  0.986835  0.154287  0.821623  1
  O  O103  1  0.486835  0.345713  0.178377  1
  O  O104  1  0.072191  0.824697  0.572441  1
  O  O105  1  0.572191  0.675303  0.427559  1
  O  O106  1  0.927809  0.324697  0.927559  1
  O  O107  1  0.427809  0.175303  0.072441  1
