# generated using pymatgen
data_LiMo3O8
_symmetry_space_group_name_H-M   'P 1'
_cell_length_a   6.06688887
_cell_length_b   6.06688887
_cell_length_c   6.06688887
_cell_angle_alpha   61.23775103
_cell_angle_beta   61.23775103
_cell_angle_gamma   61.23775103
_symmetry_Int_Tables_number   1
_chemical_formula_structural   LiMo3O8
_chemical_formula_sum   'Li1 Mo3 O8'
_cell_volume   162.29551471
_cell_formula_units_Z   1
loop_
 _symmetry_equiv_pos_site_id
 _symmetry_equiv_pos_as_xyz
  1  'x, y, z'
loop_
 _atom_site_type_symbol
 _atom_site_label
 _atom_site_symmetry_multiplicity
 _atom_site_fract_x
 _atom_site_fract_y
 _atom_site_fract_z
 _atom_site_occupancy
  Li  Li0  1  0.618102  0.618102  0.618102  1
  Mo  Mo1  1  0.002316  0.002316  0.497681  1
  Mo  Mo2  1  0.497681  0.002316  0.002316  1
  Mo  Mo3  1  0.002316  0.497681  0.002316  1
  O  O4  1  0.743426  0.743426  0.214240  1
  O  O5  1  0.214240  0.743426  0.743426  1
  O  O6  1  0.253477  0.253477  0.798154  1
  O  O7  1  0.798154  0.253477  0.253477  1
  O  O8  1  0.253477  0.798154  0.253477  1
  O  O9  1  0.743426  0.214240  0.743426  1
  O  O10  1  0.243453  0.243453  0.243453  1
  O  O11  1  0.757632  0.757632  0.757632  1
