# generated using pymatgen
data_NaAsSe2
_symmetry_space_group_name_H-M   'P 1'
_cell_length_a   5.91685526
_cell_length_b   12.09054724
_cell_length_c   24.99213715
_cell_angle_alpha   90.00000000
_cell_angle_beta   90.00000000
_cell_angle_gamma   90.00000000
_symmetry_Int_Tables_number   1
_chemical_formula_structural   NaAsSe2
_chemical_formula_sum   'Na16 As16 Se32'
_cell_volume   1787.88795813
_cell_formula_units_Z   16
loop_
 _symmetry_equiv_pos_site_id
 _symmetry_equiv_pos_as_xyz
  1  'x, y, z'
loop_
 _atom_site_type_symbol
 _atom_site_label
 _atom_site_symmetry_multiplicity
 _atom_site_fract_x
 _atom_site_fract_y
 _atom_site_fract_z
 _atom_site_occupancy
  Na  Na0  1  0.708831  0.124136  0.252575  1
  Na  Na1  1  0.238001  0.373077  0.502185  1
  Na  Na2  1  0.761999  0.126923  0.002185  1
  Na  Na3  1  0.261999  0.873077  0.497815  1
  Na  Na4  1  0.261999  0.373077  0.002185  1
  Na  Na5  1  0.761999  0.626923  0.497815  1
  Na  Na6  1  0.238001  0.873077  0.997815  1
  Na  Na7  1  0.738001  0.126923  0.502185  1
  Na  Na8  1  0.708831  0.624136  0.247425  1
  Na  Na9  1  0.208831  0.375864  0.252575  1
  Na  Na10  1  0.791169  0.124136  0.752575  1
  Na  Na11  1  0.291169  0.875864  0.747425  1
  Na  Na12  1  0.291169  0.375864  0.752575  1
  Na  Na13  1  0.791169  0.624136  0.747425  1
  Na  Na14  1  0.208831  0.875864  0.247425  1
  Na  Na15  1  0.738001  0.626923  0.997815  1
  As  As16  1  0.288458  0.644707  0.387763  1
  As  As17  1  0.711542  0.855293  0.887763  1
  As  As18  1  0.211542  0.144707  0.612237  1
  As  As19  1  0.211542  0.644707  0.887763  1
  As  As20  1  0.711542  0.355293  0.612237  1
  As  As21  1  0.288458  0.144707  0.112237  1
  As  As22  1  0.788458  0.855293  0.387763  1
  As  As23  1  0.768341  0.355383  0.860453  1
  As  As24  1  0.268341  0.644617  0.639547  1
  As  As25  1  0.731659  0.855383  0.139547  1
  As  As26  1  0.231659  0.144617  0.360453  1
  As  As27  1  0.231659  0.644617  0.139547  1
  As  As28  1  0.731659  0.355383  0.360453  1
  As  As29  1  0.268341  0.144617  0.860453  1
  As  As30  1  0.788458  0.355293  0.112237  1
  As  As31  1  0.768341  0.855383  0.639547  1
  Se  Se32  1  0.206400  0.844620  0.371363  1
  Se  Se33  1  0.261407  0.124071  0.018820  1
  Se  Se34  1  0.738593  0.375929  0.518820  1
  Se  Se35  1  0.238593  0.624071  0.981180  1
  Se  Se36  1  0.238593  0.124071  0.518820  1
  Se  Se37  1  0.738593  0.875929  0.981180  1
  Se  Se38  1  0.261407  0.624071  0.481180  1
  Se  Se39  1  0.761407  0.375929  0.018820  1
  Se  Se40  1  0.708795  0.873695  0.233138  1
  Se  Se41  1  0.208795  0.126305  0.266862  1
  Se  Se42  1  0.791205  0.373695  0.766862  1
  Se  Se43  1  0.291205  0.626305  0.733138  1
  Se  Se44  1  0.291205  0.126305  0.766862  1
  Se  Se45  1  0.791205  0.873695  0.733138  1
  Se  Se46  1  0.208795  0.626305  0.233138  1
  Se  Se47  1  0.708795  0.373695  0.266862  1
  Se  Se48  1  0.706400  0.155380  0.128637  1
  Se  Se49  1  0.793600  0.655380  0.871363  1
  Se  Se50  1  0.293600  0.344620  0.628637  1
  Se  Se51  1  0.293600  0.844620  0.871363  1
  Se  Se52  1  0.793600  0.155380  0.628637  1
  Se  Se53  1  0.206400  0.344620  0.128637  1
  Se  Se54  1  0.706400  0.655380  0.371363  1
  Se  Se55  1  0.648508  0.156065  0.378228  1
  Se  Se56  1  0.148508  0.843935  0.121772  1
  Se  Se57  1  0.851492  0.656065  0.621772  1
  Se  Se58  1  0.351492  0.343935  0.878228  1
  Se  Se59  1  0.351492  0.843935  0.621772  1
  Se  Se60  1  0.851492  0.156065  0.878228  1
  Se  Se61  1  0.148508  0.343935  0.378228  1
  Se  Se62  1  0.648508  0.656065  0.121772  1
  Se  Se63  1  0.761407  0.875929  0.481180  1
