# generated using pymatgen
data_Hg3(TeCl)2
_symmetry_space_group_name_H-M   'P 1'
_cell_length_a   8.36291231
_cell_length_b   8.36291231
_cell_length_c   8.36291231
_cell_angle_alpha   109.47122063
_cell_angle_beta   109.47122063
_cell_angle_gamma   109.47122063
_symmetry_Int_Tables_number   1
_chemical_formula_structural   Hg3(TeCl)2
_chemical_formula_sum   'Hg6 Te4 Cl4'
_cell_volume   450.24690726
_cell_formula_units_Z   2
loop_
 _symmetry_equiv_pos_site_id
 _symmetry_equiv_pos_as_xyz
  1  'x, y, z'
loop_
 _atom_site_type_symbol
 _atom_site_label
 _atom_site_symmetry_multiplicity
 _atom_site_fract_x
 _atom_site_fract_y
 _atom_site_fract_z
 _atom_site_occupancy
  Hg  Hg0  1  0.750000  0.932656  0.182656  1
  Hg  Hg1  1  0.317344  0.250000  0.567344  1
  Hg  Hg2  1  0.567344  0.317344  0.250000  1
  Hg  Hg3  1  0.182656  0.750000  0.932656  1
  Hg  Hg4  1  0.932656  0.182656  0.750000  1
  Hg  Hg5  1  0.250000  0.567344  0.317344  1
  Te  Te6  1  0.942549  0.500000  0.000000  1
  Te  Te7  1  0.500000  1.000000  0.942549  1
  Te  Te8  1  0.557451  0.557451  0.557451  1
  Te  Te9  1  1.000000  0.942549  0.500000  1
  Cl  Cl10  1  0.481160  0.500000  0.000000  1
  Cl  Cl11  1  0.500000  1.000000  0.481160  1
  Cl  Cl12  1  1.000000  0.481160  0.500000  1
  Cl  Cl13  1  0.018840  0.018840  0.018840  1
