# generated using pymatgen
data_U(Al5Fe)2
_symmetry_space_group_name_H-M   'P 1'
_cell_length_a   6.77331564
_cell_length_b   6.77331564
_cell_length_c   8.96355014
_cell_angle_alpha   90.00000000
_cell_angle_beta   90.00000000
_cell_angle_gamma   98.02695811
_symmetry_Int_Tables_number   1
_chemical_formula_structural   U(Al5Fe)2
_chemical_formula_sum   'U2 Al20 Fe4'
_cell_volume   407.19898710
_cell_formula_units_Z   2
loop_
 _symmetry_equiv_pos_site_id
 _symmetry_equiv_pos_as_xyz
  1  'x, y, z'
loop_
 _atom_site_type_symbol
 _atom_site_label
 _atom_site_symmetry_multiplicity
 _atom_site_fract_x
 _atom_site_fract_y
 _atom_site_fract_z
 _atom_site_occupancy
  U  U0  1  0.877293  0.122707  0.250000  1
  U  U1  1  0.122707  0.877293  0.750000  1
  Al  Al2  1  0.478099  0.219454  0.750000  1
  Al  Al3  1  0.625489  0.374511  0.450438  1
  Al  Al4  1  0.157441  0.842559  0.098065  1
  Al  Al5  1  0.411030  0.134910  0.250000  1
  Al  Al6  1  0.780546  0.521901  0.750000  1
  Al  Al7  1  0.374511  0.625489  0.549562  1
  Al  Al8  1  0.521901  0.780546  0.250000  1
  Al  Al9  1  0.374511  0.625489  0.950438  1
  Al  Al10  1  0.842559  0.157441  0.901935  1
  Al  Al11  1  0.865090  0.588970  0.250000  1
  Al  Al12  1  0.134910  0.411030  0.750000  1
  Al  Al13  1  0.219454  0.478099  0.250000  1
  Al  Al14  1  0.775624  0.775624  0.000000  1
  Al  Al15  1  0.775624  0.775624  0.500000  1
  Al  Al16  1  0.588970  0.865090  0.750000  1
  Al  Al17  1  0.157441  0.842559  0.401935  1
  Al  Al18  1  0.625489  0.374511  0.049562  1
  Al  Al19  1  0.842559  0.157441  0.598065  1
  Al  Al20  1  0.224376  0.224376  0.500000  1
  Al  Al21  1  0.224376  0.224376  0.000000  1
  Fe  Fe22  1  0.500000  0.000000  0.500000  1
  Fe  Fe23  1  0.000000  0.500000  0.000000  1
  Fe  Fe24  1  0.500000  0.000000  0.000000  1
  Fe  Fe25  1  0.000000  0.500000  0.500000  1
