# generated using pymatgen
data_LaFe3(BO3)4
_symmetry_space_group_name_H-M   'P 1'
_cell_length_a   6.17919012
_cell_length_b   6.17919012
_cell_length_c   6.17919012
_cell_angle_alpha   103.67164287
_cell_angle_beta   103.67164287
_cell_angle_gamma   103.67164287
_symmetry_Int_Tables_number   1
_chemical_formula_structural   LaFe3(BO3)4
_chemical_formula_sum   'La1 Fe3 B4 O12'
_cell_volume   211.81736275
_cell_formula_units_Z   1
loop_
 _symmetry_equiv_pos_site_id
 _symmetry_equiv_pos_as_xyz
  1  'x, y, z'
loop_
 _atom_site_type_symbol
 _atom_site_label
 _atom_site_symmetry_multiplicity
 _atom_site_fract_x
 _atom_site_fract_y
 _atom_site_fract_z
 _atom_site_occupancy
  La  La0  1  0.000000  0.000000  0.000000  1
  Fe  Fe1  1  0.551499  0.000000  0.448501  1
  Fe  Fe2  1  0.448501  0.551499  0.000000  1
  Fe  Fe3  1  0.000000  0.448501  0.551499  1
  B  B4  1  0.945300  0.500000  0.054700  1
  B  B5  1  0.054700  0.945300  0.500000  1
  B  B6  1  0.500000  0.054700  0.945300  1
  B  B7  1  0.500000  0.500000  0.500000  1
  O  O8  1  0.970989  0.377064  0.213233  1
  O  O9  1  0.622936  0.029011  0.786767  1
  O  O10  1  0.029011  0.786767  0.622936  1
  O  O11  1  0.786767  0.622936  0.029011  1
  O  O12  1  0.500000  0.643258  0.356742  1
  O  O13  1  0.643258  0.356742  0.500000  1
  O  O14  1  0.356742  0.500000  0.643258  1
  O  O15  1  0.500000  0.911332  0.088668  1
  O  O16  1  0.911332  0.088668  0.500000  1
  O  O17  1  0.088668  0.500000  0.911332  1
  O  O18  1  0.377064  0.213233  0.970989  1
  O  O19  1  0.213233  0.970989  0.377064  1
