# generated using pymatgen
data_Li2PWCO7
_symmetry_space_group_name_H-M   'P 1'
_cell_length_a   4.99824789
_cell_length_b   6.68968574
_cell_length_c   8.81461621
_cell_angle_alpha   90.00000000
_cell_angle_beta   95.39124054
_cell_angle_gamma   90.00000000
_symmetry_Int_Tables_number   1
_chemical_formula_structural   Li2PWCO7
_chemical_formula_sum   'Li4 P2 W2 C2 O14'
_cell_volume   293.42795189
_cell_formula_units_Z   2
loop_
 _symmetry_equiv_pos_site_id
 _symmetry_equiv_pos_as_xyz
  1  'x, y, z'
loop_
 _atom_site_type_symbol
 _atom_site_label
 _atom_site_symmetry_multiplicity
 _atom_site_fract_x
 _atom_site_fract_y
 _atom_site_fract_z
 _atom_site_occupancy
  Li  Li0  1  0.257352  0.980187  0.221479  1
  Li  Li1  1  0.742648  0.019813  0.778521  1
  Li  Li2  1  0.742648  0.480187  0.778521  1
  Li  Li3  1  0.257352  0.519813  0.221479  1
  P  P4  1  0.230123  0.250000  0.592360  1
  P  P5  1  0.769877  0.750000  0.407640  1
  W  W6  1  0.290162  0.750000  0.656097  1
  W  W7  1  0.709838  0.250000  0.343903  1
  C  C8  1  0.209721  0.750000  0.944916  1
  C  C9  1  0.790279  0.250000  0.055084  1
  O  O10  1  0.656230  0.934427  0.318067  1
  O  O11  1  0.447956  0.750000  0.894228  1
  O  O12  1  0.992928  0.250000  0.165350  1
  O  O13  1  0.007072  0.750000  0.834650  1
  O  O14  1  0.656230  0.565573  0.318067  1
  O  O15  1  0.681342  0.750000  0.572142  1
  O  O16  1  0.552044  0.250000  0.105772  1
  O  O17  1  0.343770  0.434427  0.681933  1
  O  O18  1  0.343770  0.065573  0.681933  1
  O  O19  1  0.916064  0.250000  0.577855  1
  O  O20  1  0.171790  0.750000  0.084752  1
  O  O21  1  0.828210  0.250000  0.915248  1
  O  O22  1  0.083936  0.750000  0.422145  1
  O  O23  1  0.318658  0.250000  0.427858  1
