# generated using pymatgen
data_Rb2SnTe5
_symmetry_space_group_name_H-M   'P 1'
_cell_length_a   10.07392961
_cell_length_b   10.07392961
_cell_length_c   10.07392961
_cell_angle_alpha   127.38042664
_cell_angle_beta   127.38042664
_cell_angle_gamma   77.63088455
_symmetry_Int_Tables_number   1
_chemical_formula_structural   Rb2SnTe5
_chemical_formula_sum   'Rb4 Sn2 Te10'
_cell_volume   625.94413497
_cell_formula_units_Z   2
loop_
 _symmetry_equiv_pos_site_id
 _symmetry_equiv_pos_as_xyz
  1  'x, y, z'
loop_
 _atom_site_type_symbol
 _atom_site_label
 _atom_site_symmetry_multiplicity
 _atom_site_fract_x
 _atom_site_fract_y
 _atom_site_fract_z
 _atom_site_occupancy
  Rb  Rb0  1  0.246033  0.246033  0.000000  1
  Rb  Rb1  1  0.746033  0.746033  0.000000  1
  Rb  Rb2  1  0.995674  0.995674  0.000000  1
  Rb  Rb3  1  0.495674  0.495674  0.000000  1
  Sn  Sn4  1  0.250000  0.750000  0.500000  1
  Sn  Sn5  1  0.750000  0.250000  0.500000  1
  Te  Te6  1  0.960536  0.460536  0.153740  1
  Te  Te7  1  0.460536  0.306796  0.500000  1
  Te  Te8  1  0.806796  0.960536  0.500000  1
  Te  Te9  1  0.306796  0.806796  0.846260  1
  Te  Te10  1  0.693204  0.193204  0.153740  1
  Te  Te11  1  0.193204  0.039464  0.500000  1
  Te  Te12  1  0.539464  0.693204  0.500000  1
  Te  Te13  1  0.039464  0.539464  0.846260  1
  Te  Te14  1  0.000000  0.500000  0.500000  1
  Te  Te15  1  0.500000  0.000000  0.500000  1
