# generated using pymatgen
data_K2MgCr2(H2O5)2
_symmetry_space_group_name_H-M   'P 1'
_cell_length_a   5.76992612
_cell_length_b   6.50936083
_cell_length_c   7.66561751
_cell_angle_alpha   111.12850378
_cell_angle_beta   95.09893981
_cell_angle_gamma   110.05312154
_symmetry_Int_Tables_number   1
_chemical_formula_structural   K2MgCr2(H2O5)2
_chemical_formula_sum   'K2 Mg1 Cr2 H4 O10'
_cell_volume   244.74405391
_cell_formula_units_Z   1
loop_
 _symmetry_equiv_pos_site_id
 _symmetry_equiv_pos_as_xyz
  1  'x, y, z'
loop_
 _atom_site_type_symbol
 _atom_site_label
 _atom_site_symmetry_multiplicity
 _atom_site_fract_x
 _atom_site_fract_y
 _atom_site_fract_z
 _atom_site_occupancy
  K  K0  1  0.094843  0.462232  0.243279  1
  K  K1  1  0.905157  0.537768  0.756721  1
  Mg  Mg2  1  0.000000  0.000000  0.000000  1
  Cr  Cr3  1  0.433489  0.107145  0.234813  1
  Cr  Cr4  1  0.566511  0.892855  0.765187  1
  H  H5  1  0.716157  0.747158  0.389961  1
  H  H6  1  0.283843  0.252842  0.610039  1
  H  H7  1  0.623830  0.559565  0.298616  1
  H  H8  1  0.376170  0.440435  0.701384  1
  O  O9  1  0.738291  0.174732  0.627154  1
  O  O10  1  0.261709  0.825268  0.372846  1
  O  O11  1  0.771983  0.718613  0.268762  1
  O  O12  1  0.406407  0.270755  0.368820  1
  O  O13  1  0.593593  0.729245  0.631180  1
  O  O14  1  0.228017  0.281387  0.731238  1
  O  O15  1  0.699560  0.831908  0.913721  1
  O  O16  1  0.773223  0.183129  0.104278  1
  O  O17  1  0.226777  0.816871  0.895722  1
  O  O18  1  0.300440  0.168092  0.086279  1
