# generated using pymatgen
data_NaScCl4
_symmetry_space_group_name_H-M   'P 1'
_cell_length_a   6.35122590
_cell_length_b   6.43278678
_cell_length_c   15.71381496
_cell_angle_alpha   90.00000000
_cell_angle_beta   90.00000000
_cell_angle_gamma   90.00000000
_symmetry_Int_Tables_number   1
_chemical_formula_structural   NaScCl4
_chemical_formula_sum   'Na4 Sc4 Cl16'
_cell_volume   642.00491264
_cell_formula_units_Z   4
loop_
 _symmetry_equiv_pos_site_id
 _symmetry_equiv_pos_as_xyz
  1  'x, y, z'
loop_
 _atom_site_type_symbol
 _atom_site_label
 _atom_site_symmetry_multiplicity
 _atom_site_fract_x
 _atom_site_fract_y
 _atom_site_fract_z
 _atom_site_occupancy
  Na  Na0  1  0.000000  0.250000  0.320251  1
  Na  Na1  1  0.500000  0.750000  0.179749  1
  Na  Na2  1  0.000000  0.750000  0.679749  1
  Na  Na3  1  0.500000  0.250000  0.820251  1
  Sc  Sc4  1  0.000000  0.250000  0.070285  1
  Sc  Sc5  1  0.500000  0.250000  0.570285  1
  Sc  Sc6  1  0.000000  0.750000  0.929715  1
  Sc  Sc7  1  0.500000  0.750000  0.429715  1
  Cl  Cl8  1  0.268953  0.606226  0.322976  1
  Cl  Cl9  1  0.778625  0.428389  0.950843  1
  Cl  Cl10  1  0.278625  0.571611  0.549157  1
  Cl  Cl11  1  0.721375  0.928389  0.549157  1
  Cl  Cl12  1  0.768953  0.393774  0.177024  1
  Cl  Cl13  1  0.231047  0.606226  0.822976  1
  Cl  Cl14  1  0.731047  0.893774  0.322976  1
  Cl  Cl15  1  0.231047  0.106226  0.177024  1
  Cl  Cl16  1  0.268953  0.106226  0.677024  1
  Cl  Cl17  1  0.731047  0.393774  0.677024  1
  Cl  Cl18  1  0.221375  0.571611  0.049157  1
  Cl  Cl19  1  0.768953  0.893774  0.822976  1
  Cl  Cl20  1  0.778625  0.928389  0.049157  1
  Cl  Cl21  1  0.278625  0.071611  0.450843  1
  Cl  Cl22  1  0.721375  0.428389  0.450843  1
  Cl  Cl23  1  0.221375  0.071611  0.950843  1
