# generated using pymatgen
data_K3Al2As3
_symmetry_space_group_name_H-M   'P 1'
_cell_length_a   7.66407108
_cell_length_b   6.07658914
_cell_length_c   10.58522683
_cell_angle_alpha   90.00000000
_cell_angle_beta   110.14885144
_cell_angle_gamma   90.00000000
_symmetry_Int_Tables_number   1
_chemical_formula_structural   K3Al2As3
_chemical_formula_sum   'K6 Al4 As6'
_cell_volume   462.79969387
_cell_formula_units_Z   2
loop_
 _symmetry_equiv_pos_site_id
 _symmetry_equiv_pos_as_xyz
  1  'x, y, z'
loop_
 _atom_site_type_symbol
 _atom_site_label
 _atom_site_symmetry_multiplicity
 _atom_site_fract_x
 _atom_site_fract_y
 _atom_site_fract_z
 _atom_site_occupancy
  K  K0  1  0.432924  0.250000  0.572979  1
  K  K1  1  0.126508  0.750000  0.077584  1
  K  K2  1  0.476399  0.750000  0.850353  1
  K  K3  1  0.523601  0.250000  0.149647  1
  K  K4  1  0.567076  0.750000  0.427021  1
  K  K5  1  0.873492  0.250000  0.922416  1
  Al  Al6  1  0.027962  0.999470  0.657187  1
  Al  Al7  1  0.972038  0.499470  0.342813  1
  Al  Al8  1  0.027962  0.500530  0.657187  1
  Al  Al9  1  0.972038  0.000530  0.342813  1
  As  As10  1  0.811704  0.250000  0.470628  1
  As  As11  1  0.188296  0.750000  0.529372  1
  As  As12  1  0.253364  0.250000  0.818213  1
  As  As13  1  0.746636  0.750000  0.181787  1
  As  As14  1  0.153857  0.250000  0.251908  1
  As  As15  1  0.846143  0.750000  0.748092  1
