# generated using pymatgen
data_Ce4Bi3
_symmetry_space_group_name_H-M   'P 1'
_cell_length_a   8.41266372
_cell_length_b   8.41266372
_cell_length_c   8.41266372
_cell_angle_alpha   109.47122063
_cell_angle_beta   109.47122063
_cell_angle_gamma   109.47122063
_symmetry_Int_Tables_number   1
_chemical_formula_structural   Ce4Bi3
_chemical_formula_sum   'Ce8 Bi6'
_cell_volume   458.33043444
_cell_formula_units_Z   2
loop_
 _symmetry_equiv_pos_site_id
 _symmetry_equiv_pos_as_xyz
  1  'x, y, z'
loop_
 _atom_site_type_symbol
 _atom_site_label
 _atom_site_symmetry_multiplicity
 _atom_site_fract_x
 _atom_site_fract_y
 _atom_site_fract_z
 _atom_site_occupancy
  Ce  Ce0  1  0.649003  0.649003  0.649003  1
  Ce  Ce1  1  1.000000  0.850997  0.500000  1
  Ce  Ce2  1  0.850997  0.500000  1.000000  1
  Ce  Ce3  1  0.350997  0.500000  1.000000  1
  Ce  Ce4  1  1.000000  0.350997  0.500000  1
  Ce  Ce5  1  0.500000  1.000000  0.350997  1
  Ce  Ce6  1  0.149003  0.149003  0.149003  1
  Ce  Ce7  1  0.500000  1.000000  0.850997  1
  Bi  Bi8  1  0.125000  0.750000  0.875000  1
  Bi  Bi9  1  0.625000  0.375000  0.250000  1
  Bi  Bi10  1  0.375000  0.250000  0.625000  1
  Bi  Bi11  1  0.750000  0.875000  0.125000  1
  Bi  Bi12  1  0.250000  0.625000  0.375000  1
  Bi  Bi13  1  0.875000  0.125000  0.750000  1
