# generated using pymatgen
data_CsB5(H2O3)4
_symmetry_space_group_name_H-M   'P 1'
_cell_length_a   11.69589231
_cell_length_b   7.24615242
_cell_length_c   14.08106781
_cell_angle_alpha   90.00000000
_cell_angle_beta   92.07225591
_cell_angle_gamma   90.00000000
_symmetry_Int_Tables_number   1
_chemical_formula_structural   CsB5(H2O3)4
_chemical_formula_sum   'Cs4 B20 H32 O48'
_cell_volume   1192.59313001
_cell_formula_units_Z   4
loop_
 _symmetry_equiv_pos_site_id
 _symmetry_equiv_pos_as_xyz
  1  'x, y, z'
loop_
 _atom_site_type_symbol
 _atom_site_label
 _atom_site_symmetry_multiplicity
 _atom_site_fract_x
 _atom_site_fract_y
 _atom_site_fract_z
 _atom_site_occupancy
  Cs  Cs0  1  0.253370  0.734724  0.914838  1
  Cs  Cs1  1  0.746630  0.234724  0.585162  1
  Cs  Cs2  1  0.746630  0.265276  0.085162  1
  Cs  Cs3  1  0.253370  0.765276  0.414838  1
  B  B4  1  0.933747  0.863130  0.764661  1
  B  B5  1  0.066253  0.363130  0.735339  1
  B  B6  1  0.066253  0.136870  0.235339  1
  B  B7  1  0.933747  0.636870  0.264661  1
  B  B8  1  0.943936  0.815075  0.933926  1
  B  B9  1  0.056064  0.315075  0.566074  1
  B  B10  1  0.056064  0.184925  0.066074  1
  B  B11  1  0.943936  0.684925  0.433926  1
  B  B12  1  0.571718  0.032207  0.870276  1
  B  B13  1  0.428282  0.532207  0.629724  1
  B  B14  1  0.428282  0.967793  0.129724  1
  B  B15  1  0.571718  0.467793  0.370276  1
  B  B16  1  0.556367  0.702581  0.853397  1
  B  B17  1  0.443633  0.202581  0.646603  1
  B  B18  1  0.443633  0.297419  0.146603  1
  B  B19  1  0.556367  0.797419  0.353397  1
  B  B20  1  0.751073  0.847282  0.851330  1
  B  B21  1  0.248927  0.347282  0.648670  1
  B  B22  1  0.248927  0.152718  0.148670  1
  B  B23  1  0.751073  0.652718  0.351330  1
  H  H24  1  0.747181  0.747041  0.655568  1
  H  H25  1  0.252819  0.247041  0.844432  1
  H  H26  1  0.252819  0.252959  0.344432  1
  H  H27  1  0.747181  0.752959  0.155568  1
  H  H28  1  0.752268  0.699612  0.544060  1
  H  H29  1  0.247732  0.199612  0.955940  1
  H  H30  1  0.247732  0.300388  0.455940  1
  H  H31  1  0.752268  0.800388  0.044060  1
  H  H32  1  0.260340  0.967413  0.681633  1
  H  H33  1  0.739660  0.467413  0.818367  1
  H  H34  1  0.739660  0.032587  0.318367  1
  H  H35  1  0.260340  0.532587  0.181633  1
  H  H36  1  0.251062  0.746212  0.670655  1
  H  H37  1  0.748938  0.246212  0.829345  1
  H  H38  1  0.748938  0.253788  0.329345  1
  H  H39  1  0.251062  0.753788  0.170655  1
  H  H40  1  0.075343  0.874838  0.688790  1
  H  H41  1  0.924657  0.374838  0.811210  1
  H  H42  1  0.924657  0.125162  0.311210  1
  H  H43  1  0.075343  0.625162  0.188790  1
  H  H44  1  0.984043  0.728183  0.069041  1
  H  H45  1  0.015957  0.228183  0.430959  1
  H  H46  1  0.015957  0.271817  0.930959  1
  H  H47  1  0.984043  0.771817  0.569041  1
  H  H48  1  0.434290  0.189037  0.893765  1
  H  H49  1  0.565710  0.689037  0.606235  1
  H  H50  1  0.565710  0.810963  0.106235  1
  H  H51  1  0.434290  0.310963  0.393765  1
  H  H52  1  0.515972  0.430764  0.856977  1
  H  H53  1  0.484028  0.930764  0.643023  1
  H  H54  1  0.484028  0.569236  0.143023  1
  H  H55  1  0.515972  0.069236  0.356977  1
  O  O56  1  0.706146  0.686265  0.601523  1
  O  O57  1  0.293854  0.186265  0.898477  1
  O  O58  1  0.293854  0.313735  0.398477  1
  O  O59  1  0.706146  0.813735  0.101523  1
  O  O60  1  0.215329  0.856869  0.698335  1
  O  O61  1  0.784671  0.356869  0.801665  1
  O  O62  1  0.784671  0.143131  0.301665  1
  O  O63  1  0.215329  0.643131  0.198335  1
  O  O64  1  0.989074  0.878050  0.680565  1
  O  O65  1  0.010926  0.378050  0.819435  1
  O  O66  1  0.010926  0.121950  0.319435  1
  O  O67  1  0.989074  0.621950  0.180565  1
  O  O68  1  0.016070  0.773941  0.009335  1
  O  O69  1  0.983930  0.273941  0.490665  1
  O  O70  1  0.983930  0.226059  0.990665  1
  O  O71  1  0.016070  0.726059  0.509335  1
  O  O72  1  0.519693  0.198919  0.886314  1
  O  O73  1  0.480307  0.698919  0.613686  1
  O  O74  1  0.480307  0.801081  0.113686  1
  O  O75  1  0.519693  0.301081  0.386314  1
  O  O76  1  0.482845  0.556305  0.853016  1
  O  O77  1  0.517155  0.056305  0.646984  1
  O  O78  1  0.517155  0.443695  0.146984  1
  O  O79  1  0.482845  0.943695  0.353016  1
  O  O80  1  0.998142  0.852152  0.849238  1
  O  O81  1  0.001858  0.352152  0.650762  1
  O  O82  1  0.001858  0.147848  0.150762  1
  O  O83  1  0.998142  0.647848  0.349238  1
  O  O84  1  0.504860  0.874103  0.865571  1
  O  O85  1  0.495140  0.374103  0.634429  1
  O  O86  1  0.495140  0.125897  0.134429  1
  O  O87  1  0.504860  0.625897  0.365571  1
  O  O88  1  0.816562  0.857587  0.763270  1
  O  O89  1  0.183438  0.357587  0.736730  1
  O  O90  1  0.183438  0.142413  0.236730  1
  O  O91  1  0.816562  0.642413  0.263270  1
  O  O92  1  0.827003  0.816486  0.936887  1
  O  O93  1  0.172997  0.316486  0.563113  1
  O  O94  1  0.172997  0.183514  0.063113  1
  O  O95  1  0.827003  0.683514  0.436887  1
  O  O96  1  0.688153  0.024343  0.863546  1
  O  O97  1  0.311847  0.524343  0.636454  1
  O  O98  1  0.311847  0.975657  0.136454  1
  O  O99  1  0.688153  0.475657  0.363546  1
  O  O100  1  0.671899  0.687610  0.843324  1
  O  O101  1  0.328101  0.187610  0.656676  1
  O  O102  1  0.328101  0.312390  0.156676  1
  O  O103  1  0.671899  0.812390  0.343324  1
