# generated using pymatgen
data_Nd2Cu2O5
_symmetry_space_group_name_H-M   'P 1'
_cell_length_a   3.79030601
_cell_length_b   5.72467623
_cell_length_c   10.15231263
_cell_angle_alpha   90.00000000
_cell_angle_beta   90.00000000
_cell_angle_gamma   90.00000000
_symmetry_Int_Tables_number   1
_chemical_formula_structural   Nd2Cu2O5
_chemical_formula_sum   'Nd4 Cu4 O10'
_cell_volume   220.28766849
_cell_formula_units_Z   2
loop_
 _symmetry_equiv_pos_site_id
 _symmetry_equiv_pos_as_xyz
  1  'x, y, z'
loop_
 _atom_site_type_symbol
 _atom_site_label
 _atom_site_symmetry_multiplicity
 _atom_site_fract_x
 _atom_site_fract_y
 _atom_site_fract_z
 _atom_site_occupancy
  Nd  Nd0  1  0.500000  0.150101  0.851108  1
  Nd  Nd1  1  0.500000  0.849899  0.148892  1
  Nd  Nd2  1  0.500000  0.650101  0.648892  1
  Nd  Nd3  1  0.500000  0.349899  0.351108  1
  Cu  Cu4  1  0.000000  0.188543  0.594846  1
  Cu  Cu5  1  0.000000  0.811457  0.405154  1
  Cu  Cu6  1  0.000000  0.688543  0.905154  1
  Cu  Cu7  1  0.000000  0.311457  0.094846  1
  O  O8  1  0.000000  0.500000  0.500000  1
  O  O9  1  0.000000  0.000000  0.000000  1
  O  O10  1  0.000000  0.910127  0.707212  1
  O  O11  1  0.000000  0.089873  0.292788  1
  O  O12  1  0.000000  0.410127  0.792788  1
  O  O13  1  0.000000  0.589873  0.207212  1
  O  O14  1  0.500000  0.226126  0.601403  1
  O  O15  1  0.500000  0.773874  0.398597  1
  O  O16  1  0.500000  0.273874  0.101403  1
  O  O17  1  0.500000  0.726126  0.898597  1
