# generated using pymatgen
data_PuB4
_symmetry_space_group_name_H-M   'P 1'
_cell_length_a   7.10566734
_cell_length_b   7.10566734
_cell_length_c   4.01679239
_cell_angle_alpha   90.00000000
_cell_angle_beta   90.00000000
_cell_angle_gamma   90.00000000
_symmetry_Int_Tables_number   1
_chemical_formula_structural   PuB4
_chemical_formula_sum   'Pu4 B16'
_cell_volume   202.80988969
_cell_formula_units_Z   4
loop_
 _symmetry_equiv_pos_site_id
 _symmetry_equiv_pos_as_xyz
  1  'x, y, z'
loop_
 _atom_site_type_symbol
 _atom_site_label
 _atom_site_symmetry_multiplicity
 _atom_site_fract_x
 _atom_site_fract_y
 _atom_site_fract_z
 _atom_site_occupancy
  Pu  Pu0  1  0.186584  0.686584  0.000000  1
  Pu  Pu1  1  0.686584  0.813416  0.000000  1
  Pu  Pu2  1  0.313416  0.186584  0.000000  1
  Pu  Pu3  1  0.813416  0.313416  0.000000  1
  B  B4  1  0.322755  0.460961  0.500000  1
  B  B5  1  0.677245  0.539039  0.500000  1
  B  B6  1  0.539039  0.322755  0.500000  1
  B  B7  1  0.460961  0.677245  0.500000  1
  B  B8  1  0.000000  0.000000  0.201649  1
  B  B9  1  0.500000  0.500000  0.798351  1
  B  B10  1  0.000000  0.000000  0.798351  1
  B  B11  1  0.500000  0.500000  0.201649  1
  B  B12  1  0.587155  0.087155  0.500000  1
  B  B13  1  0.087155  0.412845  0.500000  1
  B  B14  1  0.912845  0.587155  0.500000  1
  B  B15  1  0.412845  0.912845  0.500000  1
  B  B16  1  0.039039  0.177245  0.500000  1
  B  B17  1  0.177245  0.960961  0.500000  1
  B  B18  1  0.822755  0.039039  0.500000  1
  B  B19  1  0.960961  0.822755  0.500000  1
