# generated using pymatgen
data_Li2Te2O5
_symmetry_space_group_name_H-M   'P 1'
_cell_length_a   10.60825930
_cell_length_b   4.86816905
_cell_length_c   12.29431507
_cell_angle_alpha   90.00000000
_cell_angle_beta   122.69445638
_cell_angle_gamma   90.00000000
_symmetry_Int_Tables_number   1
_chemical_formula_structural   Li2Te2O5
_chemical_formula_sum   'Li8 Te8 O20'
_cell_volume   534.31919355
_cell_formula_units_Z   4
loop_
 _symmetry_equiv_pos_site_id
 _symmetry_equiv_pos_as_xyz
  1  'x, y, z'
loop_
 _atom_site_type_symbol
 _atom_site_label
 _atom_site_symmetry_multiplicity
 _atom_site_fract_x
 _atom_site_fract_y
 _atom_site_fract_z
 _atom_site_occupancy
  Li  Li0  1  0.923119  0.181243  0.175485  1
  Li  Li1  1  0.076881  0.681243  0.324515  1
  Li  Li2  1  0.076881  0.818757  0.824515  1
  Li  Li3  1  0.923119  0.318757  0.675485  1
  Li  Li4  1  0.076319  0.293841  0.490601  1
  Li  Li5  1  0.923681  0.793841  0.009399  1
  Li  Li6  1  0.923681  0.706159  0.509399  1
  Li  Li7  1  0.076319  0.206159  0.990601  1
  Te  Te8  1  0.299935  0.169961  0.374861  1
  Te  Te9  1  0.700065  0.669961  0.125139  1
  Te  Te10  1  0.700065  0.830039  0.625139  1
  Te  Te11  1  0.299935  0.330039  0.874861  1
  Te  Te12  1  0.701365  0.181043  0.351068  1
  Te  Te13  1  0.298635  0.681043  0.148932  1
  Te  Te14  1  0.298635  0.818957  0.648932  1
  Te  Te15  1  0.701365  0.318957  0.851068  1
  O  O16  1  0.621319  0.016072  0.454524  1
  O  O17  1  0.378681  0.516072  0.045476  1
  O  O18  1  0.378681  0.983928  0.545476  1
  O  O19  1  0.621319  0.483928  0.954524  1
  O  O20  1  0.767547  0.176666  0.711941  1
  O  O21  1  0.232453  0.676666  0.788059  1
  O  O22  1  0.232453  0.823334  0.288059  1
  O  O23  1  0.767547  0.323334  0.211941  1
  O  O24  1  0.111210  0.229918  0.843552  1
  O  O25  1  0.888790  0.729918  0.656448  1
  O  O26  1  0.888790  0.770082  0.156448  1
  O  O27  1  0.111210  0.270082  0.343552  1
  O  O28  1  0.239416  0.325696  0.169803  1
  O  O29  1  0.760584  0.825696  0.330197  1
  O  O30  1  0.760584  0.674304  0.830197  1
  O  O31  1  0.239416  0.174304  0.669803  1
  O  O32  1  0.889014  0.285809  0.494536  1
  O  O33  1  0.110986  0.785809  0.005464  1
  O  O34  1  0.110986  0.714191  0.505464  1
  O  O35  1  0.889014  0.214191  0.994536  1
