# generated using pymatgen
data_Y6IrI10
_symmetry_space_group_name_H-M   'P 1'
_cell_length_a   7.75711388
_cell_length_b   9.71145592
_cell_length_c   9.81724805
_cell_angle_alpha   107.27482895
_cell_angle_beta   96.92377660
_cell_angle_gamma   104.53352071
_symmetry_Int_Tables_number   1
_chemical_formula_structural   Y6IrI10
_chemical_formula_sum   'Y6 Ir1 I10'
_cell_volume   668.20711829
_cell_formula_units_Z   1
loop_
 _symmetry_equiv_pos_site_id
 _symmetry_equiv_pos_as_xyz
  1  'x, y, z'
loop_
 _atom_site_type_symbol
 _atom_site_label
 _atom_site_symmetry_multiplicity
 _atom_site_fract_x
 _atom_site_fract_y
 _atom_site_fract_z
 _atom_site_occupancy
  Y  Y0  1  0.115111  0.042417  0.757621  1
  Y  Y1  1  0.884889  0.957583  0.242379  1
  Y  Y2  1  0.969625  0.279372  0.082513  1
  Y  Y3  1  0.030375  0.720628  0.917487  1
  Y  Y4  1  0.350968  0.125836  0.167290  1
  Y  Y5  1  0.649032  0.874164  0.832710  1
  Ir  Ir6  1  0.000000  0.000000  0.000000  1
  I  I7  1  0.350653  0.451587  0.272433  1
  I  I8  1  0.649347  0.548413  0.727567  1
  I  I9  1  0.258866  0.088083  0.462752  1
  I  I10  1  0.741134  0.911917  0.537248  1
  I  I11  1  0.085620  0.372223  0.821443  1
  I  I12  1  0.914380  0.627777  0.178557  1
  I  I13  1  0.453050  0.815484  0.090803  1
  I  I14  1  0.546950  0.184516  0.909197  1
  I  I15  1  0.781112  0.258184  0.345354  1
  I  I16  1  0.218888  0.741816  0.654646  1
