# generated using pymatgen
data_CaRuO3
_symmetry_space_group_name_H-M   'P 1'
_cell_length_a   5.42890289
_cell_length_b   5.59399800
_cell_length_c   7.74820429
_cell_angle_alpha   90.00000000
_cell_angle_beta   90.00000000
_cell_angle_gamma   90.00000000
_symmetry_Int_Tables_number   1
_chemical_formula_structural   CaRuO3
_chemical_formula_sum   'Ca4 Ru4 O12'
_cell_volume   235.30732289
_cell_formula_units_Z   4
loop_
 _symmetry_equiv_pos_site_id
 _symmetry_equiv_pos_as_xyz
  1  'x, y, z'
loop_
 _atom_site_type_symbol
 _atom_site_label
 _atom_site_symmetry_multiplicity
 _atom_site_fract_x
 _atom_site_fract_y
 _atom_site_fract_z
 _atom_site_occupancy
  Ca  Ca0  1  0.514345  0.557244  0.250000  1
  Ca  Ca1  1  0.985655  0.057244  0.250000  1
  Ca  Ca2  1  0.485655  0.442756  0.750000  1
  Ca  Ca3  1  0.014345  0.942756  0.750000  1
  Ru  Ru4  1  0.000000  0.500000  0.000000  1
  Ru  Ru5  1  0.500000  0.000000  0.500000  1
  Ru  Ru6  1  0.000000  0.500000  0.500000  1
  Ru  Ru7  1  0.500000  0.000000  0.000000  1
  O  O8  1  0.803408  0.798599  0.049297  1
  O  O9  1  0.696592  0.298599  0.450703  1
  O  O10  1  0.196592  0.201401  0.549297  1
  O  O11  1  0.303408  0.701401  0.950703  1
  O  O12  1  0.196592  0.201401  0.950703  1
  O  O13  1  0.303408  0.701401  0.549297  1
  O  O14  1  0.803408  0.798599  0.450703  1
  O  O15  1  0.696592  0.298599  0.049297  1
  O  O16  1  0.404005  0.972840  0.250000  1
  O  O17  1  0.095995  0.472840  0.250000  1
  O  O18  1  0.595995  0.027160  0.750000  1
  O  O19  1  0.904005  0.527160  0.750000  1
