# generated using pymatgen
data_PdPb2
_symmetry_space_group_name_H-M   'P 1'
_cell_length_a   5.79296863
_cell_length_b   5.79296863
_cell_length_c   5.79296863
_cell_angle_alpha   105.13810417
_cell_angle_beta   105.13810417
_cell_angle_gamma   118.53574518
_symmetry_Int_Tables_number   1
_chemical_formula_structural   PdPb2
_chemical_formula_sum   'Pd2 Pb4'
_cell_volume   146.80267663
_cell_formula_units_Z   2
loop_
 _symmetry_equiv_pos_site_id
 _symmetry_equiv_pos_as_xyz
  1  'x, y, z'
loop_
 _atom_site_type_symbol
 _atom_site_label
 _atom_site_symmetry_multiplicity
 _atom_site_fract_x
 _atom_site_fract_y
 _atom_site_fract_z
 _atom_site_occupancy
  Pd  Pd0  1  0.750000  0.750000  0.000000  1
  Pd  Pd1  1  0.250000  0.250000  0.000000  1
  Pb  Pb2  1  0.663279  0.836721  0.500000  1
  Pb  Pb3  1  0.836721  0.336721  0.173442  1
  Pb  Pb4  1  0.336721  0.163279  0.500000  1
  Pb  Pb5  1  0.163279  0.663279  0.826557  1
