# generated using pymatgen
data_La4Bi2S9
_symmetry_space_group_name_H-M   'P 1'
_cell_length_a   4.04586456
_cell_length_b   12.99345009
_cell_length_c   28.58946657
_cell_angle_alpha   90.00000000
_cell_angle_beta   90.00000000
_cell_angle_gamma   90.00000000
_symmetry_Int_Tables_number   1
_chemical_formula_structural   La4Bi2S9
_chemical_formula_sum   'La16 Bi8 S36'
_cell_volume   1502.94080235
_cell_formula_units_Z   4
loop_
 _symmetry_equiv_pos_site_id
 _symmetry_equiv_pos_as_xyz
  1  'x, y, z'
loop_
 _atom_site_type_symbol
 _atom_site_label
 _atom_site_symmetry_multiplicity
 _atom_site_fract_x
 _atom_site_fract_y
 _atom_site_fract_z
 _atom_site_occupancy
  La  La0  1  0.250000  0.077127  0.806404  1
  La  La1  1  0.750000  0.922873  0.193596  1
  La  La2  1  0.750000  0.577127  0.693596  1
  La  La3  1  0.250000  0.422873  0.306404  1
  La  La4  1  0.250000  0.743024  0.053018  1
  La  La5  1  0.750000  0.256976  0.946982  1
  La  La6  1  0.750000  0.243024  0.446982  1
  La  La7  1  0.250000  0.756976  0.553018  1
  La  La8  1  0.250000  0.739911  0.821459  1
  La  La9  1  0.750000  0.260089  0.178541  1
  La  La10  1  0.750000  0.239911  0.678541  1
  La  La11  1  0.250000  0.760089  0.321459  1
  La  La12  1  0.250000  0.895664  0.687046  1
  La  La13  1  0.750000  0.104336  0.312954  1
  La  La14  1  0.750000  0.395665  0.812954  1
  La  La15  1  0.250000  0.604336  0.187046  1
  Bi  Bi16  1  0.250000  0.559420  0.934866  1
  Bi  Bi17  1  0.750000  0.440580  0.065134  1
  Bi  Bi18  1  0.750000  0.059420  0.565134  1
  Bi  Bi19  1  0.250000  0.940580  0.434866  1
  Bi  Bi20  1  0.250000  0.426980  0.559525  1
  Bi  Bi21  1  0.750000  0.573020  0.440475  1
  Bi  Bi22  1  0.750000  0.926980  0.940475  1
  Bi  Bi23  1  0.250000  0.073020  0.059525  1
  S  S24  1  0.250000  0.687141  0.648101  1
  S  S25  1  0.750000  0.312859  0.351899  1
  S  S26  1  0.750000  0.187141  0.851899  1
  S  S27  1  0.250000  0.812859  0.148101  1
  S  S28  1  0.250000  0.273334  0.754287  1
  S  S29  1  0.750000  0.726666  0.245713  1
  S  S30  1  0.750000  0.773334  0.745713  1
  S  S31  1  0.250000  0.226666  0.254287  1
  S  S32  1  0.250000  0.409693  0.656188  1
  S  S33  1  0.750000  0.590307  0.343812  1
  S  S34  1  0.750000  0.909693  0.843812  1
  S  S35  1  0.250000  0.090307  0.156188  1
  S  S36  1  0.250000  0.375934  0.887065  1
  S  S37  1  0.750000  0.624066  0.112935  1
  S  S38  1  0.250000  0.096464  0.957095  1
  S  S39  1  0.750000  0.875934  0.612935  1
  S  S40  1  0.250000  0.539291  0.768810  1
  S  S41  1  0.750000  0.460709  0.231190  1
  S  S42  1  0.750000  0.039291  0.731190  1
  S  S43  1  0.250000  0.960709  0.268810  1
  S  S44  1  0.250000  0.710632  0.441786  1
  S  S45  1  0.750000  0.289368  0.558214  1
  S  S46  1  0.750000  0.210632  0.058214  1
  S  S47  1  0.250000  0.789368  0.941786  1
  S  S48  1  0.250000  0.112234  0.497151  1
  S  S49  1  0.750000  0.887766  0.502849  1
  S  S50  1  0.750000  0.612234  0.002849  1
  S  S51  1  0.250000  0.387766  0.997151  1
  S  S52  1  0.250000  0.394996  0.134000  1
  S  S53  1  0.750000  0.605004  0.866000  1
  S  S54  1  0.750000  0.894996  0.366000  1
  S  S55  1  0.250000  0.105004  0.634000  1
  S  S56  1  0.250000  0.403536  0.457095  1
  S  S57  1  0.750000  0.596464  0.542905  1
  S  S58  1  0.750000  0.903536  0.042905  1
  S  S59  1  0.250000  0.124066  0.387065  1
