# generated using pymatgen
data_NaAl6Fe3Si6B3O30F
_symmetry_space_group_name_H-M   'P 1'
_cell_length_a   9.56705378
_cell_length_b   9.56705378
_cell_length_c   9.56705378
_cell_angle_alpha   113.73276086
_cell_angle_beta   113.73276086
_cell_angle_gamma   113.73276086
_symmetry_Int_Tables_number   1
_chemical_formula_structural   NaAl6Fe3Si6B3O30F
_chemical_formula_sum   'Na1 Al6 Fe3 Si6 B3 O30 F1'
_cell_volume   542.38778006
_cell_formula_units_Z   1
loop_
 _symmetry_equiv_pos_site_id
 _symmetry_equiv_pos_as_xyz
  1  'x, y, z'
loop_
 _atom_site_type_symbol
 _atom_site_label
 _atom_site_symmetry_multiplicity
 _atom_site_fract_x
 _atom_site_fract_y
 _atom_site_fract_z
 _atom_site_occupancy
  Na  Na0  1  0.218357  0.218357  0.218357  1
  Al  Al1  1  0.563730  0.345746  0.904514  1
  Al  Al2  1  0.345746  0.904514  0.563730  1
  Al  Al3  1  0.563730  0.904514  0.345746  1
  Al  Al4  1  0.345746  0.563730  0.904514  1
  Al  Al5  1  0.904514  0.563730  0.345746  1
  Al  Al6  1  0.904514  0.345746  0.563730  1
  Fe  Fe7  1  0.549067  0.549067  0.754782  1
  Fe  Fe8  1  0.754782  0.549067  0.549067  1
  Fe  Fe9  1  0.549067  0.754782  0.549067  1
  Si  Si10  1  0.806005  0.189269  0.996565  1
  Si  Si11  1  0.189269  0.996565  0.806005  1
  Si  Si12  1  0.996565  0.189269  0.806005  1
  Si  Si13  1  0.806005  0.996565  0.189269  1
  Si  Si14  1  0.189269  0.806005  0.996565  1
  Si  Si15  1  0.996565  0.806005  0.189269  1
  B  B16  1  0.564909  0.232341  0.564909  1
  B  B17  1  0.564909  0.564909  0.232341  1
  B  B18  1  0.232341  0.564909  0.564909  1
  O  O19  1  0.650825  0.501178  0.170898  1
  O  O20  1  0.170898  0.650825  0.501178  1
  O  O21  1  0.501178  0.170898  0.650825  1
  O  O22  1  0.501178  0.650825  0.170898  1
  O  O23  1  0.170898  0.501178  0.650825  1
  O  O24  1  0.650825  0.170898  0.501178  1
  O  O25  1  0.361252  0.075265  0.788494  1
  O  O26  1  0.788494  0.361252  0.075265  1
  O  O27  1  0.075265  0.788494  0.361252  1
  O  O28  1  0.075265  0.361252  0.788494  1
  O  O29  1  0.788494  0.075265  0.361252  1
  O  O30  1  0.361252  0.788494  0.075265  1
  O  O31  1  0.969024  0.770077  0.585215  1
  O  O32  1  0.585215  0.969024  0.770077  1
  O  O33  1  0.770077  0.585215  0.969024  1
  O  O34  1  0.770077  0.969024  0.585215  1
  O  O35  1  0.585215  0.770077  0.969024  1
  O  O36  1  0.545674  0.362380  0.545674  1
  O  O37  1  0.362380  0.545674  0.545674  1
  O  O38  1  0.545674  0.545674  0.362380  1
  O  O39  1  0.791889  0.391946  0.391946  1
  O  O40  1  0.391946  0.391946  0.791889  1
  O  O41  1  0.391946  0.791889  0.391946  1
  O  O42  1  0.166435  0.886706  0.166435  1
  O  O43  1  0.886706  0.166435  0.166435  1
  O  O44  1  0.166435  0.166435  0.886706  1
  O  O45  1  0.261465  0.987629  0.987629  1
  O  O46  1  0.987629  0.987629  0.261465  1
  O  O47  1  0.987629  0.261465  0.987629  1
  O  O48  1  0.969024  0.585215  0.770077  1
  F  F49  1  0.769718  0.769718  0.769718  1
