# generated using pymatgen
data_LaAgGe
_symmetry_space_group_name_H-M   'P 1'
_cell_length_a   4.60502475
_cell_length_b   4.60502475
_cell_length_c   7.97209570
_cell_angle_alpha   90.00000000
_cell_angle_beta   90.00000000
_cell_angle_gamma   120.00000000
_symmetry_Int_Tables_number   1
_chemical_formula_structural   LaAgGe
_chemical_formula_sum   'La2 Ag2 Ge2'
_cell_volume   146.40876354
_cell_formula_units_Z   2
loop_
 _symmetry_equiv_pos_site_id
 _symmetry_equiv_pos_as_xyz
  1  'x, y, z'
loop_
 _atom_site_type_symbol
 _atom_site_label
 _atom_site_symmetry_multiplicity
 _atom_site_fract_x
 _atom_site_fract_y
 _atom_site_fract_z
 _atom_site_occupancy
  La  La0  1  0.000000  0.000000  0.243555  1
  La  La1  1  0.000000  0.000000  0.743555  1
  Ag  Ag2  1  0.666667  0.333333  0.507054  1
  Ag  Ag3  1  0.333333  0.666667  0.007054  1
  Ge  Ge4  1  0.666667  0.333333  0.958991  1
  Ge  Ge5  1  0.333333  0.666667  0.458991  1
