# generated using pymatgen
data_RbAuBr3
_symmetry_space_group_name_H-M   'P 1'
_cell_length_a   7.48486778
_cell_length_b   7.48486778
_cell_length_c   8.50062918
_cell_angle_alpha   66.22607269
_cell_angle_beta   113.77392731
_cell_angle_gamma   120.03398860
_symmetry_Int_Tables_number   1
_chemical_formula_structural   RbAuBr3
_chemical_formula_sum   'Rb2 Au2 Br6'
_cell_volume   364.91374183
_cell_formula_units_Z   2
loop_
 _symmetry_equiv_pos_site_id
 _symmetry_equiv_pos_as_xyz
  1  'x, y, z'
loop_
 _atom_site_type_symbol
 _atom_site_label
 _atom_site_symmetry_multiplicity
 _atom_site_fract_x
 _atom_site_fract_y
 _atom_site_fract_z
 _atom_site_occupancy
  Rb  Rb0  1  0.274186  0.725814  0.770460  1
  Rb  Rb1  1  0.725814  0.274186  0.229540  1
  Au  Au2  1  0.000000  0.000000  0.000000  1
  Au  Au3  1  0.500000  0.500000  0.500000  1
  Br  Br4  1  0.198840  0.272692  0.177404  1
  Br  Br5  1  0.272692  0.198840  0.822596  1
  Br  Br6  1  0.801160  0.727308  0.822596  1
  Br  Br7  1  0.727308  0.801160  0.177404  1
  Br  Br8  1  0.713288  0.286712  0.634932  1
  Br  Br9  1  0.286712  0.713288  0.365068  1
