# generated using pymatgen
data_PuSi2
_symmetry_space_group_name_H-M   'P 1'
_cell_length_a   7.57556977
_cell_length_b   7.57556977
_cell_length_c   7.57556977
_cell_angle_alpha   149.38254183
_cell_angle_beta   149.38254183
_cell_angle_gamma   43.84852640
_symmetry_Int_Tables_number   1
_chemical_formula_structural   PuSi2
_chemical_formula_sum   'Pu2 Si4'
_cell_volume   112.45451779
_cell_formula_units_Z   2
loop_
 _symmetry_equiv_pos_site_id
 _symmetry_equiv_pos_as_xyz
  1  'x, y, z'
loop_
 _atom_site_type_symbol
 _atom_site_label
 _atom_site_symmetry_multiplicity
 _atom_site_fract_x
 _atom_site_fract_y
 _atom_site_fract_z
 _atom_site_occupancy
  Pu  Pu0  1  0.500000  0.500000  0.000000  1
  Pu  Pu1  1  0.250000  0.750000  0.500000  1
  Si  Si2  1  0.832737  0.332737  0.500000  1
  Si  Si3  1  0.082737  0.082737  0.000000  1
  Si  Si4  1  0.667263  0.167263  0.500000  1
  Si  Si5  1  0.917263  0.917263  0.000000  1
