# generated using pymatgen
data_Mg5Pd2
_symmetry_space_group_name_H-M   'P 1'
_cell_length_a   8.80358955
_cell_length_b   8.80358955
_cell_length_c   8.05581435
_cell_angle_alpha   90.00000000
_cell_angle_beta   90.00000000
_cell_angle_gamma   120.00000000
_symmetry_Int_Tables_number   1
_chemical_formula_structural   Mg5Pd2
_chemical_formula_sum   'Mg20 Pd8'
_cell_volume   540.70408845
_cell_formula_units_Z   4
loop_
 _symmetry_equiv_pos_site_id
 _symmetry_equiv_pos_as_xyz
  1  'x, y, z'
loop_
 _atom_site_type_symbol
 _atom_site_label
 _atom_site_symmetry_multiplicity
 _atom_site_fract_x
 _atom_site_fract_y
 _atom_site_fract_z
 _atom_site_occupancy
  Mg  Mg0  1  0.807418  0.614835  0.561633  1
  Mg  Mg1  1  0.807418  0.192582  0.561633  1
  Mg  Mg2  1  0.385165  0.192582  0.561633  1
  Mg  Mg3  1  0.192582  0.385165  0.438367  1
  Mg  Mg4  1  0.192582  0.807418  0.438367  1
  Mg  Mg5  1  0.614835  0.807418  0.438367  1
  Mg  Mg6  1  0.192582  0.385165  0.061633  1
  Mg  Mg7  1  0.192582  0.807418  0.061633  1
  Mg  Mg8  1  0.614835  0.807418  0.061633  1
  Mg  Mg9  1  0.807418  0.614835  0.938367  1
  Mg  Mg10  1  0.807418  0.192582  0.938367  1
  Mg  Mg11  1  0.385165  0.192582  0.938367  1
  Mg  Mg12  1  0.463900  0.927800  0.750000  1
  Mg  Mg13  1  0.463900  0.536100  0.750000  1
  Mg  Mg14  1  0.072200  0.536100  0.750000  1
  Mg  Mg15  1  0.536100  0.072200  0.250000  1
  Mg  Mg16  1  0.536100  0.463900  0.250000  1
  Mg  Mg17  1  0.927800  0.463900  0.250000  1
  Mg  Mg18  1  0.000000  0.000000  0.500000  1
  Mg  Mg19  1  0.000000  0.000000  0.000000  1
  Pd  Pd20  1  0.123818  0.247636  0.750000  1
  Pd  Pd21  1  0.123818  0.876182  0.750000  1
  Pd  Pd22  1  0.752364  0.876182  0.750000  1
  Pd  Pd23  1  0.876182  0.752364  0.250000  1
  Pd  Pd24  1  0.876182  0.123818  0.250000  1
  Pd  Pd25  1  0.247636  0.123818  0.250000  1
  Pd  Pd26  1  0.666667  0.333333  0.750000  1
  Pd  Pd27  1  0.333333  0.666667  0.250000  1
