# generated using pymatgen
data_Sc4NCl6
_symmetry_space_group_name_H-M   'P 1'
_cell_length_a   3.50663832
_cell_length_b   11.63054837
_cell_length_c   12.13676747
_cell_angle_alpha   90.00000000
_cell_angle_beta   90.00000000
_cell_angle_gamma   90.00000000
_symmetry_Int_Tables_number   1
_chemical_formula_structural   Sc4NCl6
_chemical_formula_sum   'Sc8 N2 Cl12'
_cell_volume   494.98746097
_cell_formula_units_Z   2
loop_
 _symmetry_equiv_pos_site_id
 _symmetry_equiv_pos_as_xyz
  1  'x, y, z'
loop_
 _atom_site_type_symbol
 _atom_site_label
 _atom_site_symmetry_multiplicity
 _atom_site_fract_x
 _atom_site_fract_y
 _atom_site_fract_z
 _atom_site_occupancy
  Sc  Sc0  1  0.000000  0.101261  0.077614  1
  Sc  Sc1  1  0.000000  0.898739  0.922386  1
  Sc  Sc2  1  0.000000  0.601261  0.422386  1
  Sc  Sc3  1  0.000000  0.398739  0.577614  1
  Sc  Sc4  1  0.500000  0.119018  0.857379  1
  Sc  Sc5  1  0.500000  0.880982  0.142621  1
  Sc  Sc6  1  0.500000  0.619018  0.642621  1
  Sc  Sc7  1  0.500000  0.380982  0.357379  1
  N  N8  1  0.500000  0.000000  0.000000  1
  N  N9  1  0.500000  0.500000  0.500000  1
  Cl  Cl10  1  0.500000  0.265649  0.675670  1
  Cl  Cl11  1  0.500000  0.734351  0.324330  1
  Cl  Cl12  1  0.500000  0.765649  0.824330  1
  Cl  Cl13  1  0.500000  0.234351  0.175670  1
  Cl  Cl14  1  0.000000  0.258576  0.928957  1
  Cl  Cl15  1  0.000000  0.741424  0.071043  1
  Cl  Cl16  1  0.000000  0.484802  0.242441  1
  Cl  Cl17  1  0.000000  0.515198  0.757559  1
  Cl  Cl18  1  0.000000  0.984802  0.257559  1
  Cl  Cl19  1  0.000000  0.015198  0.742441  1
  Cl  Cl20  1  0.000000  0.241424  0.428957  1
  Cl  Cl21  1  0.000000  0.758576  0.571043  1
