# generated using pymatgen
data_Ce(CoB)4
_symmetry_space_group_name_H-M   'P 1'
_cell_length_a   5.04371942
_cell_length_b   5.04371942
_cell_length_c   7.03329005
_cell_angle_alpha   90.00000000
_cell_angle_beta   90.00000000
_cell_angle_gamma   90.00000000
_symmetry_Int_Tables_number   1
_chemical_formula_structural   Ce(CoB)4
_chemical_formula_sum   'Ce2 Co8 B8'
_cell_volume   178.92060821
_cell_formula_units_Z   2
loop_
 _symmetry_equiv_pos_site_id
 _symmetry_equiv_pos_as_xyz
  1  'x, y, z'
loop_
 _atom_site_type_symbol
 _atom_site_label
 _atom_site_symmetry_multiplicity
 _atom_site_fract_x
 _atom_site_fract_y
 _atom_site_fract_z
 _atom_site_occupancy
  Ce  Ce0  1  0.500000  0.500000  0.000000  1
  Ce  Ce1  1  0.000000  0.000000  0.500000  1
  Co  Co2  1  0.747862  0.500000  0.637518  1
  Co  Co3  1  0.252138  0.500000  0.637518  1
  Co  Co4  1  0.500000  0.747862  0.362482  1
  Co  Co5  1  0.752138  0.000000  0.862482  1
  Co  Co6  1  0.247862  0.000000  0.862482  1
  Co  Co7  1  0.000000  0.752138  0.137518  1
  Co  Co8  1  0.000000  0.247862  0.137518  1
  Co  Co9  1  0.500000  0.252138  0.362482  1
  B  B10  1  0.500000  0.826783  0.658235  1
  B  B11  1  0.673217  0.000000  0.158235  1
  B  B12  1  0.326783  0.000000  0.158235  1
  B  B13  1  0.000000  0.673217  0.841765  1
  B  B14  1  0.000000  0.326783  0.841765  1
  B  B15  1  0.500000  0.173217  0.658235  1
  B  B16  1  0.826783  0.500000  0.341765  1
  B  B17  1  0.173217  0.500000  0.341765  1
