# generated using pymatgen
data_CeNiSn
_symmetry_space_group_name_H-M   'P 1'
_cell_length_a   4.58394530
_cell_length_b   7.40497125
_cell_length_c   7.55804608
_cell_angle_alpha   90.00000000
_cell_angle_beta   90.00000000
_cell_angle_gamma   90.00000000
_symmetry_Int_Tables_number   1
_chemical_formula_structural   CeNiSn
_chemical_formula_sum   'Ce4 Ni4 Sn4'
_cell_volume   256.55018885
_cell_formula_units_Z   4
loop_
 _symmetry_equiv_pos_site_id
 _symmetry_equiv_pos_as_xyz
  1  'x, y, z'
loop_
 _atom_site_type_symbol
 _atom_site_label
 _atom_site_symmetry_multiplicity
 _atom_site_fract_x
 _atom_site_fract_y
 _atom_site_fract_z
 _atom_site_occupancy
  Ce  Ce0  1  0.250000  0.479697  0.197574  1
  Ce  Ce1  1  0.750000  0.520303  0.802426  1
  Ce  Ce2  1  0.250000  0.979697  0.302426  1
  Ce  Ce3  1  0.750000  0.020303  0.697574  1
  Ni  Ni4  1  0.750000  0.299488  0.421926  1
  Ni  Ni5  1  0.250000  0.200512  0.921926  1
  Ni  Ni6  1  0.750000  0.799488  0.078074  1
  Ni  Ni7  1  0.250000  0.700512  0.578074  1
  Sn  Sn8  1  0.250000  0.316499  0.592113  1
  Sn  Sn9  1  0.750000  0.183501  0.092113  1
  Sn  Sn10  1  0.250000  0.816499  0.907887  1
  Sn  Sn11  1  0.750000  0.683501  0.407887  1
