# generated using pymatgen
data_AsPd5
_symmetry_space_group_name_H-M   'P 1'
_cell_length_a   4.82103161
_cell_length_b   4.82103161
_cell_length_c   8.59702884
_cell_angle_alpha   84.96440383
_cell_angle_beta   95.03559617
_cell_angle_gamma   71.23711581
_symmetry_Int_Tables_number   1
_chemical_formula_structural   AsPd5
_chemical_formula_sum   'As2 Pd10'
_cell_volume   187.03534947
_cell_formula_units_Z   2
loop_
 _symmetry_equiv_pos_site_id
 _symmetry_equiv_pos_as_xyz
  1  'x, y, z'
loop_
 _atom_site_type_symbol
 _atom_site_label
 _atom_site_symmetry_multiplicity
 _atom_site_fract_x
 _atom_site_fract_y
 _atom_site_fract_z
 _atom_site_occupancy
  As  As0  1  0.772655  0.227345  0.787317  1
  As  As1  1  0.227345  0.772655  0.212683  1
  Pd  Pd2  1  0.275953  0.203243  0.674116  1
  Pd  Pd3  1  0.203243  0.275953  0.325884  1
  Pd  Pd4  1  0.796757  0.724047  0.674116  1
  Pd  Pd5  1  0.724047  0.796757  0.325884  1
  Pd  Pd6  1  0.354190  0.645810  0.852014  1
  Pd  Pd7  1  0.645810  0.354190  0.147986  1
  Pd  Pd8  1  0.256735  0.743265  0.506873  1
  Pd  Pd9  1  0.743265  0.256735  0.493127  1
  Pd  Pd10  1  0.815896  0.815896  0.000000  1
  Pd  Pd11  1  0.184104  0.184104  0.000000  1
