# generated using pymatgen
data_U(MnGe)2
_symmetry_space_group_name_H-M   'P 1'
_cell_length_a   5.94568864
_cell_length_b   5.94568864
_cell_length_c   5.94568864
_cell_angle_alpha   140.81074336
_cell_angle_beta   140.81074336
_cell_angle_gamma   56.62434454
_symmetry_Int_Tables_number   1
_chemical_formula_structural   U(MnGe)2
_chemical_formula_sum   'U1 Mn2 Ge2'
_cell_volume   83.24648604
_cell_formula_units_Z   1
loop_
 _symmetry_equiv_pos_site_id
 _symmetry_equiv_pos_as_xyz
  1  'x, y, z'
loop_
 _atom_site_type_symbol
 _atom_site_label
 _atom_site_symmetry_multiplicity
 _atom_site_fract_x
 _atom_site_fract_y
 _atom_site_fract_z
 _atom_site_occupancy
  U  U0  1  0.000000  0.000000  0.000000  1
  Mn  Mn1  1  0.750000  0.250000  0.500000  1
  Mn  Mn2  1  0.250000  0.750000  0.500000  1
  Ge  Ge3  1  0.619917  0.619917  0.000000  1
  Ge  Ge4  1  0.380083  0.380083  0.000000  1
