# generated using pymatgen
data_Sr2CaTlCu2O7
_symmetry_space_group_name_H-M   'P 1'
_cell_length_a   3.78195810
_cell_length_b   3.78195810
_cell_length_c   12.29058513
_cell_angle_alpha   90.00000000
_cell_angle_beta   90.00000000
_cell_angle_gamma   90.00000000
_symmetry_Int_Tables_number   1
_chemical_formula_structural   Sr2CaTlCu2O7
_chemical_formula_sum   'Sr2 Ca1 Tl1 Cu2 O7'
_cell_volume   175.79478413
_cell_formula_units_Z   1
loop_
 _symmetry_equiv_pos_site_id
 _symmetry_equiv_pos_as_xyz
  1  'x, y, z'
loop_
 _atom_site_type_symbol
 _atom_site_label
 _atom_site_symmetry_multiplicity
 _atom_site_fract_x
 _atom_site_fract_y
 _atom_site_fract_z
 _atom_site_occupancy
  Sr  Sr0  1  0.500000  0.500000  0.209065  1
  Sr  Sr1  1  0.500000  0.500000  0.790935  1
  Ca  Ca2  1  0.500000  0.500000  0.500000  1
  Tl  Tl3  1  0.000000  0.000000  0.000000  1
  Cu  Cu4  1  0.000000  0.000000  0.356823  1
  Cu  Cu5  1  0.000000  0.000000  0.643177  1
  O  O6  1  0.500000  0.000000  0.628136  1
  O  O7  1  0.000000  0.500000  0.628136  1
  O  O8  1  0.500000  0.000000  0.371864  1
  O  O9  1  0.000000  0.500000  0.371864  1
  O  O10  1  0.000000  0.000000  0.827903  1
  O  O11  1  0.000000  0.000000  0.172097  1
  O  O12  1  0.500000  0.500000  0.000000  1
