# generated using pymatgen
data_Ca2PbAu2
_symmetry_space_group_name_H-M   'P 1'
_cell_length_a   8.27664741
_cell_length_b   8.27664741
_cell_length_c   3.75126420
_cell_angle_alpha   90.00000000
_cell_angle_beta   90.00000000
_cell_angle_gamma   90.00000000
_symmetry_Int_Tables_number   1
_chemical_formula_structural   Ca2PbAu2
_chemical_formula_sum   'Ca4 Pb2 Au4'
_cell_volume   256.97244767
_cell_formula_units_Z   2
loop_
 _symmetry_equiv_pos_site_id
 _symmetry_equiv_pos_as_xyz
  1  'x, y, z'
loop_
 _atom_site_type_symbol
 _atom_site_label
 _atom_site_symmetry_multiplicity
 _atom_site_fract_x
 _atom_site_fract_y
 _atom_site_fract_z
 _atom_site_occupancy
  Ca  Ca0  1  0.672690  0.172690  0.500000  1
  Ca  Ca1  1  0.172690  0.327310  0.500000  1
  Ca  Ca2  1  0.827310  0.672690  0.500000  1
  Ca  Ca3  1  0.327310  0.827310  0.500000  1
  Pb  Pb4  1  0.000000  0.000000  0.000000  1
  Pb  Pb5  1  0.500000  0.500000  0.000000  1
  Au  Au6  1  0.123070  0.623070  0.000000  1
  Au  Au7  1  0.623070  0.876930  0.000000  1
  Au  Au8  1  0.376930  0.123070  0.000000  1
  Au  Au9  1  0.876930  0.376930  0.000000  1
