# generated using pymatgen
data_Ca2Sn
_symmetry_space_group_name_H-M   'P 1'
_cell_length_a   5.08442564
_cell_length_b   7.91636901
_cell_length_c   9.61667781
_cell_angle_alpha   90.00000000
_cell_angle_beta   90.00000000
_cell_angle_gamma   90.00000000
_symmetry_Int_Tables_number   1
_chemical_formula_structural   Ca2Sn
_chemical_formula_sum   'Ca8 Sn4'
_cell_volume   387.07310489
_cell_formula_units_Z   4
loop_
 _symmetry_equiv_pos_site_id
 _symmetry_equiv_pos_as_xyz
  1  'x, y, z'
loop_
 _atom_site_type_symbol
 _atom_site_label
 _atom_site_symmetry_multiplicity
 _atom_site_fract_x
 _atom_site_fract_y
 _atom_site_fract_z
 _atom_site_occupancy
  Ca  Ca0  1  0.750000  0.341886  0.070266  1
  Ca  Ca1  1  0.250000  0.658114  0.929734  1
  Ca  Ca2  1  0.750000  0.841886  0.429734  1
  Ca  Ca3  1  0.250000  0.158114  0.570266  1
  Ca  Ca4  1  0.750000  0.476964  0.684818  1
  Ca  Ca5  1  0.250000  0.523036  0.315182  1
  Ca  Ca6  1  0.750000  0.976964  0.815182  1
  Ca  Ca7  1  0.250000  0.023036  0.184818  1
  Sn  Sn8  1  0.750000  0.751077  0.109462  1
  Sn  Sn9  1  0.250000  0.248923  0.890538  1
  Sn  Sn10  1  0.750000  0.251077  0.390538  1
  Sn  Sn11  1  0.250000  0.748923  0.609462  1
