# generated using pymatgen
data_Sc2FeB2Ir5
_symmetry_space_group_name_H-M   'P 1'
_cell_length_a   9.38048527
_cell_length_b   9.38048527
_cell_length_c   3.07685601
_cell_angle_alpha   90.00000000
_cell_angle_beta   90.00000000
_cell_angle_gamma   90.00000000
_symmetry_Int_Tables_number   1
_chemical_formula_structural   Sc2FeB2Ir5
_chemical_formula_sum   'Sc4 Fe2 B4 Ir10'
_cell_volume   270.74334132
_cell_formula_units_Z   2
loop_
 _symmetry_equiv_pos_site_id
 _symmetry_equiv_pos_as_xyz
  1  'x, y, z'
loop_
 _atom_site_type_symbol
 _atom_site_label
 _atom_site_symmetry_multiplicity
 _atom_site_fract_x
 _atom_site_fract_y
 _atom_site_fract_z
 _atom_site_occupancy
  Sc  Sc0  1  0.176436  0.676436  0.000000  1
  Sc  Sc1  1  0.823564  0.323564  0.000000  1
  Sc  Sc2  1  0.323564  0.176436  0.000000  1
  Sc  Sc3  1  0.676436  0.823564  0.000000  1
  Fe  Fe4  1  0.000000  0.000000  0.000000  1
  Fe  Fe5  1  0.500000  0.500000  0.000000  1
  B  B6  1  0.375447  0.875447  0.000000  1
  B  B7  1  0.875447  0.624553  0.000000  1
  B  B8  1  0.124553  0.375447  0.000000  1
  B  B9  1  0.624553  0.124553  0.000000  1
  Ir  Ir10  1  0.500000  0.000000  0.500000  1
  Ir  Ir11  1  0.715687  0.569509  0.500000  1
  Ir  Ir12  1  0.569509  0.284313  0.500000  1
  Ir  Ir13  1  0.430491  0.715687  0.500000  1
  Ir  Ir14  1  0.284313  0.430491  0.500000  1
  Ir  Ir15  1  0.000000  0.500000  0.500000  1
  Ir  Ir16  1  0.930491  0.784313  0.500000  1
  Ir  Ir17  1  0.784313  0.069509  0.500000  1
  Ir  Ir18  1  0.215687  0.930491  0.500000  1
  Ir  Ir19  1  0.069509  0.215687  0.500000  1
