# generated using pymatgen
data_SrCeO3
_symmetry_space_group_name_H-M   'P 1'
_cell_length_a   6.04901633
_cell_length_b   6.20567472
_cell_length_c   8.66780980
_cell_angle_alpha   90.00000000
_cell_angle_beta   90.00000000
_cell_angle_gamma   90.00000000
_symmetry_Int_Tables_number   1
_chemical_formula_structural   SrCeO3
_chemical_formula_sum   'Sr4 Ce4 O12'
_cell_volume   325.37421811
_cell_formula_units_Z   4
loop_
 _symmetry_equiv_pos_site_id
 _symmetry_equiv_pos_as_xyz
  1  'x, y, z'
loop_
 _atom_site_type_symbol
 _atom_site_label
 _atom_site_symmetry_multiplicity
 _atom_site_fract_x
 _atom_site_fract_y
 _atom_site_fract_z
 _atom_site_occupancy
  Sr  Sr0  1  0.988489  0.454113  0.250000  1
  Sr  Sr1  1  0.488489  0.045887  0.750000  1
  Sr  Sr2  1  0.511511  0.954113  0.250000  1
  Sr  Sr3  1  0.011511  0.545887  0.750000  1
  Ce  Ce4  1  0.500000  0.500000  0.500000  1
  Ce  Ce5  1  0.500000  0.500000  0.000000  1
  Ce  Ce6  1  0.000000  0.000000  0.000000  1
  Ce  Ce7  1  0.000000  0.000000  0.500000  1
  O  O8  1  0.394340  0.544285  0.250000  1
  O  O9  1  0.300113  0.800029  0.556504  1
  O  O10  1  0.800113  0.699971  0.443496  1
  O  O11  1  0.699887  0.199971  0.443496  1
  O  O12  1  0.199887  0.300029  0.943496  1
  O  O13  1  0.199887  0.300029  0.556504  1
  O  O14  1  0.800113  0.699971  0.056504  1
  O  O15  1  0.894340  0.955715  0.750000  1
  O  O16  1  0.105660  0.044285  0.250000  1
  O  O17  1  0.699887  0.199971  0.056504  1
  O  O18  1  0.605660  0.455715  0.750000  1
  O  O19  1  0.300113  0.800029  0.943496  1
