# generated using pymatgen
data_Bi2Te2S
_symmetry_space_group_name_H-M   'P 1'
_cell_length_a   10.93124108
_cell_length_b   10.93124108
_cell_length_c   10.93124108
_cell_angle_alpha   22.64577115
_cell_angle_beta   22.64577115
_cell_angle_gamma   22.64577115
_symmetry_Int_Tables_number   1
_chemical_formula_structural   Bi2Te2S
_chemical_formula_sum   'Bi2 Te2 S1'
_cell_volume   169.88262005
_cell_formula_units_Z   1
loop_
 _symmetry_equiv_pos_site_id
 _symmetry_equiv_pos_as_xyz
  1  'x, y, z'
loop_
 _atom_site_type_symbol
 _atom_site_label
 _atom_site_symmetry_multiplicity
 _atom_site_fract_x
 _atom_site_fract_y
 _atom_site_fract_z
 _atom_site_occupancy
  Bi  Bi0  1  0.612114  0.612114  0.612114  1
  Bi  Bi1  1  0.387886  0.387886  0.387886  1
  Te  Te2  1  0.222665  0.222665  0.222665  1
  Te  Te3  1  0.777335  0.777335  0.777335  1
  S  S4  1  0.000000  0.000000  0.000000  1
