# generated using pymatgen
data_SrZnCl4
_symmetry_space_group_name_H-M   'P 1'
_cell_length_a   8.66220613
_cell_length_b   8.66220613
_cell_length_c   8.66220613
_cell_angle_alpha   135.47613961
_cell_angle_beta   135.47613961
_cell_angle_gamma   64.79127979
_symmetry_Int_Tables_number   1
_chemical_formula_structural   SrZnCl4
_chemical_formula_sum   'Sr2 Zn2 Cl8'
_cell_volume   315.05933746
_cell_formula_units_Z   2
loop_
 _symmetry_equiv_pos_site_id
 _symmetry_equiv_pos_as_xyz
  1  'x, y, z'
loop_
 _atom_site_type_symbol
 _atom_site_label
 _atom_site_symmetry_multiplicity
 _atom_site_fract_x
 _atom_site_fract_y
 _atom_site_fract_z
 _atom_site_occupancy
  Sr  Sr0  1  0.500000  0.500000  0.000000  1
  Sr  Sr1  1  0.250000  0.750000  0.500000  1
  Zn  Zn2  1  0.750000  0.250000  0.500000  1
  Zn  Zn3  1  0.000000  0.000000  0.000000  1
  Cl  Cl4  1  0.237043  0.340511  0.415697  1
  Cl  Cl5  1  0.571346  0.487043  0.396532  1
  Cl  Cl6  1  0.512957  0.909489  0.084303  1
  Cl  Cl7  1  0.659489  0.075186  0.896532  1
  Cl  Cl8  1  0.090511  0.174814  0.603468  1
  Cl  Cl9  1  0.825186  0.428654  0.915697  1
  Cl  Cl10  1  0.178654  0.762957  0.103468  1
  Cl  Cl11  1  0.924814  0.821346  0.584303  1
