# generated using pymatgen
data_SbXe2F9
_symmetry_space_group_name_H-M   'P 1'
_cell_length_a   8.62127071
_cell_length_b   8.62127071
_cell_length_c   10.34177644
_cell_angle_alpha   55.44475350
_cell_angle_beta   124.55524650
_cell_angle_gamma   121.97311387
_symmetry_Int_Tables_number   1
_chemical_formula_structural   SbXe2F9
_chemical_formula_sum   'Sb2 Xe4 F18'
_cell_volume   496.30217716
_cell_formula_units_Z   2
loop_
 _symmetry_equiv_pos_site_id
 _symmetry_equiv_pos_as_xyz
  1  'x, y, z'
loop_
 _atom_site_type_symbol
 _atom_site_label
 _atom_site_symmetry_multiplicity
 _atom_site_fract_x
 _atom_site_fract_y
 _atom_site_fract_z
 _atom_site_occupancy
  Sb  Sb0  1  0.776506  0.967588  0.806402  1
  Sb  Sb1  1  0.032412  0.223494  0.306402  1
  Xe  Xe2  1  0.669525  0.512577  0.335617  1
  Xe  Xe3  1  0.487423  0.330475  0.835617  1
  Xe  Xe4  1  0.107240  0.695983  0.753172  1
  Xe  Xe5  1  0.304017  0.892760  0.253172  1
  F  F6  1  0.897995  0.790125  0.866160  1
  F  F7  1  0.209875  0.102005  0.366160  1
  F  F8  1  0.524007  0.764916  0.771738  1
  F  F9  1  0.235084  0.475993  0.271738  1
  F  F10  1  0.729641  0.066401  0.571972  1
  F  F11  1  0.933599  0.270359  0.071972  1
  F  F12  1  0.168463  0.692230  0.417498  1
  F  F13  1  0.307770  0.831537  0.917498  1
  F  F14  1  0.473992  0.105222  0.086985  1
  F  F15  1  0.894778  0.526008  0.586985  1
  F  F16  1  0.532718  0.535082  0.620032  1
  F  F17  1  0.464918  0.467282  0.120032  1
  F  F18  1  0.858579  0.347860  0.246757  1
  F  F19  1  0.652140  0.141421  0.746757  1
  F  F20  1  0.134366  0.177799  0.541606  1
  F  F21  1  0.822201  0.865634  0.041606  1
  F  F22  1  0.836346  0.966795  0.346262  1
  F  F23  1  0.033205  0.163654  0.846262  1
