# generated using pymatgen
data_Re2PCl13
_symmetry_space_group_name_H-M   'P 1'
_cell_length_a   9.18539341
_cell_length_b   11.17189989
_cell_length_c   9.73153249
_cell_angle_alpha   90.00000000
_cell_angle_beta   98.32702163
_cell_angle_gamma   90.00000000
_symmetry_Int_Tables_number   1
_chemical_formula_structural   Re2PCl13
_chemical_formula_sum   'Re4 P2 Cl26'
_cell_volume   988.10528422
_cell_formula_units_Z   2
loop_
 _symmetry_equiv_pos_site_id
 _symmetry_equiv_pos_as_xyz
  1  'x, y, z'
loop_
 _atom_site_type_symbol
 _atom_site_label
 _atom_site_symmetry_multiplicity
 _atom_site_fract_x
 _atom_site_fract_y
 _atom_site_fract_z
 _atom_site_occupancy
  Re  Re0  1  0.829466  0.250000  0.907810  1
  Re  Re1  1  0.170534  0.750000  0.092190  1
  Re  Re2  1  0.680233  0.250000  0.133846  1
  Re  Re3  1  0.319767  0.750000  0.866154  1
  P  P4  1  0.261886  0.250000  0.491020  1
  P  P5  1  0.738114  0.750000  0.508980  1
  Cl  Cl6  1  0.808319  0.607102  0.421482  1
  Cl  Cl7  1  0.191681  0.107102  0.578518  1
  Cl  Cl8  1  0.437818  0.750000  0.105667  1
  Cl  Cl9  1  0.562182  0.250000  0.894333  1
  Cl  Cl10  1  0.150833  0.906440  0.917284  1
  Cl  Cl11  1  0.849167  0.406440  0.082716  1
  Cl  Cl12  1  0.849167  0.093560  0.082716  1
  Cl  Cl13  1  0.150833  0.593560  0.917284  1
  Cl  Cl14  1  0.202683  0.750000  0.636469  1
  Cl  Cl15  1  0.797317  0.250000  0.363531  1
  Cl  Cl16  1  0.479396  0.898834  0.817815  1
  Cl  Cl17  1  0.520604  0.398834  0.182185  1
  Cl  Cl18  1  0.520604  0.101166  0.182185  1
  Cl  Cl19  1  0.479396  0.601166  0.817815  1
  Cl  Cl20  1  0.915586  0.750000  0.072068  1
  Cl  Cl21  1  0.084414  0.250000  0.927932  1
  Cl  Cl22  1  0.190567  0.897605  0.261620  1
  Cl  Cl23  1  0.809433  0.397605  0.738380  1
  Cl  Cl24  1  0.809433  0.102395  0.738380  1
  Cl  Cl25  1  0.190567  0.602395  0.261620  1
  Cl  Cl26  1  0.811698  0.750000  0.707406  1
  Cl  Cl27  1  0.188302  0.250000  0.292594  1
  Cl  Cl28  1  0.522897  0.750000  0.480436  1
  Cl  Cl29  1  0.477103  0.250000  0.519564  1
  Cl  Cl30  1  0.808319  0.892898  0.421482  1
  Cl  Cl31  1  0.191681  0.392898  0.578518  1
