# generated using pymatgen
data_Ca11Bi10
_symmetry_space_group_name_H-M   'P 1'
_cell_length_a   12.50909874
_cell_length_b   12.50909874
_cell_length_c   12.50909874
_cell_angle_alpha   120.71853917
_cell_angle_beta   120.71853917
_cell_angle_gamma   88.75989494
_symmetry_Int_Tables_number   1
_chemical_formula_structural   Ca11Bi10
_chemical_formula_sum   'Ca22 Bi20'
_cell_volume   1368.70603348
_cell_formula_units_Z   2
loop_
 _symmetry_equiv_pos_site_id
 _symmetry_equiv_pos_as_xyz
  1  'x, y, z'
loop_
 _atom_site_type_symbol
 _atom_site_label
 _atom_site_symmetry_multiplicity
 _atom_site_fract_x
 _atom_site_fract_y
 _atom_site_fract_z
 _atom_site_occupancy
  Ca  Ca0  1  0.441414  0.190750  0.250663  1
  Ca  Ca1  1  0.190750  0.940087  0.749337  1
  Ca  Ca2  1  0.190750  0.441414  0.250663  1
  Ca  Ca3  1  0.558586  0.809250  0.749337  1
  Ca  Ca4  1  0.059913  0.809250  0.250663  1
  Ca  Ca5  1  0.809250  0.059913  0.250663  1
  Ca  Ca6  1  0.809250  0.558586  0.749337  1
  Ca  Ca7  1  0.940087  0.190750  0.749337  1
  Ca  Ca8  1  0.160079  0.160079  0.320158  1
  Ca  Ca9  1  0.160079  0.839921  1.000000  1
  Ca  Ca10  1  0.839921  0.160079  0.000000  1
  Ca  Ca11  1  0.839921  0.839921  0.679842  1
  Ca  Ca12  1  0.335641  0.335641  0.000000  1
  Ca  Ca13  1  0.664359  0.664359  0.000000  1
  Ca  Ca14  1  0.737913  0.396464  0.341448  1
  Ca  Ca15  1  0.396464  0.055016  0.658552  1
  Ca  Ca16  1  0.396464  0.737913  0.341448  1
  Ca  Ca17  1  0.262087  0.603536  0.658552  1
  Ca  Ca18  1  0.944984  0.603536  0.341448  1
  Ca  Ca19  1  0.603536  0.944984  0.341448  1
  Ca  Ca20  1  0.603536  0.262087  0.658552  1
  Ca  Ca21  1  0.055016  0.396464  0.658552  1
  Bi  Bi22  1  0.000000  0.347754  0.347754  1
  Bi  Bi23  1  0.347754  1.000000  0.347754  1
  Bi  Bi24  1  0.652246  0.000000  0.652246  1
  Bi  Bi25  1  0.000000  0.652246  0.652246  1
  Bi  Bi26  1  0.128023  0.128023  0.000000  1
  Bi  Bi27  1  0.871977  0.871977  0.000000  1
  Bi  Bi28  1  0.369119  0.369119  0.738238  1
  Bi  Bi29  1  0.369119  0.630881  1.000000  1
  Bi  Bi30  1  0.630881  0.369119  1.000000  1
  Bi  Bi31  1  0.630881  0.630881  0.261762  1
  Bi  Bi32  1  0.750000  0.250000  0.500000  1
  Bi  Bi33  1  0.250000  0.750000  0.500000  1
  Bi  Bi34  1  0.531958  0.531958  0.408994  1
  Bi  Bi35  1  0.531958  0.122964  1.000000  1
  Bi  Bi36  1  0.122964  0.531958  0.000000  1
  Bi  Bi37  1  0.468042  0.877036  1.000000  1
  Bi  Bi38  1  0.877036  0.468042  0.000000  1
  Bi  Bi39  1  0.877036  0.877036  0.408994  1
  Bi  Bi40  1  0.468042  0.468042  0.591006  1
  Bi  Bi41  1  0.122964  0.122964  0.591006  1
