# generated using pymatgen
data_SmSb2
_symmetry_space_group_name_H-M   'P 1'
_cell_length_a   4.39644079
_cell_length_b   4.39644079
_cell_length_c   18.03805536
_cell_angle_alpha   90.00000000
_cell_angle_beta   90.00000000
_cell_angle_gamma   90.05049304
_symmetry_Int_Tables_number   1
_chemical_formula_structural   SmSb2
_chemical_formula_sum   'Sm4 Sb8'
_cell_volume   348.65187434
_cell_formula_units_Z   4
loop_
 _symmetry_equiv_pos_site_id
 _symmetry_equiv_pos_as_xyz
  1  'x, y, z'
loop_
 _atom_site_type_symbol
 _atom_site_label
 _atom_site_symmetry_multiplicity
 _atom_site_fract_x
 _atom_site_fract_y
 _atom_site_fract_z
 _atom_site_occupancy
  Sm  Sm0  1  0.639554  0.360446  0.889566  1
  Sm  Sm1  1  0.360446  0.639554  0.110434  1
  Sm  Sm2  1  0.860446  0.139554  0.389566  1
  Sm  Sm3  1  0.139554  0.860446  0.610434  1
  Sb  Sb4  1  0.635107  0.364893  0.564207  1
  Sb  Sb5  1  0.364893  0.635107  0.435793  1
  Sb  Sb6  1  0.864893  0.135107  0.064207  1
  Sb  Sb7  1  0.135107  0.864893  0.935793  1
  Sb  Sb8  1  0.624490  0.875510  0.750000  1
  Sb  Sb9  1  0.875510  0.624490  0.250000  1
  Sb  Sb10  1  0.375510  0.124490  0.250000  1
  Sb  Sb11  1  0.124490  0.375510  0.750000  1
