# generated using pymatgen
data_La2Be2O5
_symmetry_space_group_name_H-M   'P 1'
_cell_length_a   5.29590515
_cell_length_b   5.29590515
_cell_length_c   7.45791963
_cell_angle_alpha   89.23128525
_cell_angle_beta   90.76871475
_cell_angle_gamma   91.62264942
_symmetry_Int_Tables_number   1
_chemical_formula_structural   La2Be2O5
_chemical_formula_sum   'La4 Be4 O10'
_cell_volume   209.04889558
_cell_formula_units_Z   2
loop_
 _symmetry_equiv_pos_site_id
 _symmetry_equiv_pos_as_xyz
  1  'x, y, z'
loop_
 _atom_site_type_symbol
 _atom_site_label
 _atom_site_symmetry_multiplicity
 _atom_site_fract_x
 _atom_site_fract_y
 _atom_site_fract_z
 _atom_site_occupancy
  La  La0  1  0.799815  0.271851  0.305964  1
  La  La1  1  0.271851  0.799815  0.194036  1
  La  La2  1  0.200185  0.728149  0.694036  1
  La  La3  1  0.728149  0.200185  0.805964  1
  Be  Be4  1  0.687616  0.747980  0.530130  1
  Be  Be5  1  0.747980  0.687616  0.969870  1
  Be  Be6  1  0.252020  0.312384  0.030130  1
  Be  Be7  1  0.312384  0.252020  0.469870  1
  O  O8  1  0.752961  0.752961  0.750000  1
  O  O9  1  0.247039  0.247039  0.250000  1
  O  O10  1  0.500000  0.500000  0.500000  1
  O  O11  1  0.500000  0.500000  0.000000  1
  O  O12  1  0.743834  0.943737  0.084003  1
  O  O13  1  0.943737  0.743834  0.415997  1
  O  O14  1  0.256166  0.056263  0.915997  1
  O  O15  1  0.056263  0.256166  0.584003  1
  O  O16  1  0.500000  1.000000  0.500000  1
  O  O17  1  0.000000  0.500000  0.000000  1
