# generated using pymatgen
data_Ga3Te3I
_symmetry_space_group_name_H-M   'P 1'
_cell_length_a   4.17004858
_cell_length_b   11.62151636
_cell_length_c   20.94671914
_cell_angle_alpha   90.00000000
_cell_angle_beta   90.00000000
_cell_angle_gamma   90.00000000
_symmetry_Int_Tables_number   1
_chemical_formula_structural   Ga3Te3I
_chemical_formula_sum   'Ga12 Te12 I4'
_cell_volume   1015.12593131
_cell_formula_units_Z   4
loop_
 _symmetry_equiv_pos_site_id
 _symmetry_equiv_pos_as_xyz
  1  'x, y, z'
loop_
 _atom_site_type_symbol
 _atom_site_label
 _atom_site_symmetry_multiplicity
 _atom_site_fract_x
 _atom_site_fract_y
 _atom_site_fract_z
 _atom_site_occupancy
  Ga  Ga0  1  0.750000  0.830716  0.629759  1
  Ga  Ga1  1  0.250000  0.169284  0.370241  1
  Ga  Ga2  1  0.750000  0.330716  0.870241  1
  Ga  Ga3  1  0.250000  0.669284  0.129759  1
  Ga  Ga4  1  0.250000  0.670659  0.495992  1
  Ga  Ga5  1  0.750000  0.329341  0.504008  1
  Ga  Ga6  1  0.250000  0.170659  0.004008  1
  Ga  Ga7  1  0.750000  0.829341  0.995992  1
  Ga  Ga8  1  0.250000  0.556100  0.595073  1
  Ga  Ga9  1  0.750000  0.443900  0.404927  1
  Ga  Ga10  1  0.250000  0.056100  0.904927  1
  Ga  Ga11  1  0.750000  0.943900  0.095073  1
  Te  Te12  1  0.250000  0.722375  0.685154  1
  Te  Te13  1  0.750000  0.277625  0.314846  1
  Te  Te14  1  0.250000  0.222375  0.814846  1
  Te  Te15  1  0.750000  0.777625  0.185154  1
  Te  Te16  1  0.750000  0.415928  0.623049  1
  Te  Te17  1  0.250000  0.584072  0.376951  1
  Te  Te18  1  0.750000  0.915928  0.876951  1
  Te  Te19  1  0.250000  0.084072  0.123049  1
  Te  Te20  1  0.750000  0.820911  0.501865  1
  Te  Te21  1  0.250000  0.179089  0.498135  1
  Te  Te22  1  0.750000  0.320911  0.998135  1
  Te  Te23  1  0.250000  0.679089  0.001865  1
  I  I24  1  0.750000  0.041591  0.666435  1
  I  I25  1  0.250000  0.958409  0.333565  1
  I  I26  1  0.750000  0.541591  0.833565  1
  I  I27  1  0.250000  0.458409  0.166435  1
