# generated using pymatgen
data_Ti3In4
_symmetry_space_group_name_H-M   'P 1'
_cell_length_a   9.99402517
_cell_length_b   9.99402517
_cell_length_c   2.98864864
_cell_angle_alpha   90.00000000
_cell_angle_beta   90.00000000
_cell_angle_gamma   90.00000000
_symmetry_Int_Tables_number   1
_chemical_formula_structural   Ti3In4
_chemical_formula_sum   'Ti6 In8'
_cell_volume   298.50783734
_cell_formula_units_Z   2
loop_
 _symmetry_equiv_pos_site_id
 _symmetry_equiv_pos_as_xyz
  1  'x, y, z'
loop_
 _atom_site_type_symbol
 _atom_site_label
 _atom_site_symmetry_multiplicity
 _atom_site_fract_x
 _atom_site_fract_y
 _atom_site_fract_z
 _atom_site_occupancy
  Ti  Ti0  1  0.176327  0.323673  0.500000  1
  Ti  Ti1  1  0.323673  0.823673  0.500000  1
  Ti  Ti2  1  0.676327  0.176327  0.500000  1
  Ti  Ti3  1  0.500000  0.000000  0.000000  1
  Ti  Ti4  1  0.823673  0.676327  0.500000  1
  Ti  Ti5  1  0.000000  0.500000  0.000000  1
  In  In6  1  0.441243  0.287956  0.000000  1
  In  In7  1  0.787956  0.941243  0.000000  1
  In  In8  1  0.058757  0.787956  0.000000  1
  In  In9  1  0.287956  0.558757  0.000000  1
  In  In10  1  0.558757  0.712044  0.000000  1
  In  In11  1  0.712044  0.441243  0.000000  1
  In  In12  1  0.212044  0.058757  0.000000  1
  In  In13  1  0.941243  0.212044  0.000000  1
