# generated using pymatgen
data_FeCl3
_symmetry_space_group_name_H-M   'P 1'
_cell_length_a   7.26846315
_cell_length_b   7.26846315
_cell_length_c   7.26846315
_cell_angle_alpha   48.16556873
_cell_angle_beta   48.16556873
_cell_angle_gamma   48.16556873
_symmetry_Int_Tables_number   1
_chemical_formula_structural   FeCl3
_chemical_formula_sum   'Fe2 Cl6'
_cell_volume   195.36394872
_cell_formula_units_Z   2
loop_
 _symmetry_equiv_pos_site_id
 _symmetry_equiv_pos_as_xyz
  1  'x, y, z'
loop_
 _atom_site_type_symbol
 _atom_site_label
 _atom_site_symmetry_multiplicity
 _atom_site_fract_x
 _atom_site_fract_y
 _atom_site_fract_z
 _atom_site_occupancy
  Fe  Fe0  1  0.333321  0.333321  0.333321  1
  Fe  Fe1  1  0.666679  0.666679  0.666679  1
  Cl  Cl2  1  0.066666  0.693192  0.440334  1
  Cl  Cl3  1  0.693192  0.440334  0.066666  1
  Cl  Cl4  1  0.559666  0.933334  0.306808  1
  Cl  Cl5  1  0.306808  0.559666  0.933334  1
  Cl  Cl6  1  0.933334  0.306808  0.559666  1
  Cl  Cl7  1  0.440334  0.066666  0.693192  1
