# generated using pymatgen
data_Sr5Al2F16
_symmetry_space_group_name_H-M   'P 1'
_cell_length_a   7.36031455
_cell_length_b   7.36031455
_cell_length_c   14.30435522
_cell_angle_alpha   90.00000000
_cell_angle_beta   90.00000000
_cell_angle_gamma   117.93740159
_symmetry_Int_Tables_number   1
_chemical_formula_structural   Sr5Al2F16
_chemical_formula_sum   'Sr10 Al4 F32'
_cell_volume   684.61737949
_cell_formula_units_Z   2
loop_
 _symmetry_equiv_pos_site_id
 _symmetry_equiv_pos_as_xyz
  1  'x, y, z'
loop_
 _atom_site_type_symbol
 _atom_site_label
 _atom_site_symmetry_multiplicity
 _atom_site_fract_x
 _atom_site_fract_y
 _atom_site_fract_z
 _atom_site_occupancy
  Sr  Sr0  1  0.500000  0.500000  0.217759  1
  Sr  Sr1  1  0.500000  0.500000  0.782241  1
  Sr  Sr2  1  0.000000  0.000000  0.282241  1
  Sr  Sr3  1  0.000000  0.000000  0.717759  1
  Sr  Sr4  1  0.000000  0.000000  0.000000  1
  Sr  Sr5  1  0.500000  0.500000  0.500000  1
  Sr  Sr6  1  0.000000  0.500000  0.126843  1
  Sr  Sr7  1  0.500000  0.000000  0.873157  1
  Sr  Sr8  1  0.500000  0.000000  0.373157  1
  Sr  Sr9  1  0.000000  0.500000  0.626843  1
  Al  Al10  1  0.500000  0.000000  0.121809  1
  Al  Al11  1  0.000000  0.500000  0.878191  1
  Al  Al12  1  0.000000  0.500000  0.378191  1
  Al  Al13  1  0.500000  0.000000  0.621809  1
  F  F14  1  0.680924  0.017873  0.212777  1
  F  F15  1  0.319076  0.982127  0.212777  1
  F  F16  1  0.017873  0.680924  0.787223  1
  F  F17  1  0.982127  0.319076  0.787223  1
  F  F18  1  0.819076  0.482127  0.287223  1
  F  F19  1  0.180924  0.517873  0.287223  1
  F  F20  1  0.482127  0.819076  0.712777  1
  F  F21  1  0.517873  0.180924  0.712777  1
  F  F22  1  0.381897  0.715614  0.122313  1
  F  F23  1  0.618103  0.284386  0.122313  1
  F  F24  1  0.715614  0.381897  0.877687  1
  F  F25  1  0.284386  0.618103  0.877687  1
  F  F26  1  0.118103  0.784386  0.377687  1
  F  F27  1  0.881897  0.215614  0.377687  1
  F  F28  1  0.500478  0.169419  0.529867  1
  F  F29  1  0.499522  0.830581  0.529867  1
  F  F30  1  0.169419  0.500478  0.470133  1
  F  F31  1  0.830581  0.499522  0.470133  1
  F  F32  1  0.999522  0.330581  0.970133  1
  F  F33  1  0.000478  0.669419  0.970133  1
  F  F34  1  0.330581  0.999522  0.029867  1
  F  F35  1  0.669419  0.000478  0.029867  1
  F  F36  1  0.257789  0.363240  0.646129  1
  F  F37  1  0.742211  0.636760  0.646129  1
  F  F38  1  0.363240  0.257789  0.353871  1
  F  F39  1  0.636760  0.742211  0.353871  1
  F  F40  1  0.242211  0.136760  0.853871  1
  F  F41  1  0.757789  0.863240  0.853871  1
  F  F42  1  0.136760  0.242211  0.146129  1
  F  F43  1  0.863240  0.757789  0.146129  1
  F  F44  1  0.215614  0.881897  0.622313  1
  F  F45  1  0.784386  0.118103  0.622313  1
