# generated using pymatgen
data_Ce3(InRu)2
_symmetry_space_group_name_H-M   'P 1'
_cell_length_a   4.95124639
_cell_length_b   7.70979530
_cell_length_c   17.41538946
_cell_angle_alpha   90.00000000
_cell_angle_beta   90.00000000
_cell_angle_gamma   90.00000000
_symmetry_Int_Tables_number   1
_chemical_formula_structural   Ce3(InRu)2
_chemical_formula_sum   'Ce12 In8 Ru8'
_cell_volume   664.79933629
_cell_formula_units_Z   4
loop_
 _symmetry_equiv_pos_site_id
 _symmetry_equiv_pos_as_xyz
  1  'x, y, z'
loop_
 _atom_site_type_symbol
 _atom_site_label
 _atom_site_symmetry_multiplicity
 _atom_site_fract_x
 _atom_site_fract_y
 _atom_site_fract_z
 _atom_site_occupancy
  Ce  Ce0  1  0.250000  0.273503  0.173817  1
  Ce  Ce1  1  0.750000  0.726497  0.826183  1
  Ce  Ce2  1  0.750000  0.773503  0.326183  1
  Ce  Ce3  1  0.250000  0.226497  0.673817  1
  Ce  Ce4  1  0.250000  0.489537  0.925331  1
  Ce  Ce5  1  0.750000  0.510463  0.074669  1
  Ce  Ce6  1  0.750000  0.989537  0.574669  1
  Ce  Ce7  1  0.250000  0.010463  0.425331  1
  Ce  Ce8  1  0.250000  0.034782  0.863815  1
  Ce  Ce9  1  0.750000  0.965218  0.136185  1
  Ce  Ce10  1  0.750000  0.534782  0.636185  1
  Ce  Ce11  1  0.250000  0.465218  0.363815  1
  In  In12  1  0.750000  0.290875  0.801081  1
  In  In13  1  0.750000  0.209125  0.301081  1
  In  In14  1  0.250000  0.790875  0.698919  1
  In  In15  1  0.250000  0.839029  0.030192  1
  In  In16  1  0.750000  0.160971  0.969808  1
  In  In17  1  0.750000  0.339029  0.469808  1
  In  In18  1  0.250000  0.660971  0.530192  1
  In  In19  1  0.250000  0.709125  0.198919  1
  Ru  Ru20  1  0.750000  0.522554  0.207791  1
  Ru  Ru21  1  0.750000  0.977446  0.707791  1
  Ru  Ru22  1  0.250000  0.022554  0.292209  1
  Ru  Ru23  1  0.250000  0.280101  0.545205  1
  Ru  Ru24  1  0.750000  0.719899  0.454795  1
  Ru  Ru25  1  0.750000  0.780101  0.954795  1
  Ru  Ru26  1  0.250000  0.219899  0.045205  1
  Ru  Ru27  1  0.250000  0.477446  0.792209  1
