# generated using pymatgen
data_Sr(C2N3)2
_symmetry_space_group_name_H-M   'P 1'
_cell_length_a   7.26022501
_cell_length_b   7.26022501
_cell_length_c   8.34308511
_cell_angle_alpha   83.36001306
_cell_angle_beta   96.63998694
_cell_angle_gamma   128.26465701
_symmetry_Int_Tables_number   1
_chemical_formula_structural   Sr(C2N3)2
_chemical_formula_sum   'Sr2 C8 N12'
_cell_volume   342.42724838
_cell_formula_units_Z   2
loop_
 _symmetry_equiv_pos_site_id
 _symmetry_equiv_pos_as_xyz
  1  'x, y, z'
loop_
 _atom_site_type_symbol
 _atom_site_label
 _atom_site_symmetry_multiplicity
 _atom_site_fract_x
 _atom_site_fract_y
 _atom_site_fract_z
 _atom_site_occupancy
  Sr  Sr0  1  0.091588  0.091588  0.250000  1
  Sr  Sr1  1  0.908412  0.908412  0.750000  1
  C  C2  1  0.531665  0.707349  0.091072  1
  C  C3  1  0.707349  0.531665  0.408928  1
  C  C4  1  0.300895  0.753682  0.687456  1
  C  C5  1  0.753682  0.300895  0.812544  1
  C  C6  1  0.699105  0.246318  0.312544  1
  C  C7  1  0.246318  0.699105  0.187456  1
  C  C8  1  0.292651  0.468335  0.591072  1
  C  C9  1  0.468335  0.292651  0.908928  1
  N  N10  1  0.795975  0.714764  0.463592  1
  N  N11  1  0.714764  0.795975  0.036408  1
  N  N12  1  0.407487  0.670067  0.654104  1
  N  N13  1  0.670067  0.407487  0.845896  1
  N  N14  1  0.592513  0.329933  0.345896  1
  N  N15  1  0.329933  0.592513  0.154104  1
  N  N16  1  0.219569  0.841076  0.722398  1
  N  N17  1  0.841076  0.219569  0.777602  1
  N  N18  1  0.780431  0.158924  0.277602  1
  N  N19  1  0.158924  0.780431  0.222398  1
  N  N20  1  0.204025  0.285236  0.536408  1
  N  N21  1  0.285236  0.204025  0.963592  1
