# generated using pymatgen
data_LaLuO3
_symmetry_space_group_name_H-M   'P 1'
_cell_length_a   5.81799619
_cell_length_b   6.01446471
_cell_length_c   8.38078396
_cell_angle_alpha   90.00000000
_cell_angle_beta   90.00000000
_cell_angle_gamma   90.00000000
_symmetry_Int_Tables_number   1
_chemical_formula_structural   LaLuO3
_chemical_formula_sum   'La4 Lu4 O12'
_cell_volume   293.26150503
_cell_formula_units_Z   4
loop_
 _symmetry_equiv_pos_site_id
 _symmetry_equiv_pos_as_xyz
  1  'x, y, z'
loop_
 _atom_site_type_symbol
 _atom_site_label
 _atom_site_symmetry_multiplicity
 _atom_site_fract_x
 _atom_site_fract_y
 _atom_site_fract_z
 _atom_site_occupancy
  La  La0  1  0.013745  0.951249  0.750000  1
  La  La1  1  0.513745  0.548751  0.250000  1
  La  La2  1  0.986255  0.048751  0.250000  1
  La  La3  1  0.486255  0.451249  0.750000  1
  Lu  Lu4  1  0.500000  0.000000  0.500000  1
  Lu  Lu5  1  0.000000  0.500000  0.000000  1
  Lu  Lu6  1  0.500000  0.000000  0.000000  1
  Lu  Lu7  1  0.000000  0.500000  0.500000  1
  O  O8  1  0.693168  0.305149  0.062994  1
  O  O9  1  0.806832  0.805149  0.062994  1
  O  O10  1  0.306832  0.694851  0.937006  1
  O  O11  1  0.693168  0.305149  0.437006  1
  O  O12  1  0.193168  0.194851  0.562994  1
  O  O13  1  0.806832  0.805149  0.437006  1
  O  O14  1  0.119769  0.447401  0.250000  1
  O  O15  1  0.193168  0.194851  0.937006  1
  O  O16  1  0.306832  0.694851  0.562994  1
  O  O17  1  0.619769  0.052599  0.750000  1
  O  O18  1  0.380231  0.947401  0.250000  1
  O  O19  1  0.880231  0.552599  0.750000  1
