# generated using pymatgen
data_TlSbS2
_symmetry_space_group_name_H-M   'P 1'
_cell_length_a   6.32053827
_cell_length_b   6.60457098
_cell_length_c   11.96519658
_cell_angle_alpha   101.42867015
_cell_angle_beta   97.09036925
_cell_angle_gamma   104.75433987
_symmetry_Int_Tables_number   1
_chemical_formula_structural   TlSbS2
_chemical_formula_sum   'Tl4 Sb4 S8'
_cell_volume   465.39788601
_cell_formula_units_Z   4
loop_
 _symmetry_equiv_pos_site_id
 _symmetry_equiv_pos_as_xyz
  1  'x, y, z'
loop_
 _atom_site_type_symbol
 _atom_site_label
 _atom_site_symmetry_multiplicity
 _atom_site_fract_x
 _atom_site_fract_y
 _atom_site_fract_z
 _atom_site_occupancy
  Tl  Tl0  1  0.904366  0.725777  0.086445  1
  Tl  Tl1  1  0.095634  0.274223  0.913555  1
  Tl  Tl2  1  0.433800  0.700756  0.336231  1
  Tl  Tl3  1  0.566200  0.299244  0.663769  1
  Sb  Sb4  1  0.601528  0.205898  0.156115  1
  Sb  Sb5  1  0.027473  0.206701  0.406272  1
  Sb  Sb6  1  0.398472  0.794102  0.843885  1
  Sb  Sb7  1  0.972527  0.793299  0.593728  1
  S  S8  1  0.018941  0.183051  0.636461  1
  S  S9  1  0.981059  0.816949  0.363539  1
  S  S10  1  0.367818  0.791904  0.619693  1
  S  S11  1  0.632182  0.208096  0.380307  1
  S  S12  1  0.000845  0.787390  0.824924  1
  S  S13  1  0.416721  0.818848  0.093089  1
  S  S14  1  0.583279  0.181152  0.906911  1
  S  S15  1  0.999155  0.212610  0.175076  1
