# generated using pymatgen
data_Cd2AsCl2
_symmetry_space_group_name_H-M   'P 1'
_cell_length_a   8.00226522
_cell_length_b   9.37282541
_cell_length_c   8.48666545
_cell_angle_alpha   90.00000000
_cell_angle_beta   120.25277068
_cell_angle_gamma   90.00000000
_symmetry_Int_Tables_number   1
_chemical_formula_structural   Cd2AsCl2
_chemical_formula_sum   'Cd8 As4 Cl8'
_cell_volume   549.84382548
_cell_formula_units_Z   4
loop_
 _symmetry_equiv_pos_site_id
 _symmetry_equiv_pos_as_xyz
  1  'x, y, z'
loop_
 _atom_site_type_symbol
 _atom_site_label
 _atom_site_symmetry_multiplicity
 _atom_site_fract_x
 _atom_site_fract_y
 _atom_site_fract_z
 _atom_site_occupancy
  Cd  Cd0  1  0.561328  0.919999  0.251511  1
  Cd  Cd1  1  0.438672  0.419999  0.248489  1
  Cd  Cd2  1  0.438672  0.080001  0.748489  1
  Cd  Cd3  1  0.561328  0.580001  0.751511  1
  Cd  Cd4  1  0.045440  0.702285  0.715325  1
  Cd  Cd5  1  0.954560  0.297715  0.284675  1
  Cd  Cd6  1  0.045440  0.797715  0.215325  1
  Cd  Cd7  1  0.954560  0.202285  0.784675  1
  As  As8  1  0.068534  0.118824  0.558907  1
  As  As9  1  0.068534  0.381176  0.058907  1
  As  As10  1  0.931466  0.618824  0.941093  1
  As  As11  1  0.931466  0.881176  0.441093  1
  Cl  Cl12  1  0.245841  0.020566  0.196325  1
  Cl  Cl13  1  0.754159  0.520566  0.303675  1
  Cl  Cl14  1  0.754159  0.979434  0.803675  1
  Cl  Cl15  1  0.245841  0.479434  0.696325  1
  Cl  Cl16  1  0.421014  0.689841  0.417667  1
  Cl  Cl17  1  0.578986  0.189841  0.082333  1
  Cl  Cl18  1  0.578986  0.310159  0.582333  1
  Cl  Cl19  1  0.421014  0.810159  0.917667  1
