# generated using pymatgen
data_NdSBr
_symmetry_space_group_name_H-M   'P 1'
_cell_length_a   7.00377885
_cell_length_b   7.10602445
_cell_length_c   7.10286394
_cell_angle_alpha   90.00000000
_cell_angle_beta   100.12044076
_cell_angle_gamma   90.00000000
_symmetry_Int_Tables_number   1
_chemical_formula_structural   NdSBr
_chemical_formula_sum   'Nd4 S4 Br4'
_cell_volume   348.00229940
_cell_formula_units_Z   4
loop_
 _symmetry_equiv_pos_site_id
 _symmetry_equiv_pos_as_xyz
  1  'x, y, z'
loop_
 _atom_site_type_symbol
 _atom_site_label
 _atom_site_symmetry_multiplicity
 _atom_site_fract_x
 _atom_site_fract_y
 _atom_site_fract_z
 _atom_site_occupancy
  Nd  Nd0  1  0.291048  0.033873  0.681341  1
  Nd  Nd1  1  0.208952  0.533873  0.318659  1
  Nd  Nd2  1  0.708952  0.966127  0.318659  1
  Nd  Nd3  1  0.791048  0.466127  0.681341  1
  S  S4  1  0.008300  0.758466  0.549340  1
  S  S5  1  0.508300  0.741534  0.549340  1
  S  S6  1  0.991700  0.241534  0.450660  1
  S  S7  1  0.491700  0.258466  0.450660  1
  Br  Br8  1  0.793876  0.620414  0.081211  1
  Br  Br9  1  0.293876  0.879586  0.081211  1
  Br  Br10  1  0.206124  0.379586  0.918789  1
  Br  Br11  1  0.706124  0.120414  0.918789  1
