# generated using pymatgen
data_Ca12Be17O29
_symmetry_space_group_name_H-M   'P 1'
_cell_length_a   9.96141969
_cell_length_b   9.96141969
_cell_length_c   9.96141969
_cell_angle_alpha   60.00000000
_cell_angle_beta   60.00000000
_cell_angle_gamma   60.00000000
_symmetry_Int_Tables_number   1
_chemical_formula_structural   Ca12Be17O29
_chemical_formula_sum   'Ca12 Be17 O29'
_cell_volume   698.95419574
_cell_formula_units_Z   1
loop_
 _symmetry_equiv_pos_site_id
 _symmetry_equiv_pos_as_xyz
  1  'x, y, z'
loop_
 _atom_site_type_symbol
 _atom_site_label
 _atom_site_symmetry_multiplicity
 _atom_site_fract_x
 _atom_site_fract_y
 _atom_site_fract_z
 _atom_site_occupancy
  Ca  Ca0  1  0.706634  0.706634  0.293366  1
  Ca  Ca1  1  0.293366  0.293366  0.706634  1
  Ca  Ca2  1  0.293366  0.706634  0.706634  1
  Ca  Ca3  1  0.293366  0.706634  0.293366  1
  Ca  Ca4  1  0.706634  0.293366  0.706634  1
  Ca  Ca5  1  0.706634  0.293366  0.293366  1
  Ca  Ca6  1  0.004107  0.004107  0.495893  1
  Ca  Ca7  1  0.495893  0.495893  0.004107  1
  Ca  Ca8  1  0.495893  0.004107  0.004107  1
  Ca  Ca9  1  0.495893  0.004107  0.495893  1
  Ca  Ca10  1  0.004107  0.495893  0.004107  1
  Ca  Ca11  1  0.004107  0.495893  0.495893  1
  Be  Be12  1  0.842571  0.842571  0.842571  1
  Be  Be13  1  0.523777  0.158741  0.158741  1
  Be  Be14  1  0.158741  0.158741  0.523777  1
  Be  Be15  1  0.158741  0.158741  0.158741  1
  Be  Be16  1  0.158741  0.523777  0.158741  1
  Be  Be17  1  0.472287  0.842571  0.842571  1
  Be  Be18  1  0.842571  0.842571  0.472287  1
  Be  Be19  1  0.842571  0.472287  0.842571  1
  Be  Be20  1  0.977675  0.674108  0.674108  1
  Be  Be21  1  0.674108  0.674108  0.977675  1
  Be  Be22  1  0.674108  0.674108  0.674108  1
  Be  Be23  1  0.674108  0.977675  0.674108  1
  Be  Be24  1  0.500000  0.500000  0.500000  1
  Be  Be25  1  0.362196  0.913413  0.362196  1
  Be  Be26  1  0.362196  0.362196  0.362196  1
  Be  Be27  1  0.362196  0.362196  0.913413  1
  Be  Be28  1  0.913413  0.362196  0.362196  1
  O  O29  1  0.522043  0.249224  0.979509  1
  O  O30  1  0.979509  0.249224  0.522043  1
  O  O31  1  0.249224  0.522043  0.979509  1
  O  O32  1  0.979509  0.522043  0.249224  1
  O  O33  1  0.249224  0.249224  0.522043  1
  O  O34  1  0.707338  0.430887  0.430887  1
  O  O35  1  0.522043  0.249224  0.249224  1
  O  O36  1  0.249224  0.979509  0.249224  1
  O  O37  1  0.750000  0.750000  0.750000  1
  O  O38  1  0.430887  0.707338  0.430887  1
  O  O39  1  0.430887  0.430887  0.430887  1
  O  O40  1  0.430887  0.430887  0.707338  1
  O  O41  1  0.750782  0.476376  0.750782  1
  O  O42  1  0.022059  0.750782  0.750782  1
  O  O43  1  0.750782  0.022059  0.476376  1
  O  O44  1  0.476376  0.022059  0.750782  1
  O  O45  1  0.750782  0.750782  0.022059  1
  O  O46  1  0.476376  0.750782  0.022059  1
  O  O47  1  0.022059  0.750782  0.476376  1
  O  O48  1  0.750782  0.476376  0.022059  1
  O  O49  1  0.022059  0.476376  0.750782  1
  O  O50  1  0.750782  0.750782  0.476376  1
  O  O51  1  0.476376  0.750782  0.750782  1
  O  O52  1  0.750782  0.022059  0.750782  1
  O  O53  1  0.249224  0.522043  0.249224  1
  O  O54  1  0.979509  0.249224  0.249224  1
  O  O55  1  0.249224  0.979509  0.522043  1
  O  O56  1  0.522043  0.979509  0.249224  1
  O  O57  1  0.249224  0.249224  0.979509  1
