# generated using pymatgen
data_CdGeO3
_symmetry_space_group_name_H-M   'P 1'
_cell_length_a   7.16397147
_cell_length_b   7.16397147
_cell_length_c   5.48468842
_cell_angle_alpha   80.62062639
_cell_angle_beta   99.37937361
_cell_angle_gamma   92.83263849
_symmetry_Int_Tables_number   1
_chemical_formula_structural   CdGeO3
_chemical_formula_sum   'Cd4 Ge4 O12'
_cell_volume   273.93611906
_cell_formula_units_Z   4
loop_
 _symmetry_equiv_pos_site_id
 _symmetry_equiv_pos_as_xyz
  1  'x, y, z'
loop_
 _atom_site_type_symbol
 _atom_site_label
 _atom_site_symmetry_multiplicity
 _atom_site_fract_x
 _atom_site_fract_y
 _atom_site_fract_z
 _atom_site_occupancy
  Cd  Cd0  1  0.712385  0.712385  0.250000  1
  Cd  Cd1  1  0.287615  0.287615  0.750000  1
  Cd  Cd2  1  0.097628  0.097628  0.250000  1
  Cd  Cd3  1  0.902372  0.902372  0.750000  1
  Ge  Ge4  1  0.206702  0.616714  0.226965  1
  Ge  Ge5  1  0.616714  0.206702  0.273035  1
  Ge  Ge6  1  0.793298  0.383286  0.773035  1
  Ge  Ge7  1  0.383286  0.793298  0.726965  1
  O  O8  1  0.393112  0.143917  0.129818  1
  O  O9  1  0.143917  0.393112  0.370182  1
  O  O10  1  0.606888  0.856083  0.870182  1
  O  O11  1  0.856083  0.606888  0.629818  1
  O  O12  1  0.700233  0.404484  0.058163  1
  O  O13  1  0.404484  0.700233  0.441837  1
  O  O14  1  0.299767  0.595516  0.941837  1
  O  O15  1  0.595516  0.299767  0.558163  1
  O  O16  1  0.213618  0.971532  0.653237  1
  O  O17  1  0.971532  0.213618  0.846763  1
  O  O18  1  0.786382  0.028468  0.346763  1
  O  O19  1  0.028468  0.786382  0.153237  1
