# generated using pymatgen
data_TbNiSn
_symmetry_space_group_name_H-M   'P 1'
_cell_length_a   4.47386325
_cell_length_b   7.18152178
_cell_length_c   7.68910581
_cell_angle_alpha   90.00000000
_cell_angle_beta   90.00000000
_cell_angle_gamma   90.00000000
_symmetry_Int_Tables_number   1
_chemical_formula_structural   TbNiSn
_chemical_formula_sum   'Tb4 Ni4 Sn4'
_cell_volume   247.04440603
_cell_formula_units_Z   4
loop_
 _symmetry_equiv_pos_site_id
 _symmetry_equiv_pos_as_xyz
  1  'x, y, z'
loop_
 _atom_site_type_symbol
 _atom_site_label
 _atom_site_symmetry_multiplicity
 _atom_site_fract_x
 _atom_site_fract_y
 _atom_site_fract_z
 _atom_site_occupancy
  Tb  Tb0  1  0.750000  0.487820  0.797309  1
  Tb  Tb1  1  0.750000  0.987820  0.702691  1
  Tb  Tb2  1  0.250000  0.512180  0.202691  1
  Tb  Tb3  1  0.250000  0.012180  0.297309  1
  Ni  Ni4  1  0.750000  0.198916  0.085059  1
  Ni  Ni5  1  0.750000  0.698916  0.414941  1
  Ni  Ni6  1  0.250000  0.801084  0.914941  1
  Ni  Ni7  1  0.250000  0.301084  0.585059  1
  Sn  Sn8  1  0.750000  0.309245  0.413157  1
  Sn  Sn9  1  0.750000  0.809245  0.086843  1
  Sn  Sn10  1  0.250000  0.690755  0.586843  1
  Sn  Sn11  1  0.250000  0.190755  0.913157  1
