# generated using pymatgen
data_Tb2Ti3Ge4
_symmetry_space_group_name_H-M   'P 1'
_cell_length_a   7.05739581
_cell_length_b   7.18623532
_cell_length_c   13.49170325
_cell_angle_alpha   90.00000000
_cell_angle_beta   90.00000000
_cell_angle_gamma   90.00000000
_symmetry_Int_Tables_number   1
_chemical_formula_structural   Tb2Ti3Ge4
_chemical_formula_sum   'Tb8 Ti12 Ge16'
_cell_volume   684.24666614
_cell_formula_units_Z   4
loop_
 _symmetry_equiv_pos_site_id
 _symmetry_equiv_pos_as_xyz
  1  'x, y, z'
loop_
 _atom_site_type_symbol
 _atom_site_label
 _atom_site_symmetry_multiplicity
 _atom_site_fract_x
 _atom_site_fract_y
 _atom_site_fract_z
 _atom_site_occupancy
  Tb  Tb0  1  0.003110  0.173151  0.404954  1
  Tb  Tb1  1  0.503110  0.326849  0.095046  1
  Tb  Tb2  1  0.496890  0.673151  0.595046  1
  Tb  Tb3  1  0.996890  0.826849  0.904954  1
  Tb  Tb4  1  0.996890  0.826849  0.595046  1
  Tb  Tb5  1  0.496890  0.673151  0.904954  1
  Tb  Tb6  1  0.503110  0.326849  0.404954  1
  Tb  Tb7  1  0.003110  0.173151  0.095046  1
  Ti  Ti8  1  0.341068  0.832139  0.127938  1
  Ti  Ti9  1  0.841068  0.667861  0.372062  1
  Ti  Ti10  1  0.658932  0.167861  0.627938  1
  Ti  Ti11  1  0.158932  0.332139  0.872062  1
  Ti  Ti12  1  0.158932  0.332139  0.627938  1
  Ti  Ti13  1  0.658932  0.167861  0.872062  1
  Ti  Ti14  1  0.333396  0.009188  0.750000  1
  Ti  Ti15  1  0.841068  0.667861  0.127938  1
  Ti  Ti16  1  0.666604  0.990812  0.250000  1
  Ti  Ti17  1  0.166604  0.509188  0.250000  1
  Ti  Ti18  1  0.833396  0.490812  0.750000  1
  Ti  Ti19  1  0.341068  0.832139  0.372062  1
  Ge  Ge20  1  0.327887  0.044202  0.544701  1
  Ge  Ge21  1  0.827887  0.455798  0.955299  1
  Ge  Ge22  1  0.672113  0.955798  0.044701  1
  Ge  Ge23  1  0.172113  0.544202  0.455299  1
  Ge  Ge24  1  0.172113  0.544202  0.044701  1
  Ge  Ge25  1  0.672113  0.955798  0.455299  1
  Ge  Ge26  1  0.827887  0.455798  0.544701  1
  Ge  Ge27  1  0.327887  0.044202  0.955299  1
  Ge  Ge28  1  0.808520  0.365612  0.250000  1
  Ge  Ge29  1  0.308520  0.134388  0.250000  1
  Ge  Ge30  1  0.691480  0.865612  0.750000  1
  Ge  Ge31  1  0.191480  0.634388  0.750000  1
  Ge  Ge32  1  0.039328  0.867709  0.250000  1
  Ge  Ge33  1  0.539328  0.632291  0.250000  1
  Ge  Ge34  1  0.460672  0.367709  0.750000  1
  Ge  Ge35  1  0.960672  0.132291  0.750000  1
