# generated using pymatgen
data_TePdI
_symmetry_space_group_name_H-M   'P 1'
_cell_length_a   8.10910468
_cell_length_b   8.10910468
_cell_length_c   5.70069849
_cell_angle_alpha   90.00000000
_cell_angle_beta   90.00000000
_cell_angle_gamma   90.00000000
_symmetry_Int_Tables_number   1
_chemical_formula_structural   TePdI
_chemical_formula_sum   'Te4 Pd4 I4'
_cell_volume   374.86412966
_cell_formula_units_Z   4
loop_
 _symmetry_equiv_pos_site_id
 _symmetry_equiv_pos_as_xyz
  1  'x, y, z'
loop_
 _atom_site_type_symbol
 _atom_site_label
 _atom_site_symmetry_multiplicity
 _atom_site_fract_x
 _atom_site_fract_y
 _atom_site_fract_z
 _atom_site_occupancy
  Te  Te0  1  0.000000  0.209846  0.000000  1
  Te  Te1  1  0.209846  0.000000  0.500000  1
  Te  Te2  1  0.790153  0.000000  0.500000  1
  Te  Te3  1  0.000000  0.790153  0.000000  1
  Pd  Pd4  1  0.249268  0.000000  0.000000  1
  Pd  Pd5  1  0.000000  0.750732  0.500000  1
  Pd  Pd6  1  0.000000  0.249268  0.500000  1
  Pd  Pd7  1  0.750732  0.000000  0.000000  1
  I  I8  1  0.500000  0.232211  0.000000  1
  I  I9  1  0.232211  0.500000  0.500000  1
  I  I10  1  0.767789  0.500000  0.500000  1
  I  I11  1  0.500000  0.767789  0.000000  1
