# generated using pymatgen
data_CuH2SO5
_symmetry_space_group_name_H-M   'P 1'
_cell_length_a   5.05667978
_cell_length_b   5.24511300
_cell_length_c   7.81662327
_cell_angle_alpha   108.98451679
_cell_angle_beta   108.00302227
_cell_angle_gamma   90.42179083
_symmetry_Int_Tables_number   1
_chemical_formula_structural   CuH2SO5
_chemical_formula_sum   'Cu2 H4 S2 O10'
_cell_volume   185.09721505
_cell_formula_units_Z   2
loop_
 _symmetry_equiv_pos_site_id
 _symmetry_equiv_pos_as_xyz
  1  'x, y, z'
loop_
 _atom_site_type_symbol
 _atom_site_label
 _atom_site_symmetry_multiplicity
 _atom_site_fract_x
 _atom_site_fract_y
 _atom_site_fract_z
 _atom_site_occupancy
  Cu  Cu0  1  0.500000  0.500000  0.500000  1
  Cu  Cu1  1  0.000000  0.000000  0.000000  1
  H  H2  1  0.822739  0.404620  0.778432  1
  H  H3  1  0.177261  0.595380  0.221568  1
  H  H4  1  0.020753  0.508457  0.685275  1
  H  H5  1  0.979247  0.491543  0.314725  1
  S  S6  1  0.391645  0.070253  0.755136  1
  S  S7  1  0.608355  0.929747  0.244864  1
  O  O8  1  0.740232  0.836627  0.092576  1
  O  O9  1  0.259768  0.163373  0.907424  1
  O  O10  1  0.294671  0.841794  0.153910  1
  O  O11  1  0.705329  0.158206  0.846090  1
  O  O12  1  0.661878  0.233535  0.326842  1
  O  O13  1  0.338122  0.766465  0.673158  1
  O  O14  1  0.712604  0.801834  0.389786  1
  O  O15  1  0.287396  0.198166  0.610214  1
  O  O16  1  0.146891  0.453029  0.275929  1
  O  O17  1  0.853109  0.546971  0.724071  1
