# generated using pymatgen
data_Na3ScBr6
_symmetry_space_group_name_H-M   'P 1'
_cell_length_a   7.40389383
_cell_length_b   7.40389383
_cell_length_c   13.24503399
_cell_angle_alpha   90.00000000
_cell_angle_beta   90.00000000
_cell_angle_gamma   120.00000000
_symmetry_Int_Tables_number   1
_chemical_formula_structural   Na3ScBr6
_chemical_formula_sum   'Na6 Sc2 Br12'
_cell_volume   628.78775171
_cell_formula_units_Z   2
loop_
 _symmetry_equiv_pos_site_id
 _symmetry_equiv_pos_as_xyz
  1  'x, y, z'
loop_
 _atom_site_type_symbol
 _atom_site_label
 _atom_site_symmetry_multiplicity
 _atom_site_fract_x
 _atom_site_fract_y
 _atom_site_fract_z
 _atom_site_occupancy
  Na  Na0  1  0.666667  0.333333  0.461583  1
  Na  Na1  1  0.666667  0.333333  0.038417  1
  Na  Na2  1  0.333333  0.666667  0.538417  1
  Na  Na3  1  0.333333  0.666667  0.961583  1
  Na  Na4  1  0.000000  0.000000  0.750000  1
  Na  Na5  1  0.000000  0.000000  0.250000  1
  Sc  Sc6  1  0.666667  0.333333  0.750000  1
  Sc  Sc7  1  0.333333  0.666667  0.250000  1
  Br  Br8  1  0.368077  0.319390  0.869461  1
  Br  Br9  1  0.951313  0.319390  0.630539  1
  Br  Br10  1  0.368077  0.048687  0.630539  1
  Br  Br11  1  0.680610  0.631923  0.630539  1
  Br  Br12  1  0.951313  0.631923  0.869461  1
  Br  Br13  1  0.680610  0.048687  0.869461  1
  Br  Br14  1  0.319390  0.368077  0.369461  1
  Br  Br15  1  0.631923  0.951313  0.369461  1
  Br  Br16  1  0.048687  0.680610  0.369461  1
  Br  Br17  1  0.631923  0.680610  0.130539  1
  Br  Br18  1  0.048687  0.368077  0.130539  1
  Br  Br19  1  0.319390  0.951313  0.130539  1
