# generated using pymatgen
data_ThGa4Co
_symmetry_space_group_name_H-M   'P 1'
_cell_length_a   8.12238415
_cell_length_b   8.12238415
_cell_length_c   6.59873835
_cell_angle_alpha   90.00000000
_cell_angle_beta   90.00000000
_cell_angle_gamma   150.07296442
_symmetry_Int_Tables_number   1
_chemical_formula_structural   ThGa4Co
_chemical_formula_sum   'Th2 Ga8 Co2'
_cell_volume   217.18939932
_cell_formula_units_Z   2
loop_
 _symmetry_equiv_pos_site_id
 _symmetry_equiv_pos_as_xyz
  1  'x, y, z'
loop_
 _atom_site_type_symbol
 _atom_site_label
 _atom_site_symmetry_multiplicity
 _atom_site_fract_x
 _atom_site_fract_y
 _atom_site_fract_z
 _atom_site_occupancy
  Th  Th0  1  0.615984  0.384016  0.250000  1
  Th  Th1  1  0.384016  0.615984  0.750000  1
  Ga  Ga2  1  0.000000  0.000000  0.000000  1
  Ga  Ga3  1  0.000000  0.000000  0.500000  1
  Ga  Ga4  1  0.189885  0.810115  0.944954  1
  Ga  Ga5  1  0.810115  0.189885  0.055046  1
  Ga  Ga6  1  0.810115  0.189885  0.444954  1
  Ga  Ga7  1  0.189885  0.810115  0.555046  1
  Ga  Ga8  1  0.576966  0.423034  0.750000  1
  Ga  Ga9  1  0.423034  0.576966  0.250000  1
  Co  Co10  1  0.273958  0.726042  0.250000  1
  Co  Co11  1  0.726042  0.273958  0.750000  1
