# generated using pymatgen
data_LiGa5O8
_symmetry_space_group_name_H-M   'P 1'
_cell_length_a   8.32254202
_cell_length_b   8.32254202
_cell_length_c   8.32254202
_cell_angle_alpha   90.00000000
_cell_angle_beta   90.00000000
_cell_angle_gamma   90.00000000
_symmetry_Int_Tables_number   1
_chemical_formula_structural   LiGa5O8
_chemical_formula_sum   'Li4 Ga20 O32'
_cell_volume   576.45842348
_cell_formula_units_Z   4
loop_
 _symmetry_equiv_pos_site_id
 _symmetry_equiv_pos_as_xyz
  1  'x, y, z'
loop_
 _atom_site_type_symbol
 _atom_site_label
 _atom_site_symmetry_multiplicity
 _atom_site_fract_x
 _atom_site_fract_y
 _atom_site_fract_z
 _atom_site_occupancy
  Li  Li0  1  0.625000  0.625000  0.625000  1
  Li  Li1  1  0.375000  0.125000  0.875000  1
  Li  Li2  1  0.875000  0.375000  0.125000  1
  Li  Li3  1  0.125000  0.875000  0.375000  1
  Ga  Ga4  1  0.125000  0.365948  0.884052  1
  Ga  Ga5  1  0.253198  0.253198  0.253198  1
  Ga  Ga6  1  0.003198  0.496802  0.503198  1
  Ga  Ga7  1  0.496802  0.503198  0.003198  1
  Ga  Ga8  1  0.503198  0.003198  0.496802  1
  Ga  Ga9  1  0.753198  0.246802  0.746802  1
  Ga  Ga10  1  0.246802  0.746802  0.753198  1
  Ga  Ga11  1  0.746802  0.753198  0.246802  1
  Ga  Ga12  1  0.996802  0.996802  0.996802  1
  Ga  Ga13  1  0.625000  0.134052  0.115948  1
  Ga  Ga14  1  0.615948  0.875000  0.865948  1
  Ga  Ga15  1  0.634052  0.384052  0.375000  1
  Ga  Ga16  1  0.365948  0.884052  0.125000  1
  Ga  Ga17  1  0.884052  0.125000  0.365948  1
  Ga  Ga18  1  0.115948  0.625000  0.134052  1
  Ga  Ga19  1  0.384052  0.375000  0.634052  1
  Ga  Ga20  1  0.865948  0.615948  0.875000  1
  Ga  Ga21  1  0.134052  0.115948  0.625000  1
  Ga  Ga22  1  0.375000  0.634052  0.384052  1
  Ga  Ga23  1  0.875000  0.865948  0.615948  1
  O  O24  1  0.872728  0.884219  0.381680  1
  O  O25  1  0.131680  0.865781  0.122728  1
  O  O26  1  0.631680  0.634219  0.877272  1
  O  O27  1  0.865781  0.122728  0.131680  1
  O  O28  1  0.134219  0.622728  0.368320  1
  O  O29  1  0.122728  0.131680  0.865781  1
  O  O30  1  0.377272  0.868320  0.365781  1
  O  O31  1  0.381680  0.872728  0.884219  1
  O  O32  1  0.881680  0.627272  0.115781  1
  O  O33  1  0.618320  0.372728  0.615781  1
  O  O34  1  0.627272  0.115781  0.881680  1
  O  O35  1  0.615781  0.618320  0.372728  1
  O  O36  1  0.115781  0.881680  0.627272  1
  O  O37  1  0.113330  0.613330  0.886670  1
  O  O38  1  0.884219  0.381680  0.872728  1
  O  O39  1  0.372728  0.615781  0.618320  1
  O  O40  1  0.127272  0.384219  0.118320  1
  O  O41  1  0.384219  0.118320  0.127272  1
  O  O42  1  0.877272  0.631680  0.634219  1
  O  O43  1  0.622728  0.368320  0.134219  1
  O  O44  1  0.386670  0.386670  0.386670  1
  O  O45  1  0.136670  0.363330  0.636670  1
  O  O46  1  0.636670  0.136670  0.363330  1
  O  O47  1  0.363330  0.636670  0.136670  1
  O  O48  1  0.613330  0.886670  0.113330  1
  O  O49  1  0.886670  0.113330  0.613330  1
  O  O50  1  0.634219  0.877272  0.631680  1
  O  O51  1  0.863330  0.863330  0.863330  1
  O  O52  1  0.118320  0.127272  0.384219  1
  O  O53  1  0.868320  0.365781  0.377272  1
  O  O54  1  0.368320  0.134219  0.622728  1
  O  O55  1  0.365781  0.377272  0.868320  1
