# generated using pymatgen
data_Tl5Se2I
_symmetry_space_group_name_H-M   'P 1'
_cell_length_a   9.43577819
_cell_length_b   9.43577819
_cell_length_c   9.43577819
_cell_angle_alpha   124.09339952
_cell_angle_beta   124.09339952
_cell_angle_gamma   83.04514808
_symmetry_Int_Tables_number   1
_chemical_formula_structural   Tl5Se2I
_chemical_formula_sum   'Tl10 Se4 I2'
_cell_volume   552.81988824
_cell_formula_units_Z   2
loop_
 _symmetry_equiv_pos_site_id
 _symmetry_equiv_pos_as_xyz
  1  'x, y, z'
loop_
 _atom_site_type_symbol
 _atom_site_label
 _atom_site_symmetry_multiplicity
 _atom_site_fract_x
 _atom_site_fract_y
 _atom_site_fract_z
 _atom_site_occupancy
  Tl  Tl0  1  0.779198  0.990976  0.500000  1
  Tl  Tl1  1  0.279198  0.779198  0.788222  1
  Tl  Tl2  1  0.990976  0.490976  0.211778  1
  Tl  Tl3  1  0.720802  0.220802  0.211778  1
  Tl  Tl4  1  0.490976  0.279198  0.500000  1
  Tl  Tl5  1  0.220802  0.009024  0.500000  1
  Tl  Tl6  1  0.509024  0.720802  0.500000  1
  Tl  Tl7  1  0.009024  0.509024  0.788222  1
  Tl  Tl8  1  0.500000  0.500000  0.000000  1
  Tl  Tl9  1  0.000000  0.000000  0.000000  1
  Se  Se10  1  0.338044  0.838044  0.176088  1
  Se  Se11  1  0.838044  0.661956  0.500000  1
  Se  Se12  1  0.161956  0.338044  0.500000  1
  Se  Se13  1  0.661956  0.161956  0.823912  1
  I  I14  1  0.750000  0.750000  0.000000  1
  I  I15  1  0.250000  0.250000  0.000000  1
