# generated using pymatgen
data_Mg3Si2H4O9
_symmetry_space_group_name_H-M   'P 1'
_cell_length_a   5.37139392
_cell_length_b   5.37139392
_cell_length_c   14.80712716
_cell_angle_alpha   90.00000000
_cell_angle_beta   90.00000000
_cell_angle_gamma   120.00000000
_symmetry_Int_Tables_number   1
_chemical_formula_structural   Mg3Si2H4O9
_chemical_formula_sum   'Mg6 Si4 H8 O18'
_cell_volume   369.97761147
_cell_formula_units_Z   2
loop_
 _symmetry_equiv_pos_site_id
 _symmetry_equiv_pos_as_xyz
  1  'x, y, z'
loop_
 _atom_site_type_symbol
 _atom_site_label
 _atom_site_symmetry_multiplicity
 _atom_site_fract_x
 _atom_site_fract_y
 _atom_site_fract_z
 _atom_site_occupancy
  Mg  Mg0  1  0.331252  0.000000  0.222419  1
  Mg  Mg1  1  0.331252  0.331252  0.722419  1
  Mg  Mg2  1  0.000000  0.668748  0.722419  1
  Mg  Mg3  1  0.000000  0.331252  0.222419  1
  Mg  Mg4  1  0.668748  0.000000  0.722419  1
  Mg  Mg5  1  0.668748  0.668748  0.222419  1
  Si  Si6  1  0.333333  0.666667  0.032151  1
  Si  Si7  1  0.666667  0.333333  0.532151  1
  Si  Si8  1  0.333333  0.666667  0.532151  1
  Si  Si9  1  0.666667  0.333333  0.032151  1
  H  H10  1  0.000000  0.000000  0.582491  1
  H  H11  1  0.000000  0.000000  0.082491  1
  H  H12  1  0.351167  0.000000  0.853931  1
  H  H13  1  0.351167  0.351167  0.353931  1
  H  H14  1  0.000000  0.648833  0.353931  1
  H  H15  1  0.000000  0.351167  0.853931  1
  H  H16  1  0.648833  0.648833  0.853931  1
  H  H17  1  0.648833  0.000000  0.353931  1
  O  O18  1  0.000000  0.000000  0.647787  1
  O  O19  1  0.000000  0.000000  0.147787  1
  O  O20  1  0.333333  0.666667  0.140867  1
  O  O21  1  0.666667  0.333333  0.640867  1
  O  O22  1  0.333333  0.666667  0.640867  1
  O  O23  1  0.666667  0.333333  0.140867  1
  O  O24  1  0.488165  0.000000  0.990764  1
  O  O25  1  0.488165  0.488165  0.490764  1
  O  O26  1  0.000000  0.511835  0.490764  1
  O  O27  1  0.000000  0.488165  0.990764  1
  O  O28  1  0.511835  0.511835  0.990764  1
  O  O29  1  0.511835  0.000000  0.490764  1
  O  O30  1  0.663853  0.000000  0.288547  1
  O  O31  1  0.663853  0.663853  0.788547  1
  O  O32  1  0.000000  0.336147  0.788547  1
  O  O33  1  0.000000  0.663853  0.288547  1
  O  O34  1  0.336147  0.336147  0.288547  1
  O  O35  1  0.336147  0.000000  0.788547  1
