# generated using pymatgen
data_CrCl3
_symmetry_space_group_name_H-M   'P 1'
_cell_length_a   6.06010566
_cell_length_b   6.06010566
_cell_length_c   6.58075279
_cell_angle_alpha   81.40858698
_cell_angle_beta   98.59141302
_cell_angle_gamma   60.00874201
_symmetry_Int_Tables_number   1
_chemical_formula_structural   CrCl3
_chemical_formula_sum   'Cr2 Cl6'
_cell_volume   199.75894192
_cell_formula_units_Z   2
loop_
 _symmetry_equiv_pos_site_id
 _symmetry_equiv_pos_as_xyz
  1  'x, y, z'
loop_
 _atom_site_type_symbol
 _atom_site_label
 _atom_site_symmetry_multiplicity
 _atom_site_fract_x
 _atom_site_fract_y
 _atom_site_fract_z
 _atom_site_occupancy
  Cr  Cr0  1  0.166681  0.166681  0.000000  1
  Cr  Cr1  1  0.833319  0.833319  0.000000  1
  Cl  Cl2  1  0.568850  0.071681  0.212442  1
  Cl  Cl3  1  0.071681  0.568850  0.787558  1
  Cl  Cl4  1  0.209122  0.790878  0.213126  1
  Cl  Cl5  1  0.790878  0.209122  0.786874  1
  Cl  Cl6  1  0.928319  0.431150  0.212442  1
  Cl  Cl7  1  0.431150  0.928319  0.787558  1
