# generated using pymatgen
data_Na2Ti3Cl8
_symmetry_space_group_name_H-M   'P 1'
_cell_length_a   7.92797115
_cell_length_b   7.92797115
_cell_length_c   7.92797115
_cell_angle_alpha   54.79821091
_cell_angle_beta   54.79821091
_cell_angle_gamma   54.79821091
_symmetry_Int_Tables_number   1
_chemical_formula_structural   Na2Ti3Cl8
_chemical_formula_sum   'Na2 Ti3 Cl8'
_cell_volume   309.66801348
_cell_formula_units_Z   1
loop_
 _symmetry_equiv_pos_site_id
 _symmetry_equiv_pos_as_xyz
  1  'x, y, z'
loop_
 _atom_site_type_symbol
 _atom_site_label
 _atom_site_symmetry_multiplicity
 _atom_site_fract_x
 _atom_site_fract_y
 _atom_site_fract_z
 _atom_site_occupancy
  Na  Na0  1  0.841340  0.841340  0.841340  1
  Na  Na1  1  0.158660  0.158660  0.158660  1
  Ti  Ti2  1  0.500000  1.000000  0.500000  1
  Ti  Ti3  1  0.500000  0.500000  0.000000  1
  Ti  Ti4  1  0.000000  0.500000  0.500000  1
  Cl  Cl5  1  0.594886  0.594886  0.594886  1
  Cl  Cl6  1  0.405114  0.405114  0.405114  1
  Cl  Cl7  1  0.421306  0.899153  0.899153  1
  Cl  Cl8  1  0.899153  0.421306  0.899153  1
  Cl  Cl9  1  0.899153  0.899153  0.421306  1
  Cl  Cl10  1  0.100847  0.100847  0.578694  1
  Cl  Cl11  1  0.578694  0.100847  0.100847  1
  Cl  Cl12  1  0.100847  0.578694  0.100847  1
