# generated using pymatgen
data_Y6OsI10
_symmetry_space_group_name_H-M   'P 1'
_cell_length_a   7.76337507
_cell_length_b   9.74332758
_cell_length_c   9.77881333
_cell_angle_alpha   106.97200608
_cell_angle_beta   96.76147168
_cell_angle_gamma   104.52672375
_symmetry_Int_Tables_number   1
_chemical_formula_structural   Y6OsI10
_chemical_formula_sum   'Y6 Os1 I10'
_cell_volume   670.12439497
_cell_formula_units_Z   1
loop_
 _symmetry_equiv_pos_site_id
 _symmetry_equiv_pos_as_xyz
  1  'x, y, z'
loop_
 _atom_site_type_symbol
 _atom_site_label
 _atom_site_symmetry_multiplicity
 _atom_site_fract_x
 _atom_site_fract_y
 _atom_site_fract_z
 _atom_site_occupancy
  Y  Y0  1  0.114542  0.042628  0.761262  1
  Y  Y1  1  0.885458  0.957372  0.238738  1
  Y  Y2  1  0.968584  0.280432  0.082297  1
  Y  Y3  1  0.031416  0.719568  0.917703  1
  Y  Y4  1  0.351523  0.125442  0.167779  1
  Y  Y5  1  0.648477  0.874558  0.832221  1
  Os  Os6  1  0.000000  0.000000  0.000000  1
  I  I7  1  0.348640  0.449344  0.271462  1
  I  I8  1  0.651360  0.550656  0.728538  1
  I  I9  1  0.256299  0.086552  0.460086  1
  I  I10  1  0.743701  0.913448  0.539914  1
  I  I11  1  0.086336  0.370758  0.820121  1
  I  I12  1  0.913664  0.629242  0.179879  1
  I  I13  1  0.454869  0.815939  0.092178  1
  I  I14  1  0.545131  0.184061  0.907822  1
  I  I15  1  0.782236  0.256800  0.345459  1
  I  I16  1  0.217764  0.743200  0.654541  1
