# generated using pymatgen
data_LaBr3
_symmetry_space_group_name_H-M   'P 1'
_cell_length_a   8.12705955
_cell_length_b   8.12705955
_cell_length_c   4.51221682
_cell_angle_alpha   90.00000000
_cell_angle_beta   90.00000000
_cell_angle_gamma   120.00000000
_symmetry_Int_Tables_number   1
_chemical_formula_structural   LaBr3
_chemical_formula_sum   'La2 Br6'
_cell_volume   258.09968580
_cell_formula_units_Z   2
loop_
 _symmetry_equiv_pos_site_id
 _symmetry_equiv_pos_as_xyz
  1  'x, y, z'
loop_
 _atom_site_type_symbol
 _atom_site_label
 _atom_site_symmetry_multiplicity
 _atom_site_fract_x
 _atom_site_fract_y
 _atom_site_fract_z
 _atom_site_occupancy
  La  La0  1  0.666667  0.333333  0.750000  1
  La  La1  1  0.333333  0.666667  0.250000  1
  Br  Br2  1  0.610880  0.697828  0.750000  1
  Br  Br3  1  0.913053  0.610880  0.250000  1
  Br  Br4  1  0.389120  0.302172  0.250000  1
  Br  Br5  1  0.086947  0.389120  0.750000  1
  Br  Br6  1  0.302172  0.913053  0.750000  1
  Br  Br7  1  0.697828  0.086947  0.250000  1
