# generated using pymatgen
data_ThBr4
_symmetry_space_group_name_H-M   'P 1'
_cell_length_a   7.60244468
_cell_length_b   7.60244468
_cell_length_c   7.60244468
_cell_angle_alpha   107.14418959
_cell_angle_beta   107.14418959
_cell_angle_gamma   114.23280505
_symmetry_Int_Tables_number   1
_chemical_formula_structural   ThBr4
_chemical_formula_sum   'Th2 Br8'
_cell_volume   336.48299050
_cell_formula_units_Z   2
loop_
 _symmetry_equiv_pos_site_id
 _symmetry_equiv_pos_as_xyz
  1  'x, y, z'
loop_
 _atom_site_type_symbol
 _atom_site_label
 _atom_site_symmetry_multiplicity
 _atom_site_fract_x
 _atom_site_fract_y
 _atom_site_fract_z
 _atom_site_occupancy
  Th  Th0  1  0.250000  0.750000  0.500000  1
  Th  Th1  1  0.000000  0.000000  0.000000  1
  Br  Br2  1  0.383563  0.069802  0.313760  1
  Br  Br3  1  0.319802  0.506042  0.186240  1
  Br  Br4  1  0.930198  0.243958  0.313760  1
  Br  Br5  1  0.866437  0.680198  0.186240  1
  Br  Br6  1  0.493958  0.680198  0.813760  1
  Br  Br7  1  0.930198  0.616437  0.686240  1
  Br  Br8  1  0.756042  0.069802  0.686240  1
  Br  Br9  1  0.319802  0.133563  0.813760  1
