# generated using pymatgen
data_Na2AsH15O11
_symmetry_space_group_name_H-M   'P 1'
_cell_length_a   9.49085903
_cell_length_b   11.02677808
_cell_length_c   13.55053578
_cell_angle_alpha   90.00000000
_cell_angle_beta   128.46807089
_cell_angle_gamma   90.00000000
_symmetry_Int_Tables_number   1
_chemical_formula_structural   Na2AsH15O11
_chemical_formula_sum   'Na8 As4 H60 O44'
_cell_volume   1110.31803582
_cell_formula_units_Z   4
loop_
 _symmetry_equiv_pos_site_id
 _symmetry_equiv_pos_as_xyz
  1  'x, y, z'
loop_
 _atom_site_type_symbol
 _atom_site_label
 _atom_site_symmetry_multiplicity
 _atom_site_fract_x
 _atom_site_fract_y
 _atom_site_fract_z
 _atom_site_occupancy
  Na  Na0  1  0.831086  0.603114  0.478349  1
  Na  Na1  1  0.168914  0.103114  0.021651  1
  Na  Na2  1  0.168914  0.396886  0.521651  1
  Na  Na3  1  0.831086  0.896886  0.978349  1
  Na  Na4  1  0.844217  0.896281  0.479285  1
  Na  Na5  1  0.155783  0.396281  0.020715  1
  Na  Na6  1  0.155783  0.103719  0.520715  1
  Na  Na7  1  0.844217  0.603719  0.979285  1
  As  As8  1  0.294844  0.766522  0.896026  1
  As  As9  1  0.705156  0.266522  0.603974  1
  As  As10  1  0.705156  0.233478  0.103974  1
  As  As11  1  0.294844  0.733478  0.396026  1
  H  H12  1  0.412770  0.554729  0.369477  1
  H  H13  1  0.587230  0.054729  0.130523  1
  H  H14  1  0.587230  0.445271  0.630523  1
  H  H15  1  0.412770  0.945271  0.869477  1
  H  H16  1  0.999974  0.887978  0.352118  1
  H  H17  1  0.000026  0.387978  0.147882  1
  H  H18  1  0.000026  0.112022  0.647882  1
  H  H19  1  0.999974  0.612022  0.852118  1
  H  H20  1  0.868704  0.001080  0.280888  1
  H  H21  1  0.131296  0.501080  0.219112  1
  H  H22  1  0.131296  0.998920  0.719112  1
  H  H23  1  0.868704  0.498920  0.780888  1
  H  H24  1  0.892852  0.747569  0.186993  1
  H  H25  1  0.107148  0.247569  0.313007  1
  H  H26  1  0.107148  0.252431  0.813007  1
  H  H27  1  0.892852  0.752431  0.686993  1
  H  H28  1  0.679272  0.747549  0.087653  1
  H  H29  1  0.320728  0.247549  0.412347  1
  H  H30  1  0.320728  0.252451  0.912347  1
  H  H31  1  0.679272  0.752451  0.587653  1
  H  H32  1  0.155154  0.971968  0.218178  1
  H  H33  1  0.844846  0.471968  0.281822  1
  H  H34  1  0.844846  0.028032  0.781822  1
  H  H35  1  0.155154  0.528032  0.718178  1
  H  H36  1  0.032550  0.091730  0.167936  1
  H  H37  1  0.967450  0.591730  0.332064  1
  H  H38  1  0.967450  0.908270  0.832064  1
  H  H39  1  0.032550  0.408270  0.667936  1
  H  H40  1  0.108373  0.741860  0.500409  1
  H  H41  1  0.891627  0.241860  0.999591  1
  H  H42  1  0.891627  0.258140  0.499591  1
  H  H43  1  0.108373  0.758140  0.000409  1
  H  H44  1  0.175483  0.723021  0.641505  1
  H  H45  1  0.824517  0.223021  0.858495  1
  H  H46  1  0.824517  0.276979  0.358495  1
  H  H47  1  0.175483  0.776979  0.141505  1
  H  H48  1  0.448406  0.911740  0.595344  1
  H  H49  1  0.551594  0.411740  0.904656  1
  H  H50  1  0.551594  0.088260  0.404656  1
  H  H51  1  0.448406  0.588260  0.095344  1
  H  H52  1  0.522255  0.049232  0.628859  1
  H  H53  1  0.477745  0.549232  0.871141  1
  H  H54  1  0.477745  0.950768  0.371141  1
  H  H55  1  0.522255  0.450768  0.128859  1
  H  H56  1  0.490773  0.508408  0.724829  1
  H  H57  1  0.509227  0.008408  0.775171  1
  H  H58  1  0.509227  0.491592  0.275171  1
  H  H59  1  0.490773  0.991592  0.224829  1
  H  H60  1  0.450743  0.597377  0.615429  1
  H  H61  1  0.549257  0.097377  0.884571  1
  H  H62  1  0.549257  0.402623  0.384571  1
  H  H63  1  0.450743  0.902623  0.115429  1
  H  H64  1  0.513829  0.730696  0.812231  1
  H  H65  1  0.486171  0.230696  0.687769  1
  H  H66  1  0.486171  0.269304  0.187769  1
  H  H67  1  0.513829  0.769304  0.312231  1
  H  H68  1  0.571762  0.756315  0.728535  1
  H  H69  1  0.428238  0.256315  0.771465  1
  H  H70  1  0.428238  0.243685  0.271465  1
  H  H71  1  0.571762  0.743685  0.228535  1
  O  O72  1  0.620022  0.750759  0.316818  1
  O  O73  1  0.379978  0.250759  0.183182  1
  O  O74  1  0.379978  0.249241  0.683182  1
  O  O75  1  0.620022  0.749241  0.816818  1
  O  O76  1  0.441533  0.987601  0.134721  1
  O  O77  1  0.558467  0.487601  0.365279  1
  O  O78  1  0.558467  0.012399  0.865279  1
  O  O79  1  0.441533  0.512399  0.634721  1
  O  O80  1  0.433012  0.507305  0.119528  1
  O  O81  1  0.566988  0.007305  0.380472  1
  O  O82  1  0.566988  0.492695  0.880472  1
  O  O83  1  0.433012  0.992695  0.619528  1
  O  O84  1  0.326957  0.825218  0.309231  1
  O  O85  1  0.673043  0.325218  0.190769  1
  O  O86  1  0.673043  0.174782  0.690769  1
  O  O87  1  0.326957  0.674782  0.809231  1
  O  O88  1  0.460304  0.752679  0.555330  1
  O  O89  1  0.539696  0.252679  0.944670  1
  O  O90  1  0.539696  0.247321  0.444670  1
  O  O91  1  0.460304  0.747321  0.055330  1
  O  O92  1  0.083561  0.743969  0.353444  1
  O  O93  1  0.916439  0.243969  0.146556  1
  O  O94  1  0.916439  0.256031  0.646556  1
  O  O95  1  0.083561  0.756031  0.853444  1
  O  O96  1  0.301124  0.579536  0.360061  1
  O  O97  1  0.698876  0.079536  0.139939  1
  O  O98  1  0.698876  0.420464  0.639939  1
  O  O99  1  0.301124  0.920464  0.860061  1
  O  O100  1  0.953254  0.962201  0.364293  1
  O  O101  1  0.046746  0.462201  0.135707  1
  O  O102  1  0.046746  0.037799  0.635707  1
  O  O103  1  0.953254  0.537799  0.864293  1
  O  O104  1  0.790385  0.747646  0.095549  1
  O  O105  1  0.209615  0.247646  0.404451  1
  O  O106  1  0.209615  0.252354  0.904451  1
  O  O107  1  0.790385  0.752354  0.595549  1
  O  O108  1  0.073805  0.023747  0.144273  1
  O  O109  1  0.926195  0.523747  0.355727  1
  O  O110  1  0.926195  0.976253  0.855727  1
  O  O111  1  0.073805  0.476253  0.644273  1
  O  O112  1  0.071865  0.745557  0.554526  1
  O  O113  1  0.928135  0.245557  0.945474  1
  O  O114  1  0.928135  0.254443  0.445474  1
  O  O115  1  0.071865  0.754443  0.054526  1
