# generated using pymatgen
data_La2Ge2O7
_symmetry_space_group_name_H-M   'P 1'
_cell_length_a   7.08387640
_cell_length_b   7.13138333
_cell_length_c   12.91356172
_cell_angle_alpha   94.09990845
_cell_angle_beta   90.38095712
_cell_angle_gamma   91.01095216
_symmetry_Int_Tables_number   1
_chemical_formula_structural   La2Ge2O7
_chemical_formula_sum   'La8 Ge8 O28'
_cell_volume   650.57399744
_cell_formula_units_Z   4
loop_
 _symmetry_equiv_pos_site_id
 _symmetry_equiv_pos_as_xyz
  1  'x, y, z'
loop_
 _atom_site_type_symbol
 _atom_site_label
 _atom_site_symmetry_multiplicity
 _atom_site_fract_x
 _atom_site_fract_y
 _atom_site_fract_z
 _atom_site_occupancy
  La  La0  1  0.333606  0.828754  0.106796  1
  La  La1  1  0.666394  0.171246  0.893204  1
  La  La2  1  0.633564  0.761883  0.371393  1
  La  La3  1  0.366436  0.238117  0.628607  1
  La  La4  1  0.118485  0.086454  0.360204  1
  La  La5  1  0.881515  0.913546  0.639796  1
  La  La6  1  0.051212  0.331697  0.116665  1
  La  La7  1  0.948788  0.668303  0.883335  1
  Ge  Ge8  1  0.852869  0.378247  0.615098  1
  Ge  Ge9  1  0.147131  0.621753  0.384902  1
  Ge  Ge10  1  0.624163  0.264157  0.402720  1
  Ge  Ge11  1  0.375837  0.735843  0.597280  1
  Ge  Ge12  1  0.510521  0.326990  0.172181  1
  Ge  Ge13  1  0.489479  0.673010  0.827819  1
  Ge  Ge14  1  0.844093  0.851852  0.117235  1
  Ge  Ge15  1  0.155907  0.148148  0.882765  1
  O  O16  1  0.005064  0.013816  0.183197  1
  O  O17  1  0.994936  0.986184  0.816803  1
  O  O18  1  0.007736  0.668136  0.078710  1
  O  O19  1  0.992264  0.331864  0.921290  1
  O  O20  1  0.652575  0.784210  0.192074  1
  O  O21  1  0.347425  0.215790  0.807926  1
  O  O22  1  0.751063  0.903077  0.995578  1
  O  O23  1  0.248937  0.096923  0.004422  1
  O  O24  1  0.926579  0.586649  0.684678  1
  O  O25  1  0.073421  0.413351  0.315322  1
  O  O26  1  0.035376  0.227291  0.568562  1
  O  O27  1  0.964624  0.772709  0.431438  1
  O  O28  1  0.707769  0.220111  0.683195  1
  O  O29  1  0.292231  0.779889  0.316805  1
  O  O30  1  0.702001  0.433974  0.506101  1
  O  O31  1  0.297999  0.566026  0.493899  1
  O  O32  1  0.646559  0.508845  0.873779  1
  O  O33  1  0.353441  0.491155  0.126221  1
  O  O34  1  0.628243  0.864672  0.789452  1
  O  O35  1  0.371757  0.135328  0.210548  1
  O  O36  1  0.298422  0.717505  0.910848  1
  O  O37  1  0.701578  0.282495  0.089152  1
  O  O38  1  0.395148  0.577393  0.698837  1
  O  O39  1  0.604852  0.422607  0.301163  1
  O  O40  1  0.587370  0.835416  0.554336  1
  O  O41  1  0.412630  0.164584  0.445664  1
  O  O42  1  0.223225  0.920512  0.621526  1
  O  O43  1  0.776775  0.079488  0.378474  1
