# generated using pymatgen
data_Al2O3
_symmetry_space_group_name_H-M   'P 1'
_cell_length_a   4.88643120
_cell_length_b   8.39683838
_cell_length_c   9.02480008
_cell_angle_alpha   90.00000000
_cell_angle_beta   90.00000000
_cell_angle_gamma   90.00000000
_symmetry_Int_Tables_number   1
_chemical_formula_structural   Al2O3
_chemical_formula_sum   'Al16 O24'
_cell_volume   370.29271887
_cell_formula_units_Z   8
loop_
 _symmetry_equiv_pos_site_id
 _symmetry_equiv_pos_as_xyz
  1  'x, y, z'
loop_
 _atom_site_type_symbol
 _atom_site_label
 _atom_site_symmetry_multiplicity
 _atom_site_fract_x
 _atom_site_fract_y
 _atom_site_fract_z
 _atom_site_occupancy
  Al  Al0  1  0.676133  0.152429  0.206868  1
  Al  Al1  1  0.823867  0.652429  0.706868  1
  Al  Al2  1  0.683401  0.839895  0.016022  1
  Al  Al3  1  0.816599  0.339895  0.516022  1
  Al  Al4  1  0.316599  0.160105  0.516022  1
  Al  Al5  1  0.172353  0.030960  0.006151  1
  Al  Al6  1  0.685537  0.153885  0.794707  1
  Al  Al7  1  0.185537  0.346115  0.794707  1
  Al  Al8  1  0.314463  0.846115  0.294707  1
  Al  Al9  1  0.827647  0.969040  0.506151  1
  Al  Al10  1  0.672353  0.469040  0.006151  1
  Al  Al11  1  0.176133  0.347571  0.206868  1
  Al  Al12  1  0.323867  0.847571  0.706868  1
  Al  Al13  1  0.814463  0.653885  0.294707  1
  Al  Al14  1  0.327647  0.530960  0.506151  1
  Al  Al15  1  0.183401  0.660105  0.016022  1
  O  O16  1  0.977248  0.511715  0.141725  1
  O  O17  1  0.343122  0.839051  0.905742  1
  O  O18  1  0.020766  0.823956  0.134871  1
  O  O19  1  0.482468  0.668659  0.647526  1
  O  O20  1  0.843122  0.660949  0.905742  1
  O  O21  1  0.342478  0.168647  0.880132  1
  O  O22  1  0.979234  0.176044  0.634871  1
  O  O23  1  0.156878  0.339051  0.405742  1
  O  O24  1  0.982468  0.831341  0.647526  1
  O  O25  1  0.520766  0.676044  0.134871  1
  O  O26  1  0.522752  0.011715  0.641725  1
  O  O27  1  0.656878  0.160949  0.405742  1
  O  O28  1  0.657811  0.501340  0.412355  1
  O  O29  1  0.517532  0.331341  0.147526  1
  O  O30  1  0.017532  0.168659  0.147526  1
  O  O31  1  0.022752  0.488285  0.641725  1
  O  O32  1  0.157811  0.998660  0.412355  1
  O  O33  1  0.157522  0.668647  0.380132  1
  O  O34  1  0.479234  0.323956  0.634871  1
  O  O35  1  0.657522  0.831353  0.380132  1
  O  O36  1  0.477248  0.988285  0.141725  1
  O  O37  1  0.842189  0.001340  0.912355  1
  O  O38  1  0.342189  0.498660  0.912355  1
  O  O39  1  0.842478  0.331353  0.880132  1
