# generated using pymatgen
data_K2ZnH12(SO7)2
_symmetry_space_group_name_H-M   'P 1'
_cell_length_a   6.25947087
_cell_length_b   12.30793787
_cell_length_c   9.05810429
_cell_angle_alpha   90.00000000
_cell_angle_beta   103.98821261
_cell_angle_gamma   90.00000000
_symmetry_Int_Tables_number   1
_chemical_formula_structural   K2ZnH12(SO7)2
_chemical_formula_sum   'K4 Zn2 H24 S4 O28'
_cell_volume   677.15270833
_cell_formula_units_Z   2
loop_
 _symmetry_equiv_pos_site_id
 _symmetry_equiv_pos_as_xyz
  1  'x, y, z'
loop_
 _atom_site_type_symbol
 _atom_site_label
 _atom_site_symmetry_multiplicity
 _atom_site_fract_x
 _atom_site_fract_y
 _atom_site_fract_z
 _atom_site_occupancy
  K  K0  1  0.654007  0.160586  0.362748  1
  K  K1  1  0.345993  0.660586  0.137252  1
  K  K2  1  0.345993  0.839414  0.637252  1
  K  K3  1  0.654007  0.339414  0.862748  1
  Zn  Zn4  1  0.000000  0.500000  0.500000  1
  Zn  Zn5  1  0.000000  0.000000  0.000000  1
  H  H6  1  0.675839  0.646170  0.476475  1
  H  H7  1  0.324161  0.146170  0.023525  1
  H  H8  1  0.324161  0.353830  0.523525  1
  H  H9  1  0.675839  0.853830  0.976475  1
  H  H10  1  0.669315  0.562302  0.610446  1
  H  H11  1  0.330685  0.062302  0.889554  1
  H  H12  1  0.073765  0.395011  0.771112  1
  H  H13  1  0.926235  0.895011  0.728888  1
  H  H14  1  0.926235  0.604989  0.228888  1
  H  H15  1  0.073765  0.104989  0.271112  1
  H  H16  1  0.903916  0.380208  0.242235  1
  H  H17  1  0.096084  0.880208  0.257765  1
  H  H18  1  0.096084  0.619792  0.757765  1
  H  H19  1  0.903916  0.119792  0.742235  1
  H  H20  1  0.674316  0.417188  0.275049  1
  H  H21  1  0.325684  0.917188  0.224951  1
  H  H22  1  0.325684  0.582812  0.724951  1
  H  H23  1  0.674316  0.082812  0.775049  1
  H  H24  1  0.998043  0.805322  0.856974  1
  H  H25  1  0.001957  0.305322  0.643026  1
  H  H26  1  0.669315  0.937698  0.110446  1
  H  H27  1  0.330685  0.437698  0.389554  1
  H  H28  1  0.998043  0.694678  0.356974  1
  H  H29  1  0.001957  0.194678  0.143026  1
  S  S30  1  0.728093  0.864907  0.413458  1
  S  S31  1  0.271907  0.135093  0.586542  1
  S  S32  1  0.728093  0.635093  0.913458  1
  S  S33  1  0.271907  0.364907  0.086542  1
  O  O34  1  0.175188  0.609173  0.676232  1
  O  O35  1  0.175188  0.890827  0.176232  1
  O  O36  1  0.965705  0.120153  0.172222  1
  O  O37  1  0.034295  0.620153  0.327778  1
  O  O38  1  0.034295  0.879847  0.827778  1
  O  O39  1  0.965705  0.379847  0.672222  1
  O  O40  1  0.706024  0.930838  0.009851  1
  O  O41  1  0.824812  0.109173  0.823768  1
  O  O42  1  0.293976  0.069162  0.990149  1
  O  O43  1  0.706024  0.569162  0.509851  1
  O  O44  1  0.049438  0.331116  0.105423  1
  O  O45  1  0.950562  0.831116  0.394577  1
  O  O46  1  0.950562  0.668884  0.894577  1
  O  O47  1  0.049438  0.168884  0.605423  1
  O  O48  1  0.378716  0.440795  0.212323  1
  O  O49  1  0.621284  0.940795  0.287677  1
  O  O50  1  0.621284  0.559205  0.787677  1
  O  O51  1  0.378716  0.059205  0.712323  1
  O  O52  1  0.250834  0.421046  0.938624  1
  O  O53  1  0.749166  0.921046  0.561376  1
  O  O54  1  0.749166  0.578954  0.061376  1
  O  O55  1  0.250834  0.078954  0.438624  1
  O  O56  1  0.293976  0.430838  0.490149  1
  O  O57  1  0.584258  0.766805  0.405544  1
  O  O58  1  0.584258  0.733195  0.905544  1
  O  O59  1  0.415742  0.233195  0.594456  1
  O  O60  1  0.824812  0.390827  0.323768  1
  O  O61  1  0.415742  0.266805  0.094456  1
