# generated using pymatgen
data_In2S3
_symmetry_space_group_name_H-M   'P 1'
_cell_length_a   17.33046547
_cell_length_b   17.33046547
_cell_length_c   17.33046547
_cell_angle_alpha   154.10381714
_cell_angle_beta   154.10381714
_cell_angle_gamma   36.94872597
_symmetry_Int_Tables_number   1
_chemical_formula_structural   In2S3
_chemical_formula_sum   'In16 S24'
_cell_volume   991.45431282
_cell_formula_units_Z   8
loop_
 _symmetry_equiv_pos_site_id
 _symmetry_equiv_pos_as_xyz
  1  'x, y, z'
loop_
 _atom_site_type_symbol
 _atom_site_label
 _atom_site_symmetry_multiplicity
 _atom_site_fract_x
 _atom_site_fract_y
 _atom_site_fract_z
 _atom_site_occupancy
  In  In0  1  0.420228  0.920228  0.500000  1
  In  In1  1  0.670228  0.670228  0.000000  1
  In  In2  1  0.329772  0.329772  0.000000  1
  In  In3  1  0.079772  0.579772  0.500000  1
  In  In4  1  0.207189  0.438980  0.231791  1
  In  In5  1  0.024601  0.792811  0.231791  1
  In  In6  1  0.561020  0.792811  0.768209  1
  In  In7  1  0.542811  0.274601  0.731791  1
  In  In8  1  0.542811  0.811020  0.268209  1
  In  In9  1  0.188980  0.457189  0.731791  1
  In  In10  1  0.725399  0.457189  0.268209  1
  In  In11  1  0.207189  0.975399  0.768209  1
  In  In12  1  0.875000  0.125000  0.250000  1
  In  In13  1  0.875000  0.125000  0.750000  1
  In  In14  1  0.375000  0.125000  0.250000  1
  In  In15  1  0.875000  0.625000  0.750000  1
  S  S16  1  0.288004  0.560505  0.272501  1
  S  S17  1  0.984497  0.711996  0.272501  1
  S  S18  1  0.439495  0.711996  0.727499  1
  S  S19  1  0.461996  0.234497  0.772501  1
  S  S20  1  0.461996  0.689495  0.227499  1
  S  S21  1  0.310505  0.538004  0.772501  1
  S  S22  1  0.765503  0.538004  0.227499  1
  S  S23  1  0.288004  0.015503  0.727499  1
  S  S24  1  0.952796  0.215842  0.263045  1
  S  S25  1  0.310249  0.047204  0.263045  1
  S  S26  1  0.784158  0.047204  0.736955  1
  S  S27  1  0.797204  0.560249  0.763045  1
  S  S28  1  0.797204  0.034158  0.236955  1
  S  S29  1  0.965842  0.202796  0.763045  1
  S  S30  1  0.439751  0.202796  0.236955  1
  S  S31  1  0.952796  0.689751  0.736955  1
  S  S32  1  0.125689  0.883343  0.757655  1
  S  S33  1  0.633343  0.375689  0.257655  1
  S  S34  1  0.118034  0.375689  0.742345  1
  S  S35  1  0.624311  0.881966  0.257655  1
  S  S36  1  0.624311  0.366657  0.742345  1
  S  S37  1  0.631966  0.874311  0.757655  1
  S  S38  1  0.116657  0.874311  0.242345  1
  S  S39  1  0.125689  0.368034  0.242345  1
