# generated using pymatgen
data_TlCdBr3
_symmetry_space_group_name_H-M   'P 1'
_cell_length_a   4.21979673
_cell_length_b   9.64021373
_cell_length_c   15.78138653
_cell_angle_alpha   90.00000000
_cell_angle_beta   90.00000000
_cell_angle_gamma   90.00000000
_symmetry_Int_Tables_number   1
_chemical_formula_structural   TlCdBr3
_chemical_formula_sum   'Tl4 Cd4 Br12'
_cell_volume   641.98273835
_cell_formula_units_Z   4
loop_
 _symmetry_equiv_pos_site_id
 _symmetry_equiv_pos_as_xyz
  1  'x, y, z'
loop_
 _atom_site_type_symbol
 _atom_site_label
 _atom_site_symmetry_multiplicity
 _atom_site_fract_x
 _atom_site_fract_y
 _atom_site_fract_z
 _atom_site_occupancy
  Tl  Tl0  1  0.250000  0.938484  0.322684  1
  Tl  Tl1  1  0.750000  0.061516  0.677316  1
  Tl  Tl2  1  0.250000  0.438484  0.177316  1
  Tl  Tl3  1  0.750000  0.561516  0.822684  1
  Cd  Cd4  1  0.250000  0.667676  0.555322  1
  Cd  Cd5  1  0.750000  0.332324  0.444678  1
  Cd  Cd6  1  0.250000  0.167676  0.944678  1
  Cd  Cd7  1  0.750000  0.832324  0.055322  1
  Br  Br8  1  0.250000  0.520899  0.397634  1
  Br  Br9  1  0.750000  0.479101  0.602366  1
  Br  Br10  1  0.250000  0.020899  0.102366  1
  Br  Br11  1  0.750000  0.979101  0.897634  1
  Br  Br12  1  0.250000  0.666064  0.993761  1
  Br  Br13  1  0.750000  0.333936  0.006239  1
  Br  Br14  1  0.250000  0.166064  0.506239  1
  Br  Br15  1  0.750000  0.833936  0.493761  1
  Br  Br16  1  0.750000  0.712513  0.211376  1
  Br  Br17  1  0.250000  0.287487  0.788624  1
  Br  Br18  1  0.750000  0.212513  0.288624  1
  Br  Br19  1  0.250000  0.787487  0.711376  1
