# generated using pymatgen
data_Li2CrPCO7
_symmetry_space_group_name_H-M   'P 1'
_cell_length_a   5.02315887
_cell_length_b   6.39042739
_cell_length_c   8.47905883
_cell_angle_alpha   90.00000000
_cell_angle_beta   93.62839809
_cell_angle_gamma   90.00000000
_symmetry_Int_Tables_number   1
_chemical_formula_structural   Li2CrPCO7
_chemical_formula_sum   'Li4 Cr2 P2 C2 O14'
_cell_volume   271.63332108
_cell_formula_units_Z   2
loop_
 _symmetry_equiv_pos_site_id
 _symmetry_equiv_pos_as_xyz
  1  'x, y, z'
loop_
 _atom_site_type_symbol
 _atom_site_label
 _atom_site_symmetry_multiplicity
 _atom_site_fract_x
 _atom_site_fract_y
 _atom_site_fract_z
 _atom_site_occupancy
  Li  Li0  1  0.774773  0.001453  0.725868  1
  Li  Li1  1  0.225227  0.998547  0.274132  1
  Li  Li2  1  0.225227  0.501453  0.274132  1
  Li  Li3  1  0.774773  0.498547  0.725868  1
  Cr  Cr4  1  0.790671  0.750000  0.156378  1
  Cr  Cr5  1  0.209329  0.250000  0.843622  1
  P  P6  1  0.722438  0.250000  0.080699  1
  P  P7  1  0.277562  0.750000  0.919301  1
  C  C8  1  0.726997  0.750000  0.441506  1
  C  C9  1  0.273003  0.250000  0.558494  1
  O  O10  1  0.174749  0.941925  0.823762  1
  O  O11  1  0.961805  0.750000  0.380417  1
  O  O12  1  0.473906  0.250000  0.667864  1
  O  O13  1  0.526094  0.750000  0.332136  1
  O  O14  1  0.174749  0.558075  0.823762  1
  O  O15  1  0.167330  0.750000  0.087153  1
  O  O16  1  0.038195  0.250000  0.619583  1
  O  O17  1  0.825251  0.441925  0.176238  1
  O  O18  1  0.825251  0.058075  0.176238  1
  O  O19  1  0.411840  0.250000  0.058188  1
  O  O20  1  0.696081  0.750000  0.587642  1
  O  O21  1  0.303919  0.250000  0.412358  1
  O  O22  1  0.588160  0.750000  0.941812  1
  O  O23  1  0.832670  0.250000  0.912847  1
