# generated using pymatgen
data_LiB2H3O5
_symmetry_space_group_name_H-M   'P 1'
_cell_length_a   8.38728990
_cell_length_b   9.78145632
_cell_length_c   9.97059926
_cell_angle_alpha   90.00000000
_cell_angle_beta   90.00000000
_cell_angle_gamma   90.00000000
_symmetry_Int_Tables_number   1
_chemical_formula_structural   LiB2H3O5
_chemical_formula_sum   'Li8 B16 H24 O40'
_cell_volume   817.98706394
_cell_formula_units_Z   8
loop_
 _symmetry_equiv_pos_site_id
 _symmetry_equiv_pos_as_xyz
  1  'x, y, z'
loop_
 _atom_site_type_symbol
 _atom_site_label
 _atom_site_symmetry_multiplicity
 _atom_site_fract_x
 _atom_site_fract_y
 _atom_site_fract_z
 _atom_site_occupancy
  Li  Li0  1  0.525853  0.831857  0.445691  1
  Li  Li1  1  0.025853  0.668143  0.054309  1
  Li  Li2  1  0.474147  0.831857  0.054309  1
  Li  Li3  1  0.974147  0.668143  0.445691  1
  Li  Li4  1  0.474147  0.168143  0.554309  1
  Li  Li5  1  0.974147  0.331857  0.945691  1
  Li  Li6  1  0.525853  0.168143  0.945691  1
  Li  Li7  1  0.025853  0.331857  0.554309  1
  B  B8  1  0.250000  0.750000  0.265306  1
  B  B9  1  0.750000  0.750000  0.234694  1
  B  B10  1  0.750000  0.250000  0.734694  1
  B  B11  1  0.250000  0.250000  0.765306  1
  B  B12  1  0.725149  0.539994  0.095986  1
  B  B13  1  0.225149  0.960006  0.404014  1
  B  B14  1  0.274851  0.539994  0.404014  1
  B  B15  1  0.774851  0.960006  0.095986  1
  B  B16  1  0.274851  0.460006  0.904014  1
  B  B17  1  0.774851  0.039994  0.595986  1
  B  B18  1  0.725149  0.460006  0.595986  1
  B  B19  1  0.225149  0.039994  0.904014  1
  B  B20  1  0.500000  0.607626  0.250000  1
  B  B21  1  0.000000  0.892374  0.250000  1
  B  B22  1  0.500000  0.392374  0.750000  1
  B  B23  1  0.000000  0.107626  0.750000  1
  H  H24  1  0.708651  0.406677  0.937946  1
  H  H25  1  0.208651  0.093323  0.562054  1
  H  H26  1  0.291349  0.406677  0.562054  1
  H  H27  1  0.791349  0.093323  0.937946  1
  H  H28  1  0.291349  0.593323  0.062054  1
  H  H29  1  0.791349  0.906677  0.437946  1
  H  H30  1  0.708651  0.593323  0.437946  1
  H  H31  1  0.208651  0.906677  0.062054  1
  H  H32  1  0.405948  0.235755  0.183025  1
  H  H33  1  0.905948  0.264245  0.316975  1
  H  H34  1  0.594052  0.235755  0.316975  1
  H  H35  1  0.094052  0.264245  0.183025  1
  H  H36  1  0.594052  0.764245  0.816975  1
  H  H37  1  0.094052  0.735755  0.683025  1
  H  H38  1  0.405948  0.764245  0.683025  1
  H  H39  1  0.905948  0.735755  0.816975  1
  H  H40  1  0.501528  0.362399  0.124773  1
  H  H41  1  0.001528  0.137601  0.375227  1
  H  H42  1  0.498472  0.362399  0.375227  1
  H  H43  1  0.998472  0.137601  0.124773  1
  H  H44  1  0.498472  0.637601  0.875227  1
  H  H45  1  0.998472  0.862399  0.624773  1
  H  H46  1  0.501528  0.637601  0.624773  1
  H  H47  1  0.001528  0.862399  0.875227  1
  O  O48  1  0.527202  0.735812  0.891482  1
  O  O49  1  0.027202  0.764188  0.608518  1
  O  O50  1  0.472798  0.735812  0.608518  1
  O  O51  1  0.972798  0.764188  0.891482  1
  O  O52  1  0.472798  0.264188  0.108518  1
  O  O53  1  0.972798  0.235812  0.391482  1
  O  O54  1  0.527202  0.264188  0.391482  1
  O  O55  1  0.027202  0.235812  0.108518  1
  O  O56  1  0.787764  0.458978  0.994165  1
  O  O57  1  0.287764  0.041022  0.505835  1
  O  O58  1  0.212236  0.458978  0.505835  1
  O  O59  1  0.712236  0.041022  0.994165  1
  O  O60  1  0.212236  0.541022  0.005835  1
  O  O61  1  0.712236  0.958978  0.494165  1
  O  O62  1  0.787764  0.541022  0.494165  1
  O  O63  1  0.287764  0.958978  0.005835  1
  O  O64  1  0.574799  0.517234  0.147040  1
  O  O65  1  0.074799  0.982766  0.352960  1
  O  O66  1  0.425201  0.517234  0.352960  1
  O  O67  1  0.925201  0.982766  0.147040  1
  O  O68  1  0.425201  0.482766  0.852960  1
  O  O69  1  0.925201  0.017234  0.647040  1
  O  O70  1  0.574799  0.482766  0.647040  1
  O  O71  1  0.074799  0.017234  0.852960  1
  O  O72  1  0.623016  0.691676  0.318679  1
  O  O73  1  0.123016  0.808324  0.181321  1
  O  O74  1  0.376984  0.691676  0.181321  1
  O  O75  1  0.876984  0.808324  0.318679  1
  O  O76  1  0.376984  0.308324  0.681321  1
  O  O77  1  0.876984  0.191676  0.818679  1
  O  O78  1  0.623016  0.308324  0.818679  1
  O  O79  1  0.123016  0.191676  0.681321  1
  O  O80  1  0.820815  0.641285  0.146040  1
  O  O81  1  0.320815  0.858715  0.353960  1
  O  O82  1  0.179185  0.641285  0.353960  1
  O  O83  1  0.679185  0.858715  0.146040  1
  O  O84  1  0.179185  0.358715  0.853960  1
  O  O85  1  0.679185  0.141285  0.646040  1
  O  O86  1  0.820815  0.358715  0.646040  1
  O  O87  1  0.320815  0.141285  0.853960  1
