# generated using pymatgen
data_YbCoB4
_symmetry_space_group_name_H-M   'P 1'
_cell_length_a   3.30178949
_cell_length_b   5.90176313
_cell_length_c   11.42225261
_cell_angle_alpha   90.00000000
_cell_angle_beta   90.00000000
_cell_angle_gamma   90.00000000
_symmetry_Int_Tables_number   1
_chemical_formula_structural   YbCoB4
_chemical_formula_sum   'Yb4 Co4 B16'
_cell_volume   222.57834882
_cell_formula_units_Z   4
loop_
 _symmetry_equiv_pos_site_id
 _symmetry_equiv_pos_as_xyz
  1  'x, y, z'
loop_
 _atom_site_type_symbol
 _atom_site_label
 _atom_site_symmetry_multiplicity
 _atom_site_fract_x
 _atom_site_fract_y
 _atom_site_fract_z
 _atom_site_occupancy
  Yb  Yb0  1  0.000000  0.372897  0.650727  1
  Yb  Yb1  1  0.000000  0.627103  0.349273  1
  Yb  Yb2  1  0.000000  0.872897  0.849273  1
  Yb  Yb3  1  0.000000  0.127103  0.150727  1
  Co  Co4  1  0.000000  0.365990  0.911647  1
  Co  Co5  1  0.000000  0.634010  0.088353  1
  Co  Co6  1  0.000000  0.865990  0.588353  1
  Co  Co7  1  0.000000  0.134010  0.411647  1
  B  B8  1  0.500000  0.024742  0.689850  1
  B  B9  1  0.500000  0.975258  0.310150  1
  B  B10  1  0.500000  0.524742  0.810150  1
  B  B11  1  0.500000  0.475258  0.189850  1
  B  B12  1  0.500000  0.111457  0.546080  1
  B  B13  1  0.500000  0.888543  0.453920  1
  B  B14  1  0.500000  0.611457  0.953920  1
  B  B15  1  0.500000  0.388543  0.046080  1
  B  B16  1  0.500000  0.281409  0.317144  1
  B  B17  1  0.500000  0.718591  0.682856  1
  B  B18  1  0.500000  0.781409  0.182856  1
  B  B19  1  0.500000  0.218591  0.817144  1
  B  B20  1  0.500000  0.360234  0.468549  1
  B  B21  1  0.500000  0.639766  0.531451  1
  B  B22  1  0.500000  0.860234  0.031451  1
  B  B23  1  0.500000  0.139766  0.968549  1
