# generated using pymatgen
data_Cr3C2
_symmetry_space_group_name_H-M   'P 1'
_cell_length_a   2.78836894
_cell_length_b   5.48244966
_cell_length_c   11.51010020
_cell_angle_alpha   90.00000000
_cell_angle_beta   90.00000000
_cell_angle_gamma   90.00000000
_symmetry_Int_Tables_number   1
_chemical_formula_structural   Cr3C2
_chemical_formula_sum   'Cr12 C8'
_cell_volume   175.95596468
_cell_formula_units_Z   4
loop_
 _symmetry_equiv_pos_site_id
 _symmetry_equiv_pos_as_xyz
  1  'x, y, z'
loop_
 _atom_site_type_symbol
 _atom_site_label
 _atom_site_symmetry_multiplicity
 _atom_site_fract_x
 _atom_site_fract_y
 _atom_site_fract_z
 _atom_site_occupancy
  Cr  Cr0  1  0.750000  0.016693  0.403166  1
  Cr  Cr1  1  0.250000  0.983307  0.596834  1
  Cr  Cr2  1  0.750000  0.516693  0.096834  1
  Cr  Cr3  1  0.250000  0.483307  0.903166  1
  Cr  Cr4  1  0.250000  0.816441  0.226357  1
  Cr  Cr5  1  0.750000  0.183559  0.773643  1
  Cr  Cr6  1  0.250000  0.316441  0.273643  1
  Cr  Cr7  1  0.750000  0.683559  0.726357  1
  Cr  Cr8  1  0.250000  0.133728  0.068226  1
  Cr  Cr9  1  0.750000  0.866272  0.931774  1
  Cr  Cr10  1  0.250000  0.633728  0.431774  1
  Cr  Cr11  1  0.750000  0.366272  0.568226  1
  C  C12  1  0.750000  0.601333  0.297694  1
  C  C13  1  0.250000  0.398667  0.702306  1
  C  C14  1  0.750000  0.101333  0.202306  1
  C  C15  1  0.250000  0.898667  0.797694  1
  C  C16  1  0.250000  0.762909  0.049034  1
  C  C17  1  0.750000  0.237091  0.950966  1
  C  C18  1  0.250000  0.262909  0.450966  1
  C  C19  1  0.750000  0.737091  0.549034  1
