# generated using pymatgen
data_KTiH2S2O9
_symmetry_space_group_name_H-M   'P 1'
_cell_length_a   7.80046635
_cell_length_b   5.32421987
_cell_length_c   9.29958814
_cell_angle_alpha   90.00000000
_cell_angle_beta   101.16846904
_cell_angle_gamma   90.00000000
_symmetry_Int_Tables_number   1
_chemical_formula_structural   KTiH2S2O9
_chemical_formula_sum   'K2 Ti2 H4 S4 O18'
_cell_volume   378.91052899
_cell_formula_units_Z   2
loop_
 _symmetry_equiv_pos_site_id
 _symmetry_equiv_pos_as_xyz
  1  'x, y, z'
loop_
 _atom_site_type_symbol
 _atom_site_label
 _atom_site_symmetry_multiplicity
 _atom_site_fract_x
 _atom_site_fract_y
 _atom_site_fract_z
 _atom_site_occupancy
  K  K0  1  0.430973  0.250000  0.284539  1
  K  K1  1  0.569027  0.750000  0.715461  1
  Ti  Ti2  1  0.084222  0.750000  0.732621  1
  Ti  Ti3  1  0.915778  0.250000  0.267379  1
  H  H4  1  0.181861  0.750000  0.030209  1
  H  H5  1  0.818139  0.250000  0.969791  1
  H  H6  1  0.968578  0.750000  0.995594  1
  H  H7  1  0.031422  0.250000  0.004406  1
  S  S8  1  0.669772  0.750000  0.143199  1
  S  S9  1  0.330228  0.250000  0.856801  1
  S  S10  1  0.834899  0.250000  0.611761  1
  S  S11  1  0.165101  0.750000  0.388239  1
  O  O12  1  0.731533  0.522058  0.238956  1
  O  O13  1  0.268467  0.022058  0.761044  1
  O  O14  1  0.268467  0.477942  0.761044  1
  O  O15  1  0.731533  0.977942  0.238956  1
  O  O16  1  0.479746  0.750000  0.111157  1
  O  O17  1  0.520254  0.250000  0.888843  1
  O  O18  1  0.750993  0.750000  0.013049  1
  O  O19  1  0.249007  0.250000  0.986951  1
  O  O20  1  0.110610  0.522254  0.293450  1
  O  O21  1  0.889390  0.022254  0.706550  1
  O  O22  1  0.889390  0.477746  0.706550  1
  O  O23  1  0.110610  0.977746  0.293450  1
  O  O24  1  0.067084  0.750000  0.510372  1
  O  O25  1  0.932916  0.250000  0.489628  1
  O  O26  1  0.354186  0.750000  0.436523  1
  O  O27  1  0.645814  0.250000  0.563477  1
  O  O28  1  0.076974  0.750000  0.953338  1
  O  O29  1  0.923026  0.250000  0.046662  1
