# generated using pymatgen
data_Sn(PO3)3
_symmetry_space_group_name_H-M   'P 1'
_cell_length_a   6.64490275
_cell_length_b   7.07458776
_cell_length_c   7.84682414
_cell_angle_alpha   83.52090435
_cell_angle_beta   80.44338962
_cell_angle_gamma   82.81946527
_symmetry_Int_Tables_number   1
_chemical_formula_structural   Sn(PO3)3
_chemical_formula_sum   'Sn2 P6 O18'
_cell_volume   359.30441571
_cell_formula_units_Z   2
loop_
 _symmetry_equiv_pos_site_id
 _symmetry_equiv_pos_as_xyz
  1  'x, y, z'
loop_
 _atom_site_type_symbol
 _atom_site_label
 _atom_site_symmetry_multiplicity
 _atom_site_fract_x
 _atom_site_fract_y
 _atom_site_fract_z
 _atom_site_occupancy
  Sn  Sn0  1  0.005428  0.217176  0.154978  1
  Sn  Sn1  1  0.994572  0.782824  0.845022  1
  P  P2  1  0.357008  0.376141  0.786324  1
  P  P3  1  0.176399  0.162692  0.551324  1
  P  P4  1  0.823601  0.837308  0.448676  1
  P  P5  1  0.174415  0.693129  0.209846  1
  P  P6  1  0.825585  0.306871  0.790154  1
  P  P7  1  0.642992  0.623859  0.213676  1
  O  O8  1  0.397449  0.654570  0.256509  1
  O  O9  1  0.702157  0.411531  0.211561  1
  O  O10  1  0.795279  0.029950  0.347330  1
  O  O11  1  0.204721  0.970050  0.652670  1
  O  O12  1  0.297843  0.588469  0.788439  1
  O  O13  1  0.898543  0.479330  0.843513  1
  O  O14  1  0.943631  0.262018  0.600879  1
  O  O15  1  0.144232  0.870677  0.081023  1
  O  O16  1  0.056369  0.737982  0.399121  1
  O  O17  1  0.715239  0.763147  0.063526  1
  O  O18  1  0.213225  0.167373  0.356209  1
  O  O19  1  0.855768  0.129323  0.918977  1
  O  O20  1  0.312055  0.312483  0.604719  1
  O  O21  1  0.284761  0.236853  0.936474  1
  O  O22  1  0.101457  0.520670  0.156487  1
  O  O23  1  0.602551  0.345430  0.743491  1
  O  O24  1  0.687945  0.687517  0.395281  1
  O  O25  1  0.786775  0.832627  0.643791  1
