# generated using pymatgen
data_NiPb2(NO2)6
_symmetry_space_group_name_H-M   'P 1'
_cell_length_a   7.08351283
_cell_length_b   7.08351283
_cell_length_c   7.08351283
_cell_angle_alpha   60.00000000
_cell_angle_beta   60.00000000
_cell_angle_gamma   60.00000000
_symmetry_Int_Tables_number   1
_chemical_formula_structural   NiPb2(NO2)6
_chemical_formula_sum   'Ni1 Pb2 N6 O12'
_cell_volume   251.32231854
_cell_formula_units_Z   1
loop_
 _symmetry_equiv_pos_site_id
 _symmetry_equiv_pos_as_xyz
  1  'x, y, z'
loop_
 _atom_site_type_symbol
 _atom_site_label
 _atom_site_symmetry_multiplicity
 _atom_site_fract_x
 _atom_site_fract_y
 _atom_site_fract_z
 _atom_site_occupancy
  Ni  Ni0  1  0.000000  0.000000  0.000000  1
  Pb  Pb1  1  0.750000  0.750000  0.750000  1
  Pb  Pb2  1  0.250000  0.250000  0.250000  1
  N  N3  1  0.796630  0.203370  0.203370  1
  N  N4  1  0.796630  0.796630  0.203370  1
  N  N5  1  0.203370  0.796630  0.203370  1
  N  N6  1  0.203370  0.796630  0.796630  1
  N  N7  1  0.203370  0.203370  0.796630  1
  N  N8  1  0.796630  0.203370  0.796630  1
  O  O9  1  0.000000  0.629764  0.370236  1
  O  O10  1  1.000000  1.000000  0.370236  1
  O  O11  1  0.629764  0.000000  0.370236  1
  O  O12  1  0.370236  0.000000  0.000000  1
  O  O13  1  0.370236  0.629764  1.000000  1
  O  O14  1  0.370236  0.000000  0.629764  1
  O  O15  1  0.629764  1.000000  0.000000  1
  O  O16  1  0.000000  1.000000  0.629764  1
  O  O17  1  1.000000  0.629764  0.000000  1
  O  O18  1  0.000000  0.370236  0.629764  1
  O  O19  1  0.629764  0.370236  1.000000  1
  O  O20  1  0.000000  0.370236  1.000000  1
