# generated using pymatgen
data_Na2CS3
_symmetry_space_group_name_H-M   'P 1'
_cell_length_a   6.00436651
_cell_length_b   6.00436651
_cell_length_c   8.62865119
_cell_angle_alpha   75.48971441
_cell_angle_beta   104.51028559
_cell_angle_gamma   115.64611871
_symmetry_Int_Tables_number   1
_chemical_formula_structural   Na2CS3
_chemical_formula_sum   'Na4 C2 S6'
_cell_volume   267.86841581
_cell_formula_units_Z   2
loop_
 _symmetry_equiv_pos_site_id
 _symmetry_equiv_pos_as_xyz
  1  'x, y, z'
loop_
 _atom_site_type_symbol
 _atom_site_label
 _atom_site_symmetry_multiplicity
 _atom_site_fract_x
 _atom_site_fract_y
 _atom_site_fract_z
 _atom_site_occupancy
  Na  Na0  1  0.568784  0.833080  0.391057  1
  Na  Na1  1  0.833080  0.568784  0.108943  1
  Na  Na2  1  0.166920  0.431216  0.891057  1
  Na  Na3  1  0.431216  0.166920  0.608943  1
  C  C4  1  0.088674  0.088674  0.250000  1
  C  C5  1  0.911326  0.911326  0.750000  1
  S  S6  1  0.358545  0.358545  0.250000  1
  S  S7  1  0.641455  0.641455  0.750000  1
  S  S8  1  0.082780  0.821660  0.385390  1
  S  S9  1  0.821660  0.082780  0.114610  1
  S  S10  1  0.917220  0.178340  0.614610  1
  S  S11  1  0.178340  0.917220  0.885390  1
