# generated using pymatgen
data_CeBO3
_symmetry_space_group_name_H-M   'P 1'
_cell_length_a   5.11207195
_cell_length_b   5.82640857
_cell_length_c   8.23081217
_cell_angle_alpha   90.00000000
_cell_angle_beta   90.00000000
_cell_angle_gamma   90.00000000
_symmetry_Int_Tables_number   1
_chemical_formula_structural   CeBO3
_chemical_formula_sum   'Ce4 B4 O12'
_cell_volume   245.15490362
_cell_formula_units_Z   4
loop_
 _symmetry_equiv_pos_site_id
 _symmetry_equiv_pos_as_xyz
  1  'x, y, z'
loop_
 _atom_site_type_symbol
 _atom_site_label
 _atom_site_symmetry_multiplicity
 _atom_site_fract_x
 _atom_site_fract_y
 _atom_site_fract_z
 _atom_site_occupancy
  Ce  Ce0  1  0.250000  0.756504  0.085826  1
  Ce  Ce1  1  0.750000  0.243496  0.914174  1
  Ce  Ce2  1  0.250000  0.256504  0.414174  1
  Ce  Ce3  1  0.750000  0.743496  0.585826  1
  B  B4  1  0.250000  0.920611  0.740523  1
  B  B5  1  0.750000  0.079389  0.259477  1
  B  B6  1  0.250000  0.420611  0.759477  1
  B  B7  1  0.750000  0.579389  0.240523  1
  O  O8  1  0.750000  0.590518  0.073458  1
  O  O9  1  0.250000  0.409482  0.926542  1
  O  O10  1  0.750000  0.090518  0.426542  1
  O  O11  1  0.250000  0.909482  0.573458  1
  O  O12  1  0.516591  0.585106  0.325620  1
  O  O13  1  0.016591  0.414894  0.674380  1
  O  O14  1  0.983409  0.085106  0.174380  1
  O  O15  1  0.483409  0.914894  0.825620  1
  O  O16  1  0.483409  0.414894  0.674380  1
  O  O17  1  0.983409  0.585106  0.325620  1
  O  O18  1  0.016591  0.914894  0.825620  1
  O  O19  1  0.516591  0.085106  0.174380  1
