# generated using pymatgen
data_K2Mn3S4
_symmetry_space_group_name_H-M   'P 1'
_cell_length_a   7.31283691
_cell_length_b   6.02701179
_cell_length_c   11.14605017
_cell_angle_alpha   90.00000000
_cell_angle_beta   112.32666834
_cell_angle_gamma   90.00000000
_symmetry_Int_Tables_number   1
_chemical_formula_structural   K2Mn3S4
_chemical_formula_sum   'K4 Mn6 S8'
_cell_volume   454.42911520
_cell_formula_units_Z   2
loop_
 _symmetry_equiv_pos_site_id
 _symmetry_equiv_pos_as_xyz
  1  'x, y, z'
loop_
 _atom_site_type_symbol
 _atom_site_label
 _atom_site_symmetry_multiplicity
 _atom_site_fract_x
 _atom_site_fract_y
 _atom_site_fract_z
 _atom_site_occupancy
  K  K0  1  0.000000  0.494496  0.750000  1
  K  K1  1  0.000000  0.000000  0.000000  1
  K  K2  1  0.000000  0.000000  0.500000  1
  K  K3  1  0.000000  0.505504  0.250000  1
  Mn  Mn4  1  0.501284  0.249962  0.970866  1
  Mn  Mn5  1  0.498716  0.249962  0.529134  1
  Mn  Mn6  1  0.498716  0.750038  0.029134  1
  Mn  Mn7  1  0.501284  0.750038  0.470866  1
  Mn  Mn8  1  0.500000  0.249400  0.250000  1
  Mn  Mn9  1  0.500000  0.750600  0.750000  1
  S  S10  1  0.291877  0.534634  0.563119  1
  S  S11  1  0.292166  0.032557  0.333036  1
  S  S12  1  0.707834  0.032557  0.166964  1
  S  S13  1  0.708123  0.534634  0.936881  1
  S  S14  1  0.292166  0.967443  0.833036  1
  S  S15  1  0.707834  0.967443  0.666964  1
  S  S16  1  0.291877  0.465366  0.063119  1
  S  S17  1  0.708123  0.465366  0.436881  1
