# generated using pymatgen
data_YSiNi
_symmetry_space_group_name_H-M   'P 1'
_cell_length_a   4.15526663
_cell_length_b   6.89020246
_cell_length_c   7.18016949
_cell_angle_alpha   90.00000000
_cell_angle_beta   90.00000000
_cell_angle_gamma   90.00000000
_symmetry_Int_Tables_number   1
_chemical_formula_structural   YSiNi
_chemical_formula_sum   'Y4 Si4 Ni4'
_cell_volume   205.57276420
_cell_formula_units_Z   4
loop_
 _symmetry_equiv_pos_site_id
 _symmetry_equiv_pos_as_xyz
  1  'x, y, z'
loop_
 _atom_site_type_symbol
 _atom_site_label
 _atom_site_symmetry_multiplicity
 _atom_site_fract_x
 _atom_site_fract_y
 _atom_site_fract_z
 _atom_site_occupancy
  Y  Y0  1  0.250000  0.491727  0.201481  1
  Y  Y1  1  0.750000  0.508273  0.798519  1
  Y  Y2  1  0.250000  0.991727  0.298519  1
  Y  Y3  1  0.750000  0.008273  0.701481  1
  Si  Si4  1  0.250000  0.807993  0.911457  1
  Si  Si5  1  0.750000  0.192007  0.088543  1
  Si  Si6  1  0.250000  0.307993  0.588543  1
  Si  Si7  1  0.750000  0.692007  0.411457  1
  Ni  Ni8  1  0.750000  0.814242  0.081391  1
  Ni  Ni9  1  0.250000  0.185758  0.918609  1
  Ni  Ni10  1  0.750000  0.314242  0.418609  1
  Ni  Ni11  1  0.250000  0.685758  0.581391  1
