# generated using pymatgen
data_Ca4In2N
_symmetry_space_group_name_H-M   'P 1'
_cell_length_a   14.98903535
_cell_length_b   14.98903535
_cell_length_c   14.98903535
_cell_angle_alpha   161.04840223
_cell_angle_beta   161.04840223
_cell_angle_gamma   26.92670693
_symmetry_Int_Tables_number   1
_chemical_formula_structural   Ca4In2N
_chemical_formula_sum   'Ca8 In4 N2'
_cell_volume   355.06049798
_cell_formula_units_Z   2
loop_
 _symmetry_equiv_pos_site_id
 _symmetry_equiv_pos_as_xyz
  1  'x, y, z'
loop_
 _atom_site_type_symbol
 _atom_site_label
 _atom_site_symmetry_multiplicity
 _atom_site_fract_x
 _atom_site_fract_y
 _atom_site_fract_z
 _atom_site_occupancy
  Ca  Ca0  1  0.668832  0.168832  0.500000  1
  Ca  Ca1  1  0.500796  0.000796  0.500000  1
  Ca  Ca2  1  0.831168  0.331168  0.500000  1
  Ca  Ca3  1  0.918832  0.918832  0.000000  1
  Ca  Ca4  1  0.081168  0.081168  0.000000  1
  Ca  Ca5  1  0.999204  0.499204  0.500000  1
  Ca  Ca6  1  0.249204  0.249204  0.000000  1
  Ca  Ca7  1  0.750796  0.750796  0.000000  1
  In  In8  1  0.409502  0.409502  0.000000  1
  In  In9  1  0.159502  0.659502  0.500000  1
  In  In10  1  0.590498  0.590498  0.000000  1
  In  In11  1  0.340498  0.840498  0.500000  1
  N  N12  1  0.750000  0.250000  0.500000  1
  N  N13  1  1.000000  1.000000  0.000000  1
