# generated using pymatgen
data_Pb(NO3)2
_symmetry_space_group_name_H-M   'P 1'
_cell_length_a   7.99213065
_cell_length_b   7.99213065
_cell_length_c   7.99213065
_cell_angle_alpha   90.00000000
_cell_angle_beta   90.00000000
_cell_angle_gamma   90.00000000
_symmetry_Int_Tables_number   1
_chemical_formula_structural   Pb(NO3)2
_chemical_formula_sum   'Pb4 N8 O24'
_cell_volume   510.49057055
_cell_formula_units_Z   4
loop_
 _symmetry_equiv_pos_site_id
 _symmetry_equiv_pos_as_xyz
  1  'x, y, z'
loop_
 _atom_site_type_symbol
 _atom_site_label
 _atom_site_symmetry_multiplicity
 _atom_site_fract_x
 _atom_site_fract_y
 _atom_site_fract_z
 _atom_site_occupancy
  Pb  Pb0  1  0.000000  0.500000  0.500000  1
  Pb  Pb1  1  0.500000  0.500000  0.000000  1
  Pb  Pb2  1  0.500000  0.000000  0.500000  1
  Pb  Pb3  1  0.000000  0.000000  0.000000  1
  N  N4  1  0.350356  0.350356  0.350356  1
  N  N5  1  0.350356  0.149644  0.850356  1
  N  N6  1  0.149644  0.850356  0.350356  1
  N  N7  1  0.850356  0.350356  0.149644  1
  N  N8  1  0.649644  0.649644  0.649644  1
  N  N9  1  0.149644  0.649644  0.850356  1
  N  N10  1  0.850356  0.149644  0.649644  1
  N  N11  1  0.649644  0.850356  0.149644  1
  O  O12  1  0.778187  0.292944  0.020480  1
  O  O13  1  0.207056  0.979520  0.278187  1
  O  O14  1  0.221813  0.792944  0.479520  1
  O  O15  1  0.278187  0.207056  0.979520  1
  O  O16  1  0.278187  0.292944  0.479520  1
  O  O17  1  0.479520  0.278187  0.292944  1
  O  O18  1  0.292944  0.479520  0.278187  1
  O  O19  1  0.207056  0.520480  0.778187  1
  O  O20  1  0.979520  0.221813  0.707056  1
  O  O21  1  0.707056  0.979520  0.221813  1
  O  O22  1  0.020480  0.721813  0.792944  1
  O  O23  1  0.520480  0.778187  0.207056  1
  O  O24  1  0.792944  0.020480  0.721813  1
  O  O25  1  0.778187  0.207056  0.520480  1
  O  O26  1  0.721813  0.792944  0.020480  1
  O  O27  1  0.221813  0.707056  0.979520  1
  O  O28  1  0.721813  0.707056  0.520480  1
  O  O29  1  0.520480  0.721813  0.707056  1
  O  O30  1  0.707056  0.520480  0.721813  1
  O  O31  1  0.792944  0.479520  0.221813  1
  O  O32  1  0.020480  0.778187  0.292944  1
  O  O33  1  0.292944  0.020480  0.778187  1
  O  O34  1  0.979520  0.278187  0.207056  1
  O  O35  1  0.479520  0.221813  0.792944  1
