# generated using pymatgen
data_CrB
_symmetry_space_group_name_H-M   'P 1'
_cell_length_a   4.18931116
_cell_length_b   4.18931116
_cell_length_c   2.91639673
_cell_angle_alpha   90.00000000
_cell_angle_beta   90.00000000
_cell_angle_gamma   139.11151813
_symmetry_Int_Tables_number   1
_chemical_formula_structural   CrB
_chemical_formula_sum   'Cr2 B2'
_cell_volume   33.50429190
_cell_formula_units_Z   2
loop_
 _symmetry_equiv_pos_site_id
 _symmetry_equiv_pos_as_xyz
  1  'x, y, z'
loop_
 _atom_site_type_symbol
 _atom_site_label
 _atom_site_symmetry_multiplicity
 _atom_site_fract_x
 _atom_site_fract_y
 _atom_site_fract_z
 _atom_site_occupancy
  Cr  Cr0  1  0.854533  0.145467  0.750000  1
  Cr  Cr1  1  0.145467  0.854533  0.250000  1
  B  B2  1  0.564426  0.435574  0.750000  1
  B  B3  1  0.435574  0.564426  0.250000  1
