# generated using pymatgen
data_Sc4BCl6
_symmetry_space_group_name_H-M   'P 1'
_cell_length_a   3.61232704
_cell_length_b   11.92014527
_cell_length_c   12.35059434
_cell_angle_alpha   90.00000000
_cell_angle_beta   90.00000000
_cell_angle_gamma   90.00000000
_symmetry_Int_Tables_number   1
_chemical_formula_structural   Sc4BCl6
_chemical_formula_sum   'Sc8 B2 Cl12'
_cell_volume   531.80996099
_cell_formula_units_Z   2
loop_
 _symmetry_equiv_pos_site_id
 _symmetry_equiv_pos_as_xyz
  1  'x, y, z'
loop_
 _atom_site_type_symbol
 _atom_site_label
 _atom_site_symmetry_multiplicity
 _atom_site_fract_x
 _atom_site_fract_y
 _atom_site_fract_z
 _atom_site_occupancy
  Sc  Sc0  1  0.000000  0.104881  0.083168  1
  Sc  Sc1  1  0.000000  0.895119  0.916832  1
  Sc  Sc2  1  0.000000  0.604881  0.416832  1
  Sc  Sc3  1  0.000000  0.395119  0.583168  1
  Sc  Sc4  1  0.500000  0.124566  0.853625  1
  Sc  Sc5  1  0.500000  0.875434  0.146375  1
  Sc  Sc6  1  0.500000  0.624566  0.646375  1
  Sc  Sc7  1  0.500000  0.375434  0.353625  1
  B  B8  1  0.500000  0.000000  0.000000  1
  B  B9  1  0.500000  0.500000  0.500000  1
  Cl  Cl10  1  0.500000  0.268493  0.681313  1
  Cl  Cl11  1  0.500000  0.731507  0.318687  1
  Cl  Cl12  1  0.500000  0.768493  0.818687  1
  Cl  Cl13  1  0.500000  0.231507  0.181313  1
  Cl  Cl14  1  0.000000  0.256628  0.930457  1
  Cl  Cl15  1  0.000000  0.743372  0.069543  1
  Cl  Cl16  1  0.000000  0.479213  0.243518  1
  Cl  Cl17  1  0.000000  0.520787  0.756482  1
  Cl  Cl18  1  0.000000  0.979213  0.256482  1
  Cl  Cl19  1  0.000000  0.020787  0.743518  1
  Cl  Cl20  1  0.000000  0.243372  0.430457  1
  Cl  Cl21  1  0.000000  0.756628  0.569543  1
