# generated using pymatgen
data_CrB4
_symmetry_space_group_name_H-M   'P 1'
_cell_length_a   3.89931010
_cell_length_b   3.89931010
_cell_length_c   3.89931010
_cell_angle_alpha   137.08240284
_cell_angle_beta   104.96446015
_cell_angle_gamma   90.54124466
_symmetry_Int_Tables_number   1
_chemical_formula_structural   CrB4
_chemical_formula_sum   'Cr1 B4'
_cell_volume   37.18362235
_cell_formula_units_Z   1
loop_
 _symmetry_equiv_pos_site_id
 _symmetry_equiv_pos_as_xyz
  1  'x, y, z'
loop_
 _atom_site_type_symbol
 _atom_site_label
 _atom_site_symmetry_multiplicity
 _atom_site_fract_x
 _atom_site_fract_y
 _atom_site_fract_z
 _atom_site_occupancy
  Cr  Cr0  1  0.000000  0.000000  0.000000  1
  B  B1  1  0.462528  0.657802  0.804726  1
  B  B2  1  0.853076  0.657802  0.195274  1
  B  B3  1  0.146924  0.342198  0.804726  1
  B  B4  1  0.537472  0.342198  0.195274  1
