# generated using pymatgen
data_Tl5Se3
_symmetry_space_group_name_H-M   'P 1'
_cell_length_a   8.59451633
_cell_length_b   8.59451633
_cell_length_c   12.81879083
_cell_angle_alpha   90.00000000
_cell_angle_beta   90.00000000
_cell_angle_gamma   90.00000000
_symmetry_Int_Tables_number   1
_chemical_formula_structural   Tl5Se3
_chemical_formula_sum   'Tl20 Se12'
_cell_volume   946.86909813
_cell_formula_units_Z   4
loop_
 _symmetry_equiv_pos_site_id
 _symmetry_equiv_pos_as_xyz
  1  'x, y, z'
loop_
 _atom_site_type_symbol
 _atom_site_label
 _atom_site_symmetry_multiplicity
 _atom_site_fract_x
 _atom_site_fract_y
 _atom_site_fract_z
 _atom_site_occupancy
  Tl  Tl0  1  0.646853  0.344959  0.597793  1
  Tl  Tl1  1  0.146853  0.155041  0.902207  1
  Tl  Tl2  1  0.844959  0.853147  0.597793  1
  Tl  Tl3  1  0.155041  0.146853  0.597793  1
  Tl  Tl4  1  0.500000  0.000000  0.255716  1
  Tl  Tl5  1  0.000000  0.500000  0.244284  1
  Tl  Tl6  1  0.000000  0.500000  0.744284  1
  Tl  Tl7  1  0.500000  0.000000  0.755716  1
  Tl  Tl8  1  0.353147  0.655041  0.597793  1
  Tl  Tl9  1  0.344959  0.646853  0.902207  1
  Tl  Tl10  1  0.655041  0.353147  0.902207  1
  Tl  Tl11  1  0.853147  0.844959  0.902207  1
  Tl  Tl12  1  0.344959  0.353147  0.402207  1
  Tl  Tl13  1  0.655041  0.646853  0.402207  1
  Tl  Tl14  1  0.353147  0.344959  0.097793  1
  Tl  Tl15  1  0.853147  0.155041  0.402207  1
  Tl  Tl16  1  0.146853  0.844959  0.402207  1
  Tl  Tl17  1  0.155041  0.853147  0.097793  1
  Tl  Tl18  1  0.844959  0.146853  0.097793  1
  Tl  Tl19  1  0.646853  0.655041  0.097793  1
  Se  Se20  1  0.500000  0.000000  0.502677  1
  Se  Se21  1  0.000000  0.500000  0.997323  1
  Se  Se22  1  0.000000  0.500000  0.497323  1
  Se  Se23  1  0.500000  0.000000  0.002677  1
  Se  Se24  1  0.341919  0.341919  0.750000  1
  Se  Se25  1  0.158081  0.841919  0.750000  1
  Se  Se26  1  0.841919  0.158081  0.750000  1
  Se  Se27  1  0.658081  0.658081  0.750000  1
  Se  Se28  1  0.158081  0.158081  0.250000  1
  Se  Se29  1  0.341919  0.658081  0.250000  1
  Se  Se30  1  0.658081  0.341919  0.250000  1
  Se  Se31  1  0.841919  0.841919  0.250000  1
