# generated using pymatgen
data_Ni3B
_symmetry_space_group_name_H-M   'P 1'
_cell_length_a   4.38439698
_cell_length_b   5.17722114
_cell_length_c   6.62045902
_cell_angle_alpha   90.00000000
_cell_angle_beta   90.00000000
_cell_angle_gamma   90.00000000
_symmetry_Int_Tables_number   1
_chemical_formula_structural   Ni3B
_chemical_formula_sum   'Ni12 B4'
_cell_volume   150.27775117
_cell_formula_units_Z   4
loop_
 _symmetry_equiv_pos_site_id
 _symmetry_equiv_pos_as_xyz
  1  'x, y, z'
loop_
 _atom_site_type_symbol
 _atom_site_label
 _atom_site_symmetry_multiplicity
 _atom_site_fract_x
 _atom_site_fract_y
 _atom_site_fract_z
 _atom_site_occupancy
  Ni  Ni0  1  0.655842  0.319982  0.937184  1
  Ni  Ni1  1  0.155842  0.180018  0.062816  1
  Ni  Ni2  1  0.844158  0.819982  0.562816  1
  Ni  Ni3  1  0.344158  0.680018  0.437184  1
  Ni  Ni4  1  0.866729  0.527955  0.250000  1
  Ni  Ni5  1  0.366729  0.972045  0.750000  1
  Ni  Ni6  1  0.633271  0.027955  0.250000  1
  Ni  Ni7  1  0.133271  0.472045  0.750000  1
  Ni  Ni8  1  0.655842  0.319982  0.562816  1
  Ni  Ni9  1  0.155842  0.180018  0.437184  1
  Ni  Ni10  1  0.844158  0.819982  0.937184  1
  Ni  Ni11  1  0.344158  0.680018  0.062816  1
  B  B12  1  0.560706  0.618324  0.750000  1
  B  B13  1  0.060706  0.881676  0.250000  1
  B  B14  1  0.939294  0.118324  0.750000  1
  B  B15  1  0.439294  0.381676  0.250000  1
