# generated using pymatgen
data_Na2CaH10C2O11
_symmetry_space_group_name_H-M   'P 1'
_cell_length_a   8.25928828
_cell_length_b   8.25928828
_cell_length_c   11.28662179
_cell_angle_alpha   57.41871763
_cell_angle_beta   122.58128237
_cell_angle_gamma   124.34089697
_symmetry_Int_Tables_number   1
_chemical_formula_structural   Na2CaH10C2O11
_chemical_formula_sum   'Na4 Ca2 H20 C4 O22'
_cell_volume   504.27554375
_cell_formula_units_Z   2
loop_
 _symmetry_equiv_pos_site_id
 _symmetry_equiv_pos_as_xyz
  1  'x, y, z'
loop_
 _atom_site_type_symbol
 _atom_site_label
 _atom_site_symmetry_multiplicity
 _atom_site_fract_x
 _atom_site_fract_y
 _atom_site_fract_z
 _atom_site_occupancy
  Na  Na0  1  0.278552  0.102519  0.486314  1
  Na  Na1  1  0.102519  0.278552  0.013686  1
  Na  Na2  1  0.721448  0.897481  0.513686  1
  Na  Na3  1  0.897481  0.721449  0.986314  1
  Ca  Ca4  1  0.193122  0.193122  0.750000  1
  Ca  Ca5  1  0.806878  0.806878  0.250000  1
  H  H6  1  0.592298  0.239119  0.750712  1
  H  H7  1  0.239119  0.592298  0.749288  1
  H  H8  1  0.407702  0.760881  0.249288  1
  H  H9  1  0.760881  0.407702  0.250712  1
  H  H10  1  0.650907  0.219926  0.918106  1
  H  H11  1  0.219926  0.650907  0.581894  1
  H  H12  1  0.506752  0.274494  0.047358  1
  H  H13  1  0.274494  0.506752  0.452642  1
  H  H14  1  0.493248  0.725506  0.952642  1
  H  H15  1  0.725506  0.493248  0.547358  1
  H  H16  1  0.294139  0.086844  0.074020  1
  H  H17  1  0.780074  0.349093  0.418106  1
  H  H18  1  0.705861  0.913156  0.925980  1
  H  H19  1  0.913156  0.705861  0.574020  1
  H  H20  1  0.650247  0.528828  0.770176  1
  H  H21  1  0.528828  0.650247  0.729824  1
  H  H22  1  0.349753  0.471172  0.229824  1
  H  H23  1  0.471172  0.349753  0.270176  1
  H  H24  1  0.349093  0.780074  0.081894  1
  H  H25  1  0.086844  0.294139  0.425980  1
  C  C26  1  0.164943  0.787381  0.816546  1
  C  C27  1  0.212619  0.835057  0.316546  1
  C  C28  1  0.787381  0.164943  0.683454  1
  C  C29  1  0.835057  0.212619  0.183454  1
  O  O30  1  0.102334  0.891189  0.674885  1
  O  O31  1  0.647419  0.779822  0.000063  1
  O  O32  1  0.220178  0.352581  0.500063  1
  O  O33  1  0.352581  0.220178  0.999937  1
  O  O34  1  0.737281  0.442939  0.311817  1
  O  O35  1  0.442939  0.737281  0.188183  1
  O  O36  1  0.262719  0.557061  0.688183  1
  O  O37  1  0.557061  0.262719  0.811817  1
  O  O38  1  0.779822  0.647419  0.499937  1
  O  O39  1  0.891189  0.102334  0.825115  1
  O  O40  1  0.897666  0.108811  0.325115  1
  O  O41  1  0.108811  0.897666  0.174885  1
  O  O42  1  0.218249  0.635986  0.864348  1
  O  O43  1  0.635986  0.218249  0.635652  1
  O  O44  1  0.781751  0.364014  0.135652  1
  O  O45  1  0.364014  0.781751  0.364348  1
  O  O46  1  0.841848  0.177869  0.588491  1
  O  O47  1  0.671918  0.671918  0.750000  1
  O  O48  1  0.822131  0.158152  0.088491  1
  O  O49  1  0.177869  0.841848  0.911509  1
  O  O50  1  0.328082  0.328082  0.250000  1
  O  O51  1  0.158152  0.822131  0.411509  1
