# generated using pymatgen
data_YSiPd2
_symmetry_space_group_name_H-M   'P 1'
_cell_length_a   5.53618140
_cell_length_b   7.00969435
_cell_length_c   7.36814571
_cell_angle_alpha   90.00000000
_cell_angle_beta   90.00000000
_cell_angle_gamma   90.00000000
_symmetry_Int_Tables_number   1
_chemical_formula_structural   YSiPd2
_chemical_formula_sum   'Y4 Si4 Pd8'
_cell_volume   285.93518465
_cell_formula_units_Z   4
loop_
 _symmetry_equiv_pos_site_id
 _symmetry_equiv_pos_as_xyz
  1  'x, y, z'
loop_
 _atom_site_type_symbol
 _atom_site_label
 _atom_site_symmetry_multiplicity
 _atom_site_fract_x
 _atom_site_fract_y
 _atom_site_fract_z
 _atom_site_occupancy
  Y  Y0  1  0.139533  0.250000  0.971628  1
  Y  Y1  1  0.360467  0.250000  0.471628  1
  Y  Y2  1  0.639533  0.750000  0.528372  1
  Y  Y3  1  0.860467  0.750000  0.028372  1
  Si  Si4  1  0.359527  0.750000  0.877943  1
  Si  Si5  1  0.640473  0.250000  0.122057  1
  Si  Si6  1  0.859527  0.250000  0.622057  1
  Si  Si7  1  0.140473  0.750000  0.377943  1
  Pd  Pd8  1  0.094840  0.552136  0.677465  1
  Pd  Pd9  1  0.094840  0.947864  0.677465  1
  Pd  Pd10  1  0.405160  0.552136  0.177465  1
  Pd  Pd11  1  0.905160  0.447864  0.322535  1
  Pd  Pd12  1  0.594840  0.447864  0.822535  1
  Pd  Pd13  1  0.905160  0.052136  0.322535  1
  Pd  Pd14  1  0.405160  0.947864  0.177465  1
  Pd  Pd15  1  0.594840  0.052136  0.822535  1
