# generated using pymatgen
data_Os(SCl6)2
_symmetry_space_group_name_H-M   'P 1'
_cell_length_a   8.44628192
_cell_length_b   8.44628192
_cell_length_c   8.44628192
_cell_angle_alpha   78.64562574
_cell_angle_beta   78.64562574
_cell_angle_gamma   78.64562574
_symmetry_Int_Tables_number   1
_chemical_formula_structural   Os(SCl6)2
_chemical_formula_sum   'Os1 S2 Cl12'
_cell_volume   571.31012732
_cell_formula_units_Z   1
loop_
 _symmetry_equiv_pos_site_id
 _symmetry_equiv_pos_as_xyz
  1  'x, y, z'
loop_
 _atom_site_type_symbol
 _atom_site_label
 _atom_site_symmetry_multiplicity
 _atom_site_fract_x
 _atom_site_fract_y
 _atom_site_fract_z
 _atom_site_occupancy
  Os  Os0  1  0.000000  0.000000  0.000000  1
  S  S1  1  0.791334  0.791334  0.791334  1
  S  S2  1  0.208666  0.208666  0.208666  1
  Cl  Cl3  1  0.459444  0.164410  0.164410  1
  Cl  Cl4  1  0.818084  0.818084  0.125729  1
  Cl  Cl5  1  0.125729  0.818084  0.818084  1
  Cl  Cl6  1  0.818084  0.125729  0.818084  1
  Cl  Cl7  1  0.181916  0.874271  0.181916  1
  Cl  Cl8  1  0.181916  0.181916  0.874271  1
  Cl  Cl9  1  0.874271  0.181916  0.181916  1
  Cl  Cl10  1  0.835590  0.835590  0.540556  1
  Cl  Cl11  1  0.540556  0.835590  0.835590  1
  Cl  Cl12  1  0.835590  0.540556  0.835590  1
  Cl  Cl13  1  0.164410  0.459444  0.164410  1
  Cl  Cl14  1  0.164410  0.164410  0.459444  1
