# generated using pymatgen
data_Sr2SmTa(CuO4)2
_symmetry_space_group_name_H-M   'P 1'
_cell_length_a   3.93868078
_cell_length_b   3.93868078
_cell_length_c   11.76544767
_cell_angle_alpha   90.00000000
_cell_angle_beta   90.00000000
_cell_angle_gamma   90.00000000
_symmetry_Int_Tables_number   1
_chemical_formula_structural   Sr2SmTa(CuO4)2
_chemical_formula_sum   'Sr2 Sm1 Ta1 Cu2 O8'
_cell_volume   182.51981676
_cell_formula_units_Z   1
loop_
 _symmetry_equiv_pos_site_id
 _symmetry_equiv_pos_as_xyz
  1  'x, y, z'
loop_
 _atom_site_type_symbol
 _atom_site_label
 _atom_site_symmetry_multiplicity
 _atom_site_fract_x
 _atom_site_fract_y
 _atom_site_fract_z
 _atom_site_occupancy
  Sr  Sr0  1  0.500000  0.500000  0.799392  1
  Sr  Sr1  1  0.500000  0.500000  0.200608  1
  Sm  Sm2  1  0.500000  0.500000  0.500000  1
  Ta  Ta3  1  0.000000  0.000000  0.000000  1
  Cu  Cu4  1  0.000000  0.000000  0.640275  1
  Cu  Cu5  1  0.000000  0.000000  0.359725  1
  O  O6  1  0.500000  0.000000  0.627985  1
  O  O7  1  0.000000  0.500000  0.627985  1
  O  O8  1  0.500000  0.000000  0.372015  1
  O  O9  1  0.000000  0.500000  0.372015  1
  O  O10  1  0.000000  0.500000  0.000000  1
  O  O11  1  0.500000  0.000000  0.000000  1
  O  O12  1  0.000000  0.000000  0.168578  1
  O  O13  1  0.000000  0.000000  0.831422  1
