# generated using pymatgen
data_H3N
_symmetry_space_group_name_H-M   'P 1'
_cell_length_a   5.11634693
_cell_length_b   5.11634693
_cell_length_c   5.11634693
_cell_angle_alpha   90.00000000
_cell_angle_beta   90.00000000
_cell_angle_gamma   90.00000000
_symmetry_Int_Tables_number   1
_chemical_formula_structural   H3N
_chemical_formula_sum   'H12 N4'
_cell_volume   133.93064381
_cell_formula_units_Z   4
loop_
 _symmetry_equiv_pos_site_id
 _symmetry_equiv_pos_as_xyz
  1  'x, y, z'
loop_
 _atom_site_type_symbol
 _atom_site_label
 _atom_site_symmetry_multiplicity
 _atom_site_fract_x
 _atom_site_fract_y
 _atom_site_fract_z
 _atom_site_occupancy
  H  H0  1  0.138352  0.729507  0.601755  1
  H  H1  1  0.638352  0.770493  0.398245  1
  H  H2  1  0.861648  0.229507  0.898245  1
  H  H3  1  0.770493  0.398245  0.638352  1
  H  H4  1  0.361648  0.270493  0.101755  1
  H  H5  1  0.101755  0.361648  0.270493  1
  H  H6  1  0.270493  0.101755  0.361648  1
  H  H7  1  0.229507  0.898245  0.861648  1
  H  H8  1  0.601755  0.138352  0.729507  1
  H  H9  1  0.729507  0.601755  0.138352  1
  H  H10  1  0.398245  0.638352  0.770493  1
  H  H11  1  0.898245  0.861648  0.229507  1
  N  N12  1  0.798171  0.701829  0.298171  1
  N  N13  1  0.701829  0.298171  0.798171  1
  N  N14  1  0.298171  0.798171  0.701829  1
  N  N15  1  0.201829  0.201829  0.201829  1
