# generated using pymatgen
data_Na2UI6
_symmetry_space_group_name_H-M   'P 1'
_cell_length_a   8.69195807
_cell_length_b   8.69195807
_cell_length_c   8.69195807
_cell_angle_alpha   54.15215045
_cell_angle_beta   54.15215045
_cell_angle_gamma   54.15215045
_symmetry_Int_Tables_number   1
_chemical_formula_structural   Na2UI6
_chemical_formula_sum   'Na2 U1 I6'
_cell_volume   400.95257201
_cell_formula_units_Z   1
loop_
 _symmetry_equiv_pos_site_id
 _symmetry_equiv_pos_as_xyz
  1  'x, y, z'
loop_
 _atom_site_type_symbol
 _atom_site_label
 _atom_site_symmetry_multiplicity
 _atom_site_fract_x
 _atom_site_fract_y
 _atom_site_fract_z
 _atom_site_occupancy
  Na  Na0  1  0.670773  0.670773  0.670773  1
  Na  Na1  1  0.329227  0.329227  0.329227  1
  U  U2  1  0.000000  0.000000  0.000000  1
  I  I3  1  0.765772  0.088956  0.386089  1
  I  I4  1  0.386089  0.765772  0.088956  1
  I  I5  1  0.088956  0.386089  0.765772  1
  I  I6  1  0.234228  0.911044  0.613911  1
  I  I7  1  0.613911  0.234228  0.911044  1
  I  I8  1  0.911044  0.613911  0.234228  1
