# generated using pymatgen
data_ThB2O5
_symmetry_space_group_name_H-M   'P 1'
_cell_length_a   6.76213917
_cell_length_b   6.76213917
_cell_length_c   10.51945678
_cell_angle_alpha   80.02783644
_cell_angle_beta   99.97216356
_cell_angle_gamma   117.61435449
_symmetry_Int_Tables_number   1
_chemical_formula_structural   ThB2O5
_chemical_formula_sum   'Th4 B8 O20'
_cell_volume   417.39945203
_cell_formula_units_Z   4
loop_
 _symmetry_equiv_pos_site_id
 _symmetry_equiv_pos_as_xyz
  1  'x, y, z'
loop_
 _atom_site_type_symbol
 _atom_site_label
 _atom_site_symmetry_multiplicity
 _atom_site_fract_x
 _atom_site_fract_y
 _atom_site_fract_z
 _atom_site_occupancy
  Th  Th0  1  0.021743  0.387779  0.191985  1
  Th  Th1  1  0.387779  0.021743  0.308015  1
  Th  Th2  1  0.978257  0.612221  0.808015  1
  Th  Th3  1  0.612220  0.978257  0.691985  1
  B  B4  1  0.721891  0.769118  0.503355  1
  B  B5  1  0.835887  0.565603  0.358449  1
  B  B6  1  0.565603  0.835887  0.141551  1
  B  B7  1  0.164113  0.434397  0.641551  1
  B  B8  1  0.434397  0.164113  0.858449  1
  B  B9  1  0.769118  0.721891  0.996645  1
  B  B10  1  0.278109  0.230882  0.496645  1
  B  B11  1  0.230882  0.278109  0.003355  1
  O  O12  1  0.719877  0.639961  0.415844  1
  O  O13  1  0.360039  0.280123  0.915844  1
  O  O14  1  0.280123  0.360039  0.584156  1
  O  O15  1  0.639961  0.719877  0.084156  1
  O  O16  1  0.641508  0.275100  0.811283  1
  O  O17  1  0.275100  0.641508  0.688717  1
  O  O18  1  0.358492  0.724900  0.188717  1
  O  O19  1  0.724900  0.358492  0.311283  1
  O  O20  1  0.687369  0.057553  0.163548  1
  O  O21  1  0.057553  0.687369  0.336452  1
  O  O22  1  0.312631  0.942447  0.836452  1
  O  O23  1  0.942447  0.312631  0.663548  1
  O  O24  1  0.107426  0.397759  0.970745  1
  O  O25  1  0.397759  0.107426  0.529255  1
  O  O26  1  0.892574  0.602241  0.029255  1
  O  O27  1  0.602241  0.892574  0.470745  1
  O  O28  1  0.774850  0.824237  0.871295  1
  O  O29  1  0.824237  0.774850  0.628705  1
  O  O30  1  0.225150  0.175763  0.128705  1
  O  O31  1  0.175763  0.225150  0.371295  1
