# generated using pymatgen
data_Pb(CO2)2
_symmetry_space_group_name_H-M   'P 1'
_cell_length_a   5.72882929
_cell_length_b   5.75579764
_cell_length_c   7.12721309
_cell_angle_alpha   109.20938248
_cell_angle_beta   88.36028993
_cell_angle_gamma   114.63590971
_symmetry_Int_Tables_number   1
_chemical_formula_structural   Pb(CO2)2
_chemical_formula_sum   'Pb2 C4 O8'
_cell_volume   200.10752026
_cell_formula_units_Z   2
loop_
 _symmetry_equiv_pos_site_id
 _symmetry_equiv_pos_as_xyz
  1  'x, y, z'
loop_
 _atom_site_type_symbol
 _atom_site_label
 _atom_site_symmetry_multiplicity
 _atom_site_fract_x
 _atom_site_fract_y
 _atom_site_fract_z
 _atom_site_occupancy
  Pb  Pb0  1  0.259013  0.108298  0.260685  1
  Pb  Pb1  1  0.740987  0.891702  0.739315  1
  C  C2  1  0.124421  0.624834  0.499646  1
  C  C3  1  0.875579  0.375166  0.500354  1
  C  C4  1  0.358473  0.456003  0.954979  1
  C  C5  1  0.641527  0.543997  0.045021  1
  O  O6  1  0.873480  0.142136  0.426733  1
  O  O7  1  0.126520  0.857864  0.573267  1
  O  O8  1  0.323033  0.591493  0.861112  1
  O  O9  1  0.676967  0.408507  0.138888  1
  O  O10  1  0.180768  0.249267  0.984457  1
  O  O11  1  0.819232  0.750733  0.015543  1
  O  O12  1  0.686384  0.417975  0.574885  1
  O  O13  1  0.313616  0.582025  0.425115  1
