# generated using pymatgen
data_Ba4I6O
_symmetry_space_group_name_H-M   'P 1'
_cell_length_a   11.06984113
_cell_length_b   11.06984113
_cell_length_c   8.62625512
_cell_angle_alpha   90.00000000
_cell_angle_beta   90.00000000
_cell_angle_gamma   120.00000000
_symmetry_Int_Tables_number   1
_chemical_formula_structural   Ba4I6O
_chemical_formula_sum   'Ba8 I12 O2'
_cell_volume   915.45227096
_cell_formula_units_Z   2
loop_
 _symmetry_equiv_pos_site_id
 _symmetry_equiv_pos_as_xyz
  1  'x, y, z'
loop_
 _atom_site_type_symbol
 _atom_site_label
 _atom_site_symmetry_multiplicity
 _atom_site_fract_x
 _atom_site_fract_y
 _atom_site_fract_z
 _atom_site_occupancy
  Ba  Ba0  1  0.795520  0.591040  0.129965  1
  Ba  Ba1  1  0.204480  0.795520  0.629965  1
  Ba  Ba2  1  0.591040  0.795520  0.629965  1
  Ba  Ba3  1  0.408960  0.204480  0.129965  1
  Ba  Ba4  1  0.795520  0.204480  0.129965  1
  Ba  Ba5  1  0.204480  0.408960  0.629965  1
  Ba  Ba6  1  0.666667  0.333333  0.523735  1
  Ba  Ba7  1  0.333333  0.666667  0.023735  1
  I  I8  1  0.860569  0.721138  0.510794  1
  I  I9  1  0.139431  0.860569  0.010794  1
  I  I10  1  0.721138  0.860569  0.010794  1
  I  I11  1  0.278862  0.139431  0.510794  1
  I  I12  1  0.860569  0.139431  0.510794  1
  I  I13  1  0.139431  0.278862  0.010794  1
  I  I14  1  0.533183  0.466817  0.827137  1
  I  I15  1  0.066367  0.533183  0.327137  1
  I  I16  1  0.466817  0.933633  0.327137  1
  I  I17  1  0.533183  0.066367  0.827137  1
  I  I18  1  0.933633  0.466817  0.827137  1
  I  I19  1  0.466817  0.533183  0.327137  1
  O  O20  1  0.666667  0.333333  0.224466  1
  O  O21  1  0.333333  0.666667  0.724466  1
