# generated using pymatgen
data_In2HgSe4
_symmetry_space_group_name_H-M   'P 1'
_cell_length_a   7.28328446
_cell_length_b   7.28328446
_cell_length_c   7.28328446
_cell_angle_alpha   131.29012875
_cell_angle_beta   131.29012875
_cell_angle_gamma   71.35252887
_symmetry_Int_Tables_number   1
_chemical_formula_structural   In2HgSe4
_chemical_formula_sum   'In2 Hg1 Se4'
_cell_volume   213.49309537
_cell_formula_units_Z   1
loop_
 _symmetry_equiv_pos_site_id
 _symmetry_equiv_pos_as_xyz
  1  'x, y, z'
loop_
 _atom_site_type_symbol
 _atom_site_label
 _atom_site_symmetry_multiplicity
 _atom_site_fract_x
 _atom_site_fract_y
 _atom_site_fract_z
 _atom_site_occupancy
  In  In0  1  0.250000  0.750000  0.500000  1
  In  In1  1  0.500000  0.500000  0.000000  1
  Hg  Hg2  1  0.000000  0.000000  0.000000  1
  Se  Se3  1  0.862246  0.374827  0.961352  1
  Se  Se4  1  0.625173  0.586526  0.487419  1
  Se  Se5  1  0.099107  0.137754  0.512581  1
  Se  Se6  1  0.413474  0.900893  0.038648  1
