# generated using pymatgen
data_Na2PrO3
_symmetry_space_group_name_H-M   'P 1'
_cell_length_a   6.08337902
_cell_length_b   6.08337902
_cell_length_c   11.32230770
_cell_angle_alpha   79.89280986
_cell_angle_beta   100.10719014
_cell_angle_gamma   70.18404848
_symmetry_Int_Tables_number   1
_chemical_formula_structural   Na2PrO3
_chemical_formula_sum   'Na8 Pr4 O12'
_cell_volume   375.38393651
_cell_formula_units_Z   4
loop_
 _symmetry_equiv_pos_site_id
 _symmetry_equiv_pos_as_xyz
  1  'x, y, z'
loop_
 _atom_site_type_symbol
 _atom_site_label
 _atom_site_symmetry_multiplicity
 _atom_site_fract_x
 _atom_site_fract_y
 _atom_site_fract_z
 _atom_site_occupancy
  Na  Na0  1  0.043641  0.194895  0.095425  1
  Na  Na1  1  0.624794  0.123793  0.258756  1
  Na  Na2  1  0.876207  0.375206  0.758756  1
  Na  Na3  1  0.375206  0.876207  0.741244  1
  Na  Na4  1  0.956359  0.805105  0.904575  1
  Na  Na5  1  0.805105  0.956359  0.595425  1
  Na  Na6  1  0.194895  0.043641  0.404575  1
  Na  Na7  1  0.123793  0.624794  0.241244  1
  Pr  Pr8  1  0.546718  0.706311  0.085962  1
  Pr  Pr9  1  0.706311  0.546718  0.414038  1
  Pr  Pr10  1  0.453282  0.293689  0.914038  1
  Pr  Pr11  1  0.293689  0.453282  0.585962  1
  O  O12  1  0.233055  0.046743  0.929462  1
  O  O13  1  0.046743  0.233055  0.570538  1
  O  O14  1  0.766945  0.953257  0.070538  1
  O  O15  1  0.953257  0.766945  0.429462  1
  O  O16  1  0.395868  0.854096  0.249735  1
  O  O17  1  0.854096  0.395868  0.250265  1
  O  O18  1  0.604132  0.145904  0.750265  1
  O  O19  1  0.145904  0.604132  0.749735  1
  O  O20  1  0.480689  0.303605  0.428506  1
  O  O21  1  0.696395  0.519311  0.928506  1
  O  O22  1  0.519311  0.696395  0.571494  1
  O  O23  1  0.303605  0.480689  0.071494  1
