# generated using pymatgen
data_SrIn2Pt
_symmetry_space_group_name_H-M   'P 1'
_cell_length_a   5.96965041
_cell_length_b   5.96965041
_cell_length_c   8.01490500
_cell_angle_alpha   90.00000000
_cell_angle_beta   90.00000000
_cell_angle_gamma   135.21648684
_symmetry_Int_Tables_number   1
_chemical_formula_structural   SrIn2Pt
_chemical_formula_sum   'Sr2 In4 Pt2'
_cell_volume   201.20280097
_cell_formula_units_Z   2
loop_
 _symmetry_equiv_pos_site_id
 _symmetry_equiv_pos_as_xyz
  1  'x, y, z'
loop_
 _atom_site_type_symbol
 _atom_site_label
 _atom_site_symmetry_multiplicity
 _atom_site_fract_x
 _atom_site_fract_y
 _atom_site_fract_z
 _atom_site_occupancy
  Sr  Sr0  1  0.937725  0.062275  0.750000  1
  Sr  Sr1  1  0.062275  0.937725  0.250000  1
  In  In2  1  0.651274  0.348726  0.946297  1
  In  In3  1  0.651274  0.348726  0.553703  1
  In  In4  1  0.348726  0.651274  0.053703  1
  In  In5  1  0.348726  0.651274  0.446297  1
  Pt  Pt6  1  0.219597  0.780403  0.750000  1
  Pt  Pt7  1  0.780403  0.219597  0.250000  1
