# generated using pymatgen
data_ScH3NCl3
_symmetry_space_group_name_H-M   'P 1'
_cell_length_a   7.15717366
_cell_length_b   9.33844386
_cell_length_c   9.44410564
_cell_angle_alpha   72.37691167
_cell_angle_beta   77.28216526
_cell_angle_gamma   80.12740546
_symmetry_Int_Tables_number   1
_chemical_formula_structural   ScH3NCl3
_chemical_formula_sum   'Sc4 H12 N4 Cl12'
_cell_volume   583.09044908
_cell_formula_units_Z   4
loop_
 _symmetry_equiv_pos_site_id
 _symmetry_equiv_pos_as_xyz
  1  'x, y, z'
loop_
 _atom_site_type_symbol
 _atom_site_label
 _atom_site_symmetry_multiplicity
 _atom_site_fract_x
 _atom_site_fract_y
 _atom_site_fract_z
 _atom_site_occupancy
  Sc  Sc0  1  0.917202  0.305810  0.060769  1
  Sc  Sc1  1  0.082798  0.694190  0.939231  1
  Sc  Sc2  1  0.599972  0.191742  0.447891  1
  Sc  Sc3  1  0.400028  0.808258  0.552109  1
  H  H4  1  0.299255  0.415594  0.514172  1
  H  H5  1  0.700745  0.584406  0.485828  1
  H  H6  1  0.193520  0.279170  0.499938  1
  H  H7  1  0.806480  0.720830  0.500062  1
  H  H8  1  0.272644  0.261438  0.655933  1
  H  H9  1  0.727356  0.738562  0.344067  1
  H  H10  1  0.571716  0.236411  0.007643  1
  H  H11  1  0.428284  0.763589  0.992357  1
  H  H12  1  0.729152  0.246262  0.850424  1
  H  H13  1  0.270848  0.753738  0.149576  1
  H  H14  1  0.739286  0.093980  0.994294  1
  H  H15  1  0.260714  0.906020  0.005706  1
  N  N16  1  0.305582  0.299675  0.539911  1
  N  N17  1  0.285597  0.789690  0.033713  1
  N  N18  1  0.714403  0.210310  0.966287  1
  N  N19  1  0.694418  0.700325  0.460089  1
  Cl  Cl20  1  0.906065  0.090280  0.296735  1
  Cl  Cl21  1  0.414683  0.046979  0.339530  1
  Cl  Cl22  1  0.195980  0.181458  0.935941  1
  Cl  Cl23  1  0.804020  0.818542  0.064059  1
  Cl  Cl24  1  0.759844  0.307749  0.574711  1
  Cl  Cl25  1  0.240156  0.692251  0.425289  1
  Cl  Cl26  1  0.896122  0.542338  0.845809  1
  Cl  Cl27  1  0.103878  0.457662  0.154191  1
  Cl  Cl28  1  0.395641  0.591150  0.786912  1
  Cl  Cl29  1  0.093935  0.909720  0.703265  1
  Cl  Cl30  1  0.604359  0.408850  0.213088  1
  Cl  Cl31  1  0.585317  0.953021  0.660470  1
