# generated using pymatgen
data_Mn2GeO4
_symmetry_space_group_name_H-M   'P 1'
_cell_length_a   5.12216946
_cell_length_b   6.39385914
_cell_length_c   10.90177799
_cell_angle_alpha   90.00000000
_cell_angle_beta   90.00000000
_cell_angle_gamma   90.00000000
_symmetry_Int_Tables_number   1
_chemical_formula_structural   Mn2GeO4
_chemical_formula_sum   'Mn8 Ge4 O16'
_cell_volume   357.03791714
_cell_formula_units_Z   4
loop_
 _symmetry_equiv_pos_site_id
 _symmetry_equiv_pos_as_xyz
  1  'x, y, z'
loop_
 _atom_site_type_symbol
 _atom_site_label
 _atom_site_symmetry_multiplicity
 _atom_site_fract_x
 _atom_site_fract_y
 _atom_site_fract_z
 _atom_site_occupancy
  Mn  Mn0  1  0.000000  0.000000  0.000000  1
  Mn  Mn1  1  0.500000  0.000000  0.500000  1
  Mn  Mn2  1  0.000000  0.500000  0.000000  1
  Mn  Mn3  1  0.500000  0.500000  0.500000  1
  Mn  Mn4  1  0.492675  0.750000  0.778598  1
  Mn  Mn5  1  0.992675  0.250000  0.721402  1
  Mn  Mn6  1  0.507325  0.250000  0.221402  1
  Mn  Mn7  1  0.007325  0.750000  0.278598  1
  Ge  Ge8  1  0.564784  0.750000  0.095921  1
  Ge  Ge9  1  0.064784  0.250000  0.404079  1
  Ge  Ge10  1  0.435216  0.250000  0.904079  1
  Ge  Ge11  1  0.935216  0.750000  0.595921  1
  O  O12  1  0.224313  0.470164  0.335573  1
  O  O13  1  0.724313  0.529836  0.164427  1
  O  O14  1  0.775687  0.970164  0.664427  1
  O  O15  1  0.275687  0.029836  0.835573  1
  O  O16  1  0.775687  0.529836  0.664427  1
  O  O17  1  0.275687  0.470164  0.835573  1
  O  O18  1  0.224313  0.029836  0.335573  1
  O  O19  1  0.724313  0.970164  0.164427  1
  O  O20  1  0.779784  0.750000  0.446484  1
  O  O21  1  0.279784  0.250000  0.053516  1
  O  O22  1  0.220216  0.250000  0.553516  1
  O  O23  1  0.720216  0.750000  0.946484  1
  O  O24  1  0.220761  0.750000  0.093822  1
  O  O25  1  0.720761  0.250000  0.406178  1
  O  O26  1  0.779239  0.250000  0.906178  1
  O  O27  1  0.279239  0.750000  0.593822  1
