# generated using pymatgen
data_BiO2
_symmetry_space_group_name_H-M   'P 1'
_cell_length_a   8.67616939
_cell_length_b   8.67616939
_cell_length_c   8.67616939
_cell_angle_alpha   152.25935845
_cell_angle_beta   134.81116466
_cell_angle_gamma   53.85461888
_symmetry_Int_Tables_number   1
_chemical_formula_structural   BiO2
_chemical_formula_sum   'Bi4 O8'
_cell_volume   214.52718218
_cell_formula_units_Z   4
loop_
 _symmetry_equiv_pos_site_id
 _symmetry_equiv_pos_as_xyz
  1  'x, y, z'
loop_
 _atom_site_type_symbol
 _atom_site_label
 _atom_site_symmetry_multiplicity
 _atom_site_fract_x
 _atom_site_fract_y
 _atom_site_fract_z
 _atom_site_occupancy
  Bi  Bi0  1  0.105727  0.388164  0.717563  1
  Bi  Bi1  1  0.329399  0.111836  0.217563  1
  Bi  Bi2  1  0.670601  0.888164  0.782437  1
  Bi  Bi3  1  0.894273  0.611836  0.282437  1
  O  O4  1  0.962576  0.249564  0.713012  1
  O  O5  1  0.977833  0.086801  0.891032  1
  O  O6  1  0.195769  0.586801  0.608968  1
  O  O7  1  0.463448  0.250436  0.213012  1
  O  O8  1  0.037424  0.750436  0.286988  1
  O  O9  1  0.022167  0.913199  0.108968  1
  O  O10  1  0.804231  0.413199  0.391032  1
  O  O11  1  0.536552  0.749564  0.786988  1
