# generated using pymatgen
data_Pb2ClOF
_symmetry_space_group_name_H-M   'P 1'
_cell_length_a   7.04174010
_cell_length_b   7.04174010
_cell_length_c   5.86879327
_cell_angle_alpha   90.00000000
_cell_angle_beta   90.00000000
_cell_angle_gamma   131.09023704
_symmetry_Int_Tables_number   1
_chemical_formula_structural   Pb2ClOF
_chemical_formula_sum   'Pb4 Cl2 O2 F2'
_cell_volume   219.32752274
_cell_formula_units_Z   2
loop_
 _symmetry_equiv_pos_site_id
 _symmetry_equiv_pos_as_xyz
  1  'x, y, z'
loop_
 _atom_site_type_symbol
 _atom_site_label
 _atom_site_symmetry_multiplicity
 _atom_site_fract_x
 _atom_site_fract_y
 _atom_site_fract_z
 _atom_site_occupancy
  Pb  Pb0  1  0.102324  0.397676  0.218750  1
  Pb  Pb1  1  0.897676  0.602324  0.781250  1
  Pb  Pb2  1  0.397676  0.102324  0.218750  1
  Pb  Pb3  1  0.602324  0.897676  0.781250  1
  Cl  Cl4  1  0.250000  0.250000  0.786504  1
  Cl  Cl5  1  0.750000  0.750000  0.213496  1
  O  O6  1  0.750000  0.250000  1.000000  1
  O  O7  1  0.250000  0.750000  1.000000  1
  F  F8  1  0.250000  0.750000  0.500000  1
  F  F9  1  0.750000  0.250000  0.500000  1
