# generated using pymatgen
data_Ta6S
_symmetry_space_group_name_H-M   'P 1'
_cell_length_a   7.60082216
_cell_length_b   7.60082216
_cell_length_c   14.89308895
_cell_angle_alpha   63.81063038
_cell_angle_beta   116.18936962
_cell_angle_gamma   139.05558944
_symmetry_Int_Tables_number   1
_chemical_formula_structural   Ta6S
_chemical_formula_sum   'Ta24 S4'
_cell_volume   497.36298365
_cell_formula_units_Z   4
loop_
 _symmetry_equiv_pos_site_id
 _symmetry_equiv_pos_as_xyz
  1  'x, y, z'
loop_
 _atom_site_type_symbol
 _atom_site_label
 _atom_site_symmetry_multiplicity
 _atom_site_fract_x
 _atom_site_fract_y
 _atom_site_fract_z
 _atom_site_occupancy
  Ta  Ta0  1  0.001851  0.680076  0.545984  1
  Ta  Ta1  1  0.680076  0.001851  0.954016  1
  Ta  Ta2  1  0.998149  0.319924  0.454016  1
  Ta  Ta3  1  0.319924  0.998149  0.045984  1
  Ta  Ta4  1  0.400636  0.273788  0.594418  1
  Ta  Ta5  1  0.273788  0.400636  0.905582  1
  Ta  Ta6  1  0.599364  0.726212  0.405582  1
  Ta  Ta7  1  0.726212  0.599364  0.094418  1
  Ta  Ta8  1  0.818151  0.889540  0.826302  1
  Ta  Ta9  1  0.889540  0.818151  0.673698  1
  Ta  Ta10  1  0.181849  0.110460  0.173698  1
  Ta  Ta11  1  0.110460  0.181849  0.326302  1
  Ta  Ta12  1  0.641894  0.063495  0.603064  1
  Ta  Ta13  1  0.063495  0.641894  0.896936  1
  Ta  Ta14  1  0.358106  0.936505  0.396936  1
  Ta  Ta15  1  0.936505  0.358106  0.103064  1
  Ta  Ta16  1  0.212711  0.424635  0.682786  1
  Ta  Ta17  1  0.424635  0.212711  0.817214  1
  Ta  Ta18  1  0.787289  0.575365  0.317214  1
  Ta  Ta19  1  0.575365  0.787289  0.182786  1
  Ta  Ta20  1  0.159403  0.654584  0.248287  1
  Ta  Ta21  1  0.654584  0.159403  0.251713  1
  Ta  Ta22  1  0.840597  0.345416  0.751713  1
  Ta  Ta23  1  0.345416  0.840597  0.748287  1
  S  S24  1  0.524459  0.306561  0.456430  1
  S  S25  1  0.306561  0.524459  0.043570  1
  S  S26  1  0.475541  0.693439  0.543570  1
  S  S27  1  0.693439  0.475541  0.956430  1
