# generated using pymatgen
data_AgHgSI
_symmetry_space_group_name_H-M   'P 1'
_cell_length_a   7.26591762
_cell_length_b   7.88277304
_cell_length_c   8.79126202
_cell_angle_alpha   90.00000000
_cell_angle_beta   90.00000000
_cell_angle_gamma   90.00000000
_symmetry_Int_Tables_number   1
_chemical_formula_structural   AgHgSI
_chemical_formula_sum   'Ag4 Hg4 S4 I4'
_cell_volume   503.52462696
_cell_formula_units_Z   4
loop_
 _symmetry_equiv_pos_site_id
 _symmetry_equiv_pos_as_xyz
  1  'x, y, z'
loop_
 _atom_site_type_symbol
 _atom_site_label
 _atom_site_symmetry_multiplicity
 _atom_site_fract_x
 _atom_site_fract_y
 _atom_site_fract_z
 _atom_site_occupancy
  Ag  Ag0  1  0.094143  0.172082  0.393416  1
  Ag  Ag1  1  0.594143  0.327918  0.606584  1
  Ag  Ag2  1  0.405857  0.827918  0.893416  1
  Ag  Ag3  1  0.905857  0.672082  0.106584  1
  Hg  Hg4  1  0.249849  0.266554  0.988372  1
  Hg  Hg5  1  0.250151  0.733446  0.488373  1
  Hg  Hg6  1  0.750151  0.766554  0.511628  1
  Hg  Hg7  1  0.749849  0.233446  0.011628  1
  S  S8  1  0.001788  0.356159  0.149912  1
  S  S9  1  0.498212  0.643841  0.649912  1
  S  S10  1  0.998212  0.856159  0.350088  1
  S  S11  1  0.501788  0.143841  0.850088  1
  I  I12  1  0.007331  0.877801  0.860757  1
  I  I13  1  0.507331  0.622199  0.139243  1
  I  I14  1  0.492669  0.122199  0.360757  1
  I  I15  1  0.992669  0.377801  0.639243  1
