# generated using pymatgen
data_K5Pb24
_symmetry_space_group_name_H-M   'P 1'
_cell_length_a   10.88835312
_cell_length_b   10.88835312
_cell_length_c   10.88835312
_cell_angle_alpha   109.47122063
_cell_angle_beta   109.47122063
_cell_angle_gamma   109.47122063
_symmetry_Int_Tables_number   1
_chemical_formula_structural   K5Pb24
_chemical_formula_sum   'K5 Pb24'
_cell_volume   993.72153174
_cell_formula_units_Z   1
loop_
 _symmetry_equiv_pos_site_id
 _symmetry_equiv_pos_as_xyz
  1  'x, y, z'
loop_
 _atom_site_type_symbol
 _atom_site_label
 _atom_site_symmetry_multiplicity
 _atom_site_fract_x
 _atom_site_fract_y
 _atom_site_fract_z
 _atom_site_occupancy
  K  K0  1  0.000000  0.000000  0.363523  1
  K  K1  1  0.000000  0.363523  0.000000  1
  K  K2  1  0.363523  0.000000  0.000000  1
  K  K3  1  0.636477  0.636477  0.636477  1
  K  K4  1  0.000000  0.000000  0.000000  1
  Pb  Pb5  1  0.198820  0.809588  0.198820  1
  Pb  Pb6  1  0.801180  1.000000  0.610768  1
  Pb  Pb7  1  0.610768  1.000000  0.801180  1
  Pb  Pb8  1  0.000000  0.610768  0.801180  1
  Pb  Pb9  1  0.190412  0.389232  0.389232  1
  Pb  Pb10  1  0.389232  0.190412  0.389232  1
  Pb  Pb11  1  0.198820  0.198820  0.809588  1
  Pb  Pb12  1  0.401518  0.722326  0.401518  1
  Pb  Pb13  1  0.277674  0.679192  0.679192  1
  Pb  Pb14  1  0.000000  0.598482  0.320808  1
  Pb  Pb15  1  0.320808  1.000000  0.598482  1
  Pb  Pb16  1  0.598482  0.000000  0.320808  1
  Pb  Pb17  1  0.320808  0.598482  0.000000  1
  Pb  Pb18  1  0.679192  0.679192  0.277674  1
  Pb  Pb19  1  0.000000  0.320808  0.598482  1
  Pb  Pb20  1  0.598482  0.320808  0.000000  1
  Pb  Pb21  1  0.401518  0.401518  0.722326  1
  Pb  Pb22  1  0.722326  0.401518  0.401518  1
  Pb  Pb23  1  0.679192  0.277674  0.679192  1
  Pb  Pb24  1  0.809588  0.198820  0.198820  1
  Pb  Pb25  1  0.000000  0.801180  0.610768  1
  Pb  Pb26  1  0.801180  0.610768  0.000000  1
  Pb  Pb27  1  0.610768  0.801180  0.000000  1
  Pb  Pb28  1  0.389232  0.389232  0.190412  1
