# generated using pymatgen
data_Tl3AgI5
_symmetry_space_group_name_H-M   'P 1'
_cell_length_a   10.80941526
_cell_length_b   10.80941526
_cell_length_c   13.51274822
_cell_angle_alpha   90.00000000
_cell_angle_beta   90.00000000
_cell_angle_gamma   120.00000000
_symmetry_Int_Tables_number   1
_chemical_formula_structural   Tl3AgI5
_chemical_formula_sum   'Tl12 Ag4 I20'
_cell_volume   1367.34692744
_cell_formula_units_Z   4
loop_
 _symmetry_equiv_pos_site_id
 _symmetry_equiv_pos_as_xyz
  1  'x, y, z'
loop_
 _atom_site_type_symbol
 _atom_site_label
 _atom_site_symmetry_multiplicity
 _atom_site_fract_x
 _atom_site_fract_y
 _atom_site_fract_z
 _atom_site_occupancy
  Tl  Tl0  1  0.965642  0.614851  0.750000  1
  Tl  Tl1  1  0.385149  0.350791  0.750000  1
  Tl  Tl2  1  0.649209  0.034358  0.750000  1
  Tl  Tl3  1  0.034358  0.649209  0.250000  1
  Tl  Tl4  1  0.350791  0.385149  0.250000  1
  Tl  Tl5  1  0.614851  0.965642  0.250000  1
  Tl  Tl6  1  0.362948  0.000000  0.500000  1
  Tl  Tl7  1  0.637052  0.637052  0.000000  1
  Tl  Tl8  1  0.000000  0.362948  0.000000  1
  Tl  Tl9  1  0.000000  0.362948  0.500000  1
  Tl  Tl10  1  0.637052  0.637052  0.500000  1
  Tl  Tl11  1  0.362948  0.000000  0.000000  1
  Ag  Ag12  1  0.000000  0.000000  0.380238  1
  Ag  Ag13  1  0.000000  0.000000  0.880238  1
  Ag  Ag14  1  0.000000  0.000000  0.619762  1
  Ag  Ag15  1  0.000000  0.000000  0.119762  1
  I  I16  1  0.666667  0.333333  0.898028  1
  I  I17  1  0.666667  0.333333  0.601972  1
  I  I18  1  0.333333  0.666667  0.101972  1
  I  I19  1  0.333333  0.666667  0.398028  1
  I  I20  1  0.006265  0.243684  0.750000  1
  I  I21  1  0.756316  0.762581  0.750000  1
  I  I22  1  0.237419  0.993735  0.750000  1
  I  I23  1  0.993735  0.237419  0.250000  1
  I  I24  1  0.666667  0.333333  0.357634  1
  I  I25  1  0.333333  0.666667  0.857634  1
  I  I26  1  0.333333  0.666667  0.642366  1
  I  I27  1  0.666667  0.333333  0.142366  1
  I  I28  1  0.755018  0.000000  0.000000  1
  I  I29  1  0.244982  0.244982  0.500000  1
  I  I30  1  0.000000  0.755018  0.500000  1
  I  I31  1  0.000000  0.755018  0.000000  1
  I  I32  1  0.244982  0.244982  0.000000  1
  I  I33  1  0.755018  0.000000  0.500000  1
  I  I34  1  0.243684  0.006265  0.250000  1
  I  I35  1  0.762581  0.756316  0.250000  1
