# generated using pymatgen
data_SmTiO3
_symmetry_space_group_name_H-M   'P 1'
_cell_length_a   5.43578108
_cell_length_b   5.74829973
_cell_length_c   7.79057917
_cell_angle_alpha   90.00000000
_cell_angle_beta   90.00000000
_cell_angle_gamma   90.00000000
_symmetry_Int_Tables_number   1
_chemical_formula_structural   SmTiO3
_chemical_formula_sum   'Sm4 Ti4 O12'
_cell_volume   243.42832358
_cell_formula_units_Z   4
loop_
 _symmetry_equiv_pos_site_id
 _symmetry_equiv_pos_as_xyz
  1  'x, y, z'
loop_
 _atom_site_type_symbol
 _atom_site_label
 _atom_site_symmetry_multiplicity
 _atom_site_fract_x
 _atom_site_fract_y
 _atom_site_fract_z
 _atom_site_occupancy
  Sm  Sm0  1  0.018553  0.933778  0.750000  1
  Sm  Sm1  1  0.518553  0.566222  0.250000  1
  Sm  Sm2  1  0.481447  0.433778  0.750000  1
  Sm  Sm3  1  0.981447  0.066222  0.250000  1
  Ti  Ti4  1  0.000000  0.500000  0.500000  1
  Ti  Ti5  1  0.500000  0.000000  0.500000  1
  Ti  Ti6  1  0.500000  0.000000  0.000000  1
  Ti  Ti7  1  0.000000  0.500000  0.000000  1
  O  O8  1  0.695922  0.298384  0.448167  1
  O  O9  1  0.195922  0.201616  0.551833  1
  O  O10  1  0.804078  0.798384  0.051833  1
  O  O11  1  0.304078  0.701616  0.948167  1
  O  O12  1  0.304078  0.701616  0.551833  1
  O  O13  1  0.804078  0.798384  0.448167  1
  O  O14  1  0.195922  0.201616  0.948167  1
  O  O15  1  0.695922  0.298384  0.051833  1
  O  O16  1  0.105068  0.465235  0.250000  1
  O  O17  1  0.605068  0.034765  0.750000  1
  O  O18  1  0.394932  0.965235  0.250000  1
  O  O19  1  0.894932  0.534765  0.750000  1
