# generated using pymatgen
data_SiRh2
_symmetry_space_group_name_H-M   'P 1'
_cell_length_a   3.97244536
_cell_length_b   5.50540008
_cell_length_c   7.44653143
_cell_angle_alpha   90.00000000
_cell_angle_beta   90.00000000
_cell_angle_gamma   90.00000000
_symmetry_Int_Tables_number   1
_chemical_formula_structural   SiRh2
_chemical_formula_sum   'Si4 Rh8'
_cell_volume   162.85490519
_cell_formula_units_Z   4
loop_
 _symmetry_equiv_pos_site_id
 _symmetry_equiv_pos_as_xyz
  1  'x, y, z'
loop_
 _atom_site_type_symbol
 _atom_site_label
 _atom_site_symmetry_multiplicity
 _atom_site_fract_x
 _atom_site_fract_y
 _atom_site_fract_z
 _atom_site_occupancy
  Si  Si0  1  0.250000  0.777789  0.605726  1
  Si  Si1  1  0.750000  0.222211  0.394274  1
  Si  Si2  1  0.250000  0.277789  0.894274  1
  Si  Si3  1  0.750000  0.722211  0.105726  1
  Rh  Rh4  1  0.750000  0.025782  0.696204  1
  Rh  Rh5  1  0.250000  0.974218  0.303796  1
  Rh  Rh6  1  0.750000  0.525782  0.803796  1
  Rh  Rh7  1  0.250000  0.474218  0.196204  1
  Rh  Rh8  1  0.250000  0.341327  0.570322  1
  Rh  Rh9  1  0.750000  0.658673  0.429678  1
  Rh  Rh10  1  0.250000  0.841327  0.929678  1
  Rh  Rh11  1  0.750000  0.158673  0.070322  1
