# generated using pymatgen
data_PrSb2Pd
_symmetry_space_group_name_H-M   'P 1'
_cell_length_a   4.51130894
_cell_length_b   4.51130894
_cell_length_c   10.00753209
_cell_angle_alpha   90.00000000
_cell_angle_beta   90.00000000
_cell_angle_gamma   90.00000000
_symmetry_Int_Tables_number   1
_chemical_formula_structural   PrSb2Pd
_chemical_formula_sum   'Pr2 Sb4 Pd2'
_cell_volume   203.67237593
_cell_formula_units_Z   2
loop_
 _symmetry_equiv_pos_site_id
 _symmetry_equiv_pos_as_xyz
  1  'x, y, z'
loop_
 _atom_site_type_symbol
 _atom_site_label
 _atom_site_symmetry_multiplicity
 _atom_site_fract_x
 _atom_site_fract_y
 _atom_site_fract_z
 _atom_site_occupancy
  Pr  Pr0  1  0.000000  0.500000  0.752839  1
  Pr  Pr1  1  0.500000  0.000000  0.247161  1
  Sb  Sb2  1  0.000000  0.500000  0.151807  1
  Sb  Sb3  1  0.500000  0.000000  0.848193  1
  Sb  Sb4  1  0.000000  0.000000  0.500000  1
  Sb  Sb5  1  0.500000  0.500000  0.500000  1
  Pd  Pd6  1  0.000000  0.000000  0.000000  1
  Pd  Pd7  1  0.500000  0.500000  0.000000  1
