# generated using pymatgen
data_Pr3(BN2)2
_symmetry_space_group_name_H-M   'P 1'
_cell_length_a   6.57204018
_cell_length_b   6.57204018
_cell_length_c   6.57204018
_cell_angle_alpha   148.24235479
_cell_angle_beta   122.16792261
_cell_angle_gamma   67.49993697
_symmetry_Int_Tables_number   1
_chemical_formula_structural   Pr3(BN2)2
_chemical_formula_sum   'Pr3 B2 N4'
_cell_volume   124.89650515
_cell_formula_units_Z   1
loop_
 _symmetry_equiv_pos_site_id
 _symmetry_equiv_pos_as_xyz
  1  'x, y, z'
loop_
 _atom_site_type_symbol
 _atom_site_label
 _atom_site_symmetry_multiplicity
 _atom_site_fract_x
 _atom_site_fract_y
 _atom_site_fract_z
 _atom_site_occupancy
  Pr  Pr0  1  0.701871  0.201871  0.500000  1
  Pr  Pr1  1  0.298129  0.798129  0.500000  1
  Pr  Pr2  1  0.000000  0.000000  0.000000  1
  B  B3  1  0.357104  0.500000  0.857104  1
  B  B4  1  0.642896  0.500000  0.142896  1
  N  N5  1  0.362931  0.618209  0.744722  1
  N  N6  1  0.873488  0.618209  0.255278  1
  N  N7  1  0.126512  0.381791  0.744722  1
  N  N8  1  0.637069  0.381791  0.255278  1
