# generated using pymatgen
data_Li3FePCO7
_symmetry_space_group_name_H-M   'P 1'
_cell_length_a   5.03910037
_cell_length_b   6.45011525
_cell_length_c   8.56688709
_cell_angle_alpha   90.00000000
_cell_angle_beta   96.78991454
_cell_angle_gamma   90.00000000
_symmetry_Int_Tables_number   1
_chemical_formula_structural   Li3FePCO7
_chemical_formula_sum   'Li6 Fe2 P2 C2 O14'
_cell_volume   276.49469203
_cell_formula_units_Z   2
loop_
 _symmetry_equiv_pos_site_id
 _symmetry_equiv_pos_as_xyz
  1  'x, y, z'
loop_
 _atom_site_type_symbol
 _atom_site_label
 _atom_site_symmetry_multiplicity
 _atom_site_fract_x
 _atom_site_fract_y
 _atom_site_fract_z
 _atom_site_occupancy
  Li  Li0  1  0.729431  0.983508  0.774092  1
  Li  Li1  1  0.270569  0.016492  0.225908  1
  Li  Li2  1  0.797367  0.250000  0.395521  1
  Li  Li3  1  0.202633  0.750000  0.604479  1
  Li  Li4  1  0.729431  0.516492  0.774092  1
  Li  Li5  1  0.270569  0.483508  0.225908  1
  Fe  Fe6  1  0.788558  0.750000  0.170090  1
  Fe  Fe7  1  0.211442  0.250000  0.829910  1
  P  P8  1  0.730400  0.250000  0.088839  1
  P  P9  1  0.269600  0.750000  0.911161  1
  C  C10  1  0.668626  0.750000  0.463516  1
  C  C11  1  0.331374  0.250000  0.536484  1
  O  O12  1  0.170784  0.750000  0.073945  1
  O  O13  1  0.916062  0.750000  0.437333  1
  O  O14  1  0.514608  0.250000  0.658555  1
  O  O15  1  0.485392  0.750000  0.341445  1
  O  O16  1  0.160877  0.562758  0.806766  1
  O  O17  1  0.083938  0.250000  0.562667  1
  O  O18  1  0.160877  0.937242  0.806766  1
  O  O19  1  0.839123  0.437242  0.193234  1
  O  O20  1  0.839123  0.062758  0.193234  1
  O  O21  1  0.418357  0.250000  0.069448  1
  O  O22  1  0.600775  0.750000  0.605127  1
  O  O23  1  0.399225  0.250000  0.394873  1
  O  O24  1  0.581643  0.750000  0.930552  1
  O  O25  1  0.829216  0.250000  0.926055  1
