# generated using pymatgen
data_KScF4
_symmetry_space_group_name_H-M   'P 1'
_cell_length_a   8.22522791
_cell_length_b   8.22522791
_cell_length_c   13.51127137
_cell_angle_alpha   72.83299342
_cell_angle_beta   107.16700658
_cell_angle_gamma   150.98335406
_symmetry_Int_Tables_number   1
_chemical_formula_structural   KScF4
_chemical_formula_sum   'K4 Sc4 F16'
_cell_volume   422.28536397
_cell_formula_units_Z   4
loop_
 _symmetry_equiv_pos_site_id
 _symmetry_equiv_pos_as_xyz
  1  'x, y, z'
loop_
 _atom_site_type_symbol
 _atom_site_label
 _atom_site_symmetry_multiplicity
 _atom_site_fract_x
 _atom_site_fract_y
 _atom_site_fract_z
 _atom_site_occupancy
  K  K0  1  0.243230  0.756770  0.135343  1
  K  K1  1  0.756770  0.243230  0.864657  1
  K  K2  1  0.640266  0.359734  0.364020  1
  K  K3  1  0.359734  0.640266  0.635980  1
  Sc  Sc4  1  0.881025  0.118975  0.386325  1
  Sc  Sc5  1  0.118975  0.881025  0.613675  1
  Sc  Sc6  1  0.972984  0.027016  0.138864  1
  Sc  Sc7  1  0.027016  0.972984  0.861136  1
  F  F8  1  0.000000  0.000000  0.500000  1
  F  F9  1  0.000000  0.000000  0.000000  1
  F  F10  1  0.954797  0.045203  0.282894  1
  F  F11  1  0.045203  0.954797  0.717106  1
  F  F12  1  0.471634  0.528366  0.142256  1
  F  F13  1  0.528366  0.471634  0.857744  1
  F  F14  1  0.769220  0.230780  0.270070  1
  F  F15  1  0.230780  0.769220  0.729930  1
  F  F16  1  0.898002  0.101998  0.784521  1
  F  F17  1  0.101998  0.898002  0.215479  1
  F  F18  1  0.615619  0.384381  0.616722  1
  F  F19  1  0.384381  0.615619  0.383278  1
  F  F20  1  0.176442  0.823558  0.503727  1
  F  F21  1  0.823558  0.176442  0.496273  1
  F  F22  1  0.158486  0.841514  0.929994  1
  F  F23  1  0.841514  0.158486  0.070006  1
