# generated using pymatgen
data_Zr2InCo2
_symmetry_space_group_name_H-M   'P 1'
_cell_length_a   7.22298805
_cell_length_b   7.22298805
_cell_length_c   3.30239390
_cell_angle_alpha   90.00000000
_cell_angle_beta   90.00000000
_cell_angle_gamma   90.00000000
_symmetry_Int_Tables_number   1
_chemical_formula_structural   Zr2InCo2
_chemical_formula_sum   'Zr4 In2 Co4'
_cell_volume   172.29102951
_cell_formula_units_Z   2
loop_
 _symmetry_equiv_pos_site_id
 _symmetry_equiv_pos_as_xyz
  1  'x, y, z'
loop_
 _atom_site_type_symbol
 _atom_site_label
 _atom_site_symmetry_multiplicity
 _atom_site_fract_x
 _atom_site_fract_y
 _atom_site_fract_z
 _atom_site_occupancy
  Zr  Zr0  1  0.668814  0.168814  0.500000  1
  Zr  Zr1  1  0.168814  0.331186  0.500000  1
  Zr  Zr2  1  0.831186  0.668814  0.500000  1
  Zr  Zr3  1  0.331186  0.831186  0.500000  1
  In  In4  1  0.000000  0.000000  0.000000  1
  In  In5  1  0.500000  0.500000  0.000000  1
  Co  Co6  1  0.373879  0.126121  0.000000  1
  Co  Co7  1  0.126121  0.626121  0.000000  1
  Co  Co8  1  0.626121  0.873879  0.000000  1
  Co  Co9  1  0.873879  0.373879  0.000000  1
