# generated using pymatgen
data_Na2Te2O7
_symmetry_space_group_name_H-M   'P 1'
_cell_length_a   7.36732246
_cell_length_b   7.36732246
_cell_length_c   7.36732246
_cell_angle_alpha   120.06113451
_cell_angle_beta   118.11658116
_cell_angle_gamma   91.59354902
_symmetry_Int_Tables_number   1
_chemical_formula_structural   Na2Te2O7
_chemical_formula_sum   'Na4 Te4 O14'
_cell_volume   286.43191532
_cell_formula_units_Z   2
loop_
 _symmetry_equiv_pos_site_id
 _symmetry_equiv_pos_as_xyz
  1  'x, y, z'
loop_
 _atom_site_type_symbol
 _atom_site_label
 _atom_site_symmetry_multiplicity
 _atom_site_fract_x
 _atom_site_fract_y
 _atom_site_fract_z
 _atom_site_occupancy
  Na  Na0  1  0.500000  0.500000  0.000000  1
  Na  Na1  1  0.000000  0.000000  0.000000  1
  Na  Na2  1  0.500000  0.000000  1.000000  1
  Na  Na3  1  0.500000  0.500000  0.500000  1
  Te  Te4  1  0.000000  0.500000  0.500000  1
  Te  Te5  1  0.500000  0.000000  0.500000  1
  Te  Te6  1  0.000000  0.000000  0.500000  1
  Te  Te7  1  0.000000  0.500000  0.000000  1
  O  O8  1  0.946742  0.171095  0.359507  1
  O  O9  1  0.053258  0.412765  0.224353  1
  O  O10  1  0.688412  0.328905  0.775647  1
  O  O11  1  0.311588  0.087235  0.640493  1
  O  O12  1  0.053258  0.828905  0.640493  1
  O  O13  1  0.946742  0.587235  0.775647  1
  O  O14  1  0.311588  0.671095  0.224353  1
  O  O15  1  0.688412  0.912765  0.359507  1
  O  O16  1  0.907061  0.750000  0.157061  1
  O  O17  1  0.092939  0.250000  0.842939  1
  O  O18  1  0.299666  0.581991  0.717675  1
  O  O19  1  0.700334  0.418009  0.282325  1
  O  O20  1  0.635683  0.918009  0.717675  1
  O  O21  1  0.364317  0.081991  0.282325  1
