# generated using pymatgen
data_U2BiN2
_symmetry_space_group_name_H-M   'P 1'
_cell_length_a   6.87500323
_cell_length_b   6.87500323
_cell_length_c   6.87500323
_cell_angle_alpha   147.04777715
_cell_angle_beta   147.04777715
_cell_angle_gamma   47.29304555
_symmetry_Int_Tables_number   1
_chemical_formula_structural   U2BiN2
_chemical_formula_sum   'U2 Bi1 N2'
_cell_volume   95.77496185
_cell_formula_units_Z   1
loop_
 _symmetry_equiv_pos_site_id
 _symmetry_equiv_pos_as_xyz
  1  'x, y, z'
loop_
 _atom_site_type_symbol
 _atom_site_label
 _atom_site_symmetry_multiplicity
 _atom_site_fract_x
 _atom_site_fract_y
 _atom_site_fract_z
 _atom_site_occupancy
  U  U0  1  0.339855  0.339855  0.000000  1
  U  U1  1  0.660145  0.660145  0.000000  1
  Bi  Bi2  1  0.000000  0.000000  0.000000  1
  N  N3  1  0.250000  0.750000  0.500000  1
  N  N4  1  0.750000  0.250000  0.500000  1
