# generated using pymatgen
data_Sm(Sn3Ru2)2
_symmetry_space_group_name_H-M   'P 1'
_cell_length_a   6.96769450
_cell_length_b   6.96769450
_cell_length_c   6.96769450
_cell_angle_alpha   120.22220804
_cell_angle_beta   120.22220804
_cell_angle_gamma   89.61555335
_symmetry_Int_Tables_number   1
_chemical_formula_structural   Sm(Sn3Ru2)2
_chemical_formula_sum   'Sm1 Sn6 Ru4'
_cell_volume   238.38592063
_cell_formula_units_Z   1
loop_
 _symmetry_equiv_pos_site_id
 _symmetry_equiv_pos_as_xyz
  1  'x, y, z'
loop_
 _atom_site_type_symbol
 _atom_site_label
 _atom_site_symmetry_multiplicity
 _atom_site_fract_x
 _atom_site_fract_y
 _atom_site_fract_z
 _atom_site_occupancy
  Sm  Sm0  1  0.000000  0.000000  0.000000  1
  Sn  Sn1  1  0.500000  1.000000  0.500000  1
  Sn  Sn2  1  0.470703  0.117875  0.000000  1
  Sn  Sn3  1  0.882125  0.882125  0.352828  1
  Sn  Sn4  1  0.529297  0.529297  0.647172  1
  Sn  Sn5  1  0.117875  0.470703  1.000000  1
  Sn  Sn6  1  0.000000  0.500000  0.500000  1
  Ru  Ru7  1  0.405032  0.750461  0.000000  1
  Ru  Ru8  1  0.750461  0.405032  0.000000  1
  Ru  Ru9  1  0.594968  0.594968  0.345429  1
  Ru  Ru10  1  0.249539  0.249539  0.654571  1
