# generated using pymatgen
data_MnNiGe
_symmetry_space_group_name_H-M   'P 1'
_cell_length_a   3.66568631
_cell_length_b   6.03433660
_cell_length_c   7.11139516
_cell_angle_alpha   90.00000000
_cell_angle_beta   90.00000000
_cell_angle_gamma   90.00000000
_symmetry_Int_Tables_number   1
_chemical_formula_structural   MnNiGe
_chemical_formula_sum   'Mn4 Ni4 Ge4'
_cell_volume   157.30395473
_cell_formula_units_Z   4
loop_
 _symmetry_equiv_pos_site_id
 _symmetry_equiv_pos_as_xyz
  1  'x, y, z'
loop_
 _atom_site_type_symbol
 _atom_site_label
 _atom_site_symmetry_multiplicity
 _atom_site_fract_x
 _atom_site_fract_y
 _atom_site_fract_z
 _atom_site_occupancy
  Mn  Mn0  1  0.750000  0.465403  0.322254  1
  Mn  Mn1  1  0.250000  0.034597  0.822254  1
  Mn  Mn2  1  0.750000  0.965403  0.177746  1
  Mn  Mn3  1  0.250000  0.534597  0.677746  1
  Ni  Ni4  1  0.250000  0.141215  0.440993  1
  Ni  Ni5  1  0.750000  0.358785  0.940993  1
  Ni  Ni6  1  0.250000  0.641215  0.059007  1
  Ni  Ni7  1  0.750000  0.858785  0.559007  1
  Ge  Ge8  1  0.250000  0.252203  0.127616  1
  Ge  Ge9  1  0.750000  0.747797  0.872384  1
  Ge  Ge10  1  0.250000  0.752203  0.372384  1
  Ge  Ge11  1  0.750000  0.247797  0.627616  1
