# generated using pymatgen
data_SbPCl8O
_symmetry_space_group_name_H-M   'P 1'
_cell_length_a   8.55364883
_cell_length_b   9.34871173
_cell_length_c   17.35510908
_cell_angle_alpha   90.00000000
_cell_angle_beta   90.00000000
_cell_angle_gamma   90.00000000
_symmetry_Int_Tables_number   1
_chemical_formula_structural   SbPCl8O
_chemical_formula_sum   'Sb4 P4 Cl32 O4'
_cell_volume   1387.81166121
_cell_formula_units_Z   4
loop_
 _symmetry_equiv_pos_site_id
 _symmetry_equiv_pos_as_xyz
  1  'x, y, z'
loop_
 _atom_site_type_symbol
 _atom_site_label
 _atom_site_symmetry_multiplicity
 _atom_site_fract_x
 _atom_site_fract_y
 _atom_site_fract_z
 _atom_site_occupancy
  Sb  Sb0  1  0.250000  0.421516  0.354001  1
  Sb  Sb1  1  0.750000  0.578484  0.645999  1
  Sb  Sb2  1  0.750000  0.921516  0.145999  1
  Sb  Sb3  1  0.250000  0.078484  0.854001  1
  P  P4  1  0.250000  0.717293  0.923797  1
  P  P5  1  0.750000  0.282707  0.076203  1
  P  P6  1  0.750000  0.217293  0.576203  1
  P  P7  1  0.250000  0.782707  0.423797  1
  Cl  Cl8  1  0.564726  0.136232  0.628912  1
  Cl  Cl9  1  0.935274  0.363768  0.128912  1
  Cl  Cl10  1  0.435274  0.636232  0.871088  1
  Cl  Cl11  1  0.064726  0.863768  0.371088  1
  Cl  Cl12  1  0.250000  0.922792  0.743978  1
  Cl  Cl13  1  0.750000  0.077208  0.256022  1
  Cl  Cl14  1  0.750000  0.422792  0.756022  1
  Cl  Cl15  1  0.250000  0.577208  0.243978  1
  Cl  Cl16  1  0.250000  0.198914  0.974591  1
  Cl  Cl17  1  0.750000  0.801086  0.025409  1
  Cl  Cl18  1  0.750000  0.698914  0.525409  1
  Cl  Cl19  1  0.250000  0.301086  0.474591  1
  Cl  Cl20  1  0.250000  0.287814  0.778139  1
  Cl  Cl21  1  0.750000  0.712186  0.221861  1
  Cl  Cl22  1  0.750000  0.787814  0.721861  1
  Cl  Cl23  1  0.250000  0.212186  0.278139  1
  Cl  Cl24  1  0.973955  0.056884  0.860684  1
  Cl  Cl25  1  0.473955  0.943116  0.139316  1
  Cl  Cl26  1  0.026045  0.556884  0.639316  1
  Cl  Cl27  1  0.526045  0.443116  0.360684  1
  Cl  Cl28  1  0.026045  0.943116  0.139316  1
  Cl  Cl29  1  0.526045  0.056884  0.860684  1
  Cl  Cl30  1  0.973955  0.443116  0.360684  1
  Cl  Cl31  1  0.473955  0.556884  0.639316  1
  Cl  Cl32  1  0.250000  0.863253  0.529537  1
  Cl  Cl33  1  0.750000  0.136747  0.470463  1
  Cl  Cl34  1  0.750000  0.363253  0.970463  1
  Cl  Cl35  1  0.250000  0.636747  0.029537  1
  Cl  Cl36  1  0.064726  0.636232  0.871088  1
  Cl  Cl37  1  0.564726  0.363768  0.128912  1
  Cl  Cl38  1  0.935274  0.136232  0.628912  1
  Cl  Cl39  1  0.435274  0.863768  0.371088  1
  O  O40  1  0.250000  0.877344  0.927527  1
  O  O41  1  0.250000  0.622656  0.427527  1
  O  O42  1  0.750000  0.377344  0.572473  1
  O  O43  1  0.750000  0.122656  0.072473  1
