# generated using pymatgen
data_U(PS3)2
_symmetry_space_group_name_H-M   'P 1'
_cell_length_a   7.06178642
_cell_length_b   7.06178642
_cell_length_c   9.72134503
_cell_angle_alpha   90.00000000
_cell_angle_beta   90.00000000
_cell_angle_gamma   90.00000000
_symmetry_Int_Tables_number   1
_chemical_formula_structural   U(PS3)2
_chemical_formula_sum   'U2 P4 S12'
_cell_volume   484.79207780
_cell_formula_units_Z   2
loop_
 _symmetry_equiv_pos_site_id
 _symmetry_equiv_pos_as_xyz
  1  'x, y, z'
loop_
 _atom_site_type_symbol
 _atom_site_label
 _atom_site_symmetry_multiplicity
 _atom_site_fract_x
 _atom_site_fract_y
 _atom_site_fract_z
 _atom_site_occupancy
  U  U0  1  0.000000  0.000000  0.750000  1
  U  U1  1  0.000000  0.000000  0.250000  1
  P  P2  1  0.057594  0.346468  0.500000  1
  P  P3  1  0.942406  0.653532  0.500000  1
  P  P4  1  0.346468  0.942406  0.000000  1
  P  P5  1  0.653532  0.057594  0.000000  1
  S  S6  1  0.207639  0.314580  0.676025  1
  S  S7  1  0.685420  0.207639  0.176025  1
  S  S8  1  0.171850  0.174378  0.000000  1
  S  S9  1  0.825622  0.171850  0.500000  1
  S  S10  1  0.174378  0.828150  0.500000  1
  S  S11  1  0.828150  0.825622  0.000000  1
  S  S12  1  0.207639  0.314580  0.323975  1
  S  S13  1  0.685420  0.207639  0.823975  1
  S  S14  1  0.314580  0.792361  0.823975  1
  S  S15  1  0.792361  0.685420  0.323975  1
  S  S16  1  0.792361  0.685420  0.676025  1
  S  S17  1  0.314580  0.792361  0.176025  1
