# generated using pymatgen
data_Rb2GaSb2
_symmetry_space_group_name_H-M   'P 1'
_cell_length_a   9.47511154
_cell_length_b   10.98192105
_cell_length_c   15.68780174
_cell_angle_alpha   90.00000000
_cell_angle_beta   90.00000000
_cell_angle_gamma   90.00000000
_symmetry_Int_Tables_number   1
_chemical_formula_structural   Rb2GaSb2
_chemical_formula_sum   'Rb16 Ga8 Sb16'
_cell_volume   1632.39306284
_cell_formula_units_Z   8
loop_
 _symmetry_equiv_pos_site_id
 _symmetry_equiv_pos_as_xyz
  1  'x, y, z'
loop_
 _atom_site_type_symbol
 _atom_site_label
 _atom_site_symmetry_multiplicity
 _atom_site_fract_x
 _atom_site_fract_y
 _atom_site_fract_z
 _atom_site_occupancy
  Rb  Rb0  1  0.225952  0.967313  0.482236  1
  Rb  Rb1  1  0.396204  0.966215  0.729250  1
  Rb  Rb2  1  0.103796  0.533785  0.229250  1
  Rb  Rb3  1  0.896204  0.033785  0.770750  1
  Rb  Rb4  1  0.103796  0.966215  0.229250  1
  Rb  Rb5  1  0.603796  0.033785  0.270750  1
  Rb  Rb6  1  0.896204  0.466215  0.770750  1
  Rb  Rb7  1  0.396204  0.533785  0.729250  1
  Rb  Rb8  1  0.725952  0.032687  0.017764  1
  Rb  Rb9  1  0.774048  0.467313  0.517764  1
  Rb  Rb10  1  0.274048  0.532687  0.982236  1
  Rb  Rb11  1  0.774048  0.032687  0.517764  1
  Rb  Rb12  1  0.725952  0.467313  0.017764  1
  Rb  Rb13  1  0.225952  0.532687  0.482236  1
  Rb  Rb14  1  0.603796  0.466215  0.270750  1
  Rb  Rb15  1  0.274048  0.967313  0.982236  1
  Ga  Ga16  1  0.722582  0.750000  0.680788  1
  Ga  Ga17  1  0.222582  0.250000  0.819212  1
  Ga  Ga18  1  0.777418  0.750000  0.180788  1
  Ga  Ga19  1  0.899433  0.750000  0.906543  1
  Ga  Ga20  1  0.399433  0.250000  0.593457  1
  Ga  Ga21  1  0.100567  0.250000  0.093457  1
  Ga  Ga22  1  0.600567  0.750000  0.406543  1
  Ga  Ga23  1  0.277418  0.250000  0.319212  1
  Sb  Sb24  1  0.117305  0.750000  0.804071  1
  Sb  Sb25  1  0.617305  0.250000  0.695929  1
  Sb  Sb26  1  0.882695  0.250000  0.195929  1
  Sb  Sb27  1  0.382695  0.750000  0.304071  1
  Sb  Sb28  1  0.990514  0.750000  0.637388  1
  Sb  Sb29  1  0.490514  0.250000  0.862612  1
  Sb  Sb30  1  0.009486  0.250000  0.362612  1
  Sb  Sb31  1  0.509486  0.750000  0.137388  1
  Sb  Sb32  1  0.643378  0.750000  0.844919  1
  Sb  Sb33  1  0.143378  0.250000  0.655081  1
  Sb  Sb34  1  0.356622  0.250000  0.155081  1
  Sb  Sb35  1  0.856622  0.750000  0.344919  1
  Sb  Sb36  1  0.984348  0.750000  0.065876  1
  Sb  Sb37  1  0.484348  0.250000  0.434124  1
  Sb  Sb38  1  0.015652  0.250000  0.934124  1
  Sb  Sb39  1  0.515652  0.750000  0.565876  1
