# generated using pymatgen
data_Na2PtO2
_symmetry_space_group_name_H-M   'P 1'
_cell_length_a   5.56607546
_cell_length_b   5.56607546
_cell_length_c   5.56607546
_cell_angle_alpha   146.79767651
_cell_angle_beta   130.75194366
_cell_angle_gamma   60.69046588
_symmetry_Int_Tables_number   1
_chemical_formula_structural   Na2PtO2
_chemical_formula_sum   'Na2 Pt1 O2'
_cell_volume   70.86349845
_cell_formula_units_Z   1
loop_
 _symmetry_equiv_pos_site_id
 _symmetry_equiv_pos_as_xyz
  1  'x, y, z'
loop_
 _atom_site_type_symbol
 _atom_site_label
 _atom_site_symmetry_multiplicity
 _atom_site_fract_x
 _atom_site_fract_y
 _atom_site_fract_z
 _atom_site_occupancy
  Na  Na0  1  0.677483  0.677483  0.000000  1
  Na  Na1  1  0.322517  0.322517  0.000000  1
  Pt  Pt2  1  0.000000  0.000000  0.000000  1
  O  O3  1  0.861369  0.361369  0.500000  1
  O  O4  1  0.138631  0.638631  0.500000  1
