# generated using pymatgen
data_ZrV2
_symmetry_space_group_name_H-M   'P 1'
_cell_length_a   5.20454205
_cell_length_b   5.20454205
_cell_length_c   5.20454205
_cell_angle_alpha   60.00000000
_cell_angle_beta   60.00000000
_cell_angle_gamma   60.00000000
_symmetry_Int_Tables_number   1
_chemical_formula_structural   ZrV2
_chemical_formula_sum   'Zr2 V4'
_cell_volume   99.68563248
_cell_formula_units_Z   2
loop_
 _symmetry_equiv_pos_site_id
 _symmetry_equiv_pos_as_xyz
  1  'x, y, z'
loop_
 _atom_site_type_symbol
 _atom_site_label
 _atom_site_symmetry_multiplicity
 _atom_site_fract_x
 _atom_site_fract_y
 _atom_site_fract_z
 _atom_site_occupancy
  Zr  Zr0  1  0.250000  0.250000  0.250000  1
  Zr  Zr1  1  0.000000  0.000000  0.000000  1
  V  V2  1  0.625000  0.625000  0.125000  1
  V  V3  1  0.125000  0.625000  0.625000  1
  V  V4  1  0.625000  0.625000  0.625000  1
  V  V5  1  0.625000  0.125000  0.625000  1
