# generated using pymatgen
data_As2S2F3
_symmetry_space_group_name_H-M   'P 1'
_cell_length_a   6.15822471
_cell_length_b   9.96248499
_cell_length_c   20.20033976
_cell_angle_alpha   90.00000000
_cell_angle_beta   90.00000000
_cell_angle_gamma   90.00000000
_symmetry_Int_Tables_number   1
_chemical_formula_structural   As2S2F3
_chemical_formula_sum   'As16 S16 F24'
_cell_volume   1239.31551371
_cell_formula_units_Z   8
loop_
 _symmetry_equiv_pos_site_id
 _symmetry_equiv_pos_as_xyz
  1  'x, y, z'
loop_
 _atom_site_type_symbol
 _atom_site_label
 _atom_site_symmetry_multiplicity
 _atom_site_fract_x
 _atom_site_fract_y
 _atom_site_fract_z
 _atom_site_occupancy
  As  As0  1  0.001580  0.376873  0.325548  1
  As  As1  1  0.001580  0.623127  0.174452  1
  As  As2  1  0.998420  0.876873  0.674452  1
  As  As3  1  0.998420  0.123127  0.825548  1
  As  As4  1  0.998420  0.623127  0.674452  1
  As  As5  1  0.998420  0.376873  0.825548  1
  As  As6  1  0.001580  0.123127  0.325548  1
  As  As7  1  0.001580  0.876873  0.174452  1
  As  As8  1  0.944887  0.750000  0.508899  1
  As  As9  1  0.944887  0.250000  0.991101  1
  As  As10  1  0.055113  0.250000  0.491101  1
  As  As11  1  0.055113  0.750000  0.008899  1
  As  As12  1  0.487232  0.750000  0.836371  1
  As  As13  1  0.487232  0.250000  0.663629  1
  As  As14  1  0.512768  0.250000  0.163629  1
  As  As15  1  0.512768  0.750000  0.336371  1
  S  S16  1  0.690991  0.750000  0.136721  1
  S  S17  1  0.690991  0.250000  0.363279  1
  S  S18  1  0.309009  0.250000  0.863279  1
  S  S19  1  0.309009  0.750000  0.636721  1
  S  S20  1  0.691038  0.750000  0.037059  1
  S  S21  1  0.691038  0.250000  0.462941  1
  S  S22  1  0.308962  0.250000  0.962941  1
  S  S23  1  0.308962  0.750000  0.537059  1
  S  S24  1  0.141986  0.576593  0.076793  1
  S  S25  1  0.858014  0.923407  0.576793  1
  S  S26  1  0.858014  0.076593  0.923207  1
  S  S27  1  0.858014  0.423407  0.923207  1
  S  S28  1  0.141986  0.076593  0.423207  1
  S  S29  1  0.141986  0.923407  0.076793  1
  S  S30  1  0.858014  0.576593  0.576793  1
  S  S31  1  0.141986  0.423407  0.423207  1
  F  F32  1  0.250471  0.750000  0.784105  1
  F  F33  1  0.250471  0.250000  0.715895  1
  F  F34  1  0.749529  0.250000  0.215895  1
  F  F35  1  0.749529  0.750000  0.284105  1
  F  F36  1  0.721231  0.750000  0.888021  1
  F  F37  1  0.721231  0.250000  0.611979  1
  F  F38  1  0.278769  0.250000  0.111979  1
  F  F39  1  0.278769  0.750000  0.388021  1
  F  F40  1  0.394177  0.375551  0.214328  1
  F  F41  1  0.394177  0.624449  0.285672  1
  F  F42  1  0.605823  0.875551  0.785672  1
  F  F43  1  0.605823  0.124449  0.714328  1
  F  F44  1  0.605823  0.624449  0.785672  1
  F  F45  1  0.605823  0.375551  0.714328  1
  F  F46  1  0.394177  0.124449  0.214328  1
  F  F47  1  0.394177  0.875551  0.285672  1
  F  F48  1  0.366018  0.876039  0.886188  1
  F  F49  1  0.366018  0.123961  0.613812  1
  F  F50  1  0.366018  0.623961  0.886188  1
  F  F51  1  0.633982  0.623961  0.386188  1
  F  F52  1  0.366018  0.376039  0.613812  1
  F  F53  1  0.633982  0.123961  0.113812  1
  F  F54  1  0.633982  0.876039  0.386188  1
  F  F55  1  0.633982  0.376039  0.113812  1
