# generated using pymatgen
data_La5Sb3Br
_symmetry_space_group_name_H-M   'P 1'
_cell_length_a   9.67083635
_cell_length_b   9.67083635
_cell_length_c   6.80231181
_cell_angle_alpha   90.00000000
_cell_angle_beta   90.00000000
_cell_angle_gamma   120.00000000
_symmetry_Int_Tables_number   1
_chemical_formula_structural   La5Sb3Br
_chemical_formula_sum   'La10 Sb6 Br2'
_cell_volume   550.95386677
_cell_formula_units_Z   2
loop_
 _symmetry_equiv_pos_site_id
 _symmetry_equiv_pos_as_xyz
  1  'x, y, z'
loop_
 _atom_site_type_symbol
 _atom_site_label
 _atom_site_symmetry_multiplicity
 _atom_site_fract_x
 _atom_site_fract_y
 _atom_site_fract_z
 _atom_site_occupancy
  La  La0  1  0.274662  0.000000  0.250000  1
  La  La1  1  0.000000  0.725338  0.750000  1
  La  La2  1  0.725338  0.725338  0.250000  1
  La  La3  1  0.274662  0.274662  0.750000  1
  La  La4  1  0.725338  0.000000  0.750000  1
  La  La5  1  0.000000  0.274662  0.250000  1
  La  La6  1  0.666667  0.333333  0.500000  1
  La  La7  1  0.333333  0.666667  0.000000  1
  La  La8  1  0.333333  0.666667  0.500000  1
  La  La9  1  0.666667  0.333333  0.000000  1
  Sb  Sb10  1  0.616999  0.616999  0.750000  1
  Sb  Sb11  1  0.000000  0.616999  0.250000  1
  Sb  Sb12  1  0.616999  0.000000  0.250000  1
  Sb  Sb13  1  0.383001  0.000000  0.750000  1
  Sb  Sb14  1  0.000000  0.383001  0.750000  1
  Sb  Sb15  1  0.383001  0.383001  0.250000  1
  Br  Br16  1  0.000000  0.000000  0.500000  1
  Br  Br17  1  0.000000  0.000000  0.000000  1
