# generated using pymatgen
data_Sb2Rh
_symmetry_space_group_name_H-M   'P 1'
_cell_length_a   6.70830225
_cell_length_b   6.65258373
_cell_length_c   6.78729781
_cell_angle_alpha   90.00000000
_cell_angle_beta   116.36749062
_cell_angle_gamma   90.00000000
_symmetry_Int_Tables_number   1
_chemical_formula_structural   Sb2Rh
_chemical_formula_sum   'Sb8 Rh4'
_cell_volume   271.38784259
_cell_formula_units_Z   4
loop_
 _symmetry_equiv_pos_site_id
 _symmetry_equiv_pos_as_xyz
  1  'x, y, z'
loop_
 _atom_site_type_symbol
 _atom_site_label
 _atom_site_symmetry_multiplicity
 _atom_site_fract_x
 _atom_site_fract_y
 _atom_site_fract_z
 _atom_site_occupancy
  Sb  Sb0  1  0.344702  0.638544  0.175353  1
  Sb  Sb1  1  0.655298  0.138544  0.324647  1
  Sb  Sb2  1  0.655298  0.361456  0.824647  1
  Sb  Sb3  1  0.344702  0.861456  0.675353  1
  Sb  Sb4  1  0.150716  0.363229  0.373117  1
  Sb  Sb5  1  0.849284  0.863229  0.126883  1
  Sb  Sb6  1  0.849284  0.636771  0.626883  1
  Sb  Sb7  1  0.150716  0.136771  0.873117  1
  Rh  Rh8  1  0.271503  0.000526  0.287295  1
  Rh  Rh9  1  0.728497  0.500526  0.212705  1
  Rh  Rh10  1  0.728497  0.999474  0.712705  1
  Rh  Rh11  1  0.271503  0.499474  0.787295  1
