# generated using pymatgen
data_Th2FeB10
_symmetry_space_group_name_H-M   'P 1'
_cell_length_a   4.18083788
_cell_length_b   5.62960722
_cell_length_c   11.24772514
_cell_angle_alpha   90.00000000
_cell_angle_beta   90.00000000
_cell_angle_gamma   90.00000000
_symmetry_Int_Tables_number   1
_chemical_formula_structural   Th2FeB10
_chemical_formula_sum   'Th4 Fe2 B20'
_cell_volume   264.73180286
_cell_formula_units_Z   2
loop_
 _symmetry_equiv_pos_site_id
 _symmetry_equiv_pos_as_xyz
  1  'x, y, z'
loop_
 _atom_site_type_symbol
 _atom_site_label
 _atom_site_symmetry_multiplicity
 _atom_site_fract_x
 _atom_site_fract_y
 _atom_site_fract_z
 _atom_site_occupancy
  Th  Th0  1  0.500000  0.790880  0.368741  1
  Th  Th1  1  0.500000  0.209120  0.631259  1
  Th  Th2  1  0.500000  0.290880  0.131259  1
  Th  Th3  1  0.500000  0.709120  0.868741  1
  Fe  Fe4  1  0.000000  0.000000  0.000000  1
  Fe  Fe5  1  0.000000  0.500000  0.500000  1
  B  B6  1  0.000000  0.626875  0.039980  1
  B  B7  1  0.000000  0.373125  0.960020  1
  B  B8  1  0.000000  0.126875  0.460020  1
  B  B9  1  0.000000  0.873125  0.539980  1
  B  B10  1  0.000000  0.647708  0.197036  1
  B  B11  1  0.000000  0.352292  0.802964  1
  B  B12  1  0.299527  0.705012  0.613831  1
  B  B13  1  0.299527  0.294988  0.386169  1
  B  B14  1  0.700473  0.205012  0.886169  1
  B  B15  1  0.700473  0.794988  0.113831  1
  B  B16  1  0.700473  0.294988  0.386169  1
  B  B17  1  0.700473  0.705012  0.613831  1
  B  B18  1  0.299527  0.794988  0.113831  1
  B  B19  1  0.299527  0.205012  0.886169  1
  B  B20  1  0.000000  0.539647  0.687465  1
  B  B21  1  0.000000  0.460353  0.312535  1
  B  B22  1  0.000000  0.039647  0.812535  1
  B  B23  1  0.000000  0.960353  0.187465  1
  B  B24  1  0.000000  0.852292  0.697036  1
  B  B25  1  0.000000  0.147708  0.302964  1
