# generated using pymatgen
data_LiGaI3
_symmetry_space_group_name_H-M   'P 1'
_cell_length_a   7.28492749
_cell_length_b   11.57686896
_cell_length_c   8.61615481
_cell_angle_alpha   90.00000000
_cell_angle_beta   92.22547922
_cell_angle_gamma   90.00000000
_symmetry_Int_Tables_number   1
_chemical_formula_structural   LiGaI3
_chemical_formula_sum   'Li4 Ga4 I12'
_cell_volume   726.10955665
_cell_formula_units_Z   4
loop_
 _symmetry_equiv_pos_site_id
 _symmetry_equiv_pos_as_xyz
  1  'x, y, z'
loop_
 _atom_site_type_symbol
 _atom_site_label
 _atom_site_symmetry_multiplicity
 _atom_site_fract_x
 _atom_site_fract_y
 _atom_site_fract_z
 _atom_site_occupancy
  Li  Li0  1  0.000000  0.500000  0.500000  1
  Li  Li1  1  0.500000  0.500000  0.000000  1
  Li  Li2  1  0.000000  0.000000  0.500000  1
  Li  Li3  1  0.500000  0.000000  0.000000  1
  Ga  Ga4  1  0.033742  0.250000  0.029891  1
  Ga  Ga5  1  0.866791  0.750000  0.241102  1
  Ga  Ga6  1  0.966258  0.750000  0.970109  1
  Ga  Ga7  1  0.133209  0.250000  0.758898  1
  I  I8  1  0.324544  0.750000  0.934178  1
  I  I9  1  0.665065  0.569698  0.317140  1
  I  I10  1  0.334935  0.069698  0.682860  1
  I  I11  1  0.334935  0.430302  0.682860  1
  I  I12  1  0.178009  0.069922  0.183623  1
  I  I13  1  0.821991  0.569922  0.816377  1
  I  I14  1  0.821991  0.930078  0.816377  1
  I  I15  1  0.178009  0.430078  0.183623  1
  I  I16  1  0.675456  0.250000  0.065822  1
  I  I17  1  0.137228  0.750000  0.453777  1
  I  I18  1  0.862772  0.250000  0.546223  1
  I  I19  1  0.665065  0.930302  0.317140  1
