# generated using pymatgen
data_TbGePt
_symmetry_space_group_name_H-M   'P 1'
_cell_length_a   4.38716336
_cell_length_b   7.08590017
_cell_length_c   7.67258268
_cell_angle_alpha   90.00000000
_cell_angle_beta   90.00000000
_cell_angle_gamma   90.00000000
_symmetry_Int_Tables_number   1
_chemical_formula_structural   TbGePt
_chemical_formula_sum   'Tb4 Ge4 Pt4'
_cell_volume   238.51759004
_cell_formula_units_Z   4
loop_
 _symmetry_equiv_pos_site_id
 _symmetry_equiv_pos_as_xyz
  1  'x, y, z'
loop_
 _atom_site_type_symbol
 _atom_site_label
 _atom_site_symmetry_multiplicity
 _atom_site_fract_x
 _atom_site_fract_y
 _atom_site_fract_z
 _atom_site_occupancy
  Tb  Tb0  1  0.750000  0.503928  0.796706  1
  Tb  Tb1  1  0.250000  0.996072  0.296706  1
  Tb  Tb2  1  0.750000  0.003928  0.703294  1
  Tb  Tb3  1  0.250000  0.496072  0.203294  1
  Ge  Ge4  1  0.250000  0.811925  0.912679  1
  Ge  Ge5  1  0.250000  0.311925  0.587321  1
  Ge  Ge6  1  0.750000  0.188075  0.087321  1
  Ge  Ge7  1  0.750000  0.688075  0.412679  1
  Pt  Pt8  1  0.250000  0.705174  0.586076  1
  Pt  Pt9  1  0.250000  0.205174  0.913924  1
  Pt  Pt10  1  0.750000  0.794826  0.086076  1
  Pt  Pt11  1  0.750000  0.294826  0.413924  1
