# generated using pymatgen
data_MgAl2P2(HO)18
_symmetry_space_group_name_H-M   'P 1'
_cell_length_a   5.27011553
_cell_length_b   6.97466610
_cell_length_c   10.29531694
_cell_angle_alpha   96.68302090
_cell_angle_beta   101.76536216
_cell_angle_gamma   110.27694169
_symmetry_Int_Tables_number   1
_chemical_formula_structural   MgAl2P2(HO)18
_chemical_formula_sum   'Mg1 Al2 P2 H18 O18'
_cell_volume   340.23385301
_cell_formula_units_Z   1
loop_
 _symmetry_equiv_pos_site_id
 _symmetry_equiv_pos_as_xyz
  1  'x, y, z'
loop_
 _atom_site_type_symbol
 _atom_site_label
 _atom_site_symmetry_multiplicity
 _atom_site_fract_x
 _atom_site_fract_y
 _atom_site_fract_z
 _atom_site_occupancy
  Mg  Mg0  1  0.000000  0.000000  0.000000  1
  Al  Al1  1  0.500000  0.000000  0.500000  1
  Al  Al2  1  0.500000  0.500000  0.500000  1
  P  P3  1  0.984964  0.078156  0.332778  1
  P  P4  1  0.015036  0.921844  0.667222  1
  H  H5  1  0.919094  0.423271  0.748182  1
  H  H6  1  0.080906  0.576729  0.251818  1
  H  H7  1  0.096023  0.658168  0.821384  1
  H  H8  1  0.903977  0.341832  0.178616  1
  H  H9  1  0.527021  0.989008  0.123219  1
  H  H10  1  0.699465  0.058387  0.793600  1
  H  H11  1  0.198343  0.397115  0.951410  1
  H  H12  1  0.801657  0.602885  0.048590  1
  H  H13  1  0.338740  0.402674  0.103218  1
  H  H14  1  0.661260  0.597326  0.896782  1
  H  H15  1  0.684984  0.505741  0.276921  1
  H  H16  1  0.315016  0.494259  0.723079  1
  H  H17  1  0.607500  0.699678  0.326381  1
  H  H18  1  0.392500  0.300322  0.673619  1
  H  H19  1  0.831675  0.325565  0.486405  1
  H  H20  1  0.168325  0.674435  0.513595  1
  H  H21  1  0.472979  0.010992  0.876781  1
  H  H22  1  0.300535  0.941613  0.206400  1
  O  O23  1  0.259270  0.313027  0.012970  1
  O  O24  1  0.677817  0.062832  0.887692  1
  O  O25  1  0.322183  0.937168  0.112308  1
  O  O26  1  0.900997  0.485948  0.188934  1
  O  O27  1  0.099003  0.514052  0.811066  1
  O  O28  1  0.457949  0.457507  0.684229  1
  O  O29  1  0.644047  0.289847  0.502532  1
  O  O30  1  0.355953  0.710153  0.497468  1
  O  O31  1  0.712140  0.954801  0.372479  1
  O  O32  1  0.287860  0.045199  0.627521  1
  O  O33  1  0.096762  0.905844  0.818104  1
  O  O34  1  0.903238  0.094156  0.181896  1
  O  O35  1  0.875263  0.700880  0.574633  1
  O  O36  1  0.124737  0.299120  0.425367  1
  O  O37  1  0.813634  0.041208  0.650648  1
  O  O38  1  0.186366  0.958792  0.349352  1
  O  O39  1  0.740730  0.686973  0.987030  1
  O  O40  1  0.542051  0.542493  0.315771  1
