# generated using pymatgen
data_Rb2CuH12(SO7)2
_symmetry_space_group_name_H-M   'P 1'
_cell_length_a   6.27631735
_cell_length_b   12.50697411
_cell_length_c   9.31561572
_cell_angle_alpha   90.00000000
_cell_angle_beta   104.67089468
_cell_angle_gamma   90.00000000
_symmetry_Int_Tables_number   1
_chemical_formula_structural   Rb2CuH12(SO7)2
_chemical_formula_sum   'Rb4 Cu2 H24 S4 O28'
_cell_volume   707.41332776
_cell_formula_units_Z   2
loop_
 _symmetry_equiv_pos_site_id
 _symmetry_equiv_pos_as_xyz
  1  'x, y, z'
loop_
 _atom_site_type_symbol
 _atom_site_label
 _atom_site_symmetry_multiplicity
 _atom_site_fract_x
 _atom_site_fract_y
 _atom_site_fract_z
 _atom_site_occupancy
  Rb  Rb0  1  0.652943  0.350489  0.380875  1
  Rb  Rb1  1  0.347057  0.850489  0.119125  1
  Rb  Rb2  1  0.347057  0.649511  0.619125  1
  Rb  Rb3  1  0.652943  0.149511  0.880875  1
  Cu  Cu4  1  0.000000  0.500000  0.000000  1
  Cu  Cu5  1  0.000000  0.000000  0.500000  1
  H  H6  1  0.692130  0.640443  0.967330  1
  H  H7  1  0.307870  0.140443  0.532670  1
  H  H8  1  0.307870  0.359557  0.032670  1
  H  H9  1  0.692130  0.859557  0.467330  1
  H  H10  1  0.676325  0.562282  0.100306  1
  H  H11  1  0.323675  0.062282  0.399694  1
  H  H12  1  0.078251  0.396086  0.294856  1
  H  H13  1  0.921749  0.896086  0.205144  1
  H  H14  1  0.921749  0.603914  0.705144  1
  H  H15  1  0.078251  0.103914  0.794856  1
  H  H16  1  0.917992  0.376563  0.769178  1
  H  H17  1  0.082008  0.876563  0.730822  1
  H  H18  1  0.082008  0.623437  0.230822  1
  H  H19  1  0.917992  0.123437  0.269178  1
  H  H20  1  0.684460  0.409312  0.801800  1
  H  H21  1  0.991823  0.693037  0.827599  1
  H  H22  1  0.315540  0.909312  0.698200  1
  H  H23  1  0.315540  0.590688  0.198200  1
  H  H24  1  0.684460  0.090688  0.301800  1
  H  H25  1  0.991823  0.806963  0.327599  1
  H  H26  1  0.008177  0.306963  0.172401  1
  H  H27  1  0.676325  0.937718  0.600306  1
  H  H28  1  0.323675  0.437718  0.899694  1
  H  H29  1  0.008177  0.193037  0.672401  1
  S  S30  1  0.727357  0.859358  0.888369  1
  S  S31  1  0.272643  0.359358  0.611631  1
  S  S32  1  0.272643  0.140642  0.111631  1
  S  S33  1  0.727357  0.640642  0.388369  1
  O  O34  1  0.159121  0.610698  0.151083  1
  O  O35  1  0.159121  0.889302  0.651083  1
  O  O36  1  0.973085  0.119414  0.698180  1
  O  O37  1  0.026915  0.619414  0.801820  1
  O  O38  1  0.026915  0.880586  0.301820  1
  O  O39  1  0.973085  0.380586  0.198180  1
  O  O40  1  0.840879  0.110698  0.348917  1
  O  O41  1  0.053893  0.329972  0.637881  1
  O  O42  1  0.946107  0.829972  0.862119  1
  O  O43  1  0.946107  0.670028  0.362119  1
  O  O44  1  0.714149  0.935513  0.502081  1
  O  O45  1  0.285851  0.435513  0.997919  1
  O  O46  1  0.285851  0.064487  0.497919  1
  O  O47  1  0.714149  0.564487  0.002081  1
  O  O48  1  0.053893  0.170028  0.137881  1
  O  O49  1  0.400952  0.425026  0.740243  1
  O  O50  1  0.599048  0.925026  0.759757  1
  O  O51  1  0.400952  0.074974  0.240243  1
  O  O52  1  0.242474  0.423770  0.474155  1
  O  O53  1  0.757526  0.923770  0.025845  1
  O  O54  1  0.757526  0.576230  0.525845  1
  O  O55  1  0.242474  0.076230  0.974155  1
  O  O56  1  0.599048  0.574974  0.259757  1
  O  O57  1  0.598997  0.760292  0.898751  1
  O  O58  1  0.598997  0.739708  0.398751  1
  O  O59  1  0.401003  0.239708  0.101249  1
  O  O60  1  0.840879  0.389302  0.848917  1
  O  O61  1  0.401003  0.260292  0.601249  1
