# generated using pymatgen
data_OsF6
_symmetry_space_group_name_H-M   'P 1'
_cell_length_a   5.16076969
_cell_length_b   8.90317642
_cell_length_c   9.77992998
_cell_angle_alpha   90.00000000
_cell_angle_beta   90.00000000
_cell_angle_gamma   90.00000000
_symmetry_Int_Tables_number   1
_chemical_formula_structural   OsF6
_chemical_formula_sum   'Os4 F24'
_cell_volume   449.36081944
_cell_formula_units_Z   4
loop_
 _symmetry_equiv_pos_site_id
 _symmetry_equiv_pos_as_xyz
  1  'x, y, z'
loop_
 _atom_site_type_symbol
 _atom_site_label
 _atom_site_symmetry_multiplicity
 _atom_site_fract_x
 _atom_site_fract_y
 _atom_site_fract_z
 _atom_site_occupancy
  Os  Os0  1  0.590787  0.750000  0.126976  1
  Os  Os1  1  0.090787  0.250000  0.373024  1
  Os  Os2  1  0.409213  0.250000  0.873024  1
  Os  Os3  1  0.909213  0.750000  0.626976  1
  F  F4  1  0.256714  0.101612  0.981848  1
  F  F5  1  0.756714  0.898388  0.518152  1
  F  F6  1  0.743286  0.601612  0.018152  1
  F  F7  1  0.243286  0.398388  0.481848  1
  F  F8  1  0.617365  0.750000  0.740577  1
  F  F9  1  0.117365  0.250000  0.759423  1
  F  F10  1  0.382635  0.250000  0.259423  1
  F  F11  1  0.882635  0.750000  0.240577  1
  F  F12  1  0.061045  0.601525  0.735738  1
  F  F13  1  0.561045  0.398475  0.764262  1
  F  F14  1  0.938955  0.101525  0.264262  1
  F  F15  1  0.438955  0.898475  0.235738  1
  F  F16  1  0.938955  0.398475  0.264262  1
  F  F17  1  0.438955  0.601525  0.235738  1
  F  F18  1  0.061045  0.898475  0.735738  1
  F  F19  1  0.561045  0.101525  0.764262  1
  F  F20  1  0.200467  0.750000  0.513245  1
  F  F21  1  0.700467  0.250000  0.986755  1
  F  F22  1  0.799533  0.250000  0.486755  1
  F  F23  1  0.299533  0.750000  0.013245  1
  F  F24  1  0.756714  0.601612  0.518152  1
  F  F25  1  0.256714  0.398388  0.981848  1
  F  F26  1  0.243286  0.101612  0.481848  1
  F  F27  1  0.743286  0.898388  0.018152  1
