# generated using pymatgen
data_HfAg2S3
_symmetry_space_group_name_H-M   'P 1'
_cell_length_a   6.69093823
_cell_length_b   6.69093823
_cell_length_c   12.77342422
_cell_angle_alpha   90.00000000
_cell_angle_beta   90.00000000
_cell_angle_gamma   119.86875460
_symmetry_Int_Tables_number   1
_chemical_formula_structural   HfAg2S3
_chemical_formula_sum   'Hf4 Ag8 S12'
_cell_volume   495.88943104
_cell_formula_units_Z   4
loop_
 _symmetry_equiv_pos_site_id
 _symmetry_equiv_pos_as_xyz
  1  'x, y, z'
loop_
 _atom_site_type_symbol
 _atom_site_label
 _atom_site_symmetry_multiplicity
 _atom_site_fract_x
 _atom_site_fract_y
 _atom_site_fract_z
 _atom_site_occupancy
  Hf  Hf0  1  0.337784  0.662216  0.500000  1
  Hf  Hf1  1  0.162216  0.837784  0.000000  1
  Hf  Hf2  1  0.662216  0.337784  0.500000  1
  Hf  Hf3  1  0.837784  0.162216  1.000000  1
  Ag  Ag4  1  0.851987  0.351987  0.750000  1
  Ag  Ag5  1  0.475140  0.475140  0.180243  1
  Ag  Ag6  1  0.524860  0.524860  0.819757  1
  Ag  Ag7  1  0.975140  0.975140  0.319757  1
  Ag  Ag8  1  0.148013  0.648013  0.250000  1
  Ag  Ag9  1  0.351987  0.851987  0.750000  1
  Ag  Ag10  1  0.648013  0.148013  0.250000  1
  Ag  Ag11  1  0.024860  0.024860  0.680243  1
  S  S12  1  0.610539  0.610539  0.376481  1
  S  S13  1  0.889461  0.889461  0.876481  1
  S  S14  1  0.110539  0.110539  0.123519  1
  S  S15  1  0.389461  0.389461  0.623519  1
  S  S16  1  0.497897  0.846498  0.102790  1
  S  S17  1  0.002103  0.653502  0.602790  1
  S  S18  1  0.346498  0.997897  0.397210  1
  S  S19  1  0.153502  0.502103  0.897210  1
  S  S20  1  0.502103  0.153502  0.897210  1
  S  S21  1  0.846498  0.497897  0.102790  1
  S  S22  1  0.653502  0.002103  0.602790  1
  S  S23  1  0.997897  0.346498  0.397210  1
