# generated using pymatgen
data_TbCdF6
_symmetry_space_group_name_H-M   'P 1'
_cell_length_a   5.38053896
_cell_length_b   5.38053896
_cell_length_c   7.88736957
_cell_angle_alpha   90.00000000
_cell_angle_beta   90.00000000
_cell_angle_gamma   90.00000000
_symmetry_Int_Tables_number   1
_chemical_formula_structural   TbCdF6
_chemical_formula_sum   'Tb2 Cd2 F12'
_cell_volume   228.34092258
_cell_formula_units_Z   2
loop_
 _symmetry_equiv_pos_site_id
 _symmetry_equiv_pos_as_xyz
  1  'x, y, z'
loop_
 _atom_site_type_symbol
 _atom_site_label
 _atom_site_symmetry_multiplicity
 _atom_site_fract_x
 _atom_site_fract_y
 _atom_site_fract_z
 _atom_site_occupancy
  Tb  Tb0  1  0.500000  0.500000  0.750000  1
  Tb  Tb1  1  0.500000  0.500000  0.250000  1
  Cd  Cd2  1  0.000000  0.000000  0.500000  1
  Cd  Cd3  1  0.000000  0.000000  0.000000  1
  F  F4  1  0.653403  0.303294  0.500000  1
  F  F5  1  0.696706  0.653403  0.000000  1
  F  F6  1  0.303294  0.346597  0.000000  1
  F  F7  1  0.346597  0.696706  0.500000  1
  F  F8  1  0.187708  0.252365  0.326023  1
  F  F9  1  0.747635  0.187708  0.826023  1
  F  F10  1  0.252365  0.812292  0.826023  1
  F  F11  1  0.812292  0.747635  0.326023  1
  F  F12  1  0.812292  0.747635  0.673977  1
  F  F13  1  0.252365  0.812292  0.173977  1
  F  F14  1  0.747635  0.187708  0.173977  1
  F  F15  1  0.187708  0.252365  0.673977  1
