# generated using pymatgen
data_U(CrC)4
_symmetry_space_group_name_H-M   'P 1'
_cell_length_a   5.82324130
_cell_length_b   5.82324130
_cell_length_c   5.82324130
_cell_angle_alpha   93.85633677
_cell_angle_beta   93.85633677
_cell_angle_gamma   149.93871121
_symmetry_Int_Tables_number   1
_chemical_formula_structural   U(CrC)4
_chemical_formula_sum   'U1 Cr4 C4'
_cell_volume   95.53213556
_cell_formula_units_Z   1
loop_
 _symmetry_equiv_pos_site_id
 _symmetry_equiv_pos_as_xyz
  1  'x, y, z'
loop_
 _atom_site_type_symbol
 _atom_site_label
 _atom_site_symmetry_multiplicity
 _atom_site_fract_x
 _atom_site_fract_y
 _atom_site_fract_z
 _atom_site_occupancy
  U  U0  1  0.000000  0.000000  0.000000  1
  Cr  Cr1  1  0.179277  0.635278  0.814555  1
  Cr  Cr2  1  0.820723  0.364722  0.185445  1
  Cr  Cr3  1  0.364722  0.179277  0.544000  1
  Cr  Cr4  1  0.635278  0.820723  0.456000  1
  C  C5  1  0.734970  0.595925  0.330895  1
  C  C6  1  0.265030  0.404075  0.669105  1
  C  C7  1  0.404075  0.734970  0.139044  1
  C  C8  1  0.595925  0.265030  0.860956  1
