# generated using pymatgen
data_Li2MoO4
_symmetry_space_group_name_H-M   'P 1'
_cell_length_a   9.03741089
_cell_length_b   9.03741089
_cell_length_c   9.03741089
_cell_angle_alpha   107.84516262
_cell_angle_beta   107.84516262
_cell_angle_gamma   107.84516262
_symmetry_Int_Tables_number   1
_chemical_formula_structural   Li2MoO4
_chemical_formula_sum   'Li12 Mo6 O24'
_cell_volume   599.98424696
_cell_formula_units_Z   6
loop_
 _symmetry_equiv_pos_site_id
 _symmetry_equiv_pos_as_xyz
  1  'x, y, z'
loop_
 _atom_site_type_symbol
 _atom_site_label
 _atom_site_symmetry_multiplicity
 _atom_site_fract_x
 _atom_site_fract_y
 _atom_site_fract_z
 _atom_site_occupancy
  Li  Li0  1  0.393442  0.628711  0.223929  1
  Li  Li1  1  0.107599  0.933024  0.702565  1
  Li  Li2  1  0.892401  0.066976  0.297435  1
  Li  Li3  1  0.223929  0.393442  0.628711  1
  Li  Li4  1  0.702565  0.107599  0.933024  1
  Li  Li5  1  0.933024  0.702565  0.107599  1
  Li  Li6  1  0.776071  0.606558  0.371289  1
  Li  Li7  1  0.628711  0.223929  0.393442  1
  Li  Li8  1  0.066976  0.297435  0.892401  1
  Li  Li9  1  0.371289  0.776071  0.606558  1
  Li  Li10  1  0.297435  0.892401  0.066976  1
  Li  Li11  1  0.606558  0.371289  0.776071  1
  Mo  Mo12  1  0.732319  0.964085  0.555300  1
  Mo  Mo13  1  0.267681  0.035915  0.444700  1
  Mo  Mo14  1  0.964085  0.555300  0.732319  1
  Mo  Mo15  1  0.444700  0.267681  0.035915  1
  Mo  Mo16  1  0.555300  0.732319  0.964085  1
  Mo  Mo17  1  0.035915  0.444700  0.267681  1
  O  O18  1  0.510109  0.810443  0.471814  1
  O  O19  1  0.777701  0.816977  0.116479  1
  O  O20  1  0.471814  0.510109  0.810443  1
  O  O21  1  0.151648  0.459978  0.138574  1
  O  O22  1  0.861426  0.848352  0.540022  1
  O  O23  1  0.540022  0.861426  0.848352  1
  O  O24  1  0.883521  0.222299  0.183023  1
  O  O25  1  0.528186  0.489891  0.189557  1
  O  O26  1  0.116479  0.777701  0.816977  1
  O  O27  1  0.574017  0.250690  0.921190  1
  O  O28  1  0.183023  0.883521  0.222299  1
  O  O29  1  0.816977  0.116479  0.777701  1
  O  O30  1  0.810443  0.471814  0.510109  1
  O  O31  1  0.489891  0.189557  0.528186  1
  O  O32  1  0.459978  0.138574  0.151648  1
  O  O33  1  0.222299  0.183023  0.883521  1
  O  O34  1  0.250690  0.921190  0.574017  1
  O  O35  1  0.189557  0.528186  0.489891  1
  O  O36  1  0.848352  0.540022  0.861426  1
  O  O37  1  0.425983  0.749310  0.078810  1
  O  O38  1  0.138574  0.151648  0.459978  1
  O  O39  1  0.078810  0.425983  0.749310  1
  O  O40  1  0.921190  0.574017  0.250690  1
  O  O41  1  0.749310  0.078810  0.425983  1
