# generated using pymatgen
data_SrIn4
_symmetry_space_group_name_H-M   'P 1'
_cell_length_a   7.09360831
_cell_length_b   7.09360831
_cell_length_c   7.09360831
_cell_angle_alpha   139.09732106
_cell_angle_beta   139.09732106
_cell_angle_gamma   59.22648804
_symmetry_Int_Tables_number   1
_chemical_formula_structural   SrIn4
_chemical_formula_sum   'Sr1 In4'
_cell_volume   151.54675071
_cell_formula_units_Z   1
loop_
 _symmetry_equiv_pos_site_id
 _symmetry_equiv_pos_as_xyz
  1  'x, y, z'
loop_
 _atom_site_type_symbol
 _atom_site_label
 _atom_site_symmetry_multiplicity
 _atom_site_fract_x
 _atom_site_fract_y
 _atom_site_fract_z
 _atom_site_occupancy
  Sr  Sr0  1  0.000000  0.000000  0.000000  1
  In  In1  1  0.250000  0.750000  0.500000  1
  In  In2  1  0.750000  0.250000  0.500000  1
  In  In3  1  0.385852  0.385852  0.000000  1
  In  In4  1  0.614148  0.614148  0.000000  1
