# generated using pymatgen
data_Sb(PO3)4
_symmetry_space_group_name_H-M   'P 1'
_cell_length_a   8.72056971
_cell_length_b   8.72056971
_cell_length_c   9.28330506
_cell_angle_alpha   58.94286405
_cell_angle_beta   121.05713595
_cell_angle_gamma   131.56572979
_symmetry_Int_Tables_number   1
_chemical_formula_structural   Sb(PO3)4
_chemical_formula_sum   'Sb2 P8 O24'
_cell_volume   435.57809275
_cell_formula_units_Z   2
loop_
 _symmetry_equiv_pos_site_id
 _symmetry_equiv_pos_as_xyz
  1  'x, y, z'
loop_
 _atom_site_type_symbol
 _atom_site_label
 _atom_site_symmetry_multiplicity
 _atom_site_fract_x
 _atom_site_fract_y
 _atom_site_fract_z
 _atom_site_occupancy
  Sb  Sb0  1  0.796601  0.796601  0.750000  1
  Sb  Sb1  1  0.203399  0.203399  0.250000  1
  P  P2  1  0.390819  0.664584  0.875597  1
  P  P3  1  0.726870  0.011393  0.313225  1
  P  P4  1  0.988607  0.273130  0.813225  1
  P  P5  1  0.664584  0.390819  0.624403  1
  P  P6  1  0.335416  0.609181  0.375597  1
  P  P7  1  0.011393  0.726870  0.186775  1
  P  P8  1  0.273130  0.988607  0.686775  1
  P  P9  1  0.609181  0.335416  0.124403  1
  O  O10  1  0.575957  0.816025  0.795458  1
  O  O11  1  0.245066  0.986409  0.511730  1
  O  O12  1  0.301398  0.800130  0.837044  1
  O  O13  1  0.013547  0.890806  0.202457  1
  O  O14  1  0.890806  0.013547  0.297543  1
  O  O15  1  0.194850  0.499603  0.758734  1
  O  O16  1  0.816025  0.575957  0.704542  1
  O  O17  1  0.500397  0.805150  0.258734  1
  O  O18  1  0.986409  0.245066  0.988270  1
  O  O19  1  0.800130  0.301398  0.662956  1
  O  O20  1  0.554004  0.423465  0.433443  1
  O  O21  1  0.423465  0.554004  0.066557  1
  O  O22  1  0.576535  0.445996  0.933444  1
  O  O23  1  0.445996  0.576535  0.566557  1
  O  O24  1  0.199870  0.698602  0.337044  1
  O  O25  1  0.013591  0.754934  0.011730  1
  O  O26  1  0.499603  0.194850  0.741266  1
  O  O27  1  0.183975  0.424043  0.295458  1
  O  O28  1  0.805150  0.500397  0.241266  1
  O  O29  1  0.109194  0.986453  0.702457  1
  O  O30  1  0.986453  0.109194  0.797543  1
  O  O31  1  0.698602  0.199870  0.162956  1
  O  O32  1  0.754934  0.013591  0.488270  1
  O  O33  1  0.424043  0.183975  0.204542  1
