# generated using pymatgen
data_Al8Mo3
_symmetry_space_group_name_H-M   'P 1'
_cell_length_a   4.96465484
_cell_length_b   4.96465484
_cell_length_c   10.08558974
_cell_angle_alpha   80.01761187
_cell_angle_beta   99.98238813
_cell_angle_gamma   136.81231298
_symmetry_Int_Tables_number   1
_chemical_formula_structural   Al8Mo3
_chemical_formula_sum   'Al8 Mo3'
_cell_volume   167.14826947
_cell_formula_units_Z   1
loop_
 _symmetry_equiv_pos_site_id
 _symmetry_equiv_pos_as_xyz
  1  'x, y, z'
loop_
 _atom_site_type_symbol
 _atom_site_label
 _atom_site_symmetry_multiplicity
 _atom_site_fract_x
 _atom_site_fract_y
 _atom_site_fract_z
 _atom_site_occupancy
  Al  Al0  1  0.727682  0.272318  0.090180  1
  Al  Al1  1  0.272318  0.727682  0.909820  1
  Al  Al2  1  0.539837  0.460163  0.820853  1
  Al  Al3  1  0.460163  0.539837  0.179147  1
  Al  Al4  1  0.813460  0.186540  0.722119  1
  Al  Al5  1  0.186540  0.813460  0.277881  1
  Al  Al6  1  0.631805  0.368195  0.458297  1
  Al  Al7  1  0.368195  0.631805  0.541703  1
  Mo  Mo8  1  0.000000  0.000000  0.000000  1
  Mo  Mo9  1  0.905411  0.094589  0.340539  1
  Mo  Mo10  1  0.094589  0.905411  0.659461  1
