# generated using pymatgen
data_Th2NiB10
_symmetry_space_group_name_H-M   'P 1'
_cell_length_a   4.17777994
_cell_length_b   5.64828908
_cell_length_c   11.20446825
_cell_angle_alpha   90.00000000
_cell_angle_beta   90.00000000
_cell_angle_gamma   90.00000000
_symmetry_Int_Tables_number   1
_chemical_formula_structural   Th2NiB10
_chemical_formula_sum   'Th4 Ni2 B20'
_cell_volume   264.39529739
_cell_formula_units_Z   2
loop_
 _symmetry_equiv_pos_site_id
 _symmetry_equiv_pos_as_xyz
  1  'x, y, z'
loop_
 _atom_site_type_symbol
 _atom_site_label
 _atom_site_symmetry_multiplicity
 _atom_site_fract_x
 _atom_site_fract_y
 _atom_site_fract_z
 _atom_site_occupancy
  Th  Th0  1  0.500000  0.306482  0.863316  1
  Th  Th1  1  0.500000  0.693518  0.136684  1
  Th  Th2  1  0.500000  0.806482  0.636684  1
  Th  Th3  1  0.500000  0.193518  0.363316  1
  Ni  Ni4  1  0.000000  0.500000  0.500000  1
  Ni  Ni5  1  0.000000  0.000000  0.000000  1
  B  B6  1  0.000000  0.124586  0.540544  1
  B  B7  1  0.000000  0.875414  0.459456  1
  B  B8  1  0.000000  0.624586  0.959456  1
  B  B9  1  0.000000  0.375414  0.040544  1
  B  B10  1  0.000000  0.152380  0.697357  1
  B  B11  1  0.000000  0.847620  0.302643  1
  B  B12  1  0.300192  0.202066  0.113918  1
  B  B13  1  0.300192  0.797934  0.886082  1
  B  B14  1  0.699808  0.702066  0.386082  1
  B  B15  1  0.699808  0.297934  0.613918  1
  B  B16  1  0.699808  0.797934  0.886082  1
  B  B17  1  0.699808  0.202066  0.113918  1
  B  B18  1  0.300192  0.297934  0.613918  1
  B  B19  1  0.300192  0.702066  0.386082  1
  B  B20  1  0.000000  0.036673  0.188793  1
  B  B21  1  0.000000  0.963327  0.811207  1
  B  B22  1  0.000000  0.536673  0.311207  1
  B  B23  1  0.000000  0.463327  0.688793  1
  B  B24  1  0.000000  0.347620  0.197357  1
  B  B25  1  0.000000  0.652380  0.802643  1
