# generated using pymatgen
data_Na2GaCuF7
_symmetry_space_group_name_H-M   'P 1'
_cell_length_a   7.29760119
_cell_length_b   7.29760119
_cell_length_c   13.00354170
_cell_angle_alpha   73.02895278
_cell_angle_beta   106.97104722
_cell_angle_gamma   118.86315717
_symmetry_Int_Tables_number   1
_chemical_formula_structural   Na2GaCuF7
_chemical_formula_sum   'Na8 Ga4 Cu4 F28'
_cell_volume   570.56505871
_cell_formula_units_Z   4
loop_
 _symmetry_equiv_pos_site_id
 _symmetry_equiv_pos_as_xyz
  1  'x, y, z'
loop_
 _atom_site_type_symbol
 _atom_site_label
 _atom_site_symmetry_multiplicity
 _atom_site_fract_x
 _atom_site_fract_y
 _atom_site_fract_z
 _atom_site_occupancy
  Na  Na0  1  0.280764  0.785915  0.752526  1
  Na  Na1  1  0.214085  0.719236  0.252526  1
  Na  Na2  1  0.269337  0.269337  0.750000  1
  Na  Na3  1  0.785915  0.280764  0.747474  1
  Na  Na4  1  0.500000  0.500000  0.500000  1
  Na  Na5  1  0.719236  0.214085  0.247474  1
  Na  Na6  1  0.730663  0.730663  0.250000  1
  Na  Na7  1  0.500000  0.500000  0.000000  1
  Ga  Ga8  1  0.255391  0.255391  0.250000  1
  Ga  Ga9  1  0.744609  0.744609  0.750000  1
  Ga  Ga10  1  0.500000  1.000000  0.000000  1
  Ga  Ga11  1  0.000000  0.500000  0.500000  1
  Cu  Cu12  1  0.000000  0.000000  0.000000  1
  Cu  Cu13  1  0.000000  0.000000  0.500000  1
  Cu  Cu14  1  0.500000  1.000000  0.500000  1
  Cu  Cu15  1  0.000000  0.500000  0.000000  1
  F  F16  1  0.981585  0.885437  0.675199  1
  F  F17  1  0.299084  0.048589  0.550735  1
  F  F18  1  0.912088  0.493167  0.343580  1
  F  F19  1  0.585235  0.900839  0.654552  1
  F  F20  1  0.099539  0.280798  0.534794  1
  F  F21  1  0.700916  0.951411  0.449265  1
  F  F22  1  0.900461  0.719202  0.465206  1
  F  F23  1  0.719202  0.900461  0.034794  1
  F  F24  1  0.506833  0.087912  0.843580  1
  F  F25  1  0.048589  0.299084  0.949265  1
  F  F26  1  0.493167  0.912088  0.156420  1
  F  F27  1  0.018415  0.114563  0.324801  1
  F  F28  1  0.280798  0.099539  0.965206  1
  F  F29  1  0.099161  0.414765  0.154552  1
  F  F30  1  0.276197  0.684953  0.468159  1
  F  F31  1  0.684953  0.276197  0.031841  1
  F  F32  1  0.900839  0.585235  0.845448  1
  F  F33  1  0.491706  0.399419  0.174070  1
  F  F34  1  0.600581  0.508294  0.674070  1
  F  F35  1  0.885437  0.981585  0.824801  1
  F  F36  1  0.723803  0.315047  0.531841  1
  F  F37  1  0.399419  0.491706  0.325930  1
  F  F38  1  0.087912  0.506833  0.656420  1
  F  F39  1  0.315047  0.723803  0.968159  1
  F  F40  1  0.414765  0.099161  0.345448  1
  F  F41  1  0.508294  0.600581  0.825930  1
  F  F42  1  0.951411  0.700916  0.050735  1
  F  F43  1  0.114563  0.018415  0.175199  1
