# generated using pymatgen
data_YCI
_symmetry_space_group_name_H-M   'P 1'
_cell_length_a   4.15558871
_cell_length_b   4.15558871
_cell_length_c   10.78092923
_cell_angle_alpha   86.89135035
_cell_angle_beta   93.10864965
_cell_angle_gamma   123.80713930
_symmetry_Int_Tables_number   1
_chemical_formula_structural   YCI
_chemical_formula_sum   'Y2 C2 I2'
_cell_volume   154.40303234
_cell_formula_units_Z   2
loop_
 _symmetry_equiv_pos_site_id
 _symmetry_equiv_pos_as_xyz
  1  'x, y, z'
loop_
 _atom_site_type_symbol
 _atom_site_label
 _atom_site_symmetry_multiplicity
 _atom_site_fract_x
 _atom_site_fract_y
 _atom_site_fract_z
 _atom_site_occupancy
  Y  Y0  1  0.853405  0.146595  0.871579  1
  Y  Y1  1  0.146595  0.853405  0.128421  1
  C  C2  1  0.423381  0.576619  0.029998  1
  C  C3  1  0.576619  0.423381  0.970002  1
  I  I4  1  0.825142  0.174858  0.324429  1
  I  I5  1  0.174858  0.825142  0.675571  1
