# generated using pymatgen
data_Ca4Ni3C5
_symmetry_space_group_name_H-M   'P 1'
_cell_length_a   5.86942623
_cell_length_b   5.86942623
_cell_length_c   9.79089973
_cell_angle_alpha   68.38854494
_cell_angle_beta   111.61145506
_cell_angle_gamma   142.58588937
_symmetry_Int_Tables_number   1
_chemical_formula_structural   Ca4Ni3C5
_chemical_formula_sum   'Ca4 Ni3 C5'
_cell_volume   188.80444049
_cell_formula_units_Z   1
loop_
 _symmetry_equiv_pos_site_id
 _symmetry_equiv_pos_as_xyz
  1  'x, y, z'
loop_
 _atom_site_type_symbol
 _atom_site_label
 _atom_site_symmetry_multiplicity
 _atom_site_fract_x
 _atom_site_fract_y
 _atom_site_fract_z
 _atom_site_occupancy
  Ca  Ca0  1  0.101267  0.898733  0.398771  1
  Ca  Ca1  1  0.744221  0.255779  0.163193  1
  Ca  Ca2  1  0.255779  0.744221  0.836807  1
  Ca  Ca3  1  0.898733  0.101267  0.601229  1
  Ni  Ni4  1  0.541515  0.458485  0.836393  1
  Ni  Ni5  1  0.000000  0.000000  0.000000  1
  Ni  Ni6  1  0.458485  0.541515  0.163607  1
  C  C7  1  0.398043  0.601957  0.311001  1
  C  C8  1  0.500000  0.500000  0.000000  1
  C  C9  1  0.672919  0.327081  0.610242  1
  C  C10  1  0.327081  0.672919  0.389758  1
  C  C11  1  0.601957  0.398043  0.688999  1
