# generated using pymatgen
data_Mg3P4H48(NO15)2
_symmetry_space_group_name_H-M   'P 1'
_cell_length_a   17.70827363
_cell_length_b   17.70827363
_cell_length_c   6.18963137
_cell_angle_alpha   88.81701014
_cell_angle_beta   91.18298986
_cell_angle_gamma   157.03194814
_symmetry_Int_Tables_number   1
_chemical_formula_structural   Mg3P4H48(NO15)2
_chemical_formula_sum   'Mg3 P4 H48 N2 O30'
_cell_volume   757.23016098
_cell_formula_units_Z   1
loop_
 _symmetry_equiv_pos_site_id
 _symmetry_equiv_pos_as_xyz
  1  'x, y, z'
loop_
 _atom_site_type_symbol
 _atom_site_label
 _atom_site_symmetry_multiplicity
 _atom_site_fract_x
 _atom_site_fract_y
 _atom_site_fract_z
 _atom_site_occupancy
  Mg  Mg0  1  0.500000  0.500000  0.000000  1
  Mg  Mg1  1  0.166851  0.833149  0.752406  1
  Mg  Mg2  1  0.833149  0.166851  0.247594  1
  P  P3  1  0.704490  0.295510  0.374992  1
  P  P4  1  0.295510  0.704490  0.625008  1
  P  P5  1  0.048279  0.951721  0.348735  1
  P  P6  1  0.951721  0.048279  0.651265  1
  H  H7  1  0.587768  0.412232  0.053293  1
  H  H8  1  0.412232  0.587768  0.946707  1
  H  H9  1  0.496460  0.740289  0.082693  1
  H  H10  1  0.740289  0.496460  0.917307  1
  H  H11  1  0.503540  0.259711  0.917307  1
  H  H12  1  0.259711  0.503540  0.082693  1
  H  H13  1  0.633907  0.366093  0.154463  1
  H  H14  1  0.366093  0.633907  0.845537  1
  H  H15  1  0.339312  0.429809  0.648943  1
  H  H16  1  0.429809  0.339312  0.351057  1
  H  H17  1  0.660688  0.570191  0.351057  1
  H  H18  1  0.570191  0.660688  0.648943  1
  H  H19  1  0.788889  0.706120  0.720525  1
  H  H20  1  0.706120  0.788890  0.279475  1
  H  H21  1  0.211111  0.293880  0.279475  1
  H  H22  1  0.293880  0.211111  0.720525  1
  H  H23  1  0.227314  0.136437  0.963295  1
  H  H24  1  0.136437  0.227314  0.036705  1
  H  H25  1  0.772686  0.863563  0.036705  1
  H  H26  1  0.863563  0.772686  0.963295  1
  H  H27  1  0.099535  0.306404  0.414253  1
  H  H28  1  0.900465  0.693596  0.585747  1
  H  H29  1  0.966386  0.432184  0.202411  1
  H  H30  1  0.693596  0.900465  0.414253  1
  H  H31  1  0.180214  0.464414  0.439639  1
  H  H32  1  0.464414  0.180214  0.560361  1
  H  H33  1  0.819786  0.535586  0.560361  1
  H  H34  1  0.535586  0.819786  0.439639  1
  H  H35  1  0.112828  0.887172  0.085534  1
  H  H36  1  0.887172  0.112828  0.914466  1
  H  H37  1  0.155249  0.844751  0.196524  1
  H  H38  1  0.844751  0.155249  0.803476  1
  H  H39  1  0.535450  0.951092  0.002139  1
  H  H40  1  0.951092  0.535450  0.997861  1
  H  H41  1  0.464550  0.048908  0.997861  1
  H  H42  1  0.048908  0.464550  0.002139  1
  H  H43  1  0.567816  0.033614  0.202411  1
  H  H44  1  0.033614  0.567816  0.797589  1
  H  H45  1  0.432184  0.966386  0.797589  1
  H  H46  1  0.992044  0.007956  0.680702  1
  H  H47  1  0.007956  0.992044  0.319298  1
  H  H48  1  0.279073  0.720927  0.415414  1
  H  H49  1  0.720927  0.279073  0.584586  1
  H  H50  1  0.913042  0.318900  0.624886  1
  H  H51  1  0.318900  0.913042  0.375114  1
  H  H52  1  0.086958  0.681100  0.375114  1
  H  H53  1  0.681100  0.086958  0.624886  1
  H  H54  1  0.306404  0.099535  0.585747  1
  N  N55  1  0.616531  0.383469  0.012365  1
  N  N56  1  0.383469  0.616531  0.987635  1
  O  O57  1  0.538444  0.461556  0.264265  1
  O  O58  1  0.461556  0.538444  0.735735  1
  O  O59  1  0.323654  0.252746  0.871646  1
  O  O60  1  0.252746  0.323654  0.128354  1
  O  O61  1  0.676346  0.747254  0.128354  1
  O  O62  1  0.747254  0.676346  0.871646  1
  O  O63  1  0.096427  0.355275  0.344852  1
  O  O64  1  0.355275  0.096427  0.655148  1
  O  O65  1  0.903573  0.644725  0.655148  1
  O  O66  1  0.644725  0.903573  0.344852  1
  O  O67  1  0.141088  0.858912  0.055975  1
  O  O68  1  0.858912  0.141088  0.944025  1
  O  O69  1  0.582830  0.994284  0.154659  1
  O  O70  1  0.994284  0.582830  0.845341  1
  O  O71  1  0.417170  0.005716  0.845341  1
  O  O72  1  0.005716  0.417170  0.154659  1
  O  O73  1  0.189266  0.810734  0.430210  1
  O  O74  1  0.810734  0.189266  0.569790  1
  O  O75  1  0.098989  0.535977  0.737516  1
  O  O76  1  0.535977  0.098989  0.262484  1
  O  O77  1  0.901011  0.464023  0.262484  1
  O  O78  1  0.464023  0.901011  0.737516  1
  O  O79  1  0.660115  0.339885  0.402151  1
  O  O80  1  0.339885  0.660115  0.597849  1
  O  O81  1  0.064691  0.935309  0.118571  1
  O  O82  1  0.935309  0.064691  0.881429  1
  O  O83  1  0.123127  0.241002  0.524549  1
  O  O84  1  0.241002  0.123127  0.475451  1
  O  O85  1  0.876873  0.758998  0.475451  1
  O  O86  1  0.758998  0.876873  0.524549  1
