# generated using pymatgen
data_Nb3I8
_symmetry_space_group_name_H-M   'P 1'
_cell_length_a   15.56674073
_cell_length_b   15.56674073
_cell_length_c   15.56674073
_cell_angle_alpha   28.66922215
_cell_angle_beta   28.66922215
_cell_angle_gamma   28.66922215
_symmetry_Int_Tables_number   1
_chemical_formula_structural   Nb3I8
_chemical_formula_sum   'Nb6 I16'
_cell_volume   767.56478377
_cell_formula_units_Z   2
loop_
 _symmetry_equiv_pos_site_id
 _symmetry_equiv_pos_as_xyz
  1  'x, y, z'
loop_
 _atom_site_type_symbol
 _atom_site_label
 _atom_site_symmetry_multiplicity
 _atom_site_fract_x
 _atom_site_fract_y
 _atom_site_fract_z
 _atom_site_occupancy
  Nb  Nb0  1  0.846680  0.453398  0.453398  1
  Nb  Nb1  1  0.153320  0.546602  0.546602  1
  Nb  Nb2  1  0.453398  0.453398  0.846680  1
  Nb  Nb3  1  0.546602  0.153320  0.546602  1
  Nb  Nb4  1  0.546602  0.546602  0.153320  1
  Nb  Nb5  1  0.453398  0.846680  0.453398  1
  I  I6  1  0.788405  0.293019  0.293019  1
  I  I7  1  0.884001  0.376338  0.884001  1
  I  I8  1  0.623662  0.115999  0.115999  1
  I  I9  1  0.115999  0.115999  0.623662  1
  I  I10  1  0.632336  0.632336  0.632336  1
  I  I11  1  0.211595  0.706981  0.706981  1
  I  I12  1  0.706981  0.211595  0.706981  1
  I  I13  1  0.367664  0.367664  0.367664  1
  I  I14  1  0.376338  0.884001  0.884001  1
  I  I15  1  0.884001  0.884001  0.376338  1
  I  I16  1  0.706981  0.706981  0.211595  1
  I  I17  1  0.115999  0.623662  0.115999  1
  I  I18  1  0.293019  0.293019  0.788405  1
  I  I19  1  0.293019  0.788405  0.293019  1
  I  I20  1  0.218573  0.218573  0.218573  1
  I  I21  1  0.781427  0.781427  0.781427  1
