# generated using pymatgen
data_Nb2(PO4)3
_symmetry_space_group_name_H-M   'P 1'
_cell_length_a   8.88587578
_cell_length_b   8.91578292
_cell_length_c   15.24692197
_cell_angle_alpha   90.00000000
_cell_angle_beta   125.48354843
_cell_angle_gamma   90.00000000
_symmetry_Int_Tables_number   1
_chemical_formula_structural   Nb2(PO4)3
_chemical_formula_sum   'Nb8 P12 O48'
_cell_volume   983.59622979
_cell_formula_units_Z   4
loop_
 _symmetry_equiv_pos_site_id
 _symmetry_equiv_pos_as_xyz
  1  'x, y, z'
loop_
 _atom_site_type_symbol
 _atom_site_label
 _atom_site_symmetry_multiplicity
 _atom_site_fract_x
 _atom_site_fract_y
 _atom_site_fract_z
 _atom_site_occupancy
  Nb  Nb0  1  0.367826  0.531617  0.117318  1
  Nb  Nb1  1  0.866723  0.466609  0.617472  1
  Nb  Nb2  1  0.632174  0.031617  0.382682  1
  Nb  Nb3  1  0.133277  0.966609  0.882528  1
  Nb  Nb4  1  0.866723  0.033391  0.117472  1
  Nb  Nb5  1  0.367826  0.968383  0.617318  1
  Nb  Nb6  1  0.133277  0.533391  0.382528  1
  Nb  Nb7  1  0.632174  0.468383  0.882682  1
  P  P8  1  0.251896  0.611520  0.644106  1
  P  P9  1  0.533457  0.750523  0.002428  1
  P  P10  1  0.466543  0.249477  0.997572  1
  P  P11  1  0.965930  0.891006  0.356400  1
  P  P12  1  0.748104  0.388480  0.355894  1
  P  P13  1  0.034070  0.108994  0.643600  1
  P  P14  1  0.965930  0.608994  0.856400  1
  P  P15  1  0.251896  0.888480  0.144106  1
  P  P16  1  0.466543  0.250523  0.497572  1
  P  P17  1  0.748104  0.111520  0.855894  1
  P  P18  1  0.533457  0.749477  0.502428  1
  P  P19  1  0.034070  0.391006  0.143600  1
  O  O20  1  0.559286  0.856769  0.433061  1
  O  O21  1  0.204893  0.406877  0.141915  1
  O  O22  1  0.640263  0.345712  0.574156  1
  O  O23  1  0.486769  0.164308  0.417394  1
  O  O24  1  0.912944  0.085840  0.849557  1
  O  O25  1  0.302732  0.720166  0.163361  1
  O  O26  1  0.706980  0.650487  0.567319  1
  O  O27  1  0.201636  0.936199  0.033311  1
  O  O28  1  0.795107  0.593123  0.858085  1
  O  O29  1  0.359737  0.654288  0.425844  1
  O  O30  1  0.513231  0.835692  0.582606  1
  O  O31  1  0.087056  0.914160  0.150443  1
  O  O32  1  0.440714  0.143231  0.566939  1
  O  O33  1  0.697268  0.279834  0.836639  1
  O  O34  1  0.293020  0.349513  0.432681  1
  O  O35  1  0.798364  0.063801  0.966689  1
  O  O36  1  0.059415  0.493245  0.233137  1
  O  O37  1  0.912944  0.414160  0.349557  1
  O  O38  1  0.858012  0.439988  0.035705  1
  O  O39  1  0.583945  0.014704  0.768704  1
  O  O40  1  0.416055  0.514704  0.731296  1
  O  O41  1  0.141988  0.939988  0.464295  1
  O  O42  1  0.983553  0.725422  0.333995  1
  O  O43  1  0.940585  0.993245  0.266863  1
  O  O44  1  0.201636  0.563801  0.533311  1
  O  O45  1  0.706980  0.849513  0.067319  1
  O  O46  1  0.302732  0.779834  0.663361  1
  O  O47  1  0.559286  0.643231  0.933061  1
  O  O48  1  0.486769  0.335692  0.917394  1
  O  O49  1  0.940585  0.506755  0.766863  1
  O  O50  1  0.204893  0.093123  0.641915  1
  O  O51  1  0.640263  0.154288  0.074156  1
  O  O52  1  0.359737  0.845712  0.925844  1
  O  O53  1  0.795107  0.906877  0.358085  1
  O  O54  1  0.087056  0.585840  0.650443  1
  O  O55  1  0.513231  0.664308  0.082606  1
  O  O56  1  0.440714  0.356769  0.066939  1
  O  O57  1  0.697268  0.220166  0.336639  1
  O  O58  1  0.293020  0.150487  0.932681  1
  O  O59  1  0.798364  0.436199  0.466689  1
  O  O60  1  0.059415  0.006755  0.733137  1
  O  O61  1  0.016447  0.274578  0.666005  1
  O  O62  1  0.858012  0.060012  0.535705  1
  O  O63  1  0.583945  0.485296  0.268704  1
  O  O64  1  0.416055  0.985296  0.231296  1
  O  O65  1  0.141988  0.560012  0.964295  1
  O  O66  1  0.983553  0.774578  0.833995  1
  O  O67  1  0.016447  0.225422  0.166005  1
