# generated using pymatgen
data_TiPO4F
_symmetry_space_group_name_H-M   'P 1'
_cell_length_a   5.24595594
_cell_length_b   5.24689663
_cell_length_c   7.45094030
_cell_angle_alpha   107.03639673
_cell_angle_beta   109.39802212
_cell_angle_gamma   95.76528738
_symmetry_Int_Tables_number   1
_chemical_formula_structural   TiPO4F
_chemical_formula_sum   'Ti2 P2 O8 F2'
_cell_volume   180.45484618
_cell_formula_units_Z   2
loop_
 _symmetry_equiv_pos_site_id
 _symmetry_equiv_pos_as_xyz
  1  'x, y, z'
loop_
 _atom_site_type_symbol
 _atom_site_label
 _atom_site_symmetry_multiplicity
 _atom_site_fract_x
 _atom_site_fract_y
 _atom_site_fract_z
 _atom_site_occupancy
  Ti  Ti0  1  0.000000  0.000000  0.000000  1
  Ti  Ti1  1  0.500000  0.500000  0.500000  1
  P  P2  1  0.882490  0.570337  0.237864  1
  P  P3  1  0.117510  0.429663  0.762136  1
  O  O4  1  0.189698  0.738485  0.887516  1
  O  O5  1  0.141479  0.258531  0.901186  1
  O  O6  1  0.815527  0.353266  0.605050  1
  O  O7  1  0.321260  0.367971  0.654653  1
  O  O8  1  0.858521  0.741469  0.098814  1
  O  O9  1  0.184473  0.646734  0.394950  1
  O  O10  1  0.678740  0.632029  0.345347  1
  O  O11  1  0.810302  0.261515  0.112484  1
  F  F12  1  0.681066  0.841040  0.736562  1
  F  F13  1  0.318934  0.158960  0.263438  1
