# generated using pymatgen
data_TbCuSb2
_symmetry_space_group_name_H-M   'P 1'
_cell_length_a   4.29701732
_cell_length_b   4.29701732
_cell_length_c   9.90483537
_cell_angle_alpha   90.00000000
_cell_angle_beta   90.00000000
_cell_angle_gamma   90.00000000
_symmetry_Int_Tables_number   1
_chemical_formula_structural   TbCuSb2
_chemical_formula_sum   'Tb2 Cu2 Sb4'
_cell_volume   182.88642470
_cell_formula_units_Z   2
loop_
 _symmetry_equiv_pos_site_id
 _symmetry_equiv_pos_as_xyz
  1  'x, y, z'
loop_
 _atom_site_type_symbol
 _atom_site_label
 _atom_site_symmetry_multiplicity
 _atom_site_fract_x
 _atom_site_fract_y
 _atom_site_fract_z
 _atom_site_occupancy
  Tb  Tb0  1  0.000000  0.500000  0.752588  1
  Tb  Tb1  1  0.500000  0.000000  0.247412  1
  Cu  Cu2  1  0.500000  0.500000  0.500000  1
  Cu  Cu3  1  0.000000  0.000000  0.500000  1
  Sb  Sb4  1  0.500000  0.500000  0.000000  1
  Sb  Sb5  1  0.000000  0.000000  0.000000  1
  Sb  Sb6  1  0.000000  0.500000  0.337721  1
  Sb  Sb7  1  0.500000  0.000000  0.662279  1
