# generated using pymatgen
data_TbSi3Rh5
_symmetry_space_group_name_H-M   'P 1'
_cell_length_a   15.65696787
_cell_length_b   15.65696787
_cell_length_c   3.88721448
_cell_angle_alpha   90.00000000
_cell_angle_beta   90.00000000
_cell_angle_gamma   120.00000000
_symmetry_Int_Tables_number   1
_chemical_formula_structural   TbSi3Rh5
_chemical_formula_sum   'Tb6 Si18 Rh30'
_cell_volume   825.24795344
_cell_formula_units_Z   6
loop_
 _symmetry_equiv_pos_site_id
 _symmetry_equiv_pos_as_xyz
  1  'x, y, z'
loop_
 _atom_site_type_symbol
 _atom_site_label
 _atom_site_symmetry_multiplicity
 _atom_site_fract_x
 _atom_site_fract_y
 _atom_site_fract_z
 _atom_site_occupancy
  Tb  Tb0  1  0.605925  0.899995  0.250000  1
  Tb  Tb1  1  0.705930  0.605925  0.750000  1
  Tb  Tb2  1  0.899995  0.294070  0.750000  1
  Tb  Tb3  1  0.100005  0.705930  0.250000  1
  Tb  Tb4  1  0.294070  0.394075  0.250000  1
  Tb  Tb5  1  0.394075  0.100005  0.750000  1
  Si  Si6  1  0.441386  0.760171  0.750000  1
  Si  Si7  1  0.681215  0.441386  0.250000  1
  Si  Si8  1  0.760171  0.318785  0.250000  1
  Si  Si9  1  0.239829  0.681215  0.750000  1
  Si  Si10  1  0.318785  0.558614  0.750000  1
  Si  Si11  1  0.558614  0.239829  0.250000  1
  Si  Si12  1  0.880604  0.130596  0.250000  1
  Si  Si13  1  0.119396  0.869404  0.750000  1
  Si  Si14  1  0.130596  0.249992  0.750000  1
  Si  Si15  1  0.249992  0.119396  0.250000  1
  Si  Si16  1  0.370530  0.937851  0.250000  1
  Si  Si17  1  0.432680  0.370530  0.750000  1
  Si  Si18  1  0.937851  0.567320  0.750000  1
  Si  Si19  1  0.062149  0.432680  0.250000  1
  Si  Si20  1  0.567320  0.629470  0.250000  1
  Si  Si21  1  0.629470  0.062149  0.750000  1
  Si  Si22  1  0.750008  0.880604  0.750000  1
  Si  Si23  1  0.869404  0.750008  0.250000  1
  Rh  Rh24  1  0.463464  0.924943  0.750000  1
  Rh  Rh25  1  0.153399  0.414398  0.750000  1
  Rh  Rh26  1  0.260999  0.846601  0.750000  1
  Rh  Rh27  1  0.739001  0.153399  0.250000  1
  Rh  Rh28  1  0.846601  0.585602  0.250000  1
  Rh  Rh29  1  0.414398  0.260999  0.250000  1
  Rh  Rh30  1  0.652257  0.223459  0.750000  1
  Rh  Rh31  1  0.428798  0.652257  0.250000  1
  Rh  Rh32  1  0.223459  0.571202  0.250000  1
  Rh  Rh33  1  0.776541  0.428798  0.750000  1
  Rh  Rh34  1  0.571202  0.347743  0.750000  1
  Rh  Rh35  1  0.347743  0.776541  0.250000  1
  Rh  Rh36  1  0.141905  0.028810  0.750000  1
  Rh  Rh37  1  0.113095  0.141905  0.250000  1
  Rh  Rh38  1  0.028810  0.886905  0.250000  1
  Rh  Rh39  1  0.971190  0.113095  0.750000  1
  Rh  Rh40  1  0.886905  0.858095  0.750000  1
  Rh  Rh41  1  0.858095  0.971190  0.250000  1
  Rh  Rh42  1  0.924943  0.461480  0.250000  1
  Rh  Rh43  1  0.075057  0.538520  0.750000  1
  Rh  Rh44  1  0.461480  0.536536  0.750000  1
  Rh  Rh45  1  0.536536  0.075057  0.250000  1
  Rh  Rh46  1  0.728862  0.772979  0.250000  1
  Rh  Rh47  1  0.955883  0.728862  0.750000  1
  Rh  Rh48  1  0.772979  0.044117  0.750000  1
  Rh  Rh49  1  0.227021  0.955883  0.250000  1
  Rh  Rh50  1  0.044117  0.271138  0.250000  1
  Rh  Rh51  1  0.271138  0.227021  0.750000  1
  Rh  Rh52  1  0.585602  0.739001  0.750000  1
  Rh  Rh53  1  0.538520  0.463464  0.250000  1
