# generated using pymatgen
data_La3PI3
_symmetry_space_group_name_H-M   'P 1'
_cell_length_a   10.87722174
_cell_length_b   10.87722174
_cell_length_c   10.87722174
_cell_angle_alpha   109.47122063
_cell_angle_beta   109.47122063
_cell_angle_gamma   109.47122063
_symmetry_Int_Tables_number   1
_chemical_formula_structural   La3PI3
_chemical_formula_sum   'La12 P4 I12'
_cell_volume   990.67694350
_cell_formula_units_Z   4
loop_
 _symmetry_equiv_pos_site_id
 _symmetry_equiv_pos_as_xyz
  1  'x, y, z'
loop_
 _atom_site_type_symbol
 _atom_site_label
 _atom_site_symmetry_multiplicity
 _atom_site_fract_x
 _atom_site_fract_y
 _atom_site_fract_z
 _atom_site_occupancy
  La  La0  1  0.036735  0.268368  0.018368  1
  La  La1  1  0.018368  0.036735  0.268368  1
  La  La2  1  0.018368  0.481632  0.750000  1
  La  La3  1  0.268368  0.750000  0.231632  1
  La  La4  1  0.268368  0.018368  0.036735  1
  La  La5  1  0.750000  0.018368  0.481632  1
  La  La6  1  0.750000  0.231632  0.268368  1
  La  La7  1  0.231632  0.268368  0.750000  1
  La  La8  1  0.481632  0.231632  0.463265  1
  La  La9  1  0.231632  0.463265  0.481632  1
  La  La10  1  0.481632  0.750000  0.018368  1
  La  La11  1  0.463265  0.481632  0.231632  1
  P  P12  1  0.500000  0.000000  0.250000  1
  P  P13  1  0.000000  0.250000  0.500000  1
  P  P14  1  0.250000  0.500000  0.000000  1
  P  P15  1  0.250000  0.250000  0.250000  1
  I  I16  1  0.250000  0.758845  0.741155  1
  I  I17  1  0.991155  0.508845  0.250000  1
  I  I18  1  0.508845  0.250000  0.991155  1
  I  I19  1  0.758845  0.517690  0.508845  1
  I  I20  1  0.741155  0.991155  0.982310  1
  I  I21  1  0.982310  0.741155  0.991155  1
  I  I22  1  0.517690  0.508845  0.758845  1
  I  I23  1  0.508845  0.758845  0.517690  1
  I  I24  1  0.250000  0.991155  0.508845  1
  I  I25  1  0.991155  0.982310  0.741155  1
  I  I26  1  0.741155  0.250000  0.758845  1
  I  I27  1  0.758845  0.741155  0.250000  1
