# generated using pymatgen
data_BaAsH3O5
_symmetry_space_group_name_H-M   'P 1'
_cell_length_a   7.98227481
_cell_length_b   8.78707431
_cell_length_c   14.88855599
_cell_angle_alpha   90.00000000
_cell_angle_beta   90.00000000
_cell_angle_gamma   90.00000000
_symmetry_Int_Tables_number   1
_chemical_formula_structural   BaAsH3O5
_chemical_formula_sum   'Ba8 As8 H24 O40'
_cell_volume   1044.29585209
_cell_formula_units_Z   8
loop_
 _symmetry_equiv_pos_site_id
 _symmetry_equiv_pos_as_xyz
  1  'x, y, z'
loop_
 _atom_site_type_symbol
 _atom_site_label
 _atom_site_symmetry_multiplicity
 _atom_site_fract_x
 _atom_site_fract_y
 _atom_site_fract_z
 _atom_site_occupancy
  Ba  Ba0  1  0.136069  0.184393  0.417478  1
  Ba  Ba1  1  0.636069  0.315607  0.582522  1
  Ba  Ba2  1  0.863931  0.684393  0.082522  1
  Ba  Ba3  1  0.363931  0.815607  0.917478  1
  Ba  Ba4  1  0.863931  0.815607  0.582522  1
  Ba  Ba5  1  0.363931  0.684393  0.417478  1
  Ba  Ba6  1  0.136069  0.315607  0.917478  1
  Ba  Ba7  1  0.636069  0.184393  0.082522  1
  As  As8  1  0.649822  0.062020  0.385293  1
  As  As9  1  0.149822  0.437980  0.614707  1
  As  As10  1  0.350178  0.562020  0.114707  1
  As  As11  1  0.850178  0.937980  0.885293  1
  As  As12  1  0.350178  0.937980  0.614707  1
  As  As13  1  0.850178  0.562020  0.385293  1
  As  As14  1  0.649822  0.437980  0.885293  1
  As  As15  1  0.149822  0.062020  0.114707  1
  H  H16  1  0.901205  0.400484  0.225824  1
  H  H17  1  0.401205  0.099516  0.774176  1
  H  H18  1  0.098795  0.900484  0.274176  1
  H  H19  1  0.598795  0.599516  0.725824  1
  H  H20  1  0.098795  0.599516  0.774176  1
  H  H21  1  0.598795  0.900484  0.225824  1
  H  H22  1  0.901205  0.099516  0.725824  1
  H  H23  1  0.401205  0.400484  0.274176  1
  H  H24  1  0.949015  0.322275  0.131840  1
  H  H25  1  0.449015  0.177725  0.868160  1
  H  H26  1  0.050985  0.822275  0.368160  1
  H  H27  1  0.550985  0.677725  0.631840  1
  H  H28  1  0.050985  0.677725  0.868160  1
  H  H29  1  0.550985  0.822275  0.131840  1
  H  H30  1  0.949015  0.177725  0.631840  1
  H  H31  1  0.449015  0.322275  0.368160  1
  H  H32  1  0.774340  0.259807  0.309167  1
  H  H33  1  0.274340  0.240193  0.690833  1
  H  H34  1  0.225660  0.759807  0.190833  1
  H  H35  1  0.725660  0.740193  0.809167  1
  H  H36  1  0.225660  0.740193  0.690833  1
  H  H37  1  0.725660  0.759807  0.309167  1
  H  H38  1  0.774340  0.240193  0.809167  1
  H  H39  1  0.274340  0.259807  0.190833  1
  O  O40  1  0.377734  0.097580  0.839962  1
  O  O41  1  0.877734  0.402420  0.160038  1
  O  O42  1  0.622266  0.597580  0.660038  1
  O  O43  1  0.122266  0.902420  0.339962  1
  O  O44  1  0.622266  0.902420  0.160038  1
  O  O45  1  0.122266  0.597580  0.839962  1
  O  O46  1  0.377734  0.402420  0.339962  1
  O  O47  1  0.877734  0.097580  0.660038  1
  O  O48  1  0.489554  0.163251  0.433148  1
  O  O49  1  0.989554  0.336749  0.566852  1
  O  O50  1  0.510446  0.663251  0.066852  1
  O  O51  1  0.010446  0.836749  0.933148  1
  O  O52  1  0.510446  0.836749  0.566852  1
  O  O53  1  0.010446  0.663251  0.433148  1
  O  O54  1  0.489554  0.336749  0.933148  1
  O  O55  1  0.989554  0.163251  0.066852  1
  O  O56  1  0.814763  0.056382  0.457855  1
  O  O57  1  0.314763  0.443618  0.542145  1
  O  O58  1  0.185237  0.556382  0.042145  1
  O  O59  1  0.685237  0.943618  0.957855  1
  O  O60  1  0.185237  0.943618  0.542145  1
  O  O61  1  0.685237  0.556382  0.457855  1
  O  O62  1  0.814763  0.443618  0.957855  1
  O  O63  1  0.314763  0.056382  0.042145  1
  O  O64  1  0.590243  0.889798  0.341888  1
  O  O65  1  0.090243  0.610202  0.658112  1
  O  O66  1  0.409757  0.389798  0.158112  1
  O  O67  1  0.909757  0.110202  0.841888  1
  O  O68  1  0.409757  0.110202  0.658112  1
  O  O69  1  0.909757  0.389798  0.341888  1
  O  O70  1  0.590243  0.610202  0.841888  1
  O  O71  1  0.090243  0.889798  0.158112  1
  O  O72  1  0.710643  0.166993  0.287269  1
  O  O73  1  0.210643  0.333007  0.712731  1
  O  O74  1  0.289357  0.666993  0.212731  1
  O  O75  1  0.789357  0.833007  0.787269  1
  O  O76  1  0.289357  0.833007  0.712731  1
  O  O77  1  0.789357  0.666993  0.287269  1
  O  O78  1  0.710643  0.333007  0.787269  1
  O  O79  1  0.210643  0.166993  0.212731  1
