# generated using pymatgen
data_MnCu2SnSe4
_symmetry_space_group_name_H-M   'P 1'
_cell_length_a   7.05358492
_cell_length_b   7.05358492
_cell_length_c   7.05358492
_cell_angle_alpha   131.49448255
_cell_angle_beta   131.49448255
_cell_angle_gamma   71.02861818
_symmetry_Int_Tables_number   1
_chemical_formula_structural   MnCu2SnSe4
_chemical_formula_sum   'Mn1 Cu2 Sn1 Se4'
_cell_volume   192.78820015
_cell_formula_units_Z   1
loop_
 _symmetry_equiv_pos_site_id
 _symmetry_equiv_pos_as_xyz
  1  'x, y, z'
loop_
 _atom_site_type_symbol
 _atom_site_label
 _atom_site_symmetry_multiplicity
 _atom_site_fract_x
 _atom_site_fract_y
 _atom_site_fract_z
 _atom_site_occupancy
  Mn  Mn0  1  0.000000  0.000000  0.000000  1
  Cu  Cu1  1  0.250000  0.750000  0.500000  1
  Cu  Cu2  1  0.750000  0.250000  0.500000  1
  Sn  Sn3  1  0.500000  0.500000  1.000000  1
  Se  Se4  1  0.377868  0.894131  0.000000  1
  Se  Se5  1  0.622132  0.622132  0.516263  1
  Se  Se6  1  0.105869  0.105869  0.483737  1
  Se  Se7  1  0.894131  0.377868  0.000000  1
