# generated using pymatgen
data_LaIn2Ir
_symmetry_space_group_name_H-M   'P 1'
_cell_length_a   5.64556245
_cell_length_b   5.64556245
_cell_length_c   8.19650363
_cell_angle_alpha   90.00000000
_cell_angle_beta   90.00000000
_cell_angle_gamma   133.29443496
_symmetry_Int_Tables_number   1
_chemical_formula_structural   LaIn2Ir
_chemical_formula_sum   'La2 In4 Ir2'
_cell_volume   190.14224138
_cell_formula_units_Z   2
loop_
 _symmetry_equiv_pos_site_id
 _symmetry_equiv_pos_as_xyz
  1  'x, y, z'
loop_
 _atom_site_type_symbol
 _atom_site_label
 _atom_site_symmetry_multiplicity
 _atom_site_fract_x
 _atom_site_fract_y
 _atom_site_fract_z
 _atom_site_occupancy
  La  La0  1  0.433221  0.566779  0.750000  1
  La  La1  1  0.566779  0.433221  0.250000  1
  In  In2  1  0.147402  0.852598  0.551669  1
  In  In3  1  0.852598  0.147402  0.448331  1
  In  In4  1  0.147402  0.852598  0.948331  1
  In  In5  1  0.852598  0.147402  0.051669  1
  Ir  Ir6  1  0.284693  0.715307  0.250000  1
  Ir  Ir7  1  0.715307  0.284693  0.750000  1
