# generated using pymatgen
data_UO3
_symmetry_space_group_name_H-M   'P 1'
_cell_length_a   11.24380402
_cell_length_b   11.24380402
_cell_length_c   11.24380402
_cell_angle_alpha   143.84134292
_cell_angle_beta   143.84134292
_cell_angle_gamma   52.06460617
_symmetry_Int_Tables_number   1
_chemical_formula_structural   UO3
_chemical_formula_sum   'U8 O24'
_cell_volume   492.03696175
_cell_formula_units_Z   8
loop_
 _symmetry_equiv_pos_site_id
 _symmetry_equiv_pos_as_xyz
  1  'x, y, z'
loop_
 _atom_site_type_symbol
 _atom_site_label
 _atom_site_symmetry_multiplicity
 _atom_site_fract_x
 _atom_site_fract_y
 _atom_site_fract_z
 _atom_site_occupancy
  U  U0  1  0.375000  0.625000  0.250000  1
  U  U1  1  0.375000  0.625000  0.750000  1
  U  U2  1  0.875000  0.625000  0.250000  1
  U  U3  1  0.375000  0.125000  0.750000  1
  U  U4  1  0.561005  0.061005  0.500000  1
  U  U5  1  0.811005  0.811005  0.000000  1
  U  U6  1  0.188995  0.188995  0.000000  1
  U  U7  1  0.938995  0.438995  0.500000  1
  O  O8  1  0.941374  0.701219  0.759845  1
  O  O9  1  0.818472  0.058626  0.759845  1
  O  O10  1  0.298781  0.058626  0.240155  1
  O  O11  1  0.808626  0.068472  0.259845  1
  O  O12  1  0.808626  0.548781  0.740155  1
  O  O13  1  0.451219  0.191374  0.259845  1
  O  O14  1  0.931528  0.191374  0.740155  1
  O  O15  1  0.941374  0.181528  0.240155  1
  O  O16  1  0.282349  0.083012  0.800663  1
  O  O17  1  0.833012  0.532349  0.300663  1
  O  O18  1  0.231686  0.532349  0.699337  1
  O  O19  1  0.467651  0.768314  0.300663  1
  O  O20  1  0.467651  0.166988  0.699337  1
  O  O21  1  0.518314  0.717651  0.800663  1
  O  O22  1  0.916988  0.717651  0.199337  1
  O  O23  1  0.282349  0.481686  0.199337  1
  O  O24  1  0.140783  0.833480  0.692697  1
  O  O25  1  0.583480  0.390783  0.192697  1
  O  O26  1  0.198085  0.390783  0.807303  1
  O  O27  1  0.609217  0.801915  0.192697  1
  O  O28  1  0.609217  0.416520  0.807303  1
  O  O29  1  0.551915  0.859217  0.692697  1
  O  O30  1  0.166520  0.859217  0.307303  1
  O  O31  1  0.140783  0.448085  0.307303  1
