# generated using pymatgen
data_UH12(ClO2)3
_symmetry_space_group_name_H-M   'P 1'
_cell_length_a   8.04609752
_cell_length_b   6.68909471
_cell_length_c   12.33176118
_cell_angle_alpha   90.00000000
_cell_angle_beta   127.55844881
_cell_angle_gamma   90.00000000
_symmetry_Int_Tables_number   1
_chemical_formula_structural   UH12(ClO2)3
_chemical_formula_sum   'U2 H24 Cl6 O12'
_cell_volume   526.14335039
_cell_formula_units_Z   2
loop_
 _symmetry_equiv_pos_site_id
 _symmetry_equiv_pos_as_xyz
  1  'x, y, z'
loop_
 _atom_site_type_symbol
 _atom_site_label
 _atom_site_symmetry_multiplicity
 _atom_site_fract_x
 _atom_site_fract_y
 _atom_site_fract_z
 _atom_site_occupancy
  U  U0  1  0.000000  0.150468  0.750000  1
  U  U1  1  0.000000  0.849532  0.250000  1
  H  H2  1  0.477561  0.255383  0.967491  1
  H  H3  1  0.522439  0.255383  0.532509  1
  H  H4  1  0.522439  0.744617  0.032509  1
  H  H5  1  0.477561  0.744617  0.467491  1
  H  H6  1  0.377810  0.332712  0.036267  1
  H  H7  1  0.622190  0.332712  0.463733  1
  H  H8  1  0.622190  0.667288  0.963733  1
  H  H9  1  0.377810  0.667288  0.536267  1
  H  H10  1  0.973730  0.555061  0.613776  1
  H  H11  1  0.026270  0.555061  0.886224  1
  H  H12  1  0.026270  0.444939  0.386224  1
  H  H13  1  0.973730  0.444939  0.113776  1
  H  H14  1  0.203564  0.479162  0.681962  1
  H  H15  1  0.796436  0.479162  0.818038  1
  H  H16  1  0.796436  0.520838  0.318038  1
  H  H17  1  0.203564  0.520838  0.181962  1
  H  H18  1  0.750626  0.090273  0.868252  1
  H  H19  1  0.249374  0.090273  0.631748  1
  H  H20  1  0.249374  0.909727  0.131748  1
  H  H21  1  0.750626  0.909727  0.368252  1
  H  H22  1  0.667697  0.087268  0.263339  1
  H  H23  1  0.332303  0.087268  0.236661  1
  H  H24  1  0.332303  0.912732  0.736661  1
  H  H25  1  0.667697  0.912732  0.763339  1
  Cl  Cl26  1  0.795050  0.823600  0.553247  1
  Cl  Cl27  1  0.204950  0.823600  0.946753  1
  Cl  Cl28  1  0.204950  0.176400  0.446753  1
  Cl  Cl29  1  0.795050  0.176400  0.053247  1
  Cl  Cl30  1  0.500000  0.367620  0.250000  1
  Cl  Cl31  1  0.500000  0.632380  0.750000  1
  O  O32  1  0.342059  0.294739  0.946805  1
  O  O33  1  0.657941  0.294739  0.553195  1
  O  O34  1  0.657941  0.705261  0.053195  1
  O  O35  1  0.342059  0.705261  0.446805  1
  O  O36  1  0.061936  0.432605  0.646222  1
  O  O37  1  0.938064  0.432605  0.853778  1
  O  O38  1  0.938064  0.567395  0.353778  1
  O  O39  1  0.061936  0.567395  0.146222  1
  O  O40  1  0.736357  0.044615  0.786259  1
  O  O41  1  0.263643  0.044615  0.713741  1
  O  O42  1  0.263643  0.955385  0.213741  1
  O  O43  1  0.736357  0.955385  0.286259  1
