# generated using pymatgen
data_SrNiN
_symmetry_space_group_name_H-M   'P 1'
_cell_length_a   5.22343413
_cell_length_b   9.13071814
_cell_length_c   13.28622991
_cell_angle_alpha   90.00000000
_cell_angle_beta   90.00000000
_cell_angle_gamma   90.00000000
_symmetry_Int_Tables_number   1
_chemical_formula_structural   SrNiN
_chemical_formula_sum   'Sr12 Ni12 N12'
_cell_volume   633.66952675
_cell_formula_units_Z   12
loop_
 _symmetry_equiv_pos_site_id
 _symmetry_equiv_pos_as_xyz
  1  'x, y, z'
loop_
 _atom_site_type_symbol
 _atom_site_label
 _atom_site_symmetry_multiplicity
 _atom_site_fract_x
 _atom_site_fract_y
 _atom_site_fract_z
 _atom_site_occupancy
  Sr  Sr0  1  0.493132  0.490686  0.750000  1
  Sr  Sr1  1  0.993132  0.009314  0.250000  1
  Sr  Sr2  1  0.006868  0.990686  0.750000  1
  Sr  Sr3  1  0.506868  0.509314  0.250000  1
  Sr  Sr4  1  0.977756  0.332749  0.412831  1
  Sr  Sr5  1  0.477756  0.167251  0.587169  1
  Sr  Sr6  1  0.522244  0.832749  0.087169  1
  Sr  Sr7  1  0.022244  0.667251  0.912831  1
  Sr  Sr8  1  0.022244  0.667251  0.587169  1
  Sr  Sr9  1  0.522244  0.832749  0.412831  1
  Sr  Sr10  1  0.477756  0.167251  0.912831  1
  Sr  Sr11  1  0.977756  0.332749  0.087169  1
  Ni  Ni12  1  0.463283  0.160892  0.160766  1
  Ni  Ni13  1  0.963283  0.339108  0.839234  1
  Ni  Ni14  1  0.036717  0.660892  0.339234  1
  Ni  Ni15  1  0.536717  0.839108  0.660766  1
  Ni  Ni16  1  0.536717  0.839108  0.839234  1
  Ni  Ni17  1  0.036717  0.660892  0.160766  1
  Ni  Ni18  1  0.963283  0.339108  0.660766  1
  Ni  Ni19  1  0.463283  0.160892  0.339234  1
  Ni  Ni20  1  0.000000  0.000000  0.000000  1
  Ni  Ni21  1  0.500000  0.500000  0.000000  1
  Ni  Ni22  1  0.500000  0.500000  0.500000  1
  Ni  Ni23  1  0.000000  0.000000  0.500000  1
  N  N24  1  0.308094  0.757223  0.750000  1
  N  N25  1  0.808094  0.742777  0.250000  1
  N  N26  1  0.191906  0.257223  0.750000  1
  N  N27  1  0.691906  0.242777  0.250000  1
  N  N28  1  0.235261  0.080467  0.422639  1
  N  N29  1  0.735261  0.419533  0.577361  1
  N  N30  1  0.264739  0.580467  0.077361  1
  N  N31  1  0.764739  0.919533  0.922639  1
  N  N32  1  0.764739  0.919533  0.577361  1
  N  N33  1  0.264739  0.580467  0.422639  1
  N  N34  1  0.735261  0.419533  0.922639  1
  N  N35  1  0.235261  0.080467  0.077361  1
