# generated using pymatgen
data_Ba2Cu3P4
_symmetry_space_group_name_H-M   'P 1'
_cell_length_a   8.38919701
_cell_length_b   8.38919701
_cell_length_c   8.38919701
_cell_angle_alpha   136.51889567
_cell_angle_beta   112.03962615
_cell_angle_gamma   84.21193274
_symmetry_Int_Tables_number   1
_chemical_formula_structural   Ba2Cu3P4
_chemical_formula_sum   'Ba4 Cu6 P8'
_cell_volume   362.73125271
_cell_formula_units_Z   2
loop_
 _symmetry_equiv_pos_site_id
 _symmetry_equiv_pos_as_xyz
  1  'x, y, z'
loop_
 _atom_site_type_symbol
 _atom_site_label
 _atom_site_symmetry_multiplicity
 _atom_site_fract_x
 _atom_site_fract_y
 _atom_site_fract_z
 _atom_site_occupancy
  Ba  Ba0  1  0.094510  0.390814  0.703696  1
  Ba  Ba1  1  0.905490  0.609186  0.296304  1
  Ba  Ba2  1  0.312883  0.109186  0.203696  1
  Ba  Ba3  1  0.687117  0.890814  0.796304  1
  Cu  Cu4  1  0.500000  0.250000  0.750000  1
  Cu  Cu5  1  0.500000  0.750000  0.250000  1
  Cu  Cu6  1  0.279167  0.529167  0.250000  1
  Cu  Cu7  1  0.720833  0.970833  0.250000  1
  Cu  Cu8  1  0.279167  0.029167  0.750000  1
  Cu  Cu9  1  0.720833  0.470833  0.750000  1
  P  P10  1  0.489267  0.621527  0.867740  1
  P  P11  1  0.510733  0.378473  0.132260  1
  P  P12  1  0.246213  0.878473  0.367740  1
  P  P13  1  0.753787  0.121527  0.632260  1
  P  P14  1  0.972715  0.840427  0.132288  1
  P  P15  1  0.027285  0.159573  0.867712  1
  P  P16  1  0.708139  0.340427  0.367712  1
  P  P17  1  0.291861  0.659573  0.632288  1
