# generated using pymatgen
data_RbScBP2HO9
_symmetry_space_group_name_H-M   'P 1'
_cell_length_a   5.39822521
_cell_length_b   8.51915823
_cell_length_c   8.51949886
_cell_angle_alpha   87.24846046
_cell_angle_beta   86.56336107
_cell_angle_gamma   80.29739927
_symmetry_Int_Tables_number   1
_chemical_formula_structural   RbScBP2HO9
_chemical_formula_sum   'Rb2 Sc2 B2 P4 H2 O18'
_cell_volume   385.21260219
_cell_formula_units_Z   2
loop_
 _symmetry_equiv_pos_site_id
 _symmetry_equiv_pos_as_xyz
  1  'x, y, z'
loop_
 _atom_site_type_symbol
 _atom_site_label
 _atom_site_symmetry_multiplicity
 _atom_site_fract_x
 _atom_site_fract_y
 _atom_site_fract_z
 _atom_site_occupancy
  Rb  Rb0  1  0.721212  0.122251  0.326492  1
  Rb  Rb1  1  0.278788  0.877749  0.673508  1
  Sc  Sc2  1  0.279447  0.801377  0.191981  1
  Sc  Sc3  1  0.720553  0.198623  0.808019  1
  B  B4  1  0.115813  0.438691  0.275452  1
  B  B5  1  0.884187  0.561309  0.724548  1
  P  P6  1  0.211459  0.194961  0.062129  1
  P  P7  1  0.788541  0.805039  0.937871  1
  P  P8  1  0.191227  0.305300  0.582931  1
  P  P9  1  0.808773  0.694700  0.417069  1
  H  H10  1  0.415503  0.483106  0.133881  1
  H  H11  1  0.584497  0.516894  0.866119  1
  O  O12  1  0.460360  0.250004  0.001672  1
  O  O13  1  0.564413  0.787349  0.355027  1
  O  O14  1  0.284649  0.543995  0.201125  1
  O  O15  1  0.715351  0.456005  0.798875  1
  O  O16  1  0.435587  0.212651  0.644973  1
  O  O17  1  0.539640  0.749996  0.998328  1
  O  O18  1  0.972421  0.210274  0.604206  1
  O  O19  1  0.027579  0.789726  0.395794  1
  O  O20  1  0.952185  0.667967  0.839629  1
  O  O21  1  0.047815  0.332033  0.160371  1
  O  O22  1  0.952858  0.835909  0.068784  1
  O  O23  1  0.047142  0.164091  0.931216  1
  O  O24  1  0.878347  0.531355  0.335038  1
  O  O25  1  0.121653  0.468645  0.664962  1
  O  O26  1  0.730202  0.953439  0.825075  1
  O  O27  1  0.269798  0.046561  0.174925  1
  O  O28  1  0.747405  0.660043  0.596263  1
  O  O29  1  0.252595  0.339957  0.403737  1
