# generated using pymatgen
data_EuYSi4N7
_symmetry_space_group_name_H-M   'P 1'
_cell_length_a   6.04645972
_cell_length_b   6.04645972
_cell_length_c   9.88389106
_cell_angle_alpha   90.00000000
_cell_angle_beta   90.00000000
_cell_angle_gamma   120.00000000
_symmetry_Int_Tables_number   1
_chemical_formula_structural   EuYSi4N7
_chemical_formula_sum   'Eu2 Y2 Si8 N14'
_cell_volume   312.93987861
_cell_formula_units_Z   2
loop_
 _symmetry_equiv_pos_site_id
 _symmetry_equiv_pos_as_xyz
  1  'x, y, z'
loop_
 _atom_site_type_symbol
 _atom_site_label
 _atom_site_symmetry_multiplicity
 _atom_site_fract_x
 _atom_site_fract_y
 _atom_site_fract_z
 _atom_site_occupancy
  Eu  Eu0  1  0.333333  0.666667  0.087139  1
  Eu  Eu1  1  0.666667  0.333333  0.587139  1
  Y  Y2  1  0.333333  0.666667  0.452426  1
  Y  Y3  1  0.666667  0.333333  0.952426  1
  Si  Si4  1  0.173622  0.347244  0.761229  1
  Si  Si5  1  0.826378  0.173622  0.261229  1
  Si  Si6  1  0.347244  0.173622  0.261229  1
  Si  Si7  1  0.652756  0.826378  0.761229  1
  Si  Si8  1  0.173622  0.826378  0.761229  1
  Si  Si9  1  0.826378  0.652756  0.261229  1
  Si  Si10  1  0.000000  0.000000  0.028174  1
  Si  Si11  1  0.000000  0.000000  0.528174  1
  N  N12  1  0.000000  0.000000  0.837745  1
  N  N13  1  0.000000  0.000000  0.337745  1
  N  N14  1  0.847049  0.694097  0.088568  1
  N  N15  1  0.152951  0.847049  0.588568  1
  N  N16  1  0.694097  0.847049  0.588568  1
  N  N17  1  0.305903  0.152951  0.088568  1
  N  N18  1  0.847049  0.152951  0.088568  1
  N  N19  1  0.152951  0.305903  0.588568  1
  N  N20  1  0.489048  0.510952  0.812274  1
  N  N21  1  0.978097  0.489048  0.312274  1
  N  N22  1  0.510952  0.021903  0.312274  1
  N  N23  1  0.489048  0.978097  0.812274  1
  N  N24  1  0.510952  0.489048  0.312274  1
  N  N25  1  0.021903  0.510952  0.812274  1
