# generated using pymatgen
data_Ce2Ni2Sn
_symmetry_space_group_name_H-M   'P 1'
_cell_length_a   5.44896784
_cell_length_b   5.44896784
_cell_length_c   5.44896784
_cell_angle_alpha   132.84302084
_cell_angle_beta   115.56056760
_cell_angle_gamma   83.60068678
_symmetry_Int_Tables_number   1
_chemical_formula_structural   Ce2Ni2Sn
_chemical_formula_sum   'Ce2 Ni2 Sn1'
_cell_volume   102.88760795
_cell_formula_units_Z   1
loop_
 _symmetry_equiv_pos_site_id
 _symmetry_equiv_pos_as_xyz
  1  'x, y, z'
loop_
 _atom_site_type_symbol
 _atom_site_label
 _atom_site_symmetry_multiplicity
 _atom_site_fract_x
 _atom_site_fract_y
 _atom_site_fract_z
 _atom_site_occupancy
  Ce  Ce0  1  0.298146  0.798146  0.500000  1
  Ce  Ce1  1  0.701854  0.201854  0.500000  1
  Ni  Ni2  1  0.288363  0.500000  0.788363  1
  Ni  Ni3  1  0.711637  0.500000  0.211637  1
  Sn  Sn4  1  0.000000  0.000000  0.000000  1
