# generated using pymatgen
data_LiNb2(PO4)3
_symmetry_space_group_name_H-M   'P 1'
_cell_length_a   8.93057632
_cell_length_b   8.93057632
_cell_length_c   8.94566111
_cell_angle_alpha   60.06571547
_cell_angle_beta   119.93428453
_cell_angle_gamma   120.30220364
_symmetry_Int_Tables_number   1
_chemical_formula_structural   LiNb2(PO4)3
_chemical_formula_sum   'Li2 Nb4 P6 O24'
_cell_volume   503.82929633
_cell_formula_units_Z   2
loop_
 _symmetry_equiv_pos_site_id
 _symmetry_equiv_pos_as_xyz
  1  'x, y, z'
loop_
 _atom_site_type_symbol
 _atom_site_label
 _atom_site_symmetry_multiplicity
 _atom_site_fract_x
 _atom_site_fract_y
 _atom_site_fract_z
 _atom_site_occupancy
  Li  Li0  1  0.933642  0.532382  0.004312  1
  Li  Li1  1  0.467618  0.066358  0.504312  1
  Nb  Nb2  1  0.142474  0.357108  0.428414  1
  Nb  Nb3  1  0.858972  0.643896  0.571135  1
  Nb  Nb4  1  0.642892  0.857526  0.928414  1
  Nb  Nb5  1  0.356104  0.141028  0.071135  1
  P  P6  1  0.040160  0.751034  0.248099  1
  P  P7  1  0.749620  0.041715  0.248642  1
  P  P8  1  0.248966  0.959840  0.748099  1
  P  P9  1  0.958285  0.250380  0.748642  1
  P  P10  1  0.541284  0.540777  0.752472  1
  P  P11  1  0.459223  0.458716  0.252472  1
  O  O12  1  0.705956  0.003115  0.077572  1
  O  O13  1  0.055923  0.588186  0.243164  1
  O  O14  1  0.727640  0.562325  0.757453  1
  O  O15  1  0.795206  0.879770  0.420819  1
  O  O16  1  0.996885  0.294044  0.577572  1
  O  O17  1  0.084380  0.778338  0.746906  1
  O  O18  1  0.561248  0.718241  0.760901  1
  O  O19  1  0.910981  0.226417  0.248286  1
  O  O20  1  0.281759  0.438752  0.260901  1
  O  O21  1  0.120230  0.204794  0.920819  1
  O  O22  1  0.584172  0.062106  0.240404  1
  O  O23  1  0.623139  0.494272  0.425483  1
  O  O24  1  0.493448  0.617927  0.079176  1
  O  O25  1  0.204549  0.121795  0.575123  1
  O  O26  1  0.382073  0.506552  0.579176  1
  O  O27  1  0.773583  0.089019  0.748286  1
  O  O28  1  0.437675  0.272360  0.257453  1
  O  O29  1  0.006153  0.703545  0.421637  1
  O  O30  1  0.505728  0.376861  0.925483  1
  O  O31  1  0.221662  0.915620  0.246906  1
  O  O32  1  0.411814  0.944077  0.743164  1
  O  O33  1  0.937894  0.415828  0.740404  1
  O  O34  1  0.878205  0.795451  0.075123  1
  O  O35  1  0.296455  0.993847  0.921637  1
