# generated using pymatgen
data_InCl
_symmetry_space_group_name_H-M   'P 1'
_cell_length_a   12.55094838
_cell_length_b   12.55094838
_cell_length_c   12.55094838
_cell_angle_alpha   90.00000000
_cell_angle_beta   90.00000000
_cell_angle_gamma   90.00000000
_symmetry_Int_Tables_number   1
_chemical_formula_structural   InCl
_chemical_formula_sum   'In32 Cl32'
_cell_volume   1977.10452553
_cell_formula_units_Z   32
loop_
 _symmetry_equiv_pos_site_id
 _symmetry_equiv_pos_as_xyz
  1  'x, y, z'
loop_
 _atom_site_type_symbol
 _atom_site_label
 _atom_site_symmetry_multiplicity
 _atom_site_fract_x
 _atom_site_fract_y
 _atom_site_fract_z
 _atom_site_occupancy
  In  In0  1  0.248454  0.222689  0.973501  1
  In  In1  1  0.973501  0.248454  0.222689  1
  In  In2  1  0.222689  0.973501  0.248454  1
  In  In3  1  0.277311  0.026499  0.748454  1
  In  In4  1  0.473501  0.251546  0.777311  1
  In  In5  1  0.777311  0.473501  0.251546  1
  In  In6  1  0.526499  0.751546  0.722689  1
  In  In7  1  0.026499  0.748454  0.277311  1
  In  In8  1  0.722689  0.526499  0.751546  1
  In  In9  1  0.748454  0.277311  0.026499  1
  In  In10  1  0.751546  0.722689  0.526499  1
  In  In11  1  0.251546  0.777311  0.473501  1
  In  In12  1  0.754597  0.776582  0.028339  1
  In  In13  1  0.028339  0.754597  0.776582  1
  In  In14  1  0.776582  0.028339  0.754597  1
  In  In15  1  0.723418  0.971661  0.254597  1
  In  In16  1  0.528339  0.745403  0.223418  1
  In  In17  1  0.223418  0.528339  0.745403  1
  In  In18  1  0.471661  0.245403  0.276582  1
  In  In19  1  0.971661  0.254597  0.723418  1
  In  In20  1  0.276582  0.471661  0.245403  1
  In  In21  1  0.254597  0.723418  0.971661  1
  In  In22  1  0.245403  0.276582  0.471661  1
  In  In23  1  0.745403  0.223418  0.528339  1
  In  In24  1  0.029678  0.029678  0.029678  1
  In  In25  1  0.470322  0.970322  0.529678  1
  In  In26  1  0.529678  0.470322  0.970322  1
  In  In27  1  0.970322  0.529678  0.470322  1
  In  In28  1  0.467194  0.467194  0.467194  1
  In  In29  1  0.032806  0.532806  0.967194  1
  In  In30  1  0.967194  0.032806  0.532806  1
  In  In31  1  0.532806  0.967194  0.032806  1
  Cl  Cl32  1  0.948625  0.003654  0.300890  1
  Cl  Cl33  1  0.300890  0.948625  0.003654  1
  Cl  Cl34  1  0.003654  0.300890  0.948625  1
  Cl  Cl35  1  0.496346  0.699110  0.448625  1
  Cl  Cl36  1  0.800890  0.551375  0.996346  1
  Cl  Cl37  1  0.996346  0.800890  0.551375  1
  Cl  Cl38  1  0.199110  0.051375  0.503654  1
  Cl  Cl39  1  0.699110  0.448625  0.496346  1
  Cl  Cl40  1  0.503654  0.199110  0.051375  1
  Cl  Cl41  1  0.448625  0.496346  0.699110  1
  Cl  Cl42  1  0.051375  0.503654  0.199110  1
  Cl  Cl43  1  0.551375  0.996346  0.800890  1
  Cl  Cl44  1  0.055185  0.989141  0.801148  1
  Cl  Cl45  1  0.801148  0.055185  0.989141  1
  Cl  Cl46  1  0.989141  0.801148  0.055185  1
  Cl  Cl47  1  0.510859  0.198852  0.555185  1
  Cl  Cl48  1  0.301148  0.444815  0.010859  1
  Cl  Cl49  1  0.010859  0.301148  0.444815  1
  Cl  Cl50  1  0.698852  0.944815  0.489141  1
  Cl  Cl51  1  0.198852  0.555185  0.510859  1
  Cl  Cl52  1  0.489141  0.698852  0.944815  1
  Cl  Cl53  1  0.555185  0.510859  0.198852  1
  Cl  Cl54  1  0.944815  0.489141  0.698852  1
  Cl  Cl55  1  0.444815  0.010859  0.301148  1
  Cl  Cl56  1  0.206123  0.206123  0.206123  1
  Cl  Cl57  1  0.293877  0.793877  0.706123  1
  Cl  Cl58  1  0.706123  0.293877  0.793877  1
  Cl  Cl59  1  0.793877  0.706123  0.293877  1
  Cl  Cl60  1  0.798583  0.798583  0.798583  1
  Cl  Cl61  1  0.701417  0.201417  0.298583  1
  Cl  Cl62  1  0.298583  0.701417  0.201417  1
  Cl  Cl63  1  0.201417  0.298583  0.701417  1
