# generated using pymatgen
data_OsS2
_symmetry_space_group_name_H-M   'P 1'
_cell_length_a   5.66415217
_cell_length_b   5.66415217
_cell_length_c   5.66415217
_cell_angle_alpha   90.00000000
_cell_angle_beta   90.00000000
_cell_angle_gamma   90.00000000
_symmetry_Int_Tables_number   1
_chemical_formula_structural   OsS2
_chemical_formula_sum   'Os4 S8'
_cell_volume   181.72084059
_cell_formula_units_Z   4
loop_
 _symmetry_equiv_pos_site_id
 _symmetry_equiv_pos_as_xyz
  1  'x, y, z'
loop_
 _atom_site_type_symbol
 _atom_site_label
 _atom_site_symmetry_multiplicity
 _atom_site_fract_x
 _atom_site_fract_y
 _atom_site_fract_z
 _atom_site_occupancy
  Os  Os0  1  0.000000  0.500000  0.500000  1
  Os  Os1  1  0.500000  0.500000  0.000000  1
  Os  Os2  1  0.500000  0.000000  0.500000  1
  Os  Os3  1  0.000000  0.000000  0.000000  1
  S  S4  1  0.384043  0.115957  0.884043  1
  S  S5  1  0.115957  0.884043  0.384043  1
  S  S6  1  0.884043  0.384043  0.115957  1
  S  S7  1  0.615957  0.615957  0.615957  1
  S  S8  1  0.384043  0.384043  0.384043  1
  S  S9  1  0.115957  0.615957  0.884043  1
  S  S10  1  0.884043  0.115957  0.615957  1
  S  S11  1  0.615957  0.884043  0.115957  1
