# generated using pymatgen
data_Te3Cl2
_symmetry_space_group_name_H-M   'P 1'
_cell_length_a   7.55247341
_cell_length_b   8.74093944
_cell_length_c   12.16052875
_cell_angle_alpha   90.00000000
_cell_angle_beta   120.64634303
_cell_angle_gamma   90.00000000
_symmetry_Int_Tables_number   1
_chemical_formula_structural   Te3Cl2
_chemical_formula_sum   'Te12 Cl8'
_cell_volume   690.66086606
_cell_formula_units_Z   4
loop_
 _symmetry_equiv_pos_site_id
 _symmetry_equiv_pos_as_xyz
  1  'x, y, z'
loop_
 _atom_site_type_symbol
 _atom_site_label
 _atom_site_symmetry_multiplicity
 _atom_site_fract_x
 _atom_site_fract_y
 _atom_site_fract_z
 _atom_site_occupancy
  Te  Te0  1  0.698434  0.658217  0.644984  1
  Te  Te1  1  0.301566  0.158217  0.855016  1
  Te  Te2  1  0.301566  0.341783  0.355016  1
  Te  Te3  1  0.698434  0.841783  0.144984  1
  Te  Te4  1  0.298916  0.648922  0.339149  1
  Te  Te5  1  0.701084  0.148922  0.160851  1
  Te  Te6  1  0.701084  0.351078  0.660851  1
  Te  Te7  1  0.298916  0.851078  0.839149  1
  Te  Te8  1  0.005072  0.754935  0.408500  1
  Te  Te9  1  0.994928  0.254935  0.091500  1
  Te  Te10  1  0.994928  0.245065  0.591500  1
  Te  Te11  1  0.005072  0.745065  0.908500  1
  Cl  Cl12  1  0.784627  0.514752  0.330508  1
  Cl  Cl13  1  0.215373  0.014752  0.169492  1
  Cl  Cl14  1  0.215373  0.485248  0.669492  1
  Cl  Cl15  1  0.784627  0.985248  0.830508  1
  Cl  Cl16  1  0.227703  0.993726  0.478713  1
  Cl  Cl17  1  0.772297  0.493726  0.021287  1
  Cl  Cl18  1  0.772297  0.006274  0.521287  1
  Cl  Cl19  1  0.227703  0.506274  0.978713  1
