# generated using pymatgen
data_Na3ReO5
_symmetry_space_group_name_H-M   'P 1'
_cell_length_a   5.60196603
_cell_length_b   5.60196603
_cell_length_c   13.81995220
_cell_angle_alpha   90.00000000
_cell_angle_beta   90.00000000
_cell_angle_gamma   120.00000000
_symmetry_Int_Tables_number   1
_chemical_formula_structural   Na3ReO5
_chemical_formula_sum   'Na9 Re3 O15'
_cell_volume   375.59354051
_cell_formula_units_Z   3
loop_
 _symmetry_equiv_pos_site_id
 _symmetry_equiv_pos_as_xyz
  1  'x, y, z'
loop_
 _atom_site_type_symbol
 _atom_site_label
 _atom_site_symmetry_multiplicity
 _atom_site_fract_x
 _atom_site_fract_y
 _atom_site_fract_z
 _atom_site_occupancy
  Na  Na0  1  0.622853  0.925207  0.582002  1
  Na  Na1  1  0.302354  0.377147  0.248669  1
  Na  Na2  1  0.074793  0.697646  0.915336  1
  Na  Na3  1  0.697646  0.074793  0.084664  1
  Na  Na4  1  0.377147  0.302354  0.751331  1
  Na  Na5  1  0.925207  0.622853  0.417998  1
  Na  Na6  1  0.000000  0.720289  0.166667  1
  Na  Na7  1  0.720289  0.000000  0.833333  1
  Na  Na8  1  0.279711  0.279711  0.500000  1
  Re  Re9  1  0.000000  0.626087  0.666667  1
  Re  Re10  1  0.626087  0.000000  0.333333  1
  Re  Re11  1  0.373913  0.373913  0.000000  1
  O  O12  1  0.168797  0.506292  0.062820  1
  O  O13  1  0.337495  0.831203  0.729487  1
  O  O14  1  0.493708  0.662505  0.396154  1
  O  O15  1  0.000000  0.304588  0.666667  1
  O  O16  1  0.304588  0.000000  0.333333  1
  O  O17  1  0.695412  0.695412  0.000000  1
  O  O18  1  0.662505  0.493708  0.603846  1
  O  O19  1  0.831203  0.337495  0.270513  1
  O  O20  1  0.506292  0.168797  0.937180  1
  O  O21  1  0.316683  0.155351  0.106399  1
  O  O22  1  0.838668  0.683317  0.773065  1
  O  O23  1  0.844649  0.161332  0.439732  1
  O  O24  1  0.161332  0.844649  0.560268  1
  O  O25  1  0.155351  0.316683  0.893601  1
  O  O26  1  0.683317  0.838668  0.226935  1
