# generated using pymatgen
data_Yb(Ga4Co)2
_symmetry_space_group_name_H-M   'P 1'
_cell_length_a   3.99019930
_cell_length_b   12.37962339
_cell_length_c   14.38010437
_cell_angle_alpha   90.00000000
_cell_angle_beta   90.00000000
_cell_angle_gamma   90.00000000
_symmetry_Int_Tables_number   1
_chemical_formula_structural   Yb(Ga4Co)2
_chemical_formula_sum   'Yb4 Ga32 Co8'
_cell_volume   710.33638231
_cell_formula_units_Z   4
loop_
 _symmetry_equiv_pos_site_id
 _symmetry_equiv_pos_as_xyz
  1  'x, y, z'
loop_
 _atom_site_type_symbol
 _atom_site_label
 _atom_site_symmetry_multiplicity
 _atom_site_fract_x
 _atom_site_fract_y
 _atom_site_fract_z
 _atom_site_occupancy
  Yb  Yb0  1  0.000000  0.156716  0.819297  1
  Yb  Yb1  1  0.000000  0.843284  0.180703  1
  Yb  Yb2  1  0.000000  0.656716  0.680703  1
  Yb  Yb3  1  0.000000  0.343284  0.319297  1
  Ga  Ga4  1  0.000000  0.500000  0.500000  1
  Ga  Ga5  1  0.500000  0.000000  0.500000  1
  Ga  Ga6  1  0.500000  0.500000  0.000000  1
  Ga  Ga7  1  0.000000  0.000000  0.000000  1
  Ga  Ga8  1  0.500000  0.331051  0.489159  1
  Ga  Ga9  1  0.500000  0.668949  0.510841  1
  Ga  Ga10  1  0.500000  0.831051  0.010841  1
  Ga  Ga11  1  0.500000  0.168949  0.989159  1
  Ga  Ga12  1  0.500000  0.020563  0.133882  1
  Ga  Ga13  1  0.500000  0.979437  0.866118  1
  Ga  Ga14  1  0.500000  0.520563  0.366118  1
  Ga  Ga15  1  0.500000  0.479437  0.633882  1
  Ga  Ga16  1  0.500000  0.239080  0.177372  1
  Ga  Ga17  1  0.500000  0.760920  0.822628  1
  Ga  Ga18  1  0.500000  0.739080  0.322628  1
  Ga  Ga19  1  0.500000  0.260920  0.677372  1
  Ga  Ga20  1  0.500000  0.449328  0.183667  1
  Ga  Ga21  1  0.500000  0.550672  0.816333  1
  Ga  Ga22  1  0.500000  0.949328  0.316333  1
  Ga  Ga23  1  0.500000  0.050672  0.683667  1
  Ga  Ga24  1  0.500000  0.166727  0.377931  1
  Ga  Ga25  1  0.500000  0.833273  0.622069  1
  Ga  Ga26  1  0.500000  0.666727  0.122069  1
  Ga  Ga27  1  0.500000  0.333273  0.877931  1
  Ga  Ga28  1  0.000000  0.338137  0.045120  1
  Ga  Ga29  1  0.000000  0.661863  0.954880  1
  Ga  Ga30  1  0.000000  0.838137  0.454880  1
  Ga  Ga31  1  0.000000  0.161863  0.545120  1
  Ga  Ga32  1  0.000000  0.099778  0.254866  1
  Ga  Ga33  1  0.000000  0.900222  0.745134  1
  Ga  Ga34  1  0.000000  0.599778  0.245134  1
  Ga  Ga35  1  0.000000  0.400222  0.754866  1
  Co  Co36  1  0.000000  0.034002  0.406436  1
  Co  Co37  1  0.000000  0.348071  0.597482  1
  Co  Co38  1  0.000000  0.651929  0.402518  1
  Co  Co39  1  0.000000  0.848071  0.902518  1
  Co  Co40  1  0.000000  0.151929  0.097482  1
  Co  Co41  1  0.000000  0.965998  0.593564  1
  Co  Co42  1  0.000000  0.534002  0.093564  1
  Co  Co43  1  0.000000  0.465998  0.906436  1
