# generated using pymatgen
data_LiIO3
_symmetry_space_group_name_H-M   'P 1'
_cell_length_a   9.98201092
_cell_length_b   9.98201092
_cell_length_c   6.22730720
_cell_angle_alpha   90.00000000
_cell_angle_beta   90.00000000
_cell_angle_gamma   90.00000000
_symmetry_Int_Tables_number   1
_chemical_formula_structural   LiIO3
_chemical_formula_sum   'Li8 I8 O24'
_cell_volume   620.49226465
_cell_formula_units_Z   8
loop_
 _symmetry_equiv_pos_site_id
 _symmetry_equiv_pos_as_xyz
  1  'x, y, z'
loop_
 _atom_site_type_symbol
 _atom_site_label
 _atom_site_symmetry_multiplicity
 _atom_site_fract_x
 _atom_site_fract_y
 _atom_site_fract_z
 _atom_site_occupancy
  Li  Li0  1  0.978399  0.181410  0.150966  1
  Li  Li1  1  0.681410  0.521601  0.650966  1
  Li  Li2  1  0.318590  0.478399  0.650966  1
  Li  Li3  1  0.021601  0.818590  0.150966  1
  Li  Li4  1  0.521601  0.318590  0.349034  1
  Li  Li5  1  0.818590  0.978399  0.849034  1
  Li  Li6  1  0.181410  0.021601  0.849034  1
  Li  Li7  1  0.478399  0.681410  0.349034  1
  I  I8  1  0.510764  0.782008  0.866395  1
  I  I9  1  0.010764  0.282008  0.633605  1
  I  I10  1  0.782008  0.489236  0.133605  1
  I  I11  1  0.217992  0.510764  0.133605  1
  I  I12  1  0.989236  0.717992  0.633605  1
  I  I13  1  0.489236  0.217992  0.866395  1
  I  I14  1  0.717992  0.010764  0.366395  1
  I  I15  1  0.282008  0.989236  0.366395  1
  O  O16  1  0.096450  0.195802  0.413673  1
  O  O17  1  0.804198  0.096450  0.586327  1
  O  O18  1  0.596450  0.695802  0.086327  1
  O  O19  1  0.403550  0.304198  0.086327  1
  O  O20  1  0.195802  0.903550  0.586327  1
  O  O21  1  0.695802  0.403550  0.913673  1
  O  O22  1  0.903550  0.804198  0.413673  1
  O  O23  1  0.631185  0.914397  0.805049  1
  O  O24  1  0.868815  0.585603  0.694951  1
  O  O25  1  0.085603  0.631185  0.194951  1
  O  O26  1  0.914397  0.368815  0.194951  1
  O  O27  1  0.131185  0.414397  0.694951  1
  O  O28  1  0.954044  0.833753  0.854930  1
  O  O29  1  0.414397  0.868815  0.305049  1
  O  O30  1  0.585603  0.131185  0.305049  1
  O  O31  1  0.368815  0.085603  0.805049  1
  O  O32  1  0.454044  0.333753  0.645070  1
  O  O33  1  0.333753  0.545956  0.354930  1
  O  O34  1  0.666247  0.454044  0.354930  1
  O  O35  1  0.045956  0.166247  0.854930  1
  O  O36  1  0.545956  0.666247  0.645070  1
  O  O37  1  0.166247  0.954044  0.145070  1
  O  O38  1  0.833753  0.045956  0.145070  1
  O  O39  1  0.304198  0.596450  0.913673  1
