# generated using pymatgen
data_CoGeO3
_symmetry_space_group_name_H-M   'P 1'
_cell_length_a   6.69370863
_cell_length_b   6.69370863
_cell_length_c   5.23801420
_cell_angle_alpha   81.49480608
_cell_angle_beta   98.50519392
_cell_angle_gamma   93.90956079
_symmetry_Int_Tables_number   1
_chemical_formula_structural   CoGeO3
_chemical_formula_sum   'Co4 Ge4 O12'
_cell_volume   229.30196048
_cell_formula_units_Z   4
loop_
 _symmetry_equiv_pos_site_id
 _symmetry_equiv_pos_as_xyz
  1  'x, y, z'
loop_
 _atom_site_type_symbol
 _atom_site_label
 _atom_site_symmetry_multiplicity
 _atom_site_fract_x
 _atom_site_fract_y
 _atom_site_fract_z
 _atom_site_occupancy
  Co  Co0  1  0.909371  0.909371  0.250000  1
  Co  Co1  1  0.733343  0.733343  0.750000  1
  Co  Co2  1  0.090629  0.090629  0.750000  1
  Co  Co3  1  0.266657  0.266657  0.250000  1
  Ge  Ge4  1  0.207588  0.608575  0.715119  1
  Ge  Ge5  1  0.391425  0.792412  0.215119  1
  Ge  Ge6  1  0.608575  0.207588  0.784881  1
  Ge  Ge7  1  0.792412  0.391425  0.284881  1
  O  O8  1  0.292729  0.574677  0.410305  1
  O  O9  1  0.574677  0.292729  0.089695  1
  O  O10  1  0.139105  0.375876  0.884062  1
  O  O11  1  0.025794  0.795959  0.635340  1
  O  O12  1  0.204041  0.974206  0.135340  1
  O  O13  1  0.707271  0.425323  0.589695  1
  O  O14  1  0.425323  0.707271  0.910305  1
  O  O15  1  0.375876  0.139105  0.615938  1
  O  O16  1  0.624124  0.860895  0.384062  1
  O  O17  1  0.974206  0.204041  0.364660  1
  O  O18  1  0.795959  0.025794  0.864660  1
  O  O19  1  0.860895  0.624124  0.115938  1
