# generated using pymatgen
data_Y6UO12
_symmetry_space_group_name_H-M   'P 1'
_cell_length_a   6.59690866
_cell_length_b   6.59690866
_cell_length_c   6.59690866
_cell_angle_alpha   99.02344730
_cell_angle_beta   99.02344730
_cell_angle_gamma   99.02344730
_symmetry_Int_Tables_number   1
_chemical_formula_structural   Y6UO12
_chemical_formula_sum   'Y6 U1 O12'
_cell_volume   275.14294743
_cell_formula_units_Z   1
loop_
 _symmetry_equiv_pos_site_id
 _symmetry_equiv_pos_as_xyz
  1  'x, y, z'
loop_
 _atom_site_type_symbol
 _atom_site_label
 _atom_site_symmetry_multiplicity
 _atom_site_fract_x
 _atom_site_fract_y
 _atom_site_fract_z
 _atom_site_occupancy
  Y  Y0  1  0.854877  0.390357  0.677955  1
  Y  Y1  1  0.677955  0.854877  0.390357  1
  Y  Y2  1  0.390357  0.677955  0.854877  1
  Y  Y3  1  0.145123  0.609643  0.322045  1
  Y  Y4  1  0.322045  0.145123  0.609643  1
  Y  Y5  1  0.609643  0.322045  0.145123  1
  U  U6  1  0.000000  0.000000  0.000000  1
  O  O7  1  0.588364  0.177532  0.427310  1
  O  O8  1  0.427310  0.588364  0.177532  1
  O  O9  1  0.177532  0.427310  0.588364  1
  O  O10  1  0.411636  0.822468  0.572690  1
  O  O11  1  0.572690  0.411636  0.822468  1
  O  O12  1  0.822468  0.572690  0.411636  1
  O  O13  1  0.692477  0.919264  0.046750  1
  O  O14  1  0.080736  0.953250  0.307523  1
  O  O15  1  0.953250  0.307523  0.080736  1
  O  O16  1  0.307523  0.080736  0.953250  1
  O  O17  1  0.919264  0.046750  0.692477  1
  O  O18  1  0.046750  0.692477  0.919264  1
