# generated using pymatgen
data_KInBr4
_symmetry_space_group_name_H-M   'P 1'
_cell_length_a   8.05669794
_cell_length_b   10.82814585
_cell_length_c   10.88045709
_cell_angle_alpha   90.00000000
_cell_angle_beta   90.00000000
_cell_angle_gamma   90.00000000
_symmetry_Int_Tables_number   1
_chemical_formula_structural   KInBr4
_chemical_formula_sum   'K4 In4 Br16'
_cell_volume   949.20128808
_cell_formula_units_Z   4
loop_
 _symmetry_equiv_pos_site_id
 _symmetry_equiv_pos_as_xyz
  1  'x, y, z'
loop_
 _atom_site_type_symbol
 _atom_site_label
 _atom_site_symmetry_multiplicity
 _atom_site_fract_x
 _atom_site_fract_y
 _atom_site_fract_z
 _atom_site_occupancy
  K  K0  1  0.821647  0.250000  0.250000  1
  K  K1  1  0.678353  0.250000  0.750000  1
  K  K2  1  0.178353  0.750000  0.750000  1
  K  K3  1  0.321647  0.750000  0.250000  1
  In  In4  1  0.250000  0.320336  0.500000  1
  In  In5  1  0.250000  0.179664  0.000000  1
  In  In6  1  0.750000  0.679664  0.500000  1
  In  In7  1  0.750000  0.820336  0.000000  1
  Br  Br8  1  0.655901  0.948789  0.183799  1
  Br  Br9  1  0.655901  0.551211  0.316201  1
  Br  Br10  1  0.844099  0.551211  0.683799  1
  Br  Br11  1  0.844099  0.948789  0.816201  1
  Br  Br12  1  0.344099  0.051211  0.816201  1
  Br  Br13  1  0.344099  0.448789  0.683799  1
  Br  Br14  1  0.155901  0.448789  0.316201  1
  Br  Br15  1  0.155901  0.051211  0.183799  1
  Br  Br16  1  0.002719  0.683593  0.041601  1
  Br  Br17  1  0.002719  0.816407  0.458399  1
  Br  Br18  1  0.497281  0.816407  0.541601  1
  Br  Br19  1  0.497281  0.683593  0.958399  1
  Br  Br20  1  0.997281  0.316407  0.958399  1
  Br  Br21  1  0.997281  0.183593  0.541601  1
  Br  Br22  1  0.502719  0.183593  0.458399  1
  Br  Br23  1  0.502719  0.316407  0.041601  1
