# generated using pymatgen
data_LuMnO3
_symmetry_space_group_name_H-M   'P 1'
_cell_length_a   5.24176208
_cell_length_b   5.77488550
_cell_length_c   7.44398626
_cell_angle_alpha   90.00000000
_cell_angle_beta   90.00000000
_cell_angle_gamma   90.00000000
_symmetry_Int_Tables_number   1
_chemical_formula_structural   LuMnO3
_chemical_formula_sum   'Lu4 Mn4 O12'
_cell_volume   225.33375056
_cell_formula_units_Z   4
loop_
 _symmetry_equiv_pos_site_id
 _symmetry_equiv_pos_as_xyz
  1  'x, y, z'
loop_
 _atom_site_type_symbol
 _atom_site_label
 _atom_site_symmetry_multiplicity
 _atom_site_fract_x
 _atom_site_fract_y
 _atom_site_fract_z
 _atom_site_occupancy
  Lu  Lu0  1  0.020724  0.916523  0.750000  1
  Lu  Lu1  1  0.520724  0.583477  0.250000  1
  Lu  Lu2  1  0.479276  0.416523  0.750000  1
  Lu  Lu3  1  0.979276  0.083477  0.250000  1
  Mn  Mn4  1  0.500000  0.000000  0.500000  1
  Mn  Mn5  1  0.000000  0.500000  0.500000  1
  Mn  Mn6  1  0.000000  0.500000  0.000000  1
  Mn  Mn7  1  0.500000  0.000000  0.000000  1
  O  O8  1  0.696691  0.327367  0.437857  1
  O  O9  1  0.196691  0.172633  0.562143  1
  O  O10  1  0.803309  0.827367  0.062143  1
  O  O11  1  0.303309  0.672633  0.937857  1
  O  O12  1  0.303309  0.672633  0.562143  1
  O  O13  1  0.803309  0.827367  0.437857  1
  O  O14  1  0.196691  0.172633  0.937857  1
  O  O15  1  0.696691  0.327367  0.062143  1
  O  O16  1  0.130914  0.449678  0.250000  1
  O  O17  1  0.630914  0.050322  0.750000  1
  O  O18  1  0.369086  0.949678  0.250000  1
  O  O19  1  0.869086  0.550322  0.750000  1
