# generated using pymatgen
data_LaAgSb2
_symmetry_space_group_name_H-M   'P 1'
_cell_length_a   4.44017507
_cell_length_b   4.44017507
_cell_length_c   10.95320882
_cell_angle_alpha   90.00000000
_cell_angle_beta   90.00000000
_cell_angle_gamma   90.00000000
_symmetry_Int_Tables_number   1
_chemical_formula_structural   LaAgSb2
_chemical_formula_sum   'La2 Ag2 Sb4'
_cell_volume   215.94420582
_cell_formula_units_Z   2
loop_
 _symmetry_equiv_pos_site_id
 _symmetry_equiv_pos_as_xyz
  1  'x, y, z'
loop_
 _atom_site_type_symbol
 _atom_site_label
 _atom_site_symmetry_multiplicity
 _atom_site_fract_x
 _atom_site_fract_y
 _atom_site_fract_z
 _atom_site_occupancy
  La  La0  1  0.000000  0.500000  0.260459  1
  La  La1  1  0.500000  0.000000  0.739541  1
  Ag  Ag2  1  0.000000  0.000000  0.000000  1
  Ag  Ag3  1  0.500000  0.500000  0.000000  1
  Sb  Sb4  1  0.000000  0.500000  0.828475  1
  Sb  Sb5  1  0.500000  0.000000  0.171525  1
  Sb  Sb6  1  0.000000  0.000000  0.500000  1
  Sb  Sb7  1  0.500000  0.500000  0.500000  1
