# generated using pymatgen
data_CaZnAsHO5
_symmetry_space_group_name_H-M   'P 1'
_cell_length_a   6.02418589
_cell_length_b   7.60378958
_cell_length_c   9.16605877
_cell_angle_alpha   90.00000000
_cell_angle_beta   90.00000000
_cell_angle_gamma   90.00000000
_symmetry_Int_Tables_number   1
_chemical_formula_structural   CaZnAsHO5
_chemical_formula_sum   'Ca4 Zn4 As4 H4 O20'
_cell_volume   419.86637170
_cell_formula_units_Z   4
loop_
 _symmetry_equiv_pos_site_id
 _symmetry_equiv_pos_as_xyz
  1  'x, y, z'
loop_
 _atom_site_type_symbol
 _atom_site_label
 _atom_site_symmetry_multiplicity
 _atom_site_fract_x
 _atom_site_fract_y
 _atom_site_fract_z
 _atom_site_occupancy
  Ca  Ca0  1  0.023495  0.369122  0.827367  1
  Ca  Ca1  1  0.523495  0.130878  0.172633  1
  Ca  Ca2  1  0.976505  0.869122  0.672633  1
  Ca  Ca3  1  0.476505  0.630878  0.327367  1
  Zn  Zn4  1  0.258467  0.765175  0.993378  1
  Zn  Zn5  1  0.758467  0.734825  0.006622  1
  Zn  Zn6  1  0.741533  0.265175  0.506622  1
  Zn  Zn7  1  0.241533  0.234825  0.493378  1
  As  As8  1  0.982642  0.374525  0.175230  1
  As  As9  1  0.482642  0.125475  0.824770  1
  As  As10  1  0.017358  0.874525  0.324770  1
  As  As11  1  0.517358  0.625475  0.675230  1
  H  H12  1  0.978542  0.005884  0.979491  1
  H  H13  1  0.478542  0.494116  0.020509  1
  H  H14  1  0.021458  0.505884  0.520509  1
  H  H15  1  0.521458  0.994116  0.479491  1
  O  O16  1  0.991637  0.891731  0.927176  1
  O  O17  1  0.491637  0.608269  0.072824  1
  O  O18  1  0.008363  0.391731  0.572824  1
  O  O19  1  0.508363  0.108269  0.427176  1
  O  O20  1  0.745218  0.605311  0.789139  1
  O  O21  1  0.245218  0.894689  0.210861  1
  O  O22  1  0.254782  0.105311  0.710861  1
  O  O23  1  0.754782  0.394689  0.289139  1
  O  O24  1  0.489421  0.449543  0.554531  1
  O  O25  1  0.989421  0.050457  0.445469  1
  O  O26  1  0.510579  0.949543  0.945469  1
  O  O27  1  0.010579  0.550457  0.054531  1
  O  O28  1  0.591204  0.794950  0.560103  1
  O  O29  1  0.091204  0.705050  0.439897  1
  O  O30  1  0.408796  0.294950  0.939897  1
  O  O31  1  0.908796  0.205050  0.060103  1
  O  O32  1  0.231284  0.347928  0.267087  1
  O  O33  1  0.731284  0.152072  0.732913  1
  O  O34  1  0.768716  0.847928  0.232913  1
  O  O35  1  0.268716  0.652072  0.767087  1
