# generated using pymatgen
data_GdAl3(PbO4)2
_symmetry_space_group_name_H-M   'P 1'
_cell_length_a   9.57834852
_cell_length_b   9.57834852
_cell_length_c   9.57834852
_cell_angle_alpha   90.00000000
_cell_angle_beta   90.00000000
_cell_angle_gamma   90.00000000
_symmetry_Int_Tables_number   1
_chemical_formula_structural   GdAl3(PbO4)2
_chemical_formula_sum   'Gd4 Al12 Pb8 O32'
_cell_volume   878.76328971
_cell_formula_units_Z   4
loop_
 _symmetry_equiv_pos_site_id
 _symmetry_equiv_pos_as_xyz
  1  'x, y, z'
loop_
 _atom_site_type_symbol
 _atom_site_label
 _atom_site_symmetry_multiplicity
 _atom_site_fract_x
 _atom_site_fract_y
 _atom_site_fract_z
 _atom_site_occupancy
  Gd  Gd0  1  0.250000  0.750000  0.250000  1
  Gd  Gd1  1  0.750000  0.250000  0.250000  1
  Gd  Gd2  1  0.750000  0.750000  0.750000  1
  Gd  Gd3  1  0.250000  0.250000  0.750000  1
  Al  Al4  1  0.500000  0.000000  0.250000  1
  Al  Al5  1  0.750000  0.500000  0.000000  1
  Al  Al6  1  0.250000  0.500000  0.000000  1
  Al  Al7  1  0.000000  0.250000  0.500000  1
  Al  Al8  1  0.000000  0.750000  0.500000  1
  Al  Al9  1  0.500000  0.000000  0.750000  1
  Al  Al10  1  0.000000  0.500000  0.250000  1
  Al  Al11  1  0.750000  0.000000  0.500000  1
  Al  Al12  1  0.250000  0.000000  0.500000  1
  Al  Al13  1  0.500000  0.250000  0.000000  1
  Al  Al14  1  0.500000  0.750000  0.000000  1
  Al  Al15  1  0.000000  0.500000  0.750000  1
  Pb  Pb16  1  0.366504  0.366504  0.366504  1
  Pb  Pb17  1  0.866504  0.133496  0.866504  1
  Pb  Pb18  1  0.133496  0.866504  0.866504  1
  Pb  Pb19  1  0.866504  0.866504  0.133496  1
  Pb  Pb20  1  0.366504  0.633496  0.633496  1
  Pb  Pb21  1  0.633496  0.633496  0.366504  1
  Pb  Pb22  1  0.633496  0.366504  0.633496  1
  Pb  Pb23  1  0.133496  0.133496  0.133496  1
  O  O24  1  0.514161  0.157590  0.157590  1
  O  O25  1  0.514161  0.842410  0.842410  1
  O  O26  1  0.157590  0.157590  0.514161  1
  O  O27  1  0.842410  0.157590  0.485839  1
  O  O28  1  0.157590  0.514161  0.157590  1
  O  O29  1  0.842410  0.485839  0.157590  1
  O  O30  1  0.014161  0.657590  0.342410  1
  O  O31  1  0.014161  0.342410  0.657590  1
  O  O32  1  0.985839  0.657590  0.657590  1
  O  O33  1  0.342410  0.657590  0.014161  1
  O  O34  1  0.657590  0.985839  0.657590  1
  O  O35  1  0.657590  0.014161  0.342410  1
  O  O36  1  0.657590  0.342410  0.014161  1
  O  O37  1  0.342410  0.014161  0.657590  1
  O  O38  1  0.657590  0.657590  0.985839  1
  O  O39  1  0.342410  0.342410  0.985839  1
  O  O40  1  0.342410  0.985839  0.342410  1
  O  O41  1  0.842410  0.514161  0.842410  1
  O  O42  1  0.157590  0.485839  0.842410  1
  O  O43  1  0.157590  0.842410  0.485839  1
  O  O44  1  0.842410  0.842410  0.514161  1
  O  O45  1  0.485839  0.842410  0.157590  1
  O  O46  1  0.485839  0.157590  0.842410  1
  O  O47  1  0.985839  0.342410  0.342410  1
  O  O48  1  0.611579  0.611579  0.611579  1
  O  O49  1  0.111579  0.888421  0.111579  1
  O  O50  1  0.111579  0.111579  0.888421  1
  O  O51  1  0.888421  0.111579  0.111579  1
  O  O52  1  0.388421  0.388421  0.611579  1
  O  O53  1  0.611579  0.388421  0.388421  1
  O  O54  1  0.388421  0.611579  0.388421  1
  O  O55  1  0.888421  0.888421  0.888421  1
