# generated using pymatgen
data_Cs(BH)3
_symmetry_space_group_name_H-M   'P 1'
_cell_length_a   6.87983652
_cell_length_b   6.87983652
_cell_length_c   6.87983652
_cell_angle_alpha   60.00000000
_cell_angle_beta   60.00000000
_cell_angle_gamma   60.00000000
_symmetry_Int_Tables_number   1
_chemical_formula_structural   Cs(BH)3
_chemical_formula_sum   'Cs2 B6 H6'
_cell_volume   230.26045483
_cell_formula_units_Z   2
loop_
 _symmetry_equiv_pos_site_id
 _symmetry_equiv_pos_as_xyz
  1  'x, y, z'
loop_
 _atom_site_type_symbol
 _atom_site_label
 _atom_site_symmetry_multiplicity
 _atom_site_fract_x
 _atom_site_fract_y
 _atom_site_fract_z
 _atom_site_occupancy
  Cs  Cs0  1  0.250000  0.250000  0.250000  1
  Cs  Cs1  1  0.750000  0.750000  0.750000  1
  B  B2  1  0.125739  0.125739  0.874261  1
  B  B3  1  0.125739  0.874261  0.874261  1
  B  B4  1  0.125739  0.874261  0.125739  1
  B  B5  1  0.874261  0.125739  0.125739  1
  B  B6  1  0.874261  0.874261  0.125739  1
  B  B7  1  0.874261  0.125739  0.874261  1
  H  H8  1  0.250085  0.749915  0.749915  1
  H  H9  1  0.250085  0.250085  0.749915  1
  H  H10  1  0.250085  0.749915  0.250085  1
  H  H11  1  0.749915  0.250085  0.250085  1
  H  H12  1  0.749915  0.749915  0.250085  1
  H  H13  1  0.749915  0.250085  0.749915  1
