# generated using pymatgen
data_InCuSe2
_symmetry_space_group_name_H-M   'P 1'
_cell_length_a   7.21839084
_cell_length_b   7.21839084
_cell_length_c   7.21839084
_cell_angle_alpha   131.94125742
_cell_angle_beta   131.94125742
_cell_angle_gamma   70.32182024
_symmetry_Int_Tables_number   1
_chemical_formula_structural   InCuSe2
_chemical_formula_sum   'In2 Cu2 Se4'
_cell_volume   203.94595208
_cell_formula_units_Z   2
loop_
 _symmetry_equiv_pos_site_id
 _symmetry_equiv_pos_as_xyz
  1  'x, y, z'
loop_
 _atom_site_type_symbol
 _atom_site_label
 _atom_site_symmetry_multiplicity
 _atom_site_fract_x
 _atom_site_fract_y
 _atom_site_fract_z
 _atom_site_occupancy
  In  In0  1  0.250000  0.750000  0.500000  1
  In  In1  1  0.500000  0.500000  0.000000  1
  Cu  Cu2  1  0.750000  0.250000  0.500000  1
  Cu  Cu3  1  0.000000  0.000000  0.000000  1
  Se  Se4  1  0.094355  0.125000  0.469355  1
  Se  Se5  1  0.655645  0.625000  0.530645  1
  Se  Se6  1  0.875000  0.344355  0.969355  1
  Se  Se7  1  0.375000  0.905645  0.030645  1
