# generated using pymatgen
data_NaBiF6
_symmetry_space_group_name_H-M   'P 1'
_cell_length_a   6.10212244
_cell_length_b   6.10212244
_cell_length_c   6.10212244
_cell_angle_alpha   53.63630008
_cell_angle_beta   53.63630008
_cell_angle_gamma   53.63630008
_symmetry_Int_Tables_number   1
_chemical_formula_structural   NaBiF6
_chemical_formula_sum   'Na1 Bi1 F6'
_cell_volume   136.75443127
_cell_formula_units_Z   1
loop_
 _symmetry_equiv_pos_site_id
 _symmetry_equiv_pos_as_xyz
  1  'x, y, z'
loop_
 _atom_site_type_symbol
 _atom_site_label
 _atom_site_symmetry_multiplicity
 _atom_site_fract_x
 _atom_site_fract_y
 _atom_site_fract_z
 _atom_site_occupancy
  Na  Na0  1  0.500000  0.500000  0.500000  1
  Bi  Bi1  1  0.000000  0.000000  0.000000  1
  F  F2  1  0.091742  0.370752  0.766674  1
  F  F3  1  0.370752  0.766674  0.091742  1
  F  F4  1  0.233326  0.908258  0.629248  1
  F  F5  1  0.629248  0.233326  0.908258  1
  F  F6  1  0.908258  0.629248  0.233326  1
  F  F7  1  0.766674  0.091742  0.370752  1
