# generated using pymatgen
data_Ce(IO3)4
_symmetry_space_group_name_H-M   'P 1'
_cell_length_a   10.25060219
_cell_length_b   10.25060219
_cell_length_c   5.40181309
_cell_angle_alpha   90.00000000
_cell_angle_beta   90.00000000
_cell_angle_gamma   90.00000000
_symmetry_Int_Tables_number   1
_chemical_formula_structural   Ce(IO3)4
_chemical_formula_sum   'Ce2 I8 O24'
_cell_volume   567.59467454
_cell_formula_units_Z   2
loop_
 _symmetry_equiv_pos_site_id
 _symmetry_equiv_pos_as_xyz
  1  'x, y, z'
loop_
 _atom_site_type_symbol
 _atom_site_label
 _atom_site_symmetry_multiplicity
 _atom_site_fract_x
 _atom_site_fract_y
 _atom_site_fract_z
 _atom_site_occupancy
  Ce  Ce0  1  0.000000  0.000000  0.000000  1
  Ce  Ce1  1  0.500000  0.500000  0.500000  1
  I  I2  1  0.003013  0.270937  0.536223  1
  I  I3  1  0.770937  0.496987  0.036223  1
  I  I4  1  0.229063  0.503013  0.036223  1
  I  I5  1  0.996987  0.729063  0.536223  1
  I  I6  1  0.496987  0.229063  0.963777  1
  I  I7  1  0.729063  0.003013  0.463777  1
  I  I8  1  0.270937  0.996987  0.463777  1
  I  I9  1  0.503013  0.770937  0.963777  1
  O  O10  1  0.071778  0.151169  0.312545  1
  O  O11  1  0.651169  0.428222  0.812545  1
  O  O12  1  0.348831  0.571778  0.812545  1
  O  O13  1  0.928222  0.848831  0.312545  1
  O  O14  1  0.428222  0.348831  0.187455  1
  O  O15  1  0.848831  0.071778  0.687455  1
  O  O16  1  0.151169  0.928222  0.687455  1
  O  O17  1  0.571778  0.651169  0.187455  1
  O  O18  1  0.077106  0.191993  0.809093  1
  O  O19  1  0.691993  0.422894  0.309093  1
  O  O20  1  0.620015  0.901318  0.001176  1
  O  O21  1  0.401318  0.879985  0.501176  1
  O  O22  1  0.598682  0.120015  0.501176  1
  O  O23  1  0.379985  0.098682  0.001176  1
  O  O24  1  0.879985  0.598682  0.498824  1
  O  O25  1  0.098682  0.620015  0.998824  1
  O  O26  1  0.901318  0.379985  0.998824  1
  O  O27  1  0.120015  0.401318  0.498824  1
  O  O28  1  0.577106  0.691993  0.690907  1
  O  O29  1  0.191993  0.922894  0.190907  1
  O  O30  1  0.808007  0.077106  0.190907  1
  O  O31  1  0.422894  0.308007  0.690907  1
  O  O32  1  0.922894  0.808007  0.809093  1
  O  O33  1  0.308007  0.577106  0.309093  1
