# generated using pymatgen
data_CaSi2
_symmetry_space_group_name_H-M   'P 1'
_cell_length_a   5.73497027
_cell_length_b   5.73497027
_cell_length_c   5.73497027
_cell_angle_alpha   39.15851625
_cell_angle_beta   39.15851625
_cell_angle_gamma   39.15851625
_symmetry_Int_Tables_number   1
_chemical_formula_structural   CaSi2
_chemical_formula_sum   'Ca1 Si2'
_cell_volume   67.66095637
_cell_formula_units_Z   1
loop_
 _symmetry_equiv_pos_site_id
 _symmetry_equiv_pos_as_xyz
  1  'x, y, z'
loop_
 _atom_site_type_symbol
 _atom_site_label
 _atom_site_symmetry_multiplicity
 _atom_site_fract_x
 _atom_site_fract_y
 _atom_site_fract_z
 _atom_site_occupancy
  Ca  Ca0  1  0.000000  0.000000  0.000000  1
  Si  Si1  1  0.197330  0.197330  0.197330  1
  Si  Si2  1  0.802670  0.802670  0.802670  1
