# generated using pymatgen
data_PrFeGe2O7
_symmetry_space_group_name_H-M   'P 1'
_cell_length_a   7.37089452
_cell_length_b   6.70565703
_cell_length_c   13.18277400
_cell_angle_alpha   90.00000000
_cell_angle_beta   117.36783694
_cell_angle_gamma   90.00000000
_symmetry_Int_Tables_number   1
_chemical_formula_structural   PrFeGe2O7
_chemical_formula_sum   'Pr4 Fe4 Ge8 O28'
_cell_volume   578.65177488
_cell_formula_units_Z   4
loop_
 _symmetry_equiv_pos_site_id
 _symmetry_equiv_pos_as_xyz
  1  'x, y, z'
loop_
 _atom_site_type_symbol
 _atom_site_label
 _atom_site_symmetry_multiplicity
 _atom_site_fract_x
 _atom_site_fract_y
 _atom_site_fract_z
 _atom_site_occupancy
  Pr  Pr0  1  0.760634  0.647477  0.524043  1
  Pr  Pr1  1  0.239366  0.147477  0.975957  1
  Pr  Pr2  1  0.239366  0.352523  0.475957  1
  Pr  Pr3  1  0.760634  0.852523  0.024043  1
  Fe  Fe4  1  0.787989  0.899137  0.768295  1
  Fe  Fe5  1  0.787989  0.600863  0.268295  1
  Fe  Fe6  1  0.212011  0.100863  0.231705  1
  Fe  Fe7  1  0.212011  0.399137  0.731705  1
  Ge  Ge8  1  0.216376  0.658295  0.960073  1
  Ge  Ge9  1  0.297623  0.911221  0.720533  1
  Ge  Ge10  1  0.216376  0.841705  0.460073  1
  Ge  Ge11  1  0.783624  0.341705  0.039927  1
  Ge  Ge12  1  0.702377  0.088779  0.279467  1
  Ge  Ge13  1  0.297623  0.588779  0.220533  1
  Ge  Ge14  1  0.702377  0.411221  0.779467  1
  Ge  Ge15  1  0.783624  0.158295  0.539927  1
  O  O16  1  0.153597  0.688435  0.686560  1
  O  O17  1  0.846403  0.188435  0.813440  1
  O  O18  1  0.846403  0.311565  0.313440  1
  O  O19  1  0.153597  0.811565  0.186560  1
  O  O20  1  0.791996  0.953483  0.625468  1
  O  O21  1  0.208004  0.453483  0.874532  1
  O  O22  1  0.208004  0.046517  0.374532  1
  O  O23  1  0.791996  0.546517  0.125468  1
  O  O24  1  0.745663  0.497514  0.920467  1
  O  O25  1  0.254337  0.997514  0.579533  1
  O  O26  1  0.254337  0.502486  0.079533  1
  O  O27  1  0.745663  0.002486  0.420467  1
  O  O28  1  0.010558  0.834924  0.923371  1
  O  O29  1  0.989442  0.334924  0.576629  1
  O  O30  1  0.989442  0.165076  0.076629  1
  O  O31  1  0.010558  0.665076  0.423371  1
  O  O32  1  0.590818  0.174008  0.017152  1
  O  O33  1  0.409182  0.674008  0.482848  1
  O  O34  1  0.409182  0.825992  0.982848  1
  O  O35  1  0.590818  0.325992  0.517152  1
  O  O36  1  0.781211  0.890869  0.220529  1
  O  O37  1  0.218789  0.390869  0.279471  1
  O  O38  1  0.218789  0.109131  0.779471  1
  O  O39  1  0.781211  0.609131  0.720529  1
  O  O40  1  0.564781  0.624363  0.305414  1
  O  O41  1  0.435219  0.124363  0.194586  1
  O  O42  1  0.435219  0.375637  0.694586  1
  O  O43  1  0.564781  0.875637  0.805414  1
