# generated using pymatgen
data_U3Te5
_symmetry_space_group_name_H-M   'P 1'
_cell_length_a   4.12872031
_cell_length_b   14.09334464
_cell_length_c   16.26473722
_cell_angle_alpha   90.00000000
_cell_angle_beta   90.00000000
_cell_angle_gamma   90.00000000
_symmetry_Int_Tables_number   1
_chemical_formula_structural   U3Te5
_chemical_formula_sum   'U12 Te20'
_cell_volume   946.40404325
_cell_formula_units_Z   4
loop_
 _symmetry_equiv_pos_site_id
 _symmetry_equiv_pos_as_xyz
  1  'x, y, z'
loop_
 _atom_site_type_symbol
 _atom_site_label
 _atom_site_symmetry_multiplicity
 _atom_site_fract_x
 _atom_site_fract_y
 _atom_site_fract_z
 _atom_site_occupancy
  U  U0  1  0.250000  0.249826  0.880340  1
  U  U1  1  0.750000  0.750174  0.119660  1
  U  U2  1  0.750000  0.749826  0.619660  1
  U  U3  1  0.250000  0.250174  0.380340  1
  U  U4  1  0.250000  0.930790  0.860596  1
  U  U5  1  0.750000  0.069210  0.139404  1
  U  U6  1  0.750000  0.430790  0.639404  1
  U  U7  1  0.250000  0.569210  0.360596  1
  U  U8  1  0.250000  0.090258  0.626562  1
  U  U9  1  0.750000  0.909742  0.373438  1
  U  U10  1  0.750000  0.590258  0.873438  1
  U  U11  1  0.250000  0.409742  0.126562  1
  Te  Te12  1  0.250000  0.918995  0.075231  1
  Te  Te13  1  0.750000  0.081005  0.924769  1
  Te  Te14  1  0.750000  0.418995  0.424769  1
  Te  Te15  1  0.250000  0.581005  0.575231  1
  Te  Te16  1  0.250000  0.453762  0.784790  1
  Te  Te17  1  0.750000  0.546238  0.215210  1
  Te  Te18  1  0.750000  0.953762  0.715210  1
  Te  Te19  1  0.250000  0.046238  0.284790  1
  Te  Te20  1  0.250000  0.720933  0.764473  1
  Te  Te21  1  0.750000  0.279067  0.235527  1
  Te  Te22  1  0.750000  0.220933  0.735527  1
  Te  Te23  1  0.250000  0.779067  0.264473  1
  Te  Te24  1  0.250000  0.610287  0.024999  1
  Te  Te25  1  0.750000  0.389713  0.975001  1
  Te  Te26  1  0.750000  0.110287  0.475001  1
  Te  Te27  1  0.250000  0.889713  0.524999  1
  Te  Te28  1  0.250000  0.202623  0.067121  1
  Te  Te29  1  0.750000  0.797377  0.932879  1
  Te  Te30  1  0.750000  0.702623  0.432879  1
  Te  Te31  1  0.250000  0.297377  0.567121  1
