# generated using pymatgen
data_NaInI4
_symmetry_space_group_name_H-M   'P 1'
_cell_length_a   8.74266875
_cell_length_b   8.17744485
_cell_length_c   16.16163808
_cell_angle_alpha   90.00000000
_cell_angle_beta   93.11031553
_cell_angle_gamma   90.00000000
_symmetry_Int_Tables_number   1
_chemical_formula_structural   NaInI4
_chemical_formula_sum   'Na4 In4 I16'
_cell_volume   1153.73694888
_cell_formula_units_Z   4
loop_
 _symmetry_equiv_pos_site_id
 _symmetry_equiv_pos_as_xyz
  1  'x, y, z'
loop_
 _atom_site_type_symbol
 _atom_site_label
 _atom_site_symmetry_multiplicity
 _atom_site_fract_x
 _atom_site_fract_y
 _atom_site_fract_z
 _atom_site_occupancy
  Na  Na0  1  0.849105  0.994053  0.623522  1
  Na  Na1  1  0.150895  0.494053  0.876478  1
  Na  Na2  1  0.150895  0.005947  0.376478  1
  Na  Na3  1  0.849105  0.505947  0.123522  1
  In  In4  1  0.703800  0.189608  0.398771  1
  In  In5  1  0.296200  0.689608  0.101229  1
  In  In6  1  0.296200  0.810392  0.601229  1
  In  In7  1  0.703800  0.310392  0.898771  1
  I  I8  1  0.685607  0.322700  0.554046  1
  I  I9  1  0.314393  0.822700  0.945954  1
  I  I10  1  0.314393  0.677300  0.445954  1
  I  I11  1  0.685607  0.177300  0.054046  1
  I  I12  1  0.188976  0.129180  0.573674  1
  I  I13  1  0.811024  0.629180  0.926326  1
  I  I14  1  0.811024  0.870820  0.426326  1
  I  I15  1  0.188976  0.370820  0.073674  1
  I  I16  1  0.939005  0.337581  0.316015  1
  I  I17  1  0.060995  0.837581  0.183985  1
  I  I18  1  0.060995  0.662419  0.683985  1
  I  I19  1  0.939005  0.162419  0.816015  1
  I  I20  1  0.434886  0.203747  0.303445  1
  I  I21  1  0.565114  0.703747  0.196555  1
  I  I22  1  0.565114  0.796253  0.696555  1
  I  I23  1  0.434886  0.296253  0.803445  1
