# generated using pymatgen
data_LiCuPO4F
_symmetry_space_group_name_H-M   'P 1'
_cell_length_a   5.23700139
_cell_length_b   5.25454689
_cell_length_c   7.25386286
_cell_angle_alpha   105.06757008
_cell_angle_beta   108.90847144
_cell_angle_gamma   98.11191179
_symmetry_Int_Tables_number   1
_chemical_formula_structural   LiCuPO4F
_chemical_formula_sum   'Li2 Cu2 P2 O8 F2'
_cell_volume   176.71308770
_cell_formula_units_Z   2
loop_
 _symmetry_equiv_pos_site_id
 _symmetry_equiv_pos_as_xyz
  1  'x, y, z'
loop_
 _atom_site_type_symbol
 _atom_site_label
 _atom_site_symmetry_multiplicity
 _atom_site_fract_x
 _atom_site_fract_y
 _atom_site_fract_z
 _atom_site_occupancy
  Li  Li0  1  0.432983  0.076643  0.808829  1
  Li  Li1  1  0.567017  0.923357  0.191171  1
  Cu  Cu2  1  0.000000  0.000000  0.000000  1
  Cu  Cu3  1  0.500000  0.500000  0.500000  1
  P  P4  1  0.883616  0.551821  0.241090  1
  P  P5  1  0.116384  0.448179  0.758910  1
  O  O6  1  0.170916  0.286920  0.914091  1
  O  O7  1  0.322530  0.354649  0.653809  1
  O  O8  1  0.677470  0.645351  0.346191  1
  O  O9  1  0.812723  0.352083  0.603807  1
  O  O10  1  0.829084  0.713080  0.085909  1
  O  O11  1  0.187277  0.647917  0.396193  1
  O  O12  1  0.217568  0.759335  0.877084  1
  O  O13  1  0.782432  0.240665  0.122916  1
  F  F14  1  0.679225  0.878712  0.747103  1
  F  F15  1  0.320775  0.121288  0.252897  1
