# generated using pymatgen
data_Gd2CI
_symmetry_space_group_name_H-M   'P 1'
_cell_length_a   3.81175733
_cell_length_b   3.81175733
_cell_length_c   14.99282997
_cell_angle_alpha   90.00000000
_cell_angle_beta   90.00000000
_cell_angle_gamma   120.00000000
_symmetry_Int_Tables_number   1
_chemical_formula_structural   Gd2CI
_chemical_formula_sum   'Gd4 C2 I2'
_cell_volume   188.65344312
_cell_formula_units_Z   2
loop_
 _symmetry_equiv_pos_site_id
 _symmetry_equiv_pos_as_xyz
  1  'x, y, z'
loop_
 _atom_site_type_symbol
 _atom_site_label
 _atom_site_symmetry_multiplicity
 _atom_site_fract_x
 _atom_site_fract_y
 _atom_site_fract_z
 _atom_site_occupancy
  Gd  Gd0  1  0.333333  0.666667  0.414627  1
  Gd  Gd1  1  0.666667  0.333333  0.914627  1
  Gd  Gd2  1  0.666667  0.333333  0.585373  1
  Gd  Gd3  1  0.333333  0.666667  0.085373  1
  C  C4  1  0.000000  0.000000  0.500000  1
  C  C5  1  0.000000  0.000000  0.000000  1
  I  I6  1  0.666667  0.333333  0.250000  1
  I  I7  1  0.333333  0.666667  0.750000  1
