# generated using pymatgen
data_RbSnI3
_symmetry_space_group_name_H-M   'P 1'
_cell_length_a   4.79078986
_cell_length_b   10.57289249
_cell_length_c   17.63615042
_cell_angle_alpha   90.00000000
_cell_angle_beta   90.00000000
_cell_angle_gamma   90.00000000
_symmetry_Int_Tables_number   1
_chemical_formula_structural   RbSnI3
_chemical_formula_sum   'Rb4 Sn4 I12'
_cell_volume   893.31521729
_cell_formula_units_Z   4
loop_
 _symmetry_equiv_pos_site_id
 _symmetry_equiv_pos_as_xyz
  1  'x, y, z'
loop_
 _atom_site_type_symbol
 _atom_site_label
 _atom_site_symmetry_multiplicity
 _atom_site_fract_x
 _atom_site_fract_y
 _atom_site_fract_z
 _atom_site_occupancy
  Rb  Rb0  1  0.250000  0.584448  0.827770  1
  Rb  Rb1  1  0.250000  0.084448  0.672230  1
  Rb  Rb2  1  0.750000  0.415552  0.172230  1
  Rb  Rb3  1  0.750000  0.915552  0.327770  1
  Sn  Sn4  1  0.750000  0.162203  0.939841  1
  Sn  Sn5  1  0.250000  0.337797  0.439841  1
  Sn  Sn6  1  0.250000  0.837797  0.060159  1
  Sn  Sn7  1  0.750000  0.662203  0.560159  1
  I  I8  1  0.250000  0.699733  0.211255  1
  I  I9  1  0.250000  0.476356  0.615253  1
  I  I10  1  0.750000  0.523644  0.384747  1
  I  I11  1  0.250000  0.976356  0.884747  1
  I  I12  1  0.750000  0.162767  0.504092  1
  I  I13  1  0.250000  0.837233  0.495908  1
  I  I14  1  0.750000  0.662767  0.995908  1
  I  I15  1  0.250000  0.337233  0.004092  1
  I  I16  1  0.750000  0.300267  0.788745  1
  I  I17  1  0.250000  0.199733  0.288745  1
  I  I18  1  0.750000  0.800267  0.711255  1
  I  I19  1  0.750000  0.023644  0.115253  1
