# generated using pymatgen
data_UGeS
_symmetry_space_group_name_H-M   'P 1'
_cell_length_a   3.81546267
_cell_length_b   3.81546267
_cell_length_c   8.16665376
_cell_angle_alpha   90.00000000
_cell_angle_beta   90.00000000
_cell_angle_gamma   90.00000000
_symmetry_Int_Tables_number   1
_chemical_formula_structural   UGeS
_chemical_formula_sum   'U2 Ge2 S2'
_cell_volume   118.88814776
_cell_formula_units_Z   2
loop_
 _symmetry_equiv_pos_site_id
 _symmetry_equiv_pos_as_xyz
  1  'x, y, z'
loop_
 _atom_site_type_symbol
 _atom_site_label
 _atom_site_symmetry_multiplicity
 _atom_site_fract_x
 _atom_site_fract_y
 _atom_site_fract_z
 _atom_site_occupancy
  U  U0  1  0.000000  0.500000  0.699285  1
  U  U1  1  0.500000  0.000000  0.300715  1
  Ge  Ge2  1  0.000000  0.000000  0.000000  1
  Ge  Ge3  1  0.500000  0.500000  0.000000  1
  S  S4  1  0.000000  0.500000  0.358617  1
  S  S5  1  0.500000  0.000000  0.641383  1
