# generated using pymatgen
data_SrMg2
_symmetry_space_group_name_H-M   'P 1'
_cell_length_a   6.47636662
_cell_length_b   6.47636662
_cell_length_c   10.36479005
_cell_angle_alpha   90.00000000
_cell_angle_beta   90.00000000
_cell_angle_gamma   120.00000000
_symmetry_Int_Tables_number   1
_chemical_formula_structural   SrMg2
_chemical_formula_sum   'Sr4 Mg8'
_cell_volume   376.49047409
_cell_formula_units_Z   4
loop_
 _symmetry_equiv_pos_site_id
 _symmetry_equiv_pos_as_xyz
  1  'x, y, z'
loop_
 _atom_site_type_symbol
 _atom_site_label
 _atom_site_symmetry_multiplicity
 _atom_site_fract_x
 _atom_site_fract_y
 _atom_site_fract_z
 _atom_site_occupancy
  Sr  Sr0  1  0.333333  0.666667  0.939493  1
  Sr  Sr1  1  0.333333  0.666667  0.560507  1
  Sr  Sr2  1  0.666667  0.333333  0.060507  1
  Sr  Sr3  1  0.666667  0.333333  0.439493  1
  Mg  Mg4  1  0.834107  0.165893  0.750000  1
  Mg  Mg5  1  0.668214  0.834107  0.250000  1
  Mg  Mg6  1  0.331786  0.165893  0.750000  1
  Mg  Mg7  1  0.834107  0.668214  0.750000  1
  Mg  Mg8  1  0.165893  0.331786  0.250000  1
  Mg  Mg9  1  0.165893  0.834107  0.250000  1
  Mg  Mg10  1  0.000000  0.000000  0.500000  1
  Mg  Mg11  1  0.000000  0.000000  0.000000  1
