# generated using pymatgen
data_Na3SiSe4
_symmetry_space_group_name_H-M   'P 1'
_cell_length_a   7.38454344
_cell_length_b   17.29445400
_cell_length_c   13.91295666
_cell_angle_alpha   90.00000000
_cell_angle_beta   99.07362837
_cell_angle_gamma   90.00000000
_symmetry_Int_Tables_number   1
_chemical_formula_structural   Na3SiSe4
_chemical_formula_sum   'Na24 Si8 Se32'
_cell_volume   1754.61203413
_cell_formula_units_Z   8
loop_
 _symmetry_equiv_pos_site_id
 _symmetry_equiv_pos_as_xyz
  1  'x, y, z'
loop_
 _atom_site_type_symbol
 _atom_site_label
 _atom_site_symmetry_multiplicity
 _atom_site_fract_x
 _atom_site_fract_y
 _atom_site_fract_z
 _atom_site_occupancy
  Na  Na0  1  0.051061  0.948257  0.716811  1
  Na  Na1  1  0.948939  0.448257  0.783189  1
  Na  Na2  1  0.948939  0.051743  0.283189  1
  Na  Na3  1  0.051061  0.551743  0.216811  1
  Na  Na4  1  0.576844  0.673356  0.233872  1
  Na  Na5  1  0.423156  0.173356  0.266128  1
  Na  Na6  1  0.423156  0.326644  0.766128  1
  Na  Na7  1  0.576844  0.826644  0.733872  1
  Na  Na8  1  0.982586  0.699885  0.714399  1
  Na  Na9  1  0.017414  0.199885  0.785601  1
  Na  Na10  1  0.017414  0.300115  0.285601  1
  Na  Na11  1  0.982586  0.800115  0.214399  1
  Na  Na12  1  0.418844  0.608971  0.978650  1
  Na  Na13  1  0.581156  0.108971  0.521350  1
  Na  Na14  1  0.581156  0.391029  0.021350  1
  Na  Na15  1  0.418844  0.891029  0.478650  1
  Na  Na16  1  0.295774  0.671275  0.492472  1
  Na  Na17  1  0.751425  0.933168  0.996851  1
  Na  Na18  1  0.751425  0.566832  0.496851  1
  Na  Na19  1  0.248575  0.066832  0.003149  1
  Na  Na20  1  0.295774  0.828725  0.992472  1
  Na  Na21  1  0.704226  0.328725  0.507528  1
  Na  Na22  1  0.704226  0.171275  0.007528  1
  Na  Na23  1  0.248575  0.433168  0.503149  1
  Si  Si24  1  0.600985  0.025696  0.768929  1
  Si  Si25  1  0.399015  0.525696  0.731071  1
  Si  Si26  1  0.399015  0.974304  0.231071  1
  Si  Si27  1  0.600985  0.474304  0.268929  1
  Si  Si28  1  0.885147  0.776459  0.473096  1
  Si  Si29  1  0.114853  0.276459  0.026904  1
  Si  Si30  1  0.114853  0.223541  0.526904  1
  Si  Si31  1  0.885147  0.723541  0.973096  1
  Se  Se32  1  0.672232  0.966365  0.635407  1
  Se  Se33  1  0.197729  0.107411  0.612178  1
  Se  Se34  1  0.197729  0.392589  0.112178  1
  Se  Se35  1  0.802271  0.892589  0.387822  1
  Se  Se36  1  0.851896  0.066632  0.871937  1
  Se  Se37  1  0.148104  0.566632  0.628063  1
  Se  Se38  1  0.148104  0.933368  0.128063  1
  Se  Se39  1  0.851896  0.433368  0.371937  1
  Se  Se40  1  0.665089  0.733261  0.556710  1
  Se  Se41  1  0.334911  0.233261  0.943290  1
  Se  Se42  1  0.334911  0.266739  0.443290  1
  Se  Se43  1  0.665089  0.766739  0.056710  1
  Se  Se44  1  0.474841  0.147940  0.718728  1
  Se  Se45  1  0.525159  0.647940  0.781272  1
  Se  Se46  1  0.525159  0.852060  0.281272  1
  Se  Se47  1  0.474841  0.352060  0.218728  1
  Se  Se48  1  0.802271  0.607411  0.887822  1
  Se  Se49  1  0.327768  0.466365  0.864593  1
  Se  Se50  1  0.327768  0.033635  0.364593  1
  Se  Se51  1  0.672232  0.533635  0.135407  1
  Se  Se52  1  0.942641  0.814691  0.863871  1
  Se  Se53  1  0.057359  0.314691  0.636129  1
  Se  Se54  1  0.057359  0.185309  0.136129  1
  Se  Se55  1  0.942641  0.685309  0.363871  1
  Se  Se56  1  0.136821  0.818604  0.575438  1
  Se  Se57  1  0.863179  0.318604  0.924562  1
  Se  Se58  1  0.863179  0.181396  0.424562  1
  Se  Se59  1  0.136821  0.681396  0.075438  1
  Se  Se60  1  0.596297  0.456756  0.653807  1
  Se  Se61  1  0.403703  0.956756  0.846193  1
  Se  Se62  1  0.403703  0.543244  0.346193  1
  Se  Se63  1  0.596297  0.043244  0.153807  1
