# generated using pymatgen
data_Pr2MgNi2
_symmetry_space_group_name_H-M   'P 1'
_cell_length_a   7.54792770
_cell_length_b   7.54792770
_cell_length_c   3.90290721
_cell_angle_alpha   90.00000000
_cell_angle_beta   90.00000000
_cell_angle_gamma   90.00000000
_symmetry_Int_Tables_number   1
_chemical_formula_structural   Pr2MgNi2
_chemical_formula_sum   'Pr4 Mg2 Ni4'
_cell_volume   222.35335628
_cell_formula_units_Z   2
loop_
 _symmetry_equiv_pos_site_id
 _symmetry_equiv_pos_as_xyz
  1  'x, y, z'
loop_
 _atom_site_type_symbol
 _atom_site_label
 _atom_site_symmetry_multiplicity
 _atom_site_fract_x
 _atom_site_fract_y
 _atom_site_fract_z
 _atom_site_occupancy
  Pr  Pr0  1  0.324957  0.824957  0.500000  1
  Pr  Pr1  1  0.824957  0.675043  0.500000  1
  Pr  Pr2  1  0.175043  0.324957  0.500000  1
  Pr  Pr3  1  0.675043  0.175043  0.500000  1
  Mg  Mg4  1  0.500000  0.500000  0.000000  1
  Mg  Mg5  1  0.000000  0.000000  0.000000  1
  Ni  Ni6  1  0.118737  0.618737  0.000000  1
  Ni  Ni7  1  0.618737  0.881263  0.000000  1
  Ni  Ni8  1  0.881263  0.381263  0.000000  1
  Ni  Ni9  1  0.381263  0.118737  0.000000  1
