# generated using pymatgen
data_K2CaH2S2O9
_symmetry_space_group_name_H-M   'P 1'
_cell_length_a   6.33497787
_cell_length_b   7.21284788
_cell_length_c   9.92538562
_cell_angle_alpha   90.00000000
_cell_angle_beta   103.61081715
_cell_angle_gamma   90.00000000
_symmetry_Int_Tables_number   1
_chemical_formula_structural   K2CaH2S2O9
_chemical_formula_sum   'K4 Ca2 H4 S4 O18'
_cell_volume   440.78647343
_cell_formula_units_Z   2
loop_
 _symmetry_equiv_pos_site_id
 _symmetry_equiv_pos_as_xyz
  1  'x, y, z'
loop_
 _atom_site_type_symbol
 _atom_site_label
 _atom_site_symmetry_multiplicity
 _atom_site_fract_x
 _atom_site_fract_y
 _atom_site_fract_z
 _atom_site_occupancy
  K  K0  1  0.315378  0.505011  0.665607  1
  K  K1  1  0.684622  0.005011  0.334393  1
  K  K2  1  0.684622  0.494989  0.334393  1
  K  K3  1  0.315378  0.994989  0.665607  1
  Ca  Ca4  1  0.164765  0.750000  0.031723  1
  Ca  Ca5  1  0.835235  0.250000  0.968277  1
  H  H6  1  0.089682  0.139239  0.248508  1
  H  H7  1  0.910318  0.639239  0.751492  1
  H  H8  1  0.910318  0.860761  0.751492  1
  H  H9  1  0.089682  0.360761  0.248508  1
  S  S10  1  0.219300  0.750000  0.359255  1
  S  S11  1  0.780700  0.250000  0.640745  1
  S  S12  1  0.659702  0.750000  0.008089  1
  S  S13  1  0.340298  0.250000  0.991911  1
  O  O14  1  0.003962  0.750000  0.777239  1
  O  O15  1  0.996038  0.250000  0.222761  1
  O  O16  1  0.195596  0.415647  0.982771  1
  O  O17  1  0.804404  0.915647  0.017229  1
  O  O18  1  0.804404  0.584353  0.017229  1
  O  O19  1  0.195596  0.084353  0.982771  1
  O  O20  1  0.514725  0.250000  0.120637  1
  O  O21  1  0.485275  0.750000  0.879363  1
  O  O22  1  0.569478  0.250000  0.535015  1
  O  O23  1  0.430522  0.750000  0.464985  1
  O  O24  1  0.963094  0.250000  0.569829  1
  O  O25  1  0.036906  0.750000  0.430171  1
  O  O26  1  0.791986  0.083788  0.733303  1
  O  O27  1  0.208014  0.583788  0.266697  1
  O  O28  1  0.208014  0.916212  0.266697  1
  O  O29  1  0.791986  0.416212  0.733303  1
  O  O30  1  0.445959  0.250000  0.871845  1
  O  O31  1  0.554041  0.750000  0.128155  1
