# generated using pymatgen
data_FeSb6(Pb2S7)2
_symmetry_space_group_name_H-M   'P 1'
_cell_length_a   4.04394283
_cell_length_b   19.48387442
_cell_length_c   15.97091487
_cell_angle_alpha   90.00000000
_cell_angle_beta   92.23017413
_cell_angle_gamma   90.00000000
_symmetry_Int_Tables_number   1
_chemical_formula_structural   FeSb6(Pb2S7)2
_chemical_formula_sum   'Fe2 Sb12 Pb8 S28'
_cell_volume   1257.42198035
_cell_formula_units_Z   2
loop_
 _symmetry_equiv_pos_site_id
 _symmetry_equiv_pos_as_xyz
  1  'x, y, z'
loop_
 _atom_site_type_symbol
 _atom_site_label
 _atom_site_symmetry_multiplicity
 _atom_site_fract_x
 _atom_site_fract_y
 _atom_site_fract_z
 _atom_site_occupancy
  Fe  Fe0  1  0.000000  0.000000  0.000000  1
  Fe  Fe1  1  0.000000  0.500000  0.500000  1
  Sb  Sb2  1  0.592502  0.440129  0.682855  1
  Sb  Sb3  1  0.373484  0.446291  0.103863  1
  Sb  Sb4  1  0.626516  0.946291  0.396137  1
  Sb  Sb5  1  0.407498  0.940129  0.817145  1
  Sb  Sb6  1  0.592502  0.059871  0.182855  1
  Sb  Sb7  1  0.373484  0.053709  0.603863  1
  Sb  Sb8  1  0.407498  0.559871  0.317145  1
  Sb  Sb9  1  0.626516  0.553709  0.896137  1
  Sb  Sb10  1  0.627787  0.660522  0.127522  1
  Sb  Sb11  1  0.372213  0.160522  0.372478  1
  Sb  Sb12  1  0.372213  0.339478  0.872478  1
  Sb  Sb13  1  0.627787  0.839478  0.627522  1
  Pb  Pb14  1  0.037492  0.863160  0.182594  1
  Pb  Pb15  1  0.962508  0.363160  0.317406  1
  Pb  Pb16  1  0.962508  0.136840  0.817406  1
  Pb  Pb17  1  0.037492  0.636840  0.682594  1
  Pb  Pb18  1  0.064735  0.757581  0.425041  1
  Pb  Pb19  1  0.935265  0.257581  0.074959  1
  Pb  Pb20  1  0.935265  0.242419  0.574959  1
  Pb  Pb21  1  0.064735  0.742419  0.925041  1
  S  S22  1  0.106802  0.798548  0.720238  1
  S  S23  1  0.031727  0.507088  0.784903  1
  S  S24  1  0.968273  0.007088  0.715097  1
  S  S25  1  0.968273  0.492912  0.215097  1
  S  S26  1  0.031727  0.992912  0.284903  1
  S  S27  1  0.062769  0.895771  0.500083  1
  S  S28  1  0.937231  0.395771  0.999917  1
  S  S29  1  0.937231  0.104229  0.499917  1
  S  S30  1  0.062769  0.604229  0.000083  1
  S  S31  1  0.584046  0.729987  0.550037  1
  S  S32  1  0.984471  0.600636  0.417786  1
  S  S33  1  0.015529  0.100636  0.082214  1
  S  S34  1  0.015529  0.399364  0.582214  1
  S  S35  1  0.984471  0.899364  0.917786  1
  S  S36  1  0.525560  0.955973  0.092949  1
  S  S37  1  0.474440  0.455973  0.407051  1
  S  S38  1  0.474440  0.044027  0.907051  1
  S  S39  1  0.525560  0.544027  0.592949  1
  S  S40  1  0.557573  0.838154  0.315736  1
  S  S41  1  0.442427  0.338154  0.184264  1
  S  S42  1  0.442427  0.161846  0.684264  1
  S  S43  1  0.557573  0.661846  0.815736  1
  S  S44  1  0.106802  0.701452  0.220238  1
  S  S45  1  0.893198  0.201452  0.279762  1
  S  S46  1  0.893198  0.298548  0.779762  1
  S  S47  1  0.415954  0.270013  0.449963  1
  S  S48  1  0.584046  0.770013  0.050037  1
  S  S49  1  0.415954  0.229987  0.949963  1
