# generated using pymatgen
data_Nb3B3C
_symmetry_space_group_name_H-M   'P 1'
_cell_length_a   14.54130070
_cell_length_b   14.54130070
_cell_length_c   3.14221547
_cell_angle_alpha   90.00000000
_cell_angle_beta   90.00000000
_cell_angle_gamma   167.04405664
_symmetry_Int_Tables_number   1
_chemical_formula_structural   Nb3B3C
_chemical_formula_sum   'Nb6 B6 C2'
_cell_volume   148.96405809
_cell_formula_units_Z   2
loop_
 _symmetry_equiv_pos_site_id
 _symmetry_equiv_pos_as_xyz
  1  'x, y, z'
loop_
 _atom_site_type_symbol
 _atom_site_label
 _atom_site_symmetry_multiplicity
 _atom_site_fract_x
 _atom_site_fract_y
 _atom_site_fract_z
 _atom_site_occupancy
  Nb  Nb0  1  0.546763  0.453237  0.250000  1
  Nb  Nb1  1  0.453237  0.546763  0.750000  1
  Nb  Nb2  1  0.212583  0.787417  0.250000  1
  Nb  Nb3  1  0.787417  0.212583  0.750000  1
  Nb  Nb4  1  0.637890  0.362110  0.750000  1
  Nb  Nb5  1  0.362110  0.637890  0.250000  1
  B  B6  1  0.984552  0.015448  0.250000  1
  B  B7  1  0.015448  0.984552  0.750000  1
  B  B8  1  0.112113  0.887887  0.250000  1
  B  B9  1  0.887887  0.112113  0.750000  1
  B  B10  1  0.920960  0.079040  0.250000  1
  B  B11  1  0.079040  0.920960  0.750000  1
  C  C12  1  0.287787  0.712213  0.250000  1
  C  C13  1  0.712213  0.287787  0.750000  1
