# generated using pymatgen
data_Er7(NiTe)2
_symmetry_space_group_name_H-M   'P 1'
_cell_length_a   9.28476222
_cell_length_b   9.28476222
_cell_length_c   9.28476222
_cell_angle_alpha   156.20050383
_cell_angle_beta   118.34962795
_cell_angle_gamma   67.05708031
_symmetry_Int_Tables_number   1
_chemical_formula_structural   Er7(NiTe)2
_chemical_formula_sum   'Er7 Ni2 Te2'
_cell_volume   282.00090292
_cell_formula_units_Z   1
loop_
 _symmetry_equiv_pos_site_id
 _symmetry_equiv_pos_as_xyz
  1  'x, y, z'
loop_
 _atom_site_type_symbol
 _atom_site_label
 _atom_site_symmetry_multiplicity
 _atom_site_fract_x
 _atom_site_fract_y
 _atom_site_fract_z
 _atom_site_occupancy
  Er  Er0  1  0.817903  0.500000  0.317903  1
  Er  Er1  1  0.754531  0.814889  0.939642  1
  Er  Er2  1  0.124752  0.185111  0.939642  1
  Er  Er3  1  0.442818  0.853524  0.589294  1
  Er  Er4  1  0.735770  0.146476  0.589294  1
  Er  Er5  1  0.369673  0.633499  0.736173  1
  Er  Er6  1  0.102674  0.366501  0.736173  1
  Ni  Ni7  1  0.509482  0.262946  0.246536  1
  Ni  Ni8  1  0.983591  0.737054  0.246536  1
  Te  Te9  1  0.083245  0.000000  0.083245  1
  Te  Te10  1  0.480921  0.500000  0.980921  1
