# generated using pymatgen
data_La(CuGe)2
_symmetry_space_group_name_H-M   'P 1'
_cell_length_a   5.92126471
_cell_length_b   5.92126471
_cell_length_c   5.92126471
_cell_angle_alpha   138.09390471
_cell_angle_beta   138.09390471
_cell_angle_gamma   60.75920960
_symmetry_Int_Tables_number   1
_chemical_formula_structural   La(CuGe)2
_chemical_formula_sum   'La1 Cu2 Ge2'
_cell_volume   91.61400197
_cell_formula_units_Z   1
loop_
 _symmetry_equiv_pos_site_id
 _symmetry_equiv_pos_as_xyz
  1  'x, y, z'
loop_
 _atom_site_type_symbol
 _atom_site_label
 _atom_site_symmetry_multiplicity
 _atom_site_fract_x
 _atom_site_fract_y
 _atom_site_fract_z
 _atom_site_occupancy
  La  La0  1  0.000000  0.000000  0.000000  1
  Cu  Cu1  1  0.250000  0.750000  0.500000  1
  Cu  Cu2  1  0.750000  0.250000  0.500000  1
  Ge  Ge3  1  0.375225  0.375225  0.000000  1
  Ge  Ge4  1  0.624775  0.624775  0.000000  1
