# generated using pymatgen
data_CrAs
_symmetry_space_group_name_H-M   'P 1'
_cell_length_a   3.56725937
_cell_length_b   5.68879141
_cell_length_c   6.28667277
_cell_angle_alpha   90.00000000
_cell_angle_beta   90.00000000
_cell_angle_gamma   90.00000000
_symmetry_Int_Tables_number   1
_chemical_formula_structural   CrAs
_chemical_formula_sum   'Cr4 As4'
_cell_volume   127.57793037
_cell_formula_units_Z   4
loop_
 _symmetry_equiv_pos_site_id
 _symmetry_equiv_pos_as_xyz
  1  'x, y, z'
loop_
 _atom_site_type_symbol
 _atom_site_label
 _atom_site_symmetry_multiplicity
 _atom_site_fract_x
 _atom_site_fract_y
 _atom_site_fract_z
 _atom_site_occupancy
  Cr  Cr0  1  0.250000  0.501724  0.716701  1
  Cr  Cr1  1  0.750000  0.498276  0.283299  1
  Cr  Cr2  1  0.250000  0.001724  0.783299  1
  Cr  Cr3  1  0.750000  0.998276  0.216701  1
  As  As4  1  0.250000  0.714951  0.079842  1
  As  As5  1  0.750000  0.285049  0.920158  1
  As  As6  1  0.250000  0.214951  0.420158  1
  As  As7  1  0.750000  0.785049  0.579842  1
