# generated using pymatgen
data_BaCN2
_symmetry_space_group_name_H-M   'P 1'
_cell_length_a   9.12135642
_cell_length_b   9.12135642
_cell_length_c   9.12135642
_cell_angle_alpha   112.73643915
_cell_angle_beta   112.73643915
_cell_angle_gamma   112.73643915
_symmetry_Int_Tables_number   1
_chemical_formula_structural   BaCN2
_chemical_formula_sum   'Ba6 C6 N12'
_cell_volume   501.32895371
_cell_formula_units_Z   6
loop_
 _symmetry_equiv_pos_site_id
 _symmetry_equiv_pos_as_xyz
  1  'x, y, z'
loop_
 _atom_site_type_symbol
 _atom_site_label
 _atom_site_symmetry_multiplicity
 _atom_site_fract_x
 _atom_site_fract_y
 _atom_site_fract_z
 _atom_site_occupancy
  Ba  Ba0  1  0.960142  0.539858  0.750000  1
  Ba  Ba1  1  0.750000  0.960142  0.539858  1
  Ba  Ba2  1  0.539858  0.750000  0.960142  1
  Ba  Ba3  1  0.039858  0.460142  0.250000  1
  Ba  Ba4  1  0.250000  0.039858  0.460142  1
  Ba  Ba5  1  0.460142  0.250000  0.039858  1
  C  C6  1  0.466281  0.033719  0.250000  1
  C  C7  1  0.533719  0.966281  0.750000  1
  C  C8  1  0.750000  0.533719  0.966281  1
  C  C9  1  0.966281  0.750000  0.533719  1
  C  C10  1  0.250000  0.466281  0.033719  1
  C  C11  1  0.033719  0.250000  0.466281  1
  N  N12  1  0.917690  0.059988  0.348924  1
  N  N13  1  0.059988  0.348924  0.917690  1
  N  N14  1  0.582310  0.151076  0.440012  1
  N  N15  1  0.348924  0.917690  0.059988  1
  N  N16  1  0.151076  0.440012  0.582310  1
  N  N17  1  0.440012  0.582310  0.151076  1
  N  N18  1  0.082310  0.940012  0.651076  1
  N  N19  1  0.940012  0.651076  0.082310  1
  N  N20  1  0.651076  0.082310  0.940012  1
  N  N21  1  0.848924  0.559988  0.417690  1
  N  N22  1  0.559988  0.417690  0.848924  1
  N  N23  1  0.417690  0.848924  0.559988  1
