# generated using pymatgen
data_Sb3Rh
_symmetry_space_group_name_H-M   'P 1'
_cell_length_a   8.12489101
_cell_length_b   8.12489101
_cell_length_c   8.12489101
_cell_angle_alpha   109.47122063
_cell_angle_beta   109.47122063
_cell_angle_gamma   109.47122063
_symmetry_Int_Tables_number   1
_chemical_formula_structural   Sb3Rh
_chemical_formula_sum   'Sb12 Rh4'
_cell_volume   412.88655455
_cell_formula_units_Z   4
loop_
 _symmetry_equiv_pos_site_id
 _symmetry_equiv_pos_as_xyz
  1  'x, y, z'
loop_
 _atom_site_type_symbol
 _atom_site_label
 _atom_site_symmetry_multiplicity
 _atom_site_fract_x
 _atom_site_fract_y
 _atom_site_fract_z
 _atom_site_occupancy
  Sb  Sb0  1  0.154957  0.814693  0.659736  1
  Sb  Sb1  1  0.845043  0.185307  0.340264  1
  Sb  Sb2  1  0.845043  0.504779  0.659736  1
  Sb  Sb3  1  0.154957  0.495221  0.340264  1
  Sb  Sb4  1  0.814693  0.659736  0.154957  1
  Sb  Sb5  1  0.185307  0.340264  0.845043  1
  Sb  Sb6  1  0.504779  0.659736  0.845043  1
  Sb  Sb7  1  0.495221  0.340264  0.154957  1
  Sb  Sb8  1  0.659736  0.154957  0.814693  1
  Sb  Sb9  1  0.340264  0.845043  0.185307  1
  Sb  Sb10  1  0.659736  0.845043  0.504779  1
  Sb  Sb11  1  0.340264  0.154957  0.495221  1
  Rh  Rh12  1  0.000000  0.000000  0.500000  1
  Rh  Rh13  1  0.500000  0.000000  1.000000  1
  Rh  Rh14  1  0.000000  0.500000  0.000000  1
  Rh  Rh15  1  0.500000  0.500000  0.500000  1
