# generated using pymatgen
data_Na2ZnO2
_symmetry_space_group_name_H-M   'P 1'
_cell_length_a   5.79402134
_cell_length_b   6.04124910
_cell_length_c   7.82476361
_cell_angle_alpha   90.00000000
_cell_angle_beta   94.87361299
_cell_angle_gamma   90.00000000
_symmetry_Int_Tables_number   1
_chemical_formula_structural   Na2ZnO2
_chemical_formula_sum   'Na8 Zn4 O8'
_cell_volume   272.90094250
_cell_formula_units_Z   4
loop_
 _symmetry_equiv_pos_site_id
 _symmetry_equiv_pos_as_xyz
  1  'x, y, z'
loop_
 _atom_site_type_symbol
 _atom_site_label
 _atom_site_symmetry_multiplicity
 _atom_site_fract_x
 _atom_site_fract_y
 _atom_site_fract_z
 _atom_site_occupancy
  Na  Na0  1  0.008756  0.742063  0.027760  1
  Na  Na1  1  0.491244  0.242063  0.972240  1
  Na  Na2  1  0.991244  0.257937  0.972240  1
  Na  Na3  1  0.508756  0.757937  0.027760  1
  Na  Na4  1  0.428703  0.355125  0.324331  1
  Na  Na5  1  0.071297  0.855125  0.675669  1
  Na  Na6  1  0.571297  0.644875  0.675669  1
  Na  Na7  1  0.928703  0.144875  0.324331  1
  Zn  Zn8  1  0.855331  0.606387  0.364476  1
  Zn  Zn9  1  0.644669  0.106387  0.635524  1
  Zn  Zn10  1  0.144669  0.393613  0.635524  1
  Zn  Zn11  1  0.355331  0.893613  0.364476  1
  O  O12  1  0.251405  0.035059  0.148457  1
  O  O13  1  0.248595  0.535059  0.851543  1
  O  O14  1  0.748595  0.964941  0.851543  1
  O  O15  1  0.751405  0.464941  0.148457  1
  O  O16  1  0.697701  0.877705  0.437240  1
  O  O17  1  0.802299  0.377705  0.562760  1
  O  O18  1  0.302299  0.122295  0.562760  1
  O  O19  1  0.197701  0.622295  0.437240  1
