# generated using pymatgen
data_TmCl3
_symmetry_space_group_name_H-M   'P 1'
_cell_length_a   7.13790576
_cell_length_b   7.13790576
_cell_length_c   7.13790576
_cell_angle_alpha   55.59854535
_cell_angle_beta   55.59854535
_cell_angle_gamma   55.59854535
_symmetry_Int_Tables_number   1
_chemical_formula_structural   TmCl3
_chemical_formula_sum   'Tm2 Cl6'
_cell_volume   230.88783953
_cell_formula_units_Z   2
loop_
 _symmetry_equiv_pos_site_id
 _symmetry_equiv_pos_as_xyz
  1  'x, y, z'
loop_
 _atom_site_type_symbol
 _atom_site_label
 _atom_site_symmetry_multiplicity
 _atom_site_fract_x
 _atom_site_fract_y
 _atom_site_fract_z
 _atom_site_occupancy
  Tm  Tm0  1  0.500000  0.500000  0.500000  1
  Tm  Tm1  1  0.000000  0.000000  0.000000  1
  Cl  Cl2  1  0.250000  0.892877  0.607123  1
  Cl  Cl3  1  0.892877  0.607123  0.250000  1
  Cl  Cl4  1  0.392877  0.750000  0.107123  1
  Cl  Cl5  1  0.107123  0.392877  0.750000  1
  Cl  Cl6  1  0.750000  0.107123  0.392877  1
  Cl  Cl7  1  0.607123  0.250000  0.892877  1
