# generated using pymatgen
data_Rb5Zr4F21
_symmetry_space_group_name_H-M   'P 1'
_cell_length_a   8.02553474
_cell_length_b   11.45095330
_cell_length_c   11.75179593
_cell_angle_alpha   90.00000000
_cell_angle_beta   98.24456358
_cell_angle_gamma   90.00000000
_symmetry_Int_Tables_number   1
_chemical_formula_structural   Rb5Zr4F21
_chemical_formula_sum   'Rb10 Zr8 F42'
_cell_volume   1068.82862019
_cell_formula_units_Z   2
loop_
 _symmetry_equiv_pos_site_id
 _symmetry_equiv_pos_as_xyz
  1  'x, y, z'
loop_
 _atom_site_type_symbol
 _atom_site_label
 _atom_site_symmetry_multiplicity
 _atom_site_fract_x
 _atom_site_fract_y
 _atom_site_fract_z
 _atom_site_occupancy
  Rb  Rb0  1  0.684732  0.521497  0.885584  1
  Rb  Rb1  1  0.315268  0.021497  0.114416  1
  Rb  Rb2  1  0.975904  0.489911  0.255706  1
  Rb  Rb3  1  0.024096  0.989911  0.744294  1
  Rb  Rb4  1  0.833883  0.826479  0.095248  1
  Rb  Rb5  1  0.166117  0.326479  0.904752  1
  Rb  Rb6  1  0.806564  0.640146  0.544229  1
  Rb  Rb7  1  0.193436  0.140146  0.455771  1
  Rb  Rb8  1  0.717780  0.975872  0.391654  1
  Rb  Rb9  1  0.282220  0.475872  0.608346  1
  Zr  Zr10  1  0.534270  0.841908  0.723690  1
  Zr  Zr11  1  0.465730  0.341908  0.276310  1
  Zr  Zr12  1  0.174320  0.694663  0.907522  1
  Zr  Zr13  1  0.825680  0.194663  0.092478  1
  Zr  Zr14  1  0.502425  0.660082  0.228501  1
  Zr  Zr15  1  0.497575  0.160082  0.771499  1
  Zr  Zr16  1  0.216114  0.801791  0.406444  1
  Zr  Zr17  1  0.783886  0.301791  0.593556  1
  F  F18  1  0.058740  0.896079  0.287691  1
  F  F19  1  0.941260  0.396079  0.712309  1
  F  F20  1  0.376359  0.936255  0.397622  1
  F  F21  1  0.623641  0.436255  0.602378  1
  F  F22  1  0.052330  0.877495  0.502773  1
  F  F23  1  0.947670  0.377495  0.497227  1
  F  F24  1  0.519943  0.832208  0.190057  1
  F  F25  1  0.480057  0.332208  0.809943  1
  F  F26  1  0.113260  0.643621  0.440189  1
  F  F27  1  0.886740  0.143621  0.559811  1
  F  F28  1  0.565360  0.668062  0.698383  1
  F  F29  1  0.434640  0.168062  0.301617  1
  F  F30  1  0.456295  0.696592  0.401430  1
  F  F31  1  0.543705  0.196592  0.598570  1
  F  F32  1  0.671643  0.793811  0.873797  1
  F  F33  1  0.655208  0.596292  0.117732  1
  F  F34  1  0.704382  0.870078  0.616994  1
  F  F35  1  0.295618  0.370078  0.383006  1
  F  F36  1  0.389305  0.997579  0.676229  1
  F  F37  1  0.610695  0.497579  0.323771  1
  F  F38  1  0.986879  0.106547  0.009867  1
  F  F39  1  0.013121  0.606547  0.990133  1
  F  F40  1  0.993282  0.205810  0.235981  1
  F  F41  1  0.006718  0.705810  0.764019  1
  F  F42  1  0.653213  0.004401  0.801158  1
  F  F43  1  0.346787  0.504401  0.198842  1
  F  F44  1  0.896264  0.351259  0.033558  1
  F  F45  1  0.103736  0.851259  0.966442  1
  F  F46  1  0.763403  0.220684  0.758524  1
  F  F47  1  0.236597  0.720684  0.241476  1
  F  F48  1  0.714553  0.054863  0.155564  1
  F  F49  1  0.285447  0.554863  0.844436  1
  F  F50  1  0.670380  0.306717  0.180363  1
  F  F51  1  0.329620  0.806717  0.819637  1
  F  F52  1  0.653142  0.293862  0.418839  1
  F  F53  1  0.346858  0.793862  0.581161  1
  F  F54  1  0.260394  0.206185  0.689327  1
  F  F55  1  0.739606  0.706185  0.310673  1
  F  F56  1  0.638062  0.182249  0.952232  1
  F  F57  1  0.361938  0.682249  0.047768  1
  F  F58  1  0.328357  0.293811  0.126203  1
  F  F59  1  0.344792  0.096292  0.882268  1
