# generated using pymatgen
data_Na4Fe2(PO4)3
_symmetry_space_group_name_H-M   'P 1'
_cell_length_a   8.85728778
_cell_length_b   8.85728778
_cell_length_c   8.85728778
_cell_angle_alpha   61.52862555
_cell_angle_beta   61.52862555
_cell_angle_gamma   61.52862555
_symmetry_Int_Tables_number   1
_chemical_formula_structural   Na4Fe2(PO4)3
_chemical_formula_sum   'Na8 Fe4 P6 O24'
_cell_volume   508.20234305
_cell_formula_units_Z   2
loop_
 _symmetry_equiv_pos_site_id
 _symmetry_equiv_pos_as_xyz
  1  'x, y, z'
loop_
 _atom_site_type_symbol
 _atom_site_label
 _atom_site_symmetry_multiplicity
 _atom_site_fract_x
 _atom_site_fract_y
 _atom_site_fract_z
 _atom_site_occupancy
  Na  Na0  1  0.750000  0.385058  0.114942  1
  Na  Na1  1  0.385058  0.114942  0.750000  1
  Na  Na2  1  0.114942  0.750000  0.385058  1
  Na  Na3  1  0.250000  0.614942  0.885058  1
  Na  Na4  1  0.614942  0.885058  0.250000  1
  Na  Na5  1  0.885058  0.250000  0.614942  1
  Na  Na6  1  0.500000  0.500000  0.500000  1
  Na  Na7  1  0.000000  0.000000  0.000000  1
  Fe  Fe8  1  0.351092  0.351092  0.351092  1
  Fe  Fe9  1  0.148908  0.148908  0.148908  1
  Fe  Fe10  1  0.648908  0.648908  0.648908  1
  Fe  Fe11  1  0.851092  0.851092  0.851092  1
  P  P12  1  0.750000  0.047612  0.452388  1
  P  P13  1  0.047612  0.452388  0.750000  1
  P  P14  1  0.452388  0.750000  0.047612  1
  P  P15  1  0.250000  0.952388  0.547612  1
  P  P16  1  0.952388  0.547612  0.250000  1
  P  P17  1  0.547612  0.250000  0.952388  1
  O  O18  1  0.587951  0.227951  0.433487  1
  O  O19  1  0.227951  0.433487  0.587951  1
  O  O20  1  0.433487  0.587951  0.227951  1
  O  O21  1  0.272049  0.912049  0.066513  1
  O  O22  1  0.912049  0.066513  0.272049  1
  O  O23  1  0.066513  0.272049  0.912049  1
  O  O24  1  0.412049  0.772049  0.566513  1
  O  O25  1  0.772049  0.566513  0.412049  1
  O  O26  1  0.566513  0.412049  0.772049  1
  O  O27  1  0.727951  0.087951  0.933487  1
  O  O28  1  0.087951  0.933487  0.727951  1
  O  O29  1  0.933487  0.727951  0.087951  1
  O  O30  1  0.296871  0.115041  0.515334  1
  O  O31  1  0.115041  0.515334  0.296871  1
  O  O32  1  0.515334  0.296871  0.115041  1
  O  O33  1  0.384959  0.203129  0.984666  1
  O  O34  1  0.203129  0.984666  0.384959  1
  O  O35  1  0.984666  0.384959  0.203129  1
  O  O36  1  0.015334  0.615041  0.796871  1
  O  O37  1  0.796871  0.015334  0.615041  1
  O  O38  1  0.615041  0.796871  0.015334  1
  O  O39  1  0.484666  0.703129  0.884959  1
  O  O40  1  0.884959  0.484666  0.703129  1
  O  O41  1  0.703129  0.884959  0.484666  1
