# generated using pymatgen
data_MnSiNi
_symmetry_space_group_name_H-M   'P 1'
_cell_length_a   3.56548211
_cell_length_b   5.83803155
_cell_length_c   6.89251912
_cell_angle_alpha   90.00000000
_cell_angle_beta   90.00000000
_cell_angle_gamma   90.00000000
_symmetry_Int_Tables_number   1
_chemical_formula_structural   MnSiNi
_chemical_formula_sum   'Mn4 Si4 Ni4'
_cell_volume   143.47052215
_cell_formula_units_Z   4
loop_
 _symmetry_equiv_pos_site_id
 _symmetry_equiv_pos_as_xyz
  1  'x, y, z'
loop_
 _atom_site_type_symbol
 _atom_site_label
 _atom_site_symmetry_multiplicity
 _atom_site_fract_x
 _atom_site_fract_y
 _atom_site_fract_z
 _atom_site_occupancy
  Mn  Mn0  1  0.750000  0.468433  0.326955  1
  Mn  Mn1  1  0.250000  0.031567  0.826955  1
  Mn  Mn2  1  0.750000  0.968433  0.173045  1
  Mn  Mn3  1  0.250000  0.531567  0.673045  1
  Si  Si4  1  0.250000  0.257797  0.129189  1
  Si  Si5  1  0.250000  0.757797  0.370811  1
  Si  Si6  1  0.750000  0.742203  0.870811  1
  Si  Si7  1  0.750000  0.242203  0.629189  1
  Ni  Ni8  1  0.250000  0.643410  0.058615  1
  Ni  Ni9  1  0.250000  0.143410  0.441385  1
  Ni  Ni10  1  0.750000  0.856590  0.558615  1
  Ni  Ni11  1  0.750000  0.356590  0.941385  1
