# generated using pymatgen
data_ErGeIr
_symmetry_space_group_name_H-M   'P 1'
_cell_length_a   4.29707365
_cell_length_b   6.82896660
_cell_length_c   7.60653268
_cell_angle_alpha   90.00000000
_cell_angle_beta   90.00000000
_cell_angle_gamma   90.00000000
_symmetry_Int_Tables_number   1
_chemical_formula_structural   ErGeIr
_chemical_formula_sum   'Er4 Ge4 Ir4'
_cell_volume   223.21044920
_cell_formula_units_Z   4
loop_
 _symmetry_equiv_pos_site_id
 _symmetry_equiv_pos_as_xyz
  1  'x, y, z'
loop_
 _atom_site_type_symbol
 _atom_site_label
 _atom_site_symmetry_multiplicity
 _atom_site_fract_x
 _atom_site_fract_y
 _atom_site_fract_z
 _atom_site_occupancy
  Er  Er0  1  0.750000  0.494582  0.808203  1
  Er  Er1  1  0.250000  0.005418  0.308203  1
  Er  Er2  1  0.750000  0.994582  0.691797  1
  Er  Er3  1  0.250000  0.505418  0.191797  1
  Ge  Ge4  1  0.250000  0.790167  0.888025  1
  Ge  Ge5  1  0.250000  0.290167  0.611975  1
  Ge  Ge6  1  0.750000  0.209833  0.111975  1
  Ge  Ge7  1  0.750000  0.709833  0.388025  1
  Ir  Ir8  1  0.250000  0.661636  0.563987  1
  Ir  Ir9  1  0.250000  0.161636  0.936013  1
  Ir  Ir10  1  0.750000  0.838364  0.063987  1
  Ir  Ir11  1  0.750000  0.338364  0.436013  1
