# generated using pymatgen
data_SbClF10
_symmetry_space_group_name_H-M   'P 1'
_cell_length_a   5.99957549
_cell_length_b   8.37174457
_cell_length_c   15.43880508
_cell_angle_alpha   90.00000000
_cell_angle_beta   90.00000000
_cell_angle_gamma   90.00000000
_symmetry_Int_Tables_number   1
_chemical_formula_structural   SbClF10
_chemical_formula_sum   'Sb4 Cl4 F40'
_cell_volume   775.44352777
_cell_formula_units_Z   4
loop_
 _symmetry_equiv_pos_site_id
 _symmetry_equiv_pos_as_xyz
  1  'x, y, z'
loop_
 _atom_site_type_symbol
 _atom_site_label
 _atom_site_symmetry_multiplicity
 _atom_site_fract_x
 _atom_site_fract_y
 _atom_site_fract_z
 _atom_site_occupancy
  Sb  Sb0  1  0.091938  0.750000  0.642159  1
  Sb  Sb1  1  0.091938  0.250000  0.857841  1
  Sb  Sb2  1  0.908062  0.250000  0.357841  1
  Sb  Sb3  1  0.908062  0.750000  0.142159  1
  Cl  Cl4  1  0.589025  0.750000  0.839251  1
  Cl  Cl5  1  0.589025  0.250000  0.660749  1
  Cl  Cl6  1  0.410975  0.250000  0.160749  1
  Cl  Cl7  1  0.410975  0.750000  0.339251  1
  F  F8  1  0.410295  0.449928  0.156826  1
  F  F9  1  0.410295  0.550072  0.343174  1
  F  F10  1  0.589705  0.949928  0.843174  1
  F  F11  1  0.589705  0.050072  0.656826  1
  F  F12  1  0.165374  0.750000  0.221001  1
  F  F13  1  0.165374  0.250000  0.278999  1
  F  F14  1  0.834626  0.250000  0.778999  1
  F  F15  1  0.834626  0.750000  0.721001  1
  F  F16  1  0.104670  0.750000  0.045244  1
  F  F17  1  0.104670  0.250000  0.454756  1
  F  F18  1  0.895330  0.250000  0.954756  1
  F  F19  1  0.895330  0.750000  0.545244  1
  F  F20  1  0.716281  0.750000  0.245245  1
  F  F21  1  0.716281  0.250000  0.254755  1
  F  F22  1  0.283719  0.250000  0.754755  1
  F  F23  1  0.283719  0.750000  0.745245  1
  F  F24  1  0.910846  0.977091  0.146446  1
  F  F25  1  0.910846  0.022909  0.353554  1
  F  F26  1  0.089154  0.477091  0.853554  1
  F  F27  1  0.089154  0.522909  0.646446  1
  F  F28  1  0.089154  0.022909  0.853554  1
  F  F29  1  0.089154  0.977091  0.646446  1
  F  F30  1  0.910846  0.522909  0.146446  1
  F  F31  1  0.910846  0.477091  0.353554  1
  F  F32  1  0.648640  0.750000  0.071043  1
  F  F33  1  0.648640  0.250000  0.428957  1
  F  F34  1  0.351360  0.250000  0.928957  1
  F  F35  1  0.351360  0.750000  0.571043  1
  F  F36  1  0.589705  0.550072  0.843174  1
  F  F37  1  0.589705  0.449928  0.656826  1
  F  F38  1  0.410295  0.050072  0.156826  1
  F  F39  1  0.410295  0.949928  0.343174  1
  F  F40  1  0.595113  0.750000  0.413654  1
  F  F41  1  0.595113  0.250000  0.086346  1
  F  F42  1  0.404887  0.250000  0.586346  1
  F  F43  1  0.404887  0.750000  0.913654  1
  F  F44  1  0.195177  0.750000  0.399601  1
  F  F45  1  0.195177  0.250000  0.100399  1
  F  F46  1  0.804823  0.250000  0.600399  1
  F  F47  1  0.804823  0.750000  0.899601  1
