# generated using pymatgen
data_Si3(BiO3)4
_symmetry_space_group_name_H-M   'P 1'
_cell_length_a   9.03156787
_cell_length_b   9.03156787
_cell_length_c   9.03156787
_cell_angle_alpha   109.47122063
_cell_angle_beta   109.47122063
_cell_angle_gamma   109.47122063
_symmetry_Int_Tables_number   1
_chemical_formula_structural   Si3(BiO3)4
_chemical_formula_sum   'Si6 Bi8 O24'
_cell_volume   567.11033183
_cell_formula_units_Z   2
loop_
 _symmetry_equiv_pos_site_id
 _symmetry_equiv_pos_as_xyz
  1  'x, y, z'
loop_
 _atom_site_type_symbol
 _atom_site_label
 _atom_site_symmetry_multiplicity
 _atom_site_fract_x
 _atom_site_fract_y
 _atom_site_fract_z
 _atom_site_occupancy
  Si  Si0  1  0.250000  0.625000  0.375000  1
  Si  Si1  1  0.625000  0.375000  0.250000  1
  Si  Si2  1  0.375000  0.250000  0.625000  1
  Si  Si3  1  0.750000  0.875000  0.125000  1
  Si  Si4  1  0.125000  0.750000  0.875000  1
  Si  Si5  1  0.875000  0.125000  0.750000  1
  Bi  Bi6  1  0.331843  0.500000  0.000000  1
  Bi  Bi7  1  1.000000  0.331843  0.500000  1
  Bi  Bi8  1  1.000000  0.831843  0.500000  1
  Bi  Bi9  1  0.668157  0.668157  0.668157  1
  Bi  Bi10  1  0.500000  1.000000  0.831843  1
  Bi  Bi11  1  0.500000  1.000000  0.331843  1
  Bi  Bi12  1  0.831843  0.500000  1.000000  1
  Bi  Bi13  1  0.168157  0.168157  0.168157  1
  O  O14  1  0.420427  0.348529  0.190078  1
  O  O15  1  0.848529  0.920427  0.690078  1
  O  O16  1  0.928102  0.079573  0.269651  1
  O  O17  1  0.690078  0.848529  0.920427  1
  O  O18  1  0.269651  0.928102  0.079573  1
  O  O19  1  0.920427  0.690078  0.848529  1
  O  O20  1  0.769651  0.579573  0.428102  1
  O  O21  1  0.158452  0.809922  0.730349  1
  O  O22  1  0.841548  0.151471  0.571898  1
  O  O23  1  0.651471  0.341548  0.071898  1
  O  O24  1  0.079573  0.269651  0.928102  1
  O  O25  1  0.230349  0.309922  0.658452  1
  O  O26  1  0.428102  0.769651  0.579573  1
  O  O27  1  0.730349  0.158452  0.809922  1
  O  O28  1  0.579573  0.428102  0.769651  1
  O  O29  1  0.071898  0.651471  0.341548  1
  O  O30  1  0.341548  0.071898  0.651471  1
  O  O31  1  0.151471  0.571898  0.841548  1
  O  O32  1  0.348529  0.190078  0.420427  1
  O  O33  1  0.809922  0.730349  0.158452  1
  O  O34  1  0.658452  0.230349  0.309922  1
  O  O35  1  0.309922  0.658452  0.230349  1
  O  O36  1  0.190078  0.420427  0.348529  1
  O  O37  1  0.571898  0.841548  0.151471  1
