# generated using pymatgen
data_LiSn(PO3)4
_symmetry_space_group_name_H-M   'P 1'
_cell_length_a   8.38828676
_cell_length_b   9.94393159
_cell_length_c   13.16651897
_cell_angle_alpha   90.00000000
_cell_angle_beta   90.00000000
_cell_angle_gamma   90.00000000
_symmetry_Int_Tables_number   1
_chemical_formula_structural   LiSn(PO3)4
_chemical_formula_sum   'Li4 Sn4 P16 O48'
_cell_volume   1098.25291794
_cell_formula_units_Z   4
loop_
 _symmetry_equiv_pos_site_id
 _symmetry_equiv_pos_as_xyz
  1  'x, y, z'
loop_
 _atom_site_type_symbol
 _atom_site_label
 _atom_site_symmetry_multiplicity
 _atom_site_fract_x
 _atom_site_fract_y
 _atom_site_fract_z
 _atom_site_occupancy
  Li  Li0  1  0.009832  0.250000  0.000000  1
  Li  Li1  1  0.990168  0.750000  0.000000  1
  Li  Li2  1  0.490168  0.750000  0.500000  1
  Li  Li3  1  0.509832  0.250000  0.500000  1
  Sn  Sn4  1  0.381112  0.750000  0.000000  1
  Sn  Sn5  1  0.618888  0.250000  0.000000  1
  Sn  Sn6  1  0.118888  0.250000  0.500000  1
  Sn  Sn7  1  0.881112  0.750000  0.500000  1
  P  P8  1  0.169801  0.506090  0.132003  1
  P  P9  1  0.830199  0.006090  0.132003  1
  P  P10  1  0.469204  0.007046  0.159403  1
  P  P11  1  0.530796  0.507046  0.159403  1
  P  P12  1  0.030796  0.507046  0.340597  1
  P  P13  1  0.969204  0.007046  0.340597  1
  P  P14  1  0.330199  0.006090  0.367997  1
  P  P15  1  0.669801  0.506090  0.367997  1
  P  P16  1  0.330199  0.493910  0.632003  1
  P  P17  1  0.669801  0.993910  0.632003  1
  P  P18  1  0.030796  0.992954  0.659403  1
  P  P19  1  0.969204  0.492954  0.659403  1
  P  P20  1  0.469204  0.492954  0.840597  1
  P  P21  1  0.530796  0.992954  0.840597  1
  P  P22  1  0.169801  0.993910  0.867997  1
  P  P23  1  0.830199  0.493910  0.867997  1
  O  O24  1  0.176163  0.628712  0.062133  1
  O  O25  1  0.823837  0.128712  0.062133  1
  O  O26  1  0.446305  0.116894  0.081160  1
  O  O27  1  0.553695  0.616894  0.081160  1
  O  O28  1  0.097580  0.379722  0.095126  1
  O  O29  1  0.902420  0.879722  0.095126  1
  O  O30  1  0.381087  0.877063  0.139849  1
  O  O31  1  0.618913  0.377063  0.139849  1
  O  O32  1  0.345747  0.475860  0.176467  1
  O  O33  1  0.654253  0.975860  0.176467  1
  O  O34  1  0.081834  0.565104  0.232158  1
  O  O35  1  0.918166  0.065104  0.232158  1
  O  O36  1  0.418166  0.065104  0.267842  1
  O  O37  1  0.581834  0.565104  0.267842  1
  O  O38  1  0.154253  0.975860  0.323533  1
  O  O39  1  0.845747  0.475860  0.323533  1
  O  O40  1  0.118913  0.377063  0.360151  1
  O  O41  1  0.881087  0.877063  0.360151  1
  O  O42  1  0.402420  0.879722  0.404874  1
  O  O43  1  0.597580  0.379722  0.404874  1
  O  O44  1  0.053695  0.616894  0.418840  1
  O  O45  1  0.946305  0.116894  0.418840  1
  O  O46  1  0.323837  0.128712  0.437867  1
  O  O47  1  0.676163  0.628712  0.437867  1
  O  O48  1  0.323837  0.371288  0.562133  1
  O  O49  1  0.676163  0.871288  0.562133  1
  O  O50  1  0.053695  0.883106  0.581160  1
  O  O51  1  0.946305  0.383106  0.581160  1
  O  O52  1  0.402420  0.620278  0.595126  1
  O  O53  1  0.597580  0.120278  0.595126  1
  O  O54  1  0.118913  0.122937  0.639849  1
  O  O55  1  0.881087  0.622937  0.639849  1
  O  O56  1  0.154253  0.524140  0.676467  1
  O  O57  1  0.845747  0.024140  0.676467  1
  O  O58  1  0.418166  0.434896  0.732158  1
  O  O59  1  0.581834  0.934896  0.732158  1
  O  O60  1  0.081834  0.934896  0.767842  1
  O  O61  1  0.918166  0.434896  0.767842  1
  O  O62  1  0.345747  0.024140  0.823533  1
  O  O63  1  0.654253  0.524140  0.823533  1
  O  O64  1  0.381087  0.622937  0.860151  1
  O  O65  1  0.618913  0.122937  0.860151  1
  O  O66  1  0.097580  0.120278  0.904874  1
  O  O67  1  0.902420  0.620278  0.904874  1
  O  O68  1  0.446305  0.383106  0.918840  1
  O  O69  1  0.553695  0.883106  0.918840  1
  O  O70  1  0.176163  0.871288  0.937867  1
  O  O71  1  0.823837  0.371288  0.937867  1
