# generated using pymatgen
data_SeF4
_symmetry_space_group_name_H-M   'P 1'
_cell_length_a   5.38934420
_cell_length_b   5.77888100
_cell_length_c   11.06618784
_cell_angle_alpha   90.00000000
_cell_angle_beta   90.00000000
_cell_angle_gamma   90.00000000
_symmetry_Int_Tables_number   1
_chemical_formula_structural   SeF4
_chemical_formula_sum   'Se4 F16'
_cell_volume   344.64954596
_cell_formula_units_Z   4
loop_
 _symmetry_equiv_pos_site_id
 _symmetry_equiv_pos_as_xyz
  1  'x, y, z'
loop_
 _atom_site_type_symbol
 _atom_site_label
 _atom_site_symmetry_multiplicity
 _atom_site_fract_x
 _atom_site_fract_y
 _atom_site_fract_z
 _atom_site_occupancy
  Se  Se0  1  0.840445  0.901319  0.123472  1
  Se  Se1  1  0.340445  0.598681  0.876528  1
  Se  Se2  1  0.159555  0.401319  0.376528  1
  Se  Se3  1  0.659555  0.098681  0.623472  1
  F  F4  1  0.660957  0.664381  0.047739  1
  F  F5  1  0.160957  0.835619  0.952261  1
  F  F6  1  0.339043  0.164381  0.452261  1
  F  F7  1  0.839043  0.335619  0.547739  1
  F  F8  1  0.778710  0.910038  0.515983  1
  F  F9  1  0.278710  0.589962  0.484017  1
  F  F10  1  0.221290  0.410038  0.984017  1
  F  F11  1  0.721290  0.089962  0.015983  1
  F  F12  1  0.907137  0.068470  0.722821  1
  F  F13  1  0.407137  0.431530  0.277179  1
  F  F14  1  0.092863  0.568470  0.777179  1
  F  F15  1  0.592863  0.931530  0.222821  1
  F  F16  1  0.513983  0.841171  0.697565  1
  F  F17  1  0.013983  0.658829  0.302435  1
  F  F18  1  0.486017  0.341171  0.802435  1
  F  F19  1  0.986017  0.158829  0.197565  1
