# generated using pymatgen
data_AcBr3
_symmetry_space_group_name_H-M   'P 1'
_cell_length_a   8.25162543
_cell_length_b   8.25162543
_cell_length_c   4.71897904
_cell_angle_alpha   90.00000000
_cell_angle_beta   90.00000000
_cell_angle_gamma   120.00000000
_symmetry_Int_Tables_number   1
_chemical_formula_structural   AcBr3
_chemical_formula_sum   'Ac2 Br6'
_cell_volume   278.26442764
_cell_formula_units_Z   2
loop_
 _symmetry_equiv_pos_site_id
 _symmetry_equiv_pos_as_xyz
  1  'x, y, z'
loop_
 _atom_site_type_symbol
 _atom_site_label
 _atom_site_symmetry_multiplicity
 _atom_site_fract_x
 _atom_site_fract_y
 _atom_site_fract_z
 _atom_site_occupancy
  Ac  Ac0  1  0.666667  0.333333  0.750000  1
  Ac  Ac1  1  0.333333  0.666667  0.250000  1
  Br  Br2  1  0.611294  0.697857  0.750000  1
  Br  Br3  1  0.913438  0.611294  0.250000  1
  Br  Br4  1  0.388706  0.302143  0.250000  1
  Br  Br5  1  0.086562  0.388706  0.750000  1
  Br  Br6  1  0.302143  0.913438  0.750000  1
  Br  Br7  1  0.697857  0.086562  0.250000  1
