# generated using pymatgen
data_In2O3
_symmetry_space_group_name_H-M   'P 1'
_cell_length_a   8.91968156
_cell_length_b   8.91968156
_cell_length_c   8.91968156
_cell_angle_alpha   109.47122063
_cell_angle_beta   109.47122063
_cell_angle_gamma   109.47122063
_symmetry_Int_Tables_number   1
_chemical_formula_structural   In2O3
_chemical_formula_sum   'In16 O24'
_cell_volume   546.29365798
_cell_formula_units_Z   8
loop_
 _symmetry_equiv_pos_site_id
 _symmetry_equiv_pos_as_xyz
  1  'x, y, z'
loop_
 _atom_site_type_symbol
 _atom_site_label
 _atom_site_symmetry_multiplicity
 _atom_site_fract_x
 _atom_site_fract_y
 _atom_site_fract_z
 _atom_site_occupancy
  In  In0  1  0.783444  0.033444  0.750000  1
  In  In1  1  0.216556  0.966556  0.250000  1
  In  In2  1  0.716556  0.466556  0.250000  1
  In  In3  1  0.500000  1.000000  0.000000  1
  In  In4  1  0.466556  0.250000  0.716556  1
  In  In5  1  0.750000  0.783444  0.033444  1
  In  In6  1  0.750000  0.283444  0.533444  1
  In  In7  1  0.250000  0.216556  0.966556  1
  In  In8  1  0.533444  0.750000  0.283444  1
  In  In9  1  1.000000  1.000000  0.500000  1
  In  In10  1  0.033444  0.750000  0.783444  1
  In  In11  1  0.966556  0.250000  0.216556  1
  In  In12  1  0.250000  0.716556  0.466556  1
  In  In13  1  0.283444  0.533444  0.750000  1
  In  In14  1  1.000000  0.500000  0.000000  1
  In  In15  1  0.500000  0.500000  0.500000  1
  O  O16  1  0.544142  0.536161  0.771987  1
  O  O17  1  0.728013  0.264173  0.772155  1
  O  O18  1  0.007982  0.044142  0.272155  1
  O  O19  1  0.272155  0.007982  0.044142  1
  O  O20  1  0.264173  0.772155  0.728013  1
  O  O21  1  0.228013  0.455858  0.463839  1
  O  O22  1  0.036161  0.492018  0.764173  1
  O  O23  1  0.507982  0.235827  0.963839  1
  O  O24  1  0.992018  0.955858  0.727845  1
  O  O25  1  0.492018  0.764173  0.036161  1
  O  O26  1  0.235827  0.963839  0.507982  1
  O  O27  1  0.536161  0.771987  0.544142  1
  O  O28  1  0.955858  0.727845  0.992018  1
  O  O29  1  0.044142  0.272155  0.007982  1
  O  O30  1  0.764173  0.036161  0.492018  1
  O  O31  1  0.271987  0.735827  0.227845  1
  O  O32  1  0.771987  0.544142  0.536161  1
  O  O33  1  0.772155  0.728013  0.264173  1
  O  O34  1  0.455858  0.463839  0.228013  1
  O  O35  1  0.963839  0.507982  0.235827  1
  O  O36  1  0.463839  0.228013  0.455858  1
  O  O37  1  0.735827  0.227845  0.271987  1
  O  O38  1  0.227845  0.271987  0.735827  1
  O  O39  1  0.727845  0.992018  0.955858  1
