# generated using pymatgen
data_TmC2
_symmetry_space_group_name_H-M   'P 1'
_cell_length_a   3.97888500
_cell_length_b   3.97888500
_cell_length_c   3.97888500
_cell_angle_alpha   126.18895482
_cell_angle_beta   126.18895482
_cell_angle_gamma   79.57780228
_symmetry_Int_Tables_number   1
_chemical_formula_structural   TmC2
_chemical_formula_sum   'Tm1 C2'
_cell_volume   39.64720590
_cell_formula_units_Z   1
loop_
 _symmetry_equiv_pos_site_id
 _symmetry_equiv_pos_as_xyz
  1  'x, y, z'
loop_
 _atom_site_type_symbol
 _atom_site_label
 _atom_site_symmetry_multiplicity
 _atom_site_fract_x
 _atom_site_fract_y
 _atom_site_fract_z
 _atom_site_occupancy
  Tm  Tm0  1  0.000000  0.000000  0.000000  1
  C  C1  1  0.606817  0.606817  0.000000  1
  C  C2  1  0.393183  0.393183  0.000000  1
