# generated using pymatgen
data_NaTi8O13
_symmetry_space_group_name_H-M   'P 1'
_cell_length_a   6.49660596
_cell_length_b   6.49660596
_cell_length_c   6.49660596
_cell_angle_alpha   73.50560179
_cell_angle_beta   73.50560179
_cell_angle_gamma   73.50560179
_symmetry_Int_Tables_number   1
_chemical_formula_structural   NaTi8O13
_chemical_formula_sum   'Na1 Ti8 O13'
_cell_volume   245.85070970
_cell_formula_units_Z   1
loop_
 _symmetry_equiv_pos_site_id
 _symmetry_equiv_pos_as_xyz
  1  'x, y, z'
loop_
 _atom_site_type_symbol
 _atom_site_label
 _atom_site_symmetry_multiplicity
 _atom_site_fract_x
 _atom_site_fract_y
 _atom_site_fract_z
 _atom_site_occupancy
  Na  Na0  1  0.500000  0.500000  0.500000  1
  Ti  Ti1  1  0.949038  0.683537  0.124711  1
  Ti  Ti2  1  0.124711  0.949038  0.683537  1
  Ti  Ti3  1  0.683537  0.124711  0.949038  1
  Ti  Ti4  1  0.050962  0.316463  0.875289  1
  Ti  Ti5  1  0.875289  0.050962  0.316463  1
  Ti  Ti6  1  0.316463  0.875289  0.050962  1
  Ti  Ti7  1  0.271335  0.271335  0.271335  1
  Ti  Ti8  1  0.728665  0.728665  0.728665  1
  O  O9  1  0.000000  0.000000  0.000000  1
  O  O10  1  0.578639  0.177481  0.264896  1
  O  O11  1  0.264896  0.578639  0.177481  1
  O  O12  1  0.177481  0.264896  0.578639  1
  O  O13  1  0.421361  0.822519  0.735104  1
  O  O14  1  0.735104  0.421361  0.822519  1
  O  O15  1  0.822519  0.735104  0.421361  1
  O  O16  1  0.952127  0.356945  0.205918  1
  O  O17  1  0.205918  0.952127  0.356945  1
  O  O18  1  0.356945  0.205918  0.952127  1
  O  O19  1  0.047873  0.643055  0.794082  1
  O  O20  1  0.794082  0.047873  0.643055  1
  O  O21  1  0.643055  0.794082  0.047873  1
