# generated using pymatgen
data_Eu2Si2O7
_symmetry_space_group_name_H-M   'P 1'
_cell_length_a   5.14590714
_cell_length_b   8.46903095
_cell_length_c   14.20124945
_cell_angle_alpha   90.00000000
_cell_angle_beta   90.00000000
_cell_angle_gamma   90.00000000
_symmetry_Int_Tables_number   1
_chemical_formula_structural   Eu2Si2O7
_chemical_formula_sum   'Eu8 Si8 O28'
_cell_volume   618.90247714
_cell_formula_units_Z   4
loop_
 _symmetry_equiv_pos_site_id
 _symmetry_equiv_pos_as_xyz
  1  'x, y, z'
loop_
 _atom_site_type_symbol
 _atom_site_label
 _atom_site_symmetry_multiplicity
 _atom_site_fract_x
 _atom_site_fract_y
 _atom_site_fract_z
 _atom_site_occupancy
  Eu  Eu0  1  0.841120  0.005280  0.125789  1
  Eu  Eu1  1  0.158880  0.505280  0.874211  1
  Eu  Eu2  1  0.658880  0.005280  0.625789  1
  Eu  Eu3  1  0.341120  0.505280  0.374211  1
  Eu  Eu4  1  0.841120  0.494720  0.125789  1
  Eu  Eu5  1  0.158880  0.994720  0.874211  1
  Eu  Eu6  1  0.658880  0.494720  0.625789  1
  Eu  Eu7  1  0.341120  0.994720  0.374211  1
  Si  Si8  1  0.122673  0.750000  0.536647  1
  Si  Si9  1  0.877327  0.250000  0.463353  1
  Si  Si10  1  0.377327  0.750000  0.036647  1
  Si  Si11  1  0.622673  0.250000  0.963353  1
  Si  Si12  1  0.873752  0.750000  0.322286  1
  Si  Si13  1  0.126248  0.250000  0.677714  1
  Si  Si14  1  0.626248  0.750000  0.822286  1
  Si  Si15  1  0.373752  0.250000  0.177714  1
  O  O16  1  0.855145  0.750000  0.598208  1
  O  O17  1  0.144855  0.250000  0.401792  1
  O  O18  1  0.644855  0.750000  0.098208  1
  O  O19  1  0.355145  0.250000  0.901792  1
  O  O20  1  0.286927  0.915184  0.544854  1
  O  O21  1  0.713073  0.415184  0.455146  1
  O  O22  1  0.213073  0.915184  0.044854  1
  O  O23  1  0.786927  0.415184  0.955146  1
  O  O24  1  0.286927  0.584816  0.544854  1
  O  O25  1  0.713073  0.084816  0.455146  1
  O  O26  1  0.213073  0.584816  0.044854  1
  O  O27  1  0.786927  0.084816  0.955146  1
  O  O28  1  0.052736  0.750000  0.420802  1
  O  O29  1  0.947264  0.250000  0.579198  1
  O  O30  1  0.447264  0.750000  0.920802  1
  O  O31  1  0.552736  0.250000  0.079198  1
  O  O32  1  0.477905  0.088654  0.229687  1
  O  O33  1  0.522095  0.588654  0.770313  1
  O  O34  1  0.022095  0.088654  0.729687  1
  O  O35  1  0.977905  0.588654  0.270313  1
  O  O36  1  0.477905  0.411346  0.229687  1
  O  O37  1  0.522095  0.911346  0.770313  1
  O  O38  1  0.022095  0.411346  0.729687  1
  O  O39  1  0.977905  0.911346  0.270313  1
  O  O40  1  0.065059  0.250000  0.155181  1
  O  O41  1  0.934941  0.750000  0.844819  1
  O  O42  1  0.434941  0.250000  0.655181  1
  O  O43  1  0.565059  0.750000  0.344819  1
