# generated using pymatgen
data_Ga(MoS2)4
_symmetry_space_group_name_H-M   'P 1'
_cell_length_a   6.95221227
_cell_length_b   6.95221227
_cell_length_c   6.95221227
_cell_angle_alpha   60.00000000
_cell_angle_beta   60.00000000
_cell_angle_gamma   60.00000000
_symmetry_Int_Tables_number   1
_chemical_formula_structural   Ga(MoS2)4
_chemical_formula_sum   'Ga1 Mo4 S8'
_cell_volume   237.60417824
_cell_formula_units_Z   1
loop_
 _symmetry_equiv_pos_site_id
 _symmetry_equiv_pos_as_xyz
  1  'x, y, z'
loop_
 _atom_site_type_symbol
 _atom_site_label
 _atom_site_symmetry_multiplicity
 _atom_site_fract_x
 _atom_site_fract_y
 _atom_site_fract_z
 _atom_site_occupancy
  Ga  Ga0  1  0.500000  0.500000  0.500000  1
  Mo  Mo1  1  0.103526  0.103526  0.103526  1
  Mo  Mo2  1  0.103526  0.103526  0.689421  1
  Mo  Mo3  1  0.689421  0.103526  0.103526  1
  Mo  Mo4  1  0.103526  0.689421  0.103526  1
  S  S5  1  0.364525  0.906424  0.364525  1
  S  S6  1  0.364525  0.364525  0.364525  1
  S  S7  1  0.364525  0.364525  0.906424  1
  S  S8  1  0.906424  0.364525  0.364525  1
  S  S9  1  0.866451  0.400647  0.866451  1
  S  S10  1  0.400647  0.866451  0.866451  1
  S  S11  1  0.866451  0.866451  0.400647  1
  S  S12  1  0.866451  0.866451  0.866451  1
