# generated using pymatgen
data_NaGdCl4
_symmetry_space_group_name_H-M   'P 1'
_cell_length_a   6.77811215
_cell_length_b   6.83814009
_cell_length_c   7.09124285
_cell_angle_alpha   89.29666033
_cell_angle_beta   87.71426292
_cell_angle_gamma   78.10570156
_symmetry_Int_Tables_number   1
_chemical_formula_structural   NaGdCl4
_chemical_formula_sum   'Na2 Gd2 Cl8'
_cell_volume   321.36132458
_cell_formula_units_Z   2
loop_
 _symmetry_equiv_pos_site_id
 _symmetry_equiv_pos_as_xyz
  1  'x, y, z'
loop_
 _atom_site_type_symbol
 _atom_site_label
 _atom_site_symmetry_multiplicity
 _atom_site_fract_x
 _atom_site_fract_y
 _atom_site_fract_z
 _atom_site_occupancy
  Na  Na0  1  0.767106  0.805131  0.465653  1
  Na  Na1  1  0.232894  0.194869  0.534347  1
  Gd  Gd2  1  0.789231  0.300412  0.054102  1
  Gd  Gd3  1  0.210769  0.699588  0.945898  1
  Cl  Cl4  1  0.608389  0.204046  0.365079  1
  Cl  Cl5  1  0.956479  0.496991  0.756790  1
  Cl  Cl6  1  0.564371  0.685476  0.119914  1
  Cl  Cl7  1  0.391611  0.795954  0.634921  1
  Cl  Cl8  1  0.435629  0.314524  0.880086  1
  Cl  Cl9  1  0.906069  0.998220  0.792205  1
  Cl  Cl10  1  0.093931  0.001780  0.207795  1
  Cl  Cl11  1  0.043521  0.503009  0.243210  1
