# generated using pymatgen
data_MnSiIr
_symmetry_space_group_name_H-M   'P 1'
_cell_length_a   3.87544556
_cell_length_b   6.05524381
_cell_length_c   7.23784245
_cell_angle_alpha   90.00000000
_cell_angle_beta   90.00000000
_cell_angle_gamma   90.00000000
_symmetry_Int_Tables_number   1
_chemical_formula_structural   MnSiIr
_chemical_formula_sum   'Mn4 Si4 Ir4'
_cell_volume   169.84876770
_cell_formula_units_Z   4
loop_
 _symmetry_equiv_pos_site_id
 _symmetry_equiv_pos_as_xyz
  1  'x, y, z'
loop_
 _atom_site_type_symbol
 _atom_site_label
 _atom_site_symmetry_multiplicity
 _atom_site_fract_x
 _atom_site_fract_y
 _atom_site_fract_z
 _atom_site_occupancy
  Mn  Mn0  1  0.750000  0.968676  0.180281  1
  Mn  Mn1  1  0.250000  0.031324  0.819719  1
  Mn  Mn2  1  0.750000  0.468676  0.319719  1
  Mn  Mn3  1  0.250000  0.531324  0.680281  1
  Si  Si4  1  0.250000  0.267472  0.123337  1
  Si  Si5  1  0.750000  0.732528  0.876663  1
  Si  Si6  1  0.250000  0.767472  0.376663  1
  Si  Si7  1  0.750000  0.232528  0.623337  1
  Ir  Ir8  1  0.250000  0.663593  0.062438  1
  Ir  Ir9  1  0.750000  0.336407  0.937562  1
  Ir  Ir10  1  0.250000  0.163593  0.437562  1
  Ir  Ir11  1  0.750000  0.836407  0.562438  1
