# generated using pymatgen
data_Dy3(CuSn)4
_symmetry_space_group_name_H-M   'P 1'
_cell_length_a   8.44270161
_cell_length_b   8.44270161
_cell_length_c   8.44270161
_cell_angle_alpha   149.32598280
_cell_angle_beta   131.33493015
_cell_angle_gamma   58.63130080
_symmetry_Int_Tables_number   1
_chemical_formula_structural   Dy3(CuSn)4
_chemical_formula_sum   'Dy3 Cu4 Sn4'
_cell_volume   228.73815505
_cell_formula_units_Z   1
loop_
 _symmetry_equiv_pos_site_id
 _symmetry_equiv_pos_as_xyz
  1  'x, y, z'
loop_
 _atom_site_type_symbol
 _atom_site_label
 _atom_site_symmetry_multiplicity
 _atom_site_fract_x
 _atom_site_fract_y
 _atom_site_fract_z
 _atom_site_occupancy
  Dy  Dy0  1  0.000000  0.000000  0.000000  1
  Dy  Dy1  1  0.368748  0.868748  0.500000  1
  Dy  Dy2  1  0.631252  0.131252  0.500000  1
  Cu  Cu3  1  0.017613  0.329400  0.688214  1
  Cu  Cu4  1  0.982387  0.670600  0.311786  1
  Cu  Cu5  1  0.641186  0.329400  0.311786  1
  Cu  Cu6  1  0.358814  0.670600  0.688214  1
  Sn  Sn7  1  0.216149  0.216149  0.000000  1
  Sn  Sn8  1  0.702951  0.500000  0.202951  1
  Sn  Sn9  1  0.297049  0.500000  0.797049  1
  Sn  Sn10  1  0.783851  0.783851  0.000000  1
