# generated using pymatgen
data_Er6MnBi2
_symmetry_space_group_name_H-M   'P 1'
_cell_length_a   8.24072507
_cell_length_b   8.24072507
_cell_length_c   4.25792055
_cell_angle_alpha   90.00000000
_cell_angle_beta   90.00000000
_cell_angle_gamma   120.00000000
_symmetry_Int_Tables_number   1
_chemical_formula_structural   Er6MnBi2
_chemical_formula_sum   'Er6 Mn1 Bi2'
_cell_volume   250.41424788
_cell_formula_units_Z   1
loop_
 _symmetry_equiv_pos_site_id
 _symmetry_equiv_pos_as_xyz
  1  'x, y, z'
loop_
 _atom_site_type_symbol
 _atom_site_label
 _atom_site_symmetry_multiplicity
 _atom_site_fract_x
 _atom_site_fract_y
 _atom_site_fract_z
 _atom_site_occupancy
  Er  Er0  1  0.232805  0.000000  0.000000  1
  Er  Er1  1  0.000000  0.610502  0.500000  1
  Er  Er2  1  0.389498  0.389498  0.500000  1
  Er  Er3  1  0.767195  0.767195  0.000000  1
  Er  Er4  1  0.000000  0.232805  0.000000  1
  Er  Er5  1  0.610502  0.000000  0.500000  1
  Mn  Mn6  1  0.000000  0.000000  0.500000  1
  Bi  Bi7  1  0.333333  0.666667  0.000000  1
  Bi  Bi8  1  0.666667  0.333333  0.000000  1
