# generated using pymatgen
data_USe2O7
_symmetry_space_group_name_H-M   'P 1'
_cell_length_a   6.80871374
_cell_length_b   9.59094738
_cell_length_c   12.04576960
_cell_angle_alpha   109.43874144
_cell_angle_beta   92.50336107
_cell_angle_gamma   93.31498917
_symmetry_Int_Tables_number   1
_chemical_formula_structural   USe2O7
_chemical_formula_sum   'U4 Se8 O28'
_cell_volume   738.87727341
_cell_formula_units_Z   4
loop_
 _symmetry_equiv_pos_site_id
 _symmetry_equiv_pos_as_xyz
  1  'x, y, z'
loop_
 _atom_site_type_symbol
 _atom_site_label
 _atom_site_symmetry_multiplicity
 _atom_site_fract_x
 _atom_site_fract_y
 _atom_site_fract_z
 _atom_site_occupancy
  U  U0  1  0.867007  0.345825  0.759128  1
  U  U1  1  0.132993  0.654175  0.240872  1
  U  U2  1  0.576989  0.951081  0.759777  1
  U  U3  1  0.423011  0.048919  0.240223  1
  Se  Se4  1  0.510919  0.634648  0.877389  1
  Se  Se5  1  0.489081  0.365352  0.122611  1
  Se  Se6  1  0.959687  0.760952  0.878682  1
  Se  Se7  1  0.040313  0.239048  0.121318  1
  Se  Se8  1  0.344602  0.247718  0.654321  1
  Se  Se9  1  0.655398  0.752282  0.345679  1
  Se  Se10  1  0.071735  0.960819  0.655039  1
  Se  Se11  1  0.928265  0.039181  0.344961  1
  O  O12  1  0.436101  0.751989  0.809159  1
  O  O13  1  0.563899  0.248011  0.190841  1
  O  O14  1  0.019531  0.586617  0.808262  1
  O  O15  1  0.980469  0.413383  0.191738  1
  O  O16  1  0.541716  0.183309  0.712747  1
  O  O17  1  0.458284  0.816691  0.287253  1
  O  O18  1  0.891016  0.076282  0.718213  1
  O  O19  1  0.108984  0.923718  0.281787  1
  O  O20  1  0.240443  0.989281  0.769800  1
  O  O21  1  0.759557  0.010719  0.230200  1
  O  O22  1  0.206595  0.316094  0.771866  1
  O  O23  1  0.793405  0.683906  0.228134  1
  O  O24  1  0.467308  0.153151  0.395870  1
  O  O25  1  0.532692  0.846849  0.604130  1
  O  O26  1  0.369876  0.939614  0.086798  1
  O  O27  1  0.630124  0.060386  0.913202  1
  O  O28  1  0.156999  0.631744  0.087379  1
  O  O29  1  0.843001  0.368256  0.912621  1
  O  O30  1  0.114726  0.683850  0.396094  1
  O  O31  1  0.885274  0.316150  0.603906  1
  O  O32  1  0.803200  0.928908  0.424443  1
  O  O33  1  0.196800  0.071092  0.575557  1
  O  O34  1  0.255847  0.269647  0.042883  1
  O  O35  1  0.744153  0.730353  0.957117  1
  O  O36  1  0.152320  0.190785  0.232635  1
  O  O37  1  0.847680  0.809215  0.767365  1
  O  O38  1  0.402265  0.506097  0.235373  1
  O  O39  1  0.597735  0.493903  0.764627  1
