# generated using pymatgen
data_Ba10Al3Ge7
_symmetry_space_group_name_H-M   'P 1'
_cell_length_a   9.87842026
_cell_length_b   9.87842026
_cell_length_c   16.64067920
_cell_angle_alpha   90.00000000
_cell_angle_beta   90.00000000
_cell_angle_gamma   120.00000000
_symmetry_Int_Tables_number   1
_chemical_formula_structural   Ba10Al3Ge7
_chemical_formula_sum   'Ba20 Al6 Ge14'
_cell_volume   1406.29579205
_cell_formula_units_Z   2
loop_
 _symmetry_equiv_pos_site_id
 _symmetry_equiv_pos_as_xyz
  1  'x, y, z'
loop_
 _atom_site_type_symbol
 _atom_site_label
 _atom_site_symmetry_multiplicity
 _atom_site_fract_x
 _atom_site_fract_y
 _atom_site_fract_z
 _atom_site_occupancy
  Ba  Ba0  1  0.260206  0.260206  0.603225  1
  Ba  Ba1  1  0.739794  0.000000  0.603225  1
  Ba  Ba2  1  0.000000  0.739794  0.603225  1
  Ba  Ba3  1  0.000000  0.260206  0.103225  1
  Ba  Ba4  1  0.739794  0.000000  0.896775  1
  Ba  Ba5  1  0.739794  0.739794  0.103225  1
  Ba  Ba6  1  0.260206  0.000000  0.103225  1
  Ba  Ba7  1  0.739794  0.739794  0.396775  1
  Ba  Ba8  1  0.000000  0.260206  0.396775  1
  Ba  Ba9  1  0.000000  0.739794  0.896775  1
  Ba  Ba10  1  0.260206  0.260206  0.896775  1
  Ba  Ba11  1  0.260206  0.000000  0.396775  1
  Ba  Ba12  1  0.333333  0.666667  0.500000  1
  Ba  Ba13  1  0.666667  0.333333  0.000000  1
  Ba  Ba14  1  0.666667  0.333333  0.500000  1
  Ba  Ba15  1  0.333333  0.666667  0.000000  1
  Ba  Ba16  1  0.333333  0.666667  0.750000  1
  Ba  Ba17  1  0.666667  0.333333  0.250000  1
  Ba  Ba18  1  0.666667  0.333333  0.750000  1
  Ba  Ba19  1  0.333333  0.666667  0.250000  1
  Al  Al20  1  0.000000  0.269580  0.750000  1
  Al  Al21  1  0.730420  0.000000  0.250000  1
  Al  Al22  1  0.269580  0.269580  0.250000  1
  Al  Al23  1  0.730420  0.730420  0.750000  1
  Al  Al24  1  0.269580  0.000000  0.750000  1
  Al  Al25  1  0.000000  0.730420  0.250000  1
  Ge  Ge26  1  0.000000  0.606056  0.117375  1
  Ge  Ge27  1  0.000000  0.000000  0.250000  1
  Ge  Ge28  1  0.393944  0.393944  0.117375  1
  Ge  Ge29  1  0.000000  0.000000  0.750000  1
  Ge  Ge30  1  0.606056  0.000000  0.117375  1
  Ge  Ge31  1  0.000000  0.393944  0.617375  1
  Ge  Ge32  1  0.606056  0.000000  0.382625  1
  Ge  Ge33  1  0.606056  0.606056  0.617375  1
  Ge  Ge34  1  0.393944  0.000000  0.617375  1
  Ge  Ge35  1  0.606056  0.606056  0.882625  1
  Ge  Ge36  1  0.000000  0.393944  0.882625  1
  Ge  Ge37  1  0.000000  0.606056  0.382625  1
  Ge  Ge38  1  0.393944  0.393944  0.382625  1
  Ge  Ge39  1  0.393944  0.000000  0.882625  1
