# generated using pymatgen
data_Te2Rh
_symmetry_space_group_name_H-M   'P 1'
_cell_length_a   3.96244637
_cell_length_b   3.96244637
_cell_length_c   5.51581137
_cell_angle_alpha   90.00000000
_cell_angle_beta   90.00000000
_cell_angle_gamma   120.00000000
_symmetry_Int_Tables_number   1
_chemical_formula_structural   Te2Rh
_chemical_formula_sum   'Te2 Rh1'
_cell_volume   75.00096176
_cell_formula_units_Z   1
loop_
 _symmetry_equiv_pos_site_id
 _symmetry_equiv_pos_as_xyz
  1  'x, y, z'
loop_
 _atom_site_type_symbol
 _atom_site_label
 _atom_site_symmetry_multiplicity
 _atom_site_fract_x
 _atom_site_fract_y
 _atom_site_fract_z
 _atom_site_occupancy
  Te  Te0  1  0.333333  0.666667  0.249869  1
  Te  Te1  1  0.666667  0.333333  0.750131  1
  Rh  Rh2  1  0.000000  0.000000  0.000000  1
