# generated using pymatgen
data_LiMnPO4F
_symmetry_space_group_name_H-M   'P 1'
_cell_length_a   5.19455100
_cell_length_b   5.33774295
_cell_length_c   7.39582474
_cell_angle_alpha   108.70975129
_cell_angle_beta   104.51477421
_cell_angle_gamma   98.04976603
_symmetry_Int_Tables_number   1
_chemical_formula_structural   LiMnPO4F
_chemical_formula_sum   'Li2 Mn2 P2 O8 F2'
_cell_volume   182.51545613
_cell_formula_units_Z   2
loop_
 _symmetry_equiv_pos_site_id
 _symmetry_equiv_pos_as_xyz
  1  'x, y, z'
loop_
 _atom_site_type_symbol
 _atom_site_label
 _atom_site_symmetry_multiplicity
 _atom_site_fract_x
 _atom_site_fract_y
 _atom_site_fract_z
 _atom_site_occupancy
  Li  Li0  1  0.729671  0.380582  0.189098  1
  Li  Li1  1  0.270329  0.619418  0.810902  1
  Mn  Mn2  1  0.000000  0.000000  0.000000  1
  Mn  Mn3  1  0.000000  0.000000  0.500000  1
  P  P4  1  0.681984  0.355337  0.762540  1
  P  P5  1  0.318016  0.644663  0.237460  1
  O  O6  1  0.694585  0.659025  0.659086  1
  O  O7  1  0.305415  0.340975  0.340914  1
  O  O8  1  0.635597  0.754536  0.082938  1
  O  O9  1  0.250570  0.792034  0.385453  1
  O  O10  1  0.364403  0.245464  0.917062  1
  O  O11  1  0.749430  0.207966  0.614547  1
  O  O12  1  0.875481  0.335662  0.882113  1
  O  O13  1  0.124519  0.664338  0.117887  1
  F  F14  1  0.858559  0.075801  0.263927  1
  F  F15  1  0.141441  0.924199  0.736073  1
