# generated using pymatgen
data_ThCrB4
_symmetry_space_group_name_H-M   'P 1'
_cell_length_a   3.63246289
_cell_length_b   6.04053502
_cell_length_c   11.67957420
_cell_angle_alpha   90.00000000
_cell_angle_beta   90.00000000
_cell_angle_gamma   90.00000000
_symmetry_Int_Tables_number   1
_chemical_formula_structural   ThCrB4
_chemical_formula_sum   'Th4 Cr4 B16'
_cell_volume   256.27344246
_cell_formula_units_Z   4
loop_
 _symmetry_equiv_pos_site_id
 _symmetry_equiv_pos_as_xyz
  1  'x, y, z'
loop_
 _atom_site_type_symbol
 _atom_site_label
 _atom_site_symmetry_multiplicity
 _atom_site_fract_x
 _atom_site_fract_y
 _atom_site_fract_z
 _atom_site_occupancy
  Th  Th0  1  0.500000  0.123327  0.848820  1
  Th  Th1  1  0.500000  0.876673  0.151180  1
  Th  Th2  1  0.500000  0.623327  0.651180  1
  Th  Th3  1  0.500000  0.376673  0.348820  1
  Cr  Cr4  1  0.500000  0.122868  0.581972  1
  Cr  Cr5  1  0.500000  0.877132  0.418028  1
  Cr  Cr6  1  0.500000  0.622868  0.918028  1
  Cr  Cr7  1  0.500000  0.377132  0.081972  1
  B  B8  1  0.000000  0.276252  0.681499  1
  B  B9  1  0.000000  0.723748  0.318501  1
  B  B10  1  0.000000  0.776252  0.818501  1
  B  B11  1  0.000000  0.223748  0.181499  1
  B  B12  1  0.000000  0.389300  0.955194  1
  B  B13  1  0.000000  0.610700  0.044806  1
  B  B14  1  0.000000  0.889300  0.544806  1
  B  B15  1  0.000000  0.110700  0.455194  1
  B  B16  1  0.000000  0.142937  0.033148  1
  B  B17  1  0.000000  0.857063  0.966852  1
  B  B18  1  0.000000  0.642937  0.466852  1
  B  B19  1  0.000000  0.357063  0.533148  1
  B  B20  1  0.000000  0.024248  0.312365  1
  B  B21  1  0.000000  0.975752  0.687635  1
  B  B22  1  0.000000  0.524248  0.187635  1
  B  B23  1  0.000000  0.475752  0.812365  1
