# generated using pymatgen
data_Li2Sn(PO3)4
_symmetry_space_group_name_H-M   'P 1'
_cell_length_a   9.85163104
_cell_length_b   9.85163104
_cell_length_c   4.72747200
_cell_angle_alpha   90.00000000
_cell_angle_beta   90.00000000
_cell_angle_gamma   90.00000000
_symmetry_Int_Tables_number   1
_chemical_formula_structural   Li2Sn(PO3)4
_chemical_formula_sum   'Li4 Sn2 P8 O24'
_cell_volume   458.82306504
_cell_formula_units_Z   2
loop_
 _symmetry_equiv_pos_site_id
 _symmetry_equiv_pos_as_xyz
  1  'x, y, z'
loop_
 _atom_site_type_symbol
 _atom_site_label
 _atom_site_symmetry_multiplicity
 _atom_site_fract_x
 _atom_site_fract_y
 _atom_site_fract_z
 _atom_site_occupancy
  Li  Li0  1  0.250000  0.750000  0.500000  1
  Li  Li1  1  0.250000  0.250000  0.500000  1
  Li  Li2  1  0.750000  0.250000  0.500000  1
  Li  Li3  1  0.750000  0.750000  0.500000  1
  Sn  Sn4  1  0.000000  0.000000  0.500000  1
  Sn  Sn5  1  0.500000  0.500000  0.500000  1
  P  P6  1  0.500000  0.789305  0.000000  1
  P  P7  1  0.289305  0.000000  0.000000  1
  P  P8  1  0.710695  0.000000  0.000000  1
  P  P9  1  0.500000  0.210695  0.000000  1
  P  P10  1  0.000000  0.289305  0.000000  1
  P  P11  1  0.789305  0.500000  0.000000  1
  P  P12  1  0.210695  0.500000  0.000000  1
  P  P13  1  0.000000  0.710695  0.000000  1
  O  O14  1  0.072348  0.784393  0.233510  1
  O  O15  1  0.927652  0.784393  0.766490  1
  O  O16  1  0.607185  0.892815  0.846611  1
  O  O17  1  0.392815  0.892815  0.153389  1
  O  O18  1  0.215607  0.927652  0.766490  1
  O  O19  1  0.784393  0.927652  0.233510  1
  O  O20  1  0.784393  0.072348  0.766490  1
  O  O21  1  0.215607  0.072348  0.233510  1
  O  O22  1  0.392815  0.107185  0.846611  1
  O  O23  1  0.607185  0.107185  0.153389  1
  O  O24  1  0.927652  0.215607  0.233510  1
  O  O25  1  0.072348  0.215607  0.766490  1
  O  O26  1  0.427652  0.284393  0.233510  1
  O  O27  1  0.572348  0.284393  0.766490  1
  O  O28  1  0.892815  0.392815  0.846611  1
  O  O29  1  0.107185  0.392815  0.153389  1
  O  O30  1  0.284393  0.427652  0.766490  1
  O  O31  1  0.715607  0.427652  0.233510  1
  O  O32  1  0.284393  0.572348  0.233510  1
  O  O33  1  0.715607  0.572348  0.766490  1
  O  O34  1  0.107185  0.607185  0.846611  1
  O  O35  1  0.892815  0.607185  0.153389  1
  O  O36  1  0.572348  0.715607  0.233510  1
  O  O37  1  0.427652  0.715607  0.766490  1
