# generated using pymatgen
data_AgBH2OF4
_symmetry_space_group_name_H-M   'P 1'
_cell_length_a   7.97964991
_cell_length_b   8.05920846
_cell_length_c   13.47951261
_cell_angle_alpha   90.00000000
_cell_angle_beta   90.00000000
_cell_angle_gamma   90.00000000
_symmetry_Int_Tables_number   1
_chemical_formula_structural   AgBH2OF4
_chemical_formula_sum   'Ag8 B8 H16 O8 F32'
_cell_volume   866.86290072
_cell_formula_units_Z   8
loop_
 _symmetry_equiv_pos_site_id
 _symmetry_equiv_pos_as_xyz
  1  'x, y, z'
loop_
 _atom_site_type_symbol
 _atom_site_label
 _atom_site_symmetry_multiplicity
 _atom_site_fract_x
 _atom_site_fract_y
 _atom_site_fract_z
 _atom_site_occupancy
  Ag  Ag0  1  0.893175  0.235496  0.161579  1
  Ag  Ag1  1  0.393175  0.764504  0.338421  1
  Ag  Ag2  1  0.606825  0.735496  0.838421  1
  Ag  Ag3  1  0.106825  0.264504  0.661579  1
  Ag  Ag4  1  0.106825  0.764504  0.838421  1
  Ag  Ag5  1  0.606825  0.235496  0.661579  1
  Ag  Ag6  1  0.393175  0.264504  0.161579  1
  Ag  Ag7  1  0.893175  0.735496  0.338421  1
  B  B8  1  0.618548  0.349629  0.378427  1
  B  B9  1  0.618548  0.849629  0.121573  1
  B  B10  1  0.118548  0.150371  0.378427  1
  B  B11  1  0.881452  0.349629  0.878427  1
  B  B12  1  0.381452  0.650371  0.621573  1
  B  B13  1  0.381452  0.150371  0.878427  1
  B  B14  1  0.881452  0.849629  0.621573  1
  B  B15  1  0.118548  0.650371  0.121573  1
  H  H16  1  0.658710  0.396298  0.037970  1
  H  H17  1  0.158710  0.603702  0.462030  1
  H  H18  1  0.841290  0.896298  0.962030  1
  H  H19  1  0.341290  0.103702  0.537970  1
  H  H20  1  0.341290  0.603702  0.962030  1
  H  H21  1  0.841290  0.396298  0.537970  1
  H  H22  1  0.158710  0.103702  0.037970  1
  H  H23  1  0.658710  0.896298  0.462030  1
  H  H24  1  0.840975  0.005102  0.864835  1
  H  H25  1  0.340975  0.994898  0.635165  1
  H  H26  1  0.340975  0.494898  0.864835  1
  H  H27  1  0.840975  0.505102  0.635165  1
  H  H28  1  0.159025  0.994898  0.135165  1
  H  H29  1  0.659025  0.005102  0.364835  1
  H  H30  1  0.659025  0.505102  0.135165  1
  H  H31  1  0.159025  0.494898  0.364835  1
  O  O32  1  0.651482  0.389588  0.110800  1
  O  O33  1  0.848518  0.889588  0.889200  1
  O  O34  1  0.348518  0.110412  0.610800  1
  O  O35  1  0.348518  0.610412  0.889200  1
  O  O36  1  0.848518  0.389588  0.610800  1
  O  O37  1  0.151482  0.110412  0.110800  1
  O  O38  1  0.651482  0.889588  0.389200  1
  O  O39  1  0.151482  0.610412  0.389200  1
  F  F40  1  0.668353  0.209886  0.318800  1
  F  F41  1  0.168353  0.290114  0.318800  1
  F  F42  1  0.831647  0.209886  0.818800  1
  F  F43  1  0.331647  0.790114  0.681200  1
  F  F44  1  0.537922  0.792180  0.035896  1
  F  F45  1  0.831647  0.709886  0.681200  1
  F  F46  1  0.168353  0.790114  0.181200  1
  F  F47  1  0.668353  0.709886  0.181200  1
  F  F48  1  0.510542  0.949690  0.179541  1
  F  F49  1  0.010542  0.050310  0.320459  1
  F  F50  1  0.989458  0.449690  0.820459  1
  F  F51  1  0.489458  0.550310  0.679541  1
  F  F52  1  0.489458  0.050310  0.820459  1
  F  F53  1  0.989458  0.949690  0.679541  1
  F  F54  1  0.764087  0.441579  0.405264  1
  F  F55  1  0.510542  0.449690  0.320459  1
  F  F56  1  0.264087  0.558421  0.094736  1
  F  F57  1  0.735913  0.941579  0.594736  1
  F  F58  1  0.235913  0.058421  0.905264  1
  F  F59  1  0.235913  0.558421  0.594736  1
  F  F60  1  0.735913  0.441579  0.905264  1
  F  F61  1  0.264087  0.058421  0.405264  1
  F  F62  1  0.764087  0.941579  0.094736  1
  F  F63  1  0.537922  0.292180  0.464104  1
  F  F64  1  0.037922  0.707820  0.035896  1
  F  F65  1  0.962078  0.792180  0.535896  1
  F  F66  1  0.462078  0.207820  0.964104  1
  F  F67  1  0.462078  0.707820  0.535896  1
  F  F68  1  0.962078  0.292180  0.964104  1
  F  F69  1  0.037922  0.207820  0.464104  1
  F  F70  1  0.010542  0.550310  0.179541  1
  F  F71  1  0.331647  0.290114  0.818800  1
