# generated using pymatgen
data_NaH2N
_symmetry_space_group_name_H-M   'P 1'
_cell_length_a   7.05791767
_cell_length_b   6.91317630
_cell_length_c   5.97023463
_cell_angle_alpha   65.96444310
_cell_angle_beta   63.45240082
_cell_angle_gamma   50.58315608
_symmetry_Int_Tables_number   1
_chemical_formula_structural   NaH2N
_chemical_formula_sum   'Na4 H8 N4'
_cell_volume   198.07617045
_cell_formula_units_Z   4
loop_
 _symmetry_equiv_pos_site_id
 _symmetry_equiv_pos_as_xyz
  1  'x, y, z'
loop_
 _atom_site_type_symbol
 _atom_site_label
 _atom_site_symmetry_multiplicity
 _atom_site_fract_x
 _atom_site_fract_y
 _atom_site_fract_z
 _atom_site_occupancy
  Na  Na0  1  0.114881  0.114881  0.385119  1
  Na  Na1  1  0.385119  0.385119  0.114881  1
  Na  Na2  1  0.135119  0.135119  0.864881  1
  Na  Na3  1  0.864881  0.864881  0.135119  1
  H  H4  1  0.822226  0.564121  0.565044  1
  H  H5  1  0.048609  0.565044  0.564121  1
  H  H6  1  0.565044  0.048609  0.822226  1
  H  H7  1  0.564121  0.822226  0.048609  1
  H  H8  1  0.427774  0.685879  0.684956  1
  H  H9  1  0.685879  0.427774  0.201391  1
  H  H10  1  0.684956  0.201391  0.427774  1
  H  H11  1  0.201391  0.684956  0.685879  1
  N  N12  1  0.764712  0.235288  0.235288  1
  N  N13  1  0.485288  0.014712  0.014712  1
  N  N14  1  0.235288  0.764712  0.764712  1
  N  N15  1  0.014712  0.485288  0.485288  1
