# generated using pymatgen
data_Bi4Te3
_symmetry_space_group_name_H-M   'P 1'
_cell_length_a   14.47415127
_cell_length_b   14.47415127
_cell_length_c   14.47415127
_cell_angle_alpha   17.92582242
_cell_angle_beta   17.92582242
_cell_angle_gamma   17.92582242
_symmetry_Int_Tables_number   1
_chemical_formula_structural   Bi4Te3
_chemical_formula_sum   'Bi4 Te3'
_cell_volume   250.80356178
_cell_formula_units_Z   1
loop_
 _symmetry_equiv_pos_site_id
 _symmetry_equiv_pos_as_xyz
  1  'x, y, z'
loop_
 _atom_site_type_symbol
 _atom_site_label
 _atom_site_symmetry_multiplicity
 _atom_site_fract_x
 _atom_site_fract_y
 _atom_site_fract_z
 _atom_site_occupancy
  Bi  Bi0  1  0.713871  0.713871  0.713871  1
  Bi  Bi1  1  0.286129  0.286129  0.286129  1
  Bi  Bi2  1  0.852805  0.852805  0.852805  1
  Bi  Bi3  1  0.147195  0.147195  0.147195  1
  Te  Te4  1  0.000000  0.000000  0.000000  1
  Te  Te5  1  0.420460  0.420460  0.420460  1
  Te  Te6  1  0.579540  0.579540  0.579540  1
