# generated using pymatgen
data_Co2P2O7
_symmetry_space_group_name_H-M   'P 1'
_cell_length_a   7.07802493
_cell_length_b   8.44240592
_cell_length_c   9.11443886
_cell_angle_alpha   90.00000000
_cell_angle_beta   113.18739044
_cell_angle_gamma   90.00000000
_symmetry_Int_Tables_number   1
_chemical_formula_structural   Co2P2O7
_chemical_formula_sum   'Co8 P8 O28'
_cell_volume   500.64360178
_cell_formula_units_Z   4
loop_
 _symmetry_equiv_pos_site_id
 _symmetry_equiv_pos_as_xyz
  1  'x, y, z'
loop_
 _atom_site_type_symbol
 _atom_site_label
 _atom_site_symmetry_multiplicity
 _atom_site_fract_x
 _atom_site_fract_y
 _atom_site_fract_z
 _atom_site_occupancy
  Co  Co0  1  0.303358  0.937313  0.683015  1
  Co  Co1  1  0.696642  0.437313  0.816985  1
  Co  Co2  1  0.696642  0.062687  0.316985  1
  Co  Co3  1  0.303358  0.562687  0.183015  1
  Co  Co4  1  0.768486  0.426237  0.391337  1
  Co  Co5  1  0.231514  0.926237  0.108663  1
  Co  Co6  1  0.231514  0.573763  0.608663  1
  Co  Co7  1  0.768486  0.073763  0.891337  1
  P  P8  1  0.467012  0.275545  0.032610  1
  P  P9  1  0.532988  0.775545  0.467390  1
  P  P10  1  0.532988  0.724455  0.967390  1
  P  P11  1  0.467012  0.224455  0.532610  1
  P  P12  1  0.063954  0.267944  0.742342  1
  P  P13  1  0.936046  0.767944  0.757658  1
  P  P14  1  0.936046  0.732056  0.257658  1
  P  P15  1  0.063954  0.232056  0.242342  1
  O  O16  1  0.444450  0.112727  0.101127  1
  O  O17  1  0.555550  0.612727  0.398873  1
  O  O18  1  0.555550  0.887273  0.898873  1
  O  O19  1  0.444450  0.387273  0.601127  1
  O  O20  1  0.517278  0.409373  0.156461  1
  O  O21  1  0.482722  0.909373  0.343539  1
  O  O22  1  0.482722  0.590627  0.843539  1
  O  O23  1  0.517278  0.090627  0.656461  1
  O  O24  1  0.119247  0.110979  0.690813  1
  O  O25  1  0.880753  0.610979  0.809187  1
  O  O26  1  0.880753  0.889021  0.309187  1
  O  O27  1  0.119247  0.389021  0.190813  1
  O  O28  1  0.026287  0.402122  0.619442  1
  O  O29  1  0.973713  0.902122  0.880558  1
  O  O30  1  0.973713  0.597878  0.380558  1
  O  O31  1  0.026287  0.097878  0.119442  1
  O  O32  1  0.251387  0.169598  0.400524  1
  O  O33  1  0.748613  0.669598  0.099476  1
  O  O34  1  0.748613  0.830402  0.599476  1
  O  O35  1  0.251387  0.330402  0.900524  1
  O  O36  1  0.622465  0.233415  0.452401  1
  O  O37  1  0.377535  0.733415  0.047599  1
  O  O38  1  0.377535  0.766585  0.547599  1
  O  O39  1  0.622465  0.266585  0.952401  1
  O  O40  1  0.883360  0.242183  0.296623  1
  O  O41  1  0.116640  0.742183  0.203377  1
  O  O42  1  0.116640  0.757817  0.703377  1
  O  O43  1  0.883360  0.257817  0.796623  1
