# generated using pymatgen
data_CeSiBO5
_symmetry_space_group_name_H-M   'P 1'
_cell_length_a   6.89707652
_cell_length_b   6.89707652
_cell_length_c   6.74723795
_cell_angle_alpha   90.00000000
_cell_angle_beta   90.00000000
_cell_angle_gamma   120.00000000
_symmetry_Int_Tables_number   1
_chemical_formula_structural   CeSiBO5
_chemical_formula_sum   'Ce3 Si3 B3 O15'
_cell_volume   277.96284398
_cell_formula_units_Z   3
loop_
 _symmetry_equiv_pos_site_id
 _symmetry_equiv_pos_as_xyz
  1  'x, y, z'
loop_
 _atom_site_type_symbol
 _atom_site_label
 _atom_site_symmetry_multiplicity
 _atom_site_fract_x
 _atom_site_fract_y
 _atom_site_fract_z
 _atom_site_occupancy
  Ce  Ce0  1  0.411229  0.411488  0.500357  1
  Ce  Ce1  1  0.000259  0.588771  0.167024  1
  Ce  Ce2  1  0.588512  0.999741  0.833690  1
  Si  Si3  1  0.415960  0.417759  0.001144  1
  Si  Si4  1  0.001799  0.584040  0.667811  1
  Si  Si5  1  0.582241  0.998201  0.334478  1
  B  B6  1  0.899163  0.885131  0.474279  1
  B  B7  1  0.985968  0.100837  0.140946  1
  B  B8  1  0.114869  0.014032  0.807612  1
  O  O9  1  0.148737  0.543610  0.503156  1
  O  O10  1  0.394873  0.851263  0.169823  1
  O  O11  1  0.456390  0.605127  0.836489  1
  O  O12  1  0.059729  0.053156  0.609294  1
  O  O13  1  0.946844  0.006573  0.942628  1
  O  O14  1  0.993427  0.940271  0.275961  1
  O  O15  1  0.349412  0.195026  0.857723  1
  O  O16  1  0.804974  0.154386  0.191056  1
  O  O17  1  0.845614  0.650588  0.524389  1
  O  O18  1  0.192188  0.331940  0.149154  1
  O  O19  1  0.668060  0.860248  0.482487  1
  O  O20  1  0.139752  0.807812  0.815820  1
  O  O21  1  0.610741  0.473867  0.161760  1
  O  O22  1  0.526133  0.136874  0.495093  1
  O  O23  1  0.863126  0.389259  0.828426  1
