# generated using pymatgen
data_LiBi(PO3)4
_symmetry_space_group_name_H-M   'P 1'
_cell_length_a   7.58995296
_cell_length_b   9.04580214
_cell_length_c   16.59906606
_cell_angle_alpha   90.00000000
_cell_angle_beta   110.99513577
_cell_angle_gamma   90.00000000
_symmetry_Int_Tables_number   1
_chemical_formula_structural   LiBi(PO3)4
_chemical_formula_sum   'Li4 Bi4 P16 O48'
_cell_volume   1063.98550377
_cell_formula_units_Z   4
loop_
 _symmetry_equiv_pos_site_id
 _symmetry_equiv_pos_as_xyz
  1  'x, y, z'
loop_
 _atom_site_type_symbol
 _atom_site_label
 _atom_site_symmetry_multiplicity
 _atom_site_fract_x
 _atom_site_fract_y
 _atom_site_fract_z
 _atom_site_occupancy
  Li  Li0  1  0.929810  0.580224  0.924158  1
  Li  Li1  1  0.070190  0.419776  0.075842  1
  Li  Li2  1  0.929810  0.919776  0.424158  1
  Li  Li3  1  0.070190  0.080224  0.575842  1
  Bi  Bi4  1  0.680512  0.346176  0.639632  1
  Bi  Bi5  1  0.680512  0.153824  0.139632  1
  Bi  Bi6  1  0.319488  0.846176  0.860368  1
  Bi  Bi7  1  0.319488  0.653824  0.360368  1
  P  P8  1  0.907488  0.969959  0.690207  1
  P  P9  1  0.233286  0.759164  0.056181  1
  P  P10  1  0.766714  0.259164  0.443819  1
  P  P11  1  0.634586  0.739912  0.576246  1
  P  P12  1  0.663206  0.059642  0.785585  1
  P  P13  1  0.365414  0.260088  0.423754  1
  P  P14  1  0.766714  0.240836  0.943819  1
  P  P15  1  0.092512  0.030041  0.309793  1
  P  P16  1  0.233286  0.740836  0.556181  1
  P  P17  1  0.336794  0.559642  0.714415  1
  P  P18  1  0.907488  0.530041  0.190207  1
  P  P19  1  0.365414  0.239912  0.923754  1
  P  P20  1  0.634586  0.760088  0.076246  1
  P  P21  1  0.092512  0.469959  0.809793  1
  P  P22  1  0.663206  0.440358  0.285585  1
  P  P23  1  0.336794  0.940358  0.214415  1
  O  O24  1  0.915857  0.375937  0.156461  1
  O  O25  1  0.584914  0.736582  0.479741  1
  O  O26  1  0.432084  0.841534  0.290545  1
  O  O27  1  0.113572  0.621775  0.039655  1
  O  O28  1  0.886428  0.378225  0.960345  1
  O  O29  1  0.800615  0.152430  0.866512  1
  O  O30  1  0.567916  0.158466  0.709455  1
  O  O31  1  0.415086  0.263418  0.520259  1
  O  O32  1  0.179320  0.038842  0.234862  1
  O  O33  1  0.452709  0.789445  0.599746  1
  O  O34  1  0.271601  0.391919  0.371081  1
  O  O35  1  0.240527  0.114450  0.391006  1
  O  O36  1  0.455239  0.456536  0.685268  1
  O  O37  1  0.090744  0.613148  0.222820  1
  O  O38  1  0.544761  0.956536  0.814732  1
  O  O39  1  0.547291  0.289445  0.900254  1
  O  O40  1  0.084143  0.875937  0.343539  1
  O  O41  1  0.207519  0.638133  0.481642  1
  O  O42  1  0.584914  0.763418  0.979741  1
  O  O43  1  0.432084  0.658466  0.790545  1
  O  O44  1  0.792481  0.138133  0.018358  1
  O  O45  1  0.199385  0.847570  0.133488  1
  O  O46  1  0.199385  0.652430  0.633488  1
  O  O47  1  0.909256  0.113148  0.277180  1
  O  O48  1  0.113572  0.878225  0.539655  1
  O  O49  1  0.759473  0.614450  0.108994  1
  O  O50  1  0.728399  0.891919  0.128919  1
  O  O51  1  0.820680  0.538842  0.265138  1
  O  O52  1  0.179320  0.461158  0.734862  1
  O  O53  1  0.271601  0.108081  0.871081  1
  O  O54  1  0.240527  0.385550  0.891006  1
  O  O55  1  0.886428  0.121775  0.460345  1
  O  O56  1  0.090744  0.886852  0.722820  1
  O  O57  1  0.800615  0.347570  0.366512  1
  O  O58  1  0.084143  0.624063  0.843539  1
  O  O59  1  0.207519  0.861867  0.981642  1
  O  O60  1  0.567916  0.341534  0.209455  1
  O  O61  1  0.415086  0.236582  0.020259  1
  O  O62  1  0.792481  0.361867  0.518358  1
  O  O63  1  0.915857  0.124063  0.656461  1
  O  O64  1  0.452709  0.710555  0.099746  1
  O  O65  1  0.455239  0.043464  0.185268  1
  O  O66  1  0.909256  0.386852  0.777180  1
  O  O67  1  0.544761  0.543464  0.314732  1
  O  O68  1  0.759473  0.885550  0.608994  1
  O  O69  1  0.820680  0.961158  0.765138  1
  O  O70  1  0.547291  0.210555  0.400254  1
  O  O71  1  0.728399  0.608081  0.628919  1
