# generated using pymatgen
data_TiFe2
_symmetry_space_group_name_H-M   'P 1'
_cell_length_a   4.78309100
_cell_length_b   4.78309100
_cell_length_c   7.77016866
_cell_angle_alpha   90.00000000
_cell_angle_beta   90.00000000
_cell_angle_gamma   120.00000000
_symmetry_Int_Tables_number   1
_chemical_formula_structural   TiFe2
_chemical_formula_sum   'Ti4 Fe8'
_cell_volume   153.94952915
_cell_formula_units_Z   4
loop_
 _symmetry_equiv_pos_site_id
 _symmetry_equiv_pos_as_xyz
  1  'x, y, z'
loop_
 _atom_site_type_symbol
 _atom_site_label
 _atom_site_symmetry_multiplicity
 _atom_site_fract_x
 _atom_site_fract_y
 _atom_site_fract_z
 _atom_site_occupancy
  Ti  Ti0  1  0.333333  0.666667  0.437615  1
  Ti  Ti1  1  0.666667  0.333333  0.937615  1
  Ti  Ti2  1  0.666667  0.333333  0.562385  1
  Ti  Ti3  1  0.333333  0.666667  0.062385  1
  Fe  Fe4  1  0.661196  0.830598  0.750000  1
  Fe  Fe5  1  0.338804  0.169402  0.250000  1
  Fe  Fe6  1  0.830598  0.169402  0.250000  1
  Fe  Fe7  1  0.169402  0.338804  0.750000  1
  Fe  Fe8  1  0.169402  0.830598  0.750000  1
  Fe  Fe9  1  0.830598  0.661196  0.250000  1
  Fe  Fe10  1  0.000000  0.000000  0.500000  1
  Fe  Fe11  1  0.000000  0.000000  0.000000  1
