# generated using pymatgen
data_Li2CoPO4F
_symmetry_space_group_name_H-M   'P 1'
_cell_length_a   5.33833231
_cell_length_b   5.35760107
_cell_length_c   7.48787374
_cell_angle_alpha   108.51583596
_cell_angle_beta   108.32746222
_cell_angle_gamma   94.10606341
_symmetry_Int_Tables_number   1
_chemical_formula_structural   Li2CoPO4F
_chemical_formula_sum   'Li4 Co2 P2 O8 F2'
_cell_volume   189.24195597
_cell_formula_units_Z   2
loop_
 _symmetry_equiv_pos_site_id
 _symmetry_equiv_pos_as_xyz
  1  'x, y, z'
loop_
 _atom_site_type_symbol
 _atom_site_label
 _atom_site_symmetry_multiplicity
 _atom_site_fract_x
 _atom_site_fract_y
 _atom_site_fract_z
 _atom_site_occupancy
  Li  Li0  1  0.164911  0.546618  0.121076  1
  Li  Li1  1  0.522513  0.150754  0.860811  1
  Li  Li2  1  0.484722  0.958102  0.478055  1
  Li  Li3  1  0.772948  0.454171  0.708658  1
  Co  Co4  1  0.009741  0.000789  0.019924  1
  Co  Co5  1  0.988901  0.996610  0.504618  1
  P  P6  1  0.663576  0.374363  0.260497  1
  P  P7  1  0.339824  0.629291  0.766950  1
  O  O8  1  0.272750  0.791756  0.624459  1
  O  O9  1  0.722372  0.241237  0.422546  1
  O  O10  1  0.322659  0.323839  0.657580  1
  O  O11  1  0.140260  0.659084  0.882753  1
  O  O12  1  0.865187  0.329800  0.147095  1
  O  O13  1  0.377329  0.253115  0.094562  1
  O  O14  1  0.672241  0.677189  0.363809  1
  O  O15  1  0.637678  0.738052  0.906515  1
  F  F16  1  0.825440  0.109194  0.748302  1
  F  F17  1  0.144830  0.897669  0.273199  1
