# generated using pymatgen
data_SrH12(ClO3)2
_symmetry_space_group_name_H-M   'P 1'
_cell_length_a   7.99695907
_cell_length_b   7.99695907
_cell_length_c   4.19579091
_cell_angle_alpha   90.00000000
_cell_angle_beta   90.00000000
_cell_angle_gamma   120.00000000
_symmetry_Int_Tables_number   1
_chemical_formula_structural   SrH12(ClO3)2
_chemical_formula_sum   'Sr1 H12 Cl2 O6'
_cell_volume   232.37757506
_cell_formula_units_Z   1
loop_
 _symmetry_equiv_pos_site_id
 _symmetry_equiv_pos_as_xyz
  1  'x, y, z'
loop_
 _atom_site_type_symbol
 _atom_site_label
 _atom_site_symmetry_multiplicity
 _atom_site_fract_x
 _atom_site_fract_y
 _atom_site_fract_z
 _atom_site_occupancy
  Sr  Sr0  1  0.000000  0.000000  0.000000  1
  H  H1  1  0.887185  0.643291  0.497226  1
  H  H2  1  0.356709  0.243894  0.497226  1
  H  H3  1  0.756106  0.112815  0.497226  1
  H  H4  1  0.243894  0.356709  0.502774  1
  H  H5  1  0.112815  0.756106  0.502774  1
  H  H6  1  0.643291  0.887185  0.502774  1
  H  H7  1  0.900219  0.344919  0.906925  1
  H  H8  1  0.655081  0.555300  0.906925  1
  H  H9  1  0.444700  0.099781  0.906925  1
  H  H10  1  0.344919  0.900219  0.093075  1
  H  H11  1  0.099781  0.444700  0.093075  1
  H  H12  1  0.555300  0.655081  0.093075  1
  Cl  Cl13  1  0.666667  0.333333  0.618776  1
  Cl  Cl14  1  0.333333  0.666667  0.381224  1
  O  O15  1  0.224717  0.224717  0.500000  1
  O  O16  1  0.000000  0.775283  0.500000  1
  O  O17  1  0.775283  0.000000  0.500000  1
  O  O18  1  0.678278  0.678278  0.000000  1
  O  O19  1  0.000000  0.321722  0.000000  1
  O  O20  1  0.321722  0.000000  0.000000  1
