# generated using pymatgen
data_LiCuPO4
_symmetry_space_group_name_H-M   'P 1'
_cell_length_a   8.54455599
_cell_length_b   8.54455599
_cell_length_c   8.54455599
_cell_angle_alpha   107.73492569
_cell_angle_beta   107.73492569
_cell_angle_gamma   107.73492569
_symmetry_Int_Tables_number   1
_chemical_formula_structural   LiCuPO4
_chemical_formula_sum   'Li6 Cu6 P6 O24'
_cell_volume   508.75943172
_cell_formula_units_Z   6
loop_
 _symmetry_equiv_pos_site_id
 _symmetry_equiv_pos_as_xyz
  1  'x, y, z'
loop_
 _atom_site_type_symbol
 _atom_site_label
 _atom_site_symmetry_multiplicity
 _atom_site_fract_x
 _atom_site_fract_y
 _atom_site_fract_z
 _atom_site_occupancy
  Li  Li0  1  0.727193  0.898832  0.124278  1
  Li  Li1  1  0.124278  0.727193  0.898832  1
  Li  Li2  1  0.420492  0.198920  0.611544  1
  Li  Li3  1  0.898832  0.124278  0.727193  1
  Li  Li4  1  0.198920  0.611544  0.420492  1
  Li  Li5  1  0.611544  0.420492  0.198920  1
  Cu  Cu6  1  0.764879  0.535855  0.931878  1
  Cu  Cu7  1  0.042149  0.233585  0.460728  1
  Cu  Cu8  1  0.535855  0.931878  0.764879  1
  Cu  Cu9  1  0.460728  0.042149  0.233585  1
  Cu  Cu10  1  0.931878  0.764879  0.535855  1
  Cu  Cu11  1  0.233585  0.460728  0.042149  1
  P  P12  1  0.876737  0.279060  0.095561  1
  P  P13  1  0.573047  0.785717  0.388684  1
  P  P14  1  0.095561  0.876737  0.279060  1
  P  P15  1  0.785717  0.388684  0.573047  1
  P  P16  1  0.388684  0.573047  0.785717  1
  P  P17  1  0.279060  0.095561  0.876737  1
  O  O18  1  0.655998  0.904865  0.598398  1
  O  O19  1  0.598398  0.655998  0.904865  1
  O  O20  1  0.992342  0.289563  0.986302  1
  O  O21  1  0.289563  0.986302  0.992342  1
  O  O22  1  0.398359  0.074232  0.773133  1
  O  O23  1  0.295465  0.604219  0.916842  1
  O  O24  1  0.986302  0.992342  0.289563  1
  O  O25  1  0.773133  0.398359  0.074232  1
  O  O26  1  0.737236  0.077851  0.020071  1
  O  O27  1  0.356912  0.301006  0.005065  1
  O  O28  1  0.604219  0.916842  0.295465  1
  O  O29  1  0.308810  0.368563  0.654519  1
  O  O30  1  0.681547  0.673439  0.348537  1
  O  O31  1  0.368563  0.654519  0.308810  1
  O  O32  1  0.654519  0.308810  0.368563  1
  O  O33  1  0.020071  0.737236  0.077851  1
  O  O34  1  0.074232  0.773133  0.398359  1
  O  O35  1  0.904865  0.598398  0.655998  1
  O  O36  1  0.005065  0.356912  0.301006  1
  O  O37  1  0.916842  0.295465  0.604219  1
  O  O38  1  0.301006  0.005065  0.356912  1
  O  O39  1  0.348537  0.681547  0.673439  1
  O  O40  1  0.673439  0.348537  0.681547  1
  O  O41  1  0.077851  0.020071  0.737236  1
