# generated using pymatgen
data_RbH3O2
_symmetry_space_group_name_H-M   'P 1'
_cell_length_a   6.07548689
_cell_length_b   6.07548689
_cell_length_c   6.02474570
_cell_angle_alpha   90.00000000
_cell_angle_beta   90.00000000
_cell_angle_gamma   139.27778579
_symmetry_Int_Tables_number   1
_chemical_formula_structural   RbH3O2
_chemical_formula_sum   'Rb2 H6 O4'
_cell_volume   145.08072508
_cell_formula_units_Z   2
loop_
 _symmetry_equiv_pos_site_id
 _symmetry_equiv_pos_as_xyz
  1  'x, y, z'
loop_
 _atom_site_type_symbol
 _atom_site_label
 _atom_site_symmetry_multiplicity
 _atom_site_fract_x
 _atom_site_fract_y
 _atom_site_fract_z
 _atom_site_occupancy
  Rb  Rb0  1  0.846516  0.153484  0.274244  1
  Rb  Rb1  1  0.153484  0.846516  0.774244  1
  H  H2  1  0.488024  0.511976  0.011807  1
  H  H3  1  0.511976  0.488024  0.511807  1
  H  H4  1  0.913705  0.697670  0.300098  1
  H  H5  1  0.086295  0.302330  0.800098  1
  H  H6  1  0.697670  0.913705  0.800098  1
  H  H7  1  0.302330  0.086295  0.300098  1
  O  O8  1  0.840598  0.159402  0.764404  1
  O  O9  1  0.468102  0.531898  0.853449  1
  O  O10  1  0.159402  0.840598  0.264404  1
  O  O11  1  0.531898  0.468102  0.353449  1
