# generated using pymatgen
data_B2Mo2Ir
_symmetry_space_group_name_H-M   'P 1'
_cell_length_a   3.25741476
_cell_length_b   7.41216138
_cell_length_c   9.45572265
_cell_angle_alpha   90.00000000
_cell_angle_beta   90.00000000
_cell_angle_gamma   90.00000000
_symmetry_Int_Tables_number   1
_chemical_formula_structural   B2Mo2Ir
_chemical_formula_sum   'B8 Mo8 Ir4'
_cell_volume   228.30354312
_cell_formula_units_Z   4
loop_
 _symmetry_equiv_pos_site_id
 _symmetry_equiv_pos_as_xyz
  1  'x, y, z'
loop_
 _atom_site_type_symbol
 _atom_site_label
 _atom_site_symmetry_multiplicity
 _atom_site_fract_x
 _atom_site_fract_y
 _atom_site_fract_z
 _atom_site_occupancy
  B  B0  1  0.500000  0.124560  0.262948  1
  B  B1  1  0.000000  0.616238  0.040254  1
  B  B2  1  0.000000  0.383762  0.959746  1
  B  B3  1  0.000000  0.375440  0.762948  1
  B  B4  1  0.500000  0.116238  0.459746  1
  B  B5  1  0.000000  0.624560  0.237052  1
  B  B6  1  0.500000  0.875440  0.737052  1
  B  B7  1  0.500000  0.883762  0.540254  1
  Mo  Mo8  1  0.500000  0.427859  0.137978  1
  Mo  Mo9  1  0.000000  0.072141  0.637978  1
  Mo  Mo10  1  0.000000  0.689992  0.630500  1
  Mo  Mo11  1  0.500000  0.810008  0.130500  1
  Mo  Mo12  1  0.500000  0.189992  0.869500  1
  Mo  Mo13  1  0.000000  0.310008  0.369500  1
  Mo  Mo14  1  0.500000  0.572141  0.862022  1
  Mo  Mo15  1  0.000000  0.927859  0.362022  1
  Ir  Ir16  1  0.500000  0.620810  0.388834  1
  Ir  Ir17  1  0.000000  0.120810  0.111166  1
  Ir  Ir18  1  0.000000  0.879190  0.888834  1
  Ir  Ir19  1  0.500000  0.379190  0.611166  1
