# generated using pymatgen
data_LiTi2(PO4)3
_symmetry_space_group_name_H-M   'P 1'
_cell_length_a   8.44562384
_cell_length_b   8.45477978
_cell_length_c   8.93544449
_cell_angle_alpha   117.95852448
_cell_angle_beta   90.17839944
_cell_angle_gamma   119.62788090
_symmetry_Int_Tables_number   1
_chemical_formula_structural   LiTi2(PO4)3
_chemical_formula_sum   'Li2 Ti4 P6 O24'
_cell_volume   466.40341084
_cell_formula_units_Z   2
loop_
 _symmetry_equiv_pos_site_id
 _symmetry_equiv_pos_as_xyz
  1  'x, y, z'
loop_
 _atom_site_type_symbol
 _atom_site_label
 _atom_site_symmetry_multiplicity
 _atom_site_fract_x
 _atom_site_fract_y
 _atom_site_fract_z
 _atom_site_occupancy
  Li  Li0  1  0.076213  0.248839  0.141332  1
  Li  Li1  1  0.923787  0.751161  0.858668  1
  Ti  Ti2  1  0.363063  0.652266  0.063460  1
  Ti  Ti3  1  0.851280  0.147942  0.567625  1
  Ti  Ti4  1  0.148720  0.852058  0.432375  1
  Ti  Ti5  1  0.636937  0.347734  0.936540  1
  P  P6  1  0.753692  0.972050  0.251611  1
  P  P7  1  0.031136  0.536857  0.243738  1
  P  P8  1  0.534030  0.750017  0.747765  1
  P  P9  1  0.465970  0.249983  0.252235  1
  P  P10  1  0.968864  0.463143  0.756262  1
  P  P11  1  0.246308  0.027950  0.748389  1
  O  O12  1  0.105186  0.727216  0.277468  1
  O  O13  1  0.504394  0.239355  0.105509  1
  O  O14  1  0.552018  0.827993  0.189291  1
  O  O15  1  0.788621  0.170271  0.101424  1
  O  O16  1  0.854358  0.537056  0.075062  1
  O  O17  1  0.384188  0.798691  0.567917  1
  O  O18  1  0.910101  0.904504  0.285133  1
  O  O19  1  0.774419  0.992048  0.421130  1
  O  O20  1  0.186308  0.518008  0.212234  1
  O  O21  1  0.980303  0.368272  0.407838  1
  O  O22  1  0.528129  0.545287  0.795919  1
  O  O23  1  0.262687  0.109482  0.261147  1
  O  O24  1  0.737313  0.890518  0.738853  1
  O  O25  1  0.471871  0.454713  0.204081  1
  O  O26  1  0.019697  0.631728  0.592162  1
  O  O27  1  0.813692  0.481992  0.787766  1
  O  O28  1  0.225581  0.007952  0.578870  1
  O  O29  1  0.089899  0.095496  0.714867  1
  O  O30  1  0.615812  0.201309  0.432083  1
  O  O31  1  0.145642  0.462944  0.924938  1
  O  O32  1  0.211379  0.829729  0.898576  1
  O  O33  1  0.447982  0.172007  0.810709  1
  O  O34  1  0.495606  0.760645  0.894491  1
  O  O35  1  0.894814  0.272784  0.722532  1
