# generated using pymatgen
data_Ba(GaSb)2
_symmetry_space_group_name_H-M   'P 1'
_cell_length_a   4.51779643
_cell_length_b   10.40841921
_cell_length_c   25.87914726
_cell_angle_alpha   90.00000000
_cell_angle_beta   90.00000000
_cell_angle_gamma   90.00000000
_symmetry_Int_Tables_number   1
_chemical_formula_structural   Ba(GaSb)2
_chemical_formula_sum   'Ba8 Ga16 Sb16'
_cell_volume   1216.91822508
_cell_formula_units_Z   8
loop_
 _symmetry_equiv_pos_site_id
 _symmetry_equiv_pos_as_xyz
  1  'x, y, z'
loop_
 _atom_site_type_symbol
 _atom_site_label
 _atom_site_symmetry_multiplicity
 _atom_site_fract_x
 _atom_site_fract_y
 _atom_site_fract_z
 _atom_site_occupancy
  Ba  Ba0  1  0.750000  0.721893  0.538118  1
  Ba  Ba1  1  0.250000  0.278107  0.461882  1
  Ba  Ba2  1  0.250000  0.221893  0.961882  1
  Ba  Ba3  1  0.750000  0.778107  0.038118  1
  Ba  Ba4  1  0.250000  0.950667  0.708145  1
  Ba  Ba5  1  0.750000  0.049333  0.291855  1
  Ba  Ba6  1  0.750000  0.450667  0.791855  1
  Ba  Ba7  1  0.250000  0.549333  0.208145  1
  Ga  Ga8  1  0.250000  0.602974  0.965825  1
  Ga  Ga9  1  0.750000  0.397026  0.034175  1
  Ga  Ga10  1  0.750000  0.102974  0.534175  1
  Ga  Ga11  1  0.250000  0.897026  0.465825  1
  Ga  Ga12  1  0.750000  0.797150  0.784911  1
  Ga  Ga13  1  0.250000  0.202850  0.215089  1
  Ga  Ga14  1  0.250000  0.297150  0.715089  1
  Ga  Ga15  1  0.750000  0.702850  0.284911  1
  Ga  Ga16  1  0.750000  0.323047  0.578730  1
  Ga  Ga17  1  0.250000  0.676953  0.421270  1
  Ga  Ga18  1  0.750000  0.032740  0.818329  1
  Ga  Ga19  1  0.250000  0.967260  0.181671  1
  Ga  Ga20  1  0.250000  0.532740  0.681671  1
  Ga  Ga21  1  0.750000  0.467260  0.318329  1
  Ga  Ga22  1  0.250000  0.823047  0.921270  1
  Ga  Ga23  1  0.750000  0.176953  0.078730  1
  Sb  Sb24  1  0.250000  0.025675  0.078265  1
  Sb  Sb25  1  0.750000  0.974325  0.921735  1
  Sb  Sb26  1  0.750000  0.525675  0.421735  1
  Sb  Sb27  1  0.250000  0.474325  0.578265  1
  Sb  Sb28  1  0.250000  0.517625  0.070585  1
  Sb  Sb29  1  0.750000  0.482375  0.929415  1
  Sb  Sb30  1  0.750000  0.017625  0.429415  1
  Sb  Sb31  1  0.250000  0.982375  0.570585  1
  Sb  Sb32  1  0.250000  0.186500  0.814541  1
  Sb  Sb33  1  0.750000  0.813500  0.185459  1
  Sb  Sb34  1  0.250000  0.699750  0.829279  1
  Sb  Sb35  1  0.750000  0.300250  0.170721  1
  Sb  Sb36  1  0.750000  0.199750  0.670721  1
  Sb  Sb37  1  0.250000  0.800250  0.329279  1
  Sb  Sb38  1  0.750000  0.686500  0.685459  1
  Sb  Sb39  1  0.250000  0.313500  0.314541  1
