# generated using pymatgen
data_LiBi(PO3)4
_symmetry_space_group_name_H-M   'P 1'
_cell_length_a   10.72722225
_cell_length_b   10.72722225
_cell_length_c   5.30674016
_cell_angle_alpha   77.53557426
_cell_angle_beta   102.46442574
_cell_angle_gamma   111.21949141
_symmetry_Int_Tables_number   1
_chemical_formula_structural   LiBi(PO3)4
_chemical_formula_sum   'Li2 Bi2 P8 O24'
_cell_volume   549.44550310
_cell_formula_units_Z   2
loop_
 _symmetry_equiv_pos_site_id
 _symmetry_equiv_pos_as_xyz
  1  'x, y, z'
loop_
 _atom_site_type_symbol
 _atom_site_label
 _atom_site_symmetry_multiplicity
 _atom_site_fract_x
 _atom_site_fract_y
 _atom_site_fract_z
 _atom_site_occupancy
  Li  Li0  1  0.000000  0.500000  0.000000  1
  Li  Li1  1  0.500000  0.000000  0.000000  1
  Bi  Bi2  1  0.648552  0.351448  0.689970  1
  Bi  Bi3  1  0.351448  0.648552  0.310030  1
  P  P4  1  0.301369  0.935352  0.462407  1
  P  P5  1  0.607975  0.776237  0.835535  1
  P  P6  1  0.392025  0.223763  0.164465  1
  P  P7  1  0.776237  0.607975  0.164465  1
  P  P8  1  0.698631  0.064648  0.537593  1
  P  P9  1  0.223763  0.392025  0.835535  1
  P  P10  1  0.064648  0.698631  0.462407  1
  P  P11  1  0.935352  0.301369  0.537593  1
  O  O12  1  0.130051  0.621808  0.348503  1
  O  O13  1  0.338671  0.949442  0.742492  1
  O  O14  1  0.266747  0.266747  0.000000  1
  O  O15  1  0.733253  0.733253  0.000000  1
  O  O16  1  0.661329  0.050558  0.257508  1
  O  O17  1  0.949442  0.338671  0.257508  1
  O  O18  1  0.217509  0.482314  0.010665  1
  O  O19  1  0.517686  0.782491  0.010665  1
  O  O20  1  0.304893  0.074894  0.276048  1
  O  O21  1  0.925106  0.695107  0.276048  1
  O  O22  1  0.456803  0.310917  0.377323  1
  O  O23  1  0.689083  0.543197  0.377323  1
  O  O24  1  0.858338  0.141662  0.611275  1
  O  O25  1  0.621808  0.130051  0.651497  1
  O  O26  1  0.782491  0.517686  0.989335  1
  O  O27  1  0.378192  0.869949  0.348503  1
  O  O28  1  0.869949  0.378192  0.651497  1
  O  O29  1  0.141662  0.858338  0.388725  1
  O  O30  1  0.310917  0.456803  0.622677  1
  O  O31  1  0.543197  0.689083  0.622677  1
  O  O32  1  0.074894  0.304893  0.723952  1
  O  O33  1  0.695107  0.925106  0.723952  1
  O  O34  1  0.482314  0.217509  0.989335  1
  O  O35  1  0.050558  0.661329  0.742492  1
