# generated using pymatgen
data_Ce4As3
_symmetry_space_group_name_H-M   'P 1'
_cell_length_a   7.71050723
_cell_length_b   7.71050723
_cell_length_c   7.71050723
_cell_angle_alpha   109.47122063
_cell_angle_beta   109.47122063
_cell_angle_gamma   109.47122063
_symmetry_Int_Tables_number   1
_chemical_formula_structural   Ce4As3
_chemical_formula_sum   'Ce8 As6'
_cell_volume   352.87992731
_cell_formula_units_Z   2
loop_
 _symmetry_equiv_pos_site_id
 _symmetry_equiv_pos_as_xyz
  1  'x, y, z'
loop_
 _atom_site_type_symbol
 _atom_site_label
 _atom_site_symmetry_multiplicity
 _atom_site_fract_x
 _atom_site_fract_y
 _atom_site_fract_z
 _atom_site_occupancy
  Ce  Ce0  1  0.141165  0.141165  0.141165  1
  Ce  Ce1  1  0.858835  0.500000  0.000000  1
  Ce  Ce2  1  1.000000  0.858835  0.500000  1
  Ce  Ce3  1  0.500000  1.000000  0.858835  1
  Ce  Ce4  1  1.000000  0.358835  0.500000  1
  Ce  Ce5  1  0.500000  1.000000  0.358835  1
  Ce  Ce6  1  0.358835  0.500000  1.000000  1
  Ce  Ce7  1  0.641165  0.641165  0.641165  1
  As  As8  1  0.250000  0.625000  0.375000  1
  As  As9  1  0.375000  0.250000  0.625000  1
  As  As10  1  0.125000  0.750000  0.875000  1
  As  As11  1  0.875000  0.125000  0.750000  1
  As  As12  1  0.625000  0.375000  0.250000  1
  As  As13  1  0.750000  0.875000  0.125000  1
