# generated using pymatgen
data_Na8Ga2O7
_symmetry_space_group_name_H-M   'P 1'
_cell_length_a   8.73675902
_cell_length_b   11.10286664
_cell_length_c   10.15465890
_cell_angle_alpha   90.00000000
_cell_angle_beta   107.61605451
_cell_angle_gamma   90.00000000
_symmetry_Int_Tables_number   1
_chemical_formula_structural   Na8Ga2O7
_chemical_formula_sum   'Na32 Ga8 O28'
_cell_volume   938.84085537
_cell_formula_units_Z   4
loop_
 _symmetry_equiv_pos_site_id
 _symmetry_equiv_pos_as_xyz
  1  'x, y, z'
loop_
 _atom_site_type_symbol
 _atom_site_label
 _atom_site_symmetry_multiplicity
 _atom_site_fract_x
 _atom_site_fract_y
 _atom_site_fract_z
 _atom_site_occupancy
  Na  Na0  1  0.498729  0.731665  0.371975  1
  Na  Na1  1  0.658436  0.996024  0.981269  1
  Na  Na2  1  0.341564  0.496024  0.518731  1
  Na  Na3  1  0.341564  0.003976  0.018731  1
  Na  Na4  1  0.658436  0.503976  0.481269  1
  Na  Na5  1  0.119987  0.524671  0.924329  1
  Na  Na6  1  0.880013  0.024671  0.575671  1
  Na  Na7  1  0.880013  0.475329  0.075671  1
  Na  Na8  1  0.892594  0.760370  0.967084  1
  Na  Na9  1  0.107406  0.260370  0.532916  1
  Na  Na10  1  0.107406  0.239630  0.032916  1
  Na  Na11  1  0.892594  0.739630  0.467084  1
  Na  Na12  1  0.744871  0.554686  0.787866  1
  Na  Na13  1  0.255129  0.054686  0.712134  1
  Na  Na14  1  0.255129  0.445314  0.212134  1
  Na  Na15  1  0.744871  0.945314  0.287866  1
  Na  Na16  1  0.915359  0.039217  0.857023  1
  Na  Na17  1  0.084641  0.539217  0.642977  1
  Na  Na18  1  0.084641  0.960783  0.142977  1
  Na  Na19  1  0.915359  0.460783  0.357023  1
  Na  Na20  1  0.431203  0.529569  0.856239  1
  Na  Na21  1  0.568797  0.029569  0.643761  1
  Na  Na22  1  0.568797  0.470431  0.143761  1
  Na  Na23  1  0.431203  0.970431  0.356239  1
  Na  Na24  1  0.714314  0.249924  0.930068  1
  Na  Na25  1  0.285686  0.749924  0.569932  1
  Na  Na26  1  0.285686  0.750076  0.069932  1
  Na  Na27  1  0.714314  0.250076  0.430068  1
  Na  Na28  1  0.498729  0.768335  0.871975  1
  Na  Na29  1  0.501271  0.268335  0.628025  1
  Na  Na30  1  0.501271  0.231665  0.128025  1
  Na  Na31  1  0.119987  0.975329  0.424329  1
  Ga  Ga32  1  0.690696  0.714472  0.153461  1
  Ga  Ga33  1  0.309304  0.214472  0.346539  1
  Ga  Ga34  1  0.309304  0.285528  0.846539  1
  Ga  Ga35  1  0.690696  0.785528  0.653461  1
  Ga  Ga36  1  0.093076  0.701479  0.273881  1
  Ga  Ga37  1  0.906924  0.201479  0.226119  1
  Ga  Ga38  1  0.906924  0.298521  0.726119  1
  Ga  Ga39  1  0.093076  0.798521  0.773881  1
  O  O40  1  0.325664  0.382492  0.700697  1
  O  O41  1  0.895976  0.110492  0.377569  1
  O  O42  1  0.104024  0.610492  0.122431  1
  O  O43  1  0.104024  0.889508  0.622431  1
  O  O44  1  0.895976  0.389508  0.877569  1
  O  O45  1  0.328503  0.116361  0.503075  1
  O  O46  1  0.671497  0.616361  0.996925  1
  O  O47  1  0.106565  0.609586  0.431949  1
  O  O48  1  0.104105  0.204986  0.782955  1
  O  O49  1  0.895895  0.704986  0.717045  1
  O  O50  1  0.895895  0.795014  0.217045  1
  O  O51  1  0.104105  0.295014  0.282955  1
  O  O52  1  0.455068  0.152850  0.892836  1
  O  O53  1  0.544932  0.652850  0.607164  1
  O  O54  1  0.544932  0.847150  0.107164  1
  O  O55  1  0.455068  0.347150  0.392836  1
  O  O56  1  0.674336  0.882492  0.799303  1
  O  O57  1  0.328503  0.383639  0.003075  1
  O  O58  1  0.325664  0.117508  0.200697  1
  O  O59  1  0.674336  0.617508  0.299303  1
  O  O60  1  0.247125  0.675719  0.815745  1
  O  O61  1  0.752875  0.175719  0.684255  1
  O  O62  1  0.752875  0.324281  0.184255  1
  O  O63  1  0.247125  0.824281  0.315745  1
  O  O64  1  0.106565  0.890414  0.931949  1
  O  O65  1  0.893435  0.390414  0.568051  1
  O  O66  1  0.893435  0.109586  0.068051  1
  O  O67  1  0.671497  0.883639  0.496925  1
