# generated using pymatgen
data_Er2Cu2O5
_symmetry_space_group_name_H-M   'P 1'
_cell_length_a   3.48875179
_cell_length_b   10.84675181
_cell_length_c   12.48531718
_cell_angle_alpha   90.00000000
_cell_angle_beta   90.00000000
_cell_angle_gamma   90.00000000
_symmetry_Int_Tables_number   1
_chemical_formula_structural   Er2Cu2O5
_chemical_formula_sum   'Er8 Cu8 O20'
_cell_volume   472.46468814
_cell_formula_units_Z   4
loop_
 _symmetry_equiv_pos_site_id
 _symmetry_equiv_pos_as_xyz
  1  'x, y, z'
loop_
 _atom_site_type_symbol
 _atom_site_label
 _atom_site_symmetry_multiplicity
 _atom_site_fract_x
 _atom_site_fract_y
 _atom_site_fract_z
 _atom_site_occupancy
  Er  Er0  1  0.277889  0.543161  0.827077  1
  Er  Er1  1  0.722111  0.456839  0.327077  1
  Er  Er2  1  0.222111  0.043161  0.827077  1
  Er  Er3  1  0.777889  0.956839  0.327077  1
  Er  Er4  1  0.280483  0.708555  0.499406  1
  Er  Er5  1  0.719517  0.291445  0.999406  1
  Er  Er6  1  0.219517  0.208555  0.499406  1
  Er  Er7  1  0.780483  0.791445  0.999406  1
  Cu  Cu8  1  0.845841  0.763363  0.715668  1
  Cu  Cu9  1  0.154159  0.236637  0.215668  1
  Cu  Cu10  1  0.654159  0.263363  0.715668  1
  Cu  Cu11  1  0.345841  0.736637  0.215668  1
  Cu  Cu12  1  0.840602  0.490294  0.609453  1
  Cu  Cu13  1  0.159398  0.509706  0.109453  1
  Cu  Cu14  1  0.659398  0.990294  0.609453  1
  Cu  Cu15  1  0.340602  0.009706  0.109453  1
  O  O16  1  0.274488  0.921800  0.969500  1
  O  O17  1  0.725512  0.078200  0.469500  1
  O  O18  1  0.225512  0.421800  0.969500  1
  O  O19  1  0.774488  0.578200  0.469500  1
  O  O20  1  0.723381  0.930235  0.760533  1
  O  O21  1  0.276619  0.069765  0.260533  1
  O  O22  1  0.776619  0.430235  0.760533  1
  O  O23  1  0.223381  0.569765  0.260533  1
  O  O24  1  0.162186  0.626141  0.663129  1
  O  O25  1  0.837814  0.373859  0.163129  1
  O  O26  1  0.337814  0.126141  0.663129  1
  O  O27  1  0.662186  0.873859  0.163129  1
  O  O28  1  0.783124  0.823360  0.563392  1
  O  O29  1  0.216876  0.176640  0.063392  1
  O  O30  1  0.716876  0.323360  0.563392  1
  O  O31  1  0.283124  0.676640  0.063392  1
  O  O32  1  0.276492  0.826244  0.355044  1
  O  O33  1  0.723508  0.173756  0.855044  1
  O  O34  1  0.223508  0.326244  0.355044  1
  O  O35  1  0.776492  0.673756  0.855044  1
