# generated using pymatgen
data_Cs2NaUCl6
_symmetry_space_group_name_H-M   'P 1'
_cell_length_a   7.83576190
_cell_length_b   7.83576190
_cell_length_c   7.83576190
_cell_angle_alpha   60.00000000
_cell_angle_beta   60.00000000
_cell_angle_gamma   60.00000000
_symmetry_Int_Tables_number   1
_chemical_formula_structural   Cs2NaUCl6
_chemical_formula_sum   'Cs2 Na1 U1 Cl6'
_cell_volume   340.19560188
_cell_formula_units_Z   1
loop_
 _symmetry_equiv_pos_site_id
 _symmetry_equiv_pos_as_xyz
  1  'x, y, z'
loop_
 _atom_site_type_symbol
 _atom_site_label
 _atom_site_symmetry_multiplicity
 _atom_site_fract_x
 _atom_site_fract_y
 _atom_site_fract_z
 _atom_site_occupancy
  Cs  Cs0  1  0.250000  0.250000  0.250000  1
  Cs  Cs1  1  0.750000  0.750000  0.750000  1
  Na  Na2  1  0.500000  0.500000  0.500000  1
  U  U3  1  0.000000  0.000000  0.000000  1
  Cl  Cl4  1  0.753077  0.753077  0.246923  1
  Cl  Cl5  1  0.246923  0.246923  0.753077  1
  Cl  Cl6  1  0.246923  0.753077  0.753077  1
  Cl  Cl7  1  0.753077  0.246923  0.246923  1
  Cl  Cl8  1  0.246923  0.753077  0.246923  1
  Cl  Cl9  1  0.753077  0.246923  0.753077  1
