# generated using pymatgen
data_PdPbF4
_symmetry_space_group_name_H-M   'P 1'
_cell_length_a   6.92137811
_cell_length_b   6.92137811
_cell_length_c   6.92137811
_cell_angle_alpha   128.72776075
_cell_angle_beta   128.72776075
_cell_angle_gamma   75.44901431
_symmetry_Int_Tables_number   1
_chemical_formula_structural   PdPbF4
_chemical_formula_sum   'Pd2 Pb2 F8'
_cell_volume   196.36997858
_cell_formula_units_Z   2
loop_
 _symmetry_equiv_pos_site_id
 _symmetry_equiv_pos_as_xyz
  1  'x, y, z'
loop_
 _atom_site_type_symbol
 _atom_site_label
 _atom_site_symmetry_multiplicity
 _atom_site_fract_x
 _atom_site_fract_y
 _atom_site_fract_z
 _atom_site_occupancy
  Pd  Pd0  1  1.000000  0.500000  0.500000  1
  Pd  Pd1  1  0.500000  1.000000  0.500000  1
  Pb  Pb2  1  0.750000  0.750000  0.000000  1
  Pb  Pb3  1  0.250000  0.250000  0.000000  1
  F  F4  1  0.461532  0.961532  0.162634  1
  F  F5  1  0.201103  0.701103  0.162634  1
  F  F6  1  0.538468  0.038468  0.837366  1
  F  F7  1  0.038468  0.201103  0.500000  1
  F  F8  1  0.798897  0.298897  0.837366  1
  F  F9  1  0.298897  0.461532  0.500000  1
  F  F10  1  0.961532  0.798897  0.500000  1
  F  F11  1  0.701103  0.538468  0.500000  1
