# generated using pymatgen
data_NaMgH3
_symmetry_space_group_name_H-M   'P 1'
_cell_length_a   5.36201618
_cell_length_b   5.44202584
_cell_length_c   7.64192279
_cell_angle_alpha   90.00000000
_cell_angle_beta   90.00000000
_cell_angle_gamma   90.00000000
_symmetry_Int_Tables_number   1
_chemical_formula_structural   NaMgH3
_chemical_formula_sum   'Na4 Mg4 H12'
_cell_volume   222.99306929
_cell_formula_units_Z   4
loop_
 _symmetry_equiv_pos_site_id
 _symmetry_equiv_pos_as_xyz
  1  'x, y, z'
loop_
 _atom_site_type_symbol
 _atom_site_label
 _atom_site_symmetry_multiplicity
 _atom_site_fract_x
 _atom_site_fract_y
 _atom_site_fract_z
 _atom_site_occupancy
  Na  Na0  1  0.505560  0.530422  0.250000  1
  Na  Na1  1  0.994440  0.030422  0.250000  1
  Na  Na2  1  0.494440  0.469578  0.750000  1
  Na  Na3  1  0.005560  0.969578  0.750000  1
  Mg  Mg4  1  0.000000  0.500000  0.000000  1
  Mg  Mg5  1  0.500000  0.000000  0.500000  1
  Mg  Mg6  1  0.000000  0.500000  0.500000  1
  Mg  Mg7  1  0.500000  0.000000  0.000000  1
  H  H8  1  0.794811  0.793222  0.043596  1
  H  H9  1  0.705189  0.293222  0.456404  1
  H  H10  1  0.205189  0.206778  0.543596  1
  H  H11  1  0.294811  0.706778  0.956404  1
  H  H12  1  0.205189  0.206778  0.956404  1
  H  H13  1  0.294811  0.706778  0.543596  1
  H  H14  1  0.794811  0.793222  0.456404  1
  H  H15  1  0.705189  0.293222  0.043596  1
  H  H16  1  0.416656  0.972600  0.250000  1
  H  H17  1  0.083344  0.472600  0.250000  1
  H  H18  1  0.583344  0.027400  0.750000  1
  H  H19  1  0.916656  0.527400  0.750000  1
