# generated using pymatgen
data_NaLi5Sn4
_symmetry_space_group_name_H-M   'P 1'
_cell_length_a   10.94443773
_cell_length_b   10.94443773
_cell_length_c   10.94443773
_cell_angle_alpha   26.22942148
_cell_angle_beta   26.22942148
_cell_angle_gamma   26.22942148
_symmetry_Int_Tables_number   1
_chemical_formula_structural   NaLi5Sn4
_chemical_formula_sum   'Na1 Li5 Sn4'
_cell_volume   225.63304024
_cell_formula_units_Z   1
loop_
 _symmetry_equiv_pos_site_id
 _symmetry_equiv_pos_as_xyz
  1  'x, y, z'
loop_
 _atom_site_type_symbol
 _atom_site_label
 _atom_site_symmetry_multiplicity
 _atom_site_fract_x
 _atom_site_fract_y
 _atom_site_fract_z
 _atom_site_occupancy
  Na  Na0  1  0.516073  0.516073  0.516073  1
  Li  Li1  1  0.138632  0.138632  0.138632  1
  Li  Li2  1  0.052651  0.052651  0.052651  1
  Li  Li3  1  0.415967  0.415967  0.415967  1
  Li  Li4  1  0.863188  0.863188  0.863188  1
  Li  Li5  1  0.946138  0.946138  0.946138  1
  Sn  Sn6  1  0.228699  0.228699  0.228699  1
  Sn  Sn7  1  0.318299  0.318299  0.318299  1
  Sn  Sn8  1  0.682547  0.682547  0.682547  1
  Sn  Sn9  1  0.775007  0.775007  0.775007  1
