# generated using pymatgen
data_Li(CuO2)2
_symmetry_space_group_name_H-M   'P 1'
_cell_length_a   5.86949189
_cell_length_b   5.86949189
_cell_length_c   5.86949189
_cell_angle_alpha   60.00000000
_cell_angle_beta   60.00000000
_cell_angle_gamma   60.00000000
_symmetry_Int_Tables_number   1
_chemical_formula_structural   Li(CuO2)2
_chemical_formula_sum   'Li2 Cu4 O8'
_cell_volume   142.98369747
_cell_formula_units_Z   2
loop_
 _symmetry_equiv_pos_site_id
 _symmetry_equiv_pos_as_xyz
  1  'x, y, z'
loop_
 _atom_site_type_symbol
 _atom_site_label
 _atom_site_symmetry_multiplicity
 _atom_site_fract_x
 _atom_site_fract_y
 _atom_site_fract_z
 _atom_site_occupancy
  Li  Li0  1  0.500000  0.500000  0.500000  1
  Li  Li1  1  0.750000  0.750000  0.750000  1
  Cu  Cu2  1  0.125000  0.625000  0.125000  1
  Cu  Cu3  1  0.625000  0.125000  0.125000  1
  Cu  Cu4  1  0.125000  0.125000  0.625000  1
  Cu  Cu5  1  0.125000  0.125000  0.125000  1
  O  O6  1  0.888144  0.888144  0.888144  1
  O  O7  1  0.888144  0.335567  0.888144  1
  O  O8  1  0.361856  0.361856  0.361856  1
  O  O9  1  0.914433  0.361856  0.361856  1
  O  O10  1  0.361856  0.914433  0.361856  1
  O  O11  1  0.361856  0.361856  0.914433  1
  O  O12  1  0.335567  0.888144  0.888144  1
  O  O13  1  0.888144  0.888144  0.335567  1
