# generated using pymatgen
data_GeBi2O5
_symmetry_space_group_name_H-M   'P 1'
_cell_length_a   3.97117624
_cell_length_b   11.08617733
_cell_length_c   11.19724865
_cell_angle_alpha   90.00000000
_cell_angle_beta   90.00000000
_cell_angle_gamma   90.00000000
_symmetry_Int_Tables_number   1
_chemical_formula_structural   GeBi2O5
_chemical_formula_sum   'Ge4 Bi8 O20'
_cell_volume   492.96070822
_cell_formula_units_Z   4
loop_
 _symmetry_equiv_pos_site_id
 _symmetry_equiv_pos_as_xyz
  1  'x, y, z'
loop_
 _atom_site_type_symbol
 _atom_site_label
 _atom_site_symmetry_multiplicity
 _atom_site_fract_x
 _atom_site_fract_y
 _atom_site_fract_z
 _atom_site_occupancy
  Ge  Ge0  1  0.250000  0.202212  0.864315  1
  Ge  Ge1  1  0.750000  0.797788  0.135685  1
  Ge  Ge2  1  0.750000  0.297788  0.364315  1
  Ge  Ge3  1  0.250000  0.702212  0.635685  1
  Bi  Bi4  1  0.750000  0.359073  0.048885  1
  Bi  Bi5  1  0.250000  0.640927  0.951115  1
  Bi  Bi6  1  0.250000  0.140927  0.548885  1
  Bi  Bi7  1  0.750000  0.859073  0.451115  1
  Bi  Bi8  1  0.750000  0.917881  0.780521  1
  Bi  Bi9  1  0.250000  0.082119  0.219479  1
  Bi  Bi10  1  0.250000  0.582119  0.280521  1
  Bi  Bi11  1  0.750000  0.417881  0.719479  1
  O  O12  1  0.750000  0.240859  0.872208  1
  O  O13  1  0.250000  0.759141  0.127792  1
  O  O14  1  0.250000  0.259141  0.372208  1
  O  O15  1  0.750000  0.740859  0.627792  1
  O  O16  1  0.750000  0.450057  0.321469  1
  O  O17  1  0.250000  0.549943  0.678531  1
  O  O18  1  0.250000  0.049943  0.821469  1
  O  O19  1  0.750000  0.950057  0.178531  1
  O  O20  1  0.750000  0.253236  0.520311  1
  O  O21  1  0.250000  0.746764  0.479689  1
  O  O22  1  0.250000  0.246764  0.020311  1
  O  O23  1  0.750000  0.753236  0.979689  1
  O  O24  1  0.250000  0.303097  0.736473  1
  O  O25  1  0.750000  0.696903  0.263527  1
  O  O26  1  0.750000  0.196903  0.236473  1
  O  O27  1  0.250000  0.803097  0.763527  1
  O  O28  1  0.750000  0.996350  0.600941  1
  O  O29  1  0.250000  0.003650  0.399059  1
  O  O30  1  0.250000  0.503650  0.100941  1
  O  O31  1  0.750000  0.496350  0.899059  1
