# generated using pymatgen
data_Ba5Ge3
_symmetry_space_group_name_H-M   'P 1'
_cell_length_a   8.60331785
_cell_length_b   8.60331785
_cell_length_c   16.82546329
_cell_angle_alpha   90.00000000
_cell_angle_beta   90.00000000
_cell_angle_gamma   90.00000000
_symmetry_Int_Tables_number   1
_chemical_formula_structural   Ba5Ge3
_chemical_formula_sum   'Ba20 Ge12'
_cell_volume   1245.37162920
_cell_formula_units_Z   4
loop_
 _symmetry_equiv_pos_site_id
 _symmetry_equiv_pos_as_xyz
  1  'x, y, z'
loop_
 _atom_site_type_symbol
 _atom_site_label
 _atom_site_symmetry_multiplicity
 _atom_site_fract_x
 _atom_site_fract_y
 _atom_site_fract_z
 _atom_site_occupancy
  Ba  Ba0  1  0.667368  0.693605  0.891635  1
  Ba  Ba1  1  0.806395  0.167368  0.891635  1
  Ba  Ba2  1  0.193605  0.832632  0.891635  1
  Ba  Ba3  1  0.167368  0.806395  0.608365  1
  Ba  Ba4  1  0.832632  0.193605  0.608365  1
  Ba  Ba5  1  0.332632  0.306395  0.891635  1
  Ba  Ba6  1  0.693605  0.667368  0.608365  1
  Ba  Ba7  1  0.306395  0.332632  0.608365  1
  Ba  Ba8  1  0.193605  0.167368  0.391635  1
  Ba  Ba9  1  0.806395  0.832632  0.391635  1
  Ba  Ba10  1  0.167368  0.193605  0.108365  1
  Ba  Ba11  1  0.667368  0.306395  0.391635  1
  Ba  Ba12  1  0.332632  0.693605  0.391635  1
  Ba  Ba13  1  0.306395  0.667368  0.108365  1
  Ba  Ba14  1  0.693605  0.332632  0.108365  1
  Ba  Ba15  1  0.832632  0.806395  0.108365  1
  Ba  Ba16  1  0.500000  0.000000  0.722032  1
  Ba  Ba17  1  0.000000  0.500000  0.777968  1
  Ba  Ba18  1  0.000000  0.500000  0.277968  1
  Ba  Ba19  1  0.500000  0.000000  0.222032  1
  Ge  Ge20  1  0.607619  0.392381  0.750000  1
  Ge  Ge21  1  0.107619  0.107619  0.750000  1
  Ge  Ge22  1  0.892381  0.892381  0.750000  1
  Ge  Ge23  1  0.392381  0.607619  0.750000  1
  Ge  Ge24  1  0.892381  0.107619  0.250000  1
  Ge  Ge25  1  0.392381  0.392381  0.250000  1
  Ge  Ge26  1  0.607619  0.607619  0.250000  1
  Ge  Ge27  1  0.107619  0.892381  0.250000  1
  Ge  Ge28  1  0.500000  0.000000  0.510183  1
  Ge  Ge29  1  0.000000  0.500000  0.989817  1
  Ge  Ge30  1  0.000000  0.500000  0.489817  1
  Ge  Ge31  1  0.500000  0.000000  0.010183  1
