# generated using pymatgen
data_PrSnRu
_symmetry_space_group_name_H-M   'P 1'
_cell_length_a   4.89433932
_cell_length_b   7.40211797
_cell_length_c   7.69573606
_cell_angle_alpha   90.00000000
_cell_angle_beta   90.00000000
_cell_angle_gamma   90.00000000
_symmetry_Int_Tables_number   1
_chemical_formula_structural   PrSnRu
_chemical_formula_sum   'Pr4 Sn4 Ru4'
_cell_volume   278.80479709
_cell_formula_units_Z   4
loop_
 _symmetry_equiv_pos_site_id
 _symmetry_equiv_pos_as_xyz
  1  'x, y, z'
loop_
 _atom_site_type_symbol
 _atom_site_label
 _atom_site_symmetry_multiplicity
 _atom_site_fract_x
 _atom_site_fract_y
 _atom_site_fract_z
 _atom_site_occupancy
  Pr  Pr0  1  0.250000  0.809152  0.468189  1
  Pr  Pr1  1  0.750000  0.190848  0.531811  1
  Pr  Pr2  1  0.750000  0.309152  0.031811  1
  Pr  Pr3  1  0.250000  0.690848  0.968189  1
  Sn  Sn4  1  0.750000  0.612695  0.695479  1
  Sn  Sn5  1  0.750000  0.887305  0.195479  1
  Sn  Sn6  1  0.250000  0.112695  0.804521  1
  Sn  Sn7  1  0.250000  0.387305  0.304521  1
  Ru  Ru8  1  0.750000  0.556992  0.348946  1
  Ru  Ru9  1  0.750000  0.943008  0.848946  1
  Ru  Ru10  1  0.250000  0.056992  0.151054  1
  Ru  Ru11  1  0.250000  0.443008  0.651054  1
