# generated using pymatgen
data_K3(PtO2)2
_symmetry_space_group_name_H-M   'P 1'
_cell_length_a   5.61682922
_cell_length_b   5.61682922
_cell_length_c   11.79592760
_cell_angle_alpha   90.00000000
_cell_angle_beta   90.00000000
_cell_angle_gamma   113.49256627
_symmetry_Int_Tables_number   1
_chemical_formula_structural   K3(PtO2)2
_chemical_formula_sum   'K6 Pt4 O8'
_cell_volume   341.30041729
_cell_formula_units_Z   2
loop_
 _symmetry_equiv_pos_site_id
 _symmetry_equiv_pos_as_xyz
  1  'x, y, z'
loop_
 _atom_site_type_symbol
 _atom_site_label
 _atom_site_symmetry_multiplicity
 _atom_site_fract_x
 _atom_site_fract_y
 _atom_site_fract_z
 _atom_site_occupancy
  K  K0  1  0.648168  0.351832  0.067726  1
  K  K1  1  0.351832  0.648168  0.567726  1
  K  K2  1  0.351832  0.648168  0.932274  1
  K  K3  1  0.648168  0.351832  0.432274  1
  K  K4  1  0.289393  0.710607  0.250000  1
  K  K5  1  0.710607  0.289393  0.750000  1
  Pt  Pt6  1  0.000000  0.000000  0.000000  1
  Pt  Pt7  1  0.000000  0.000000  0.500000  1
  Pt  Pt8  1  0.921860  0.078140  0.250000  1
  Pt  Pt9  1  0.078140  0.921860  0.750000  1
  O  O10  1  0.872584  0.710505  0.884132  1
  O  O11  1  0.127416  0.289495  0.384132  1
  O  O12  1  0.710505  0.872584  0.115868  1
  O  O13  1  0.289495  0.127416  0.615868  1
  O  O14  1  0.127416  0.289495  0.115868  1
  O  O15  1  0.872584  0.710505  0.615868  1
  O  O16  1  0.289495  0.127416  0.884132  1
  O  O17  1  0.710505  0.872584  0.384132  1
