# generated using pymatgen
data_CeCrS3
_symmetry_space_group_name_H-M   'P 1'
_cell_length_a   3.77226801
_cell_length_b   7.78230442
_cell_length_c   12.91579971
_cell_angle_alpha   90.00000000
_cell_angle_beta   90.00000000
_cell_angle_gamma   90.00000000
_symmetry_Int_Tables_number   1
_chemical_formula_structural   CeCrS3
_chemical_formula_sum   'Ce4 Cr4 S12'
_cell_volume   379.16833141
_cell_formula_units_Z   4
loop_
 _symmetry_equiv_pos_site_id
 _symmetry_equiv_pos_as_xyz
  1  'x, y, z'
loop_
 _atom_site_type_symbol
 _atom_site_label
 _atom_site_symmetry_multiplicity
 _atom_site_fract_x
 _atom_site_fract_y
 _atom_site_fract_z
 _atom_site_occupancy
  Ce  Ce0  1  0.250000  0.586997  0.672772  1
  Ce  Ce1  1  0.750000  0.413003  0.327228  1
  Ce  Ce2  1  0.250000  0.086997  0.827228  1
  Ce  Ce3  1  0.750000  0.913003  0.172772  1
  Cr  Cr4  1  0.250000  0.836996  0.447521  1
  Cr  Cr5  1  0.750000  0.163004  0.552479  1
  Cr  Cr6  1  0.250000  0.336996  0.052479  1
  Cr  Cr7  1  0.750000  0.663004  0.947521  1
  S  S8  1  0.250000  0.987244  0.607175  1
  S  S9  1  0.750000  0.012756  0.392825  1
  S  S10  1  0.250000  0.487244  0.892825  1
  S  S11  1  0.750000  0.512756  0.107175  1
  S  S12  1  0.250000  0.839620  0.006629  1
  S  S13  1  0.750000  0.160380  0.993371  1
  S  S14  1  0.250000  0.339620  0.493371  1
  S  S15  1  0.750000  0.660380  0.506629  1
  S  S16  1  0.750000  0.807669  0.785458  1
  S  S17  1  0.250000  0.192331  0.214542  1
  S  S18  1  0.750000  0.307669  0.714542  1
  S  S19  1  0.250000  0.692331  0.285458  1
