# generated using pymatgen
data_Cd4P2Cl3
_symmetry_space_group_name_H-M   'P 1'
_cell_length_a   12.42100939
_cell_length_b   12.42100939
_cell_length_c   12.42100939
_cell_angle_alpha   90.00000000
_cell_angle_beta   90.00000000
_cell_angle_gamma   90.00000000
_symmetry_Int_Tables_number   1
_chemical_formula_structural   Cd4P2Cl3
_chemical_formula_sum   'Cd32 P16 Cl24'
_cell_volume   1916.33164057
_cell_formula_units_Z   8
loop_
 _symmetry_equiv_pos_site_id
 _symmetry_equiv_pos_as_xyz
  1  'x, y, z'
loop_
 _atom_site_type_symbol
 _atom_site_label
 _atom_site_symmetry_multiplicity
 _atom_site_fract_x
 _atom_site_fract_y
 _atom_site_fract_z
 _atom_site_occupancy
  Cd  Cd0  1  0.723381  0.223381  0.276619  1
  Cd  Cd1  1  0.276619  0.723381  0.223381  1
  Cd  Cd2  1  0.223381  0.276619  0.723381  1
  Cd  Cd3  1  0.776619  0.776619  0.776619  1
  Cd  Cd4  1  0.276619  0.776619  0.723381  1
  Cd  Cd5  1  0.723381  0.276619  0.776619  1
  Cd  Cd6  1  0.776619  0.723381  0.276619  1
  Cd  Cd7  1  0.223381  0.223381  0.223381  1
  Cd  Cd8  1  0.750127  0.030430  0.512105  1
  Cd  Cd9  1  0.512105  0.750127  0.030430  1
  Cd  Cd10  1  0.030430  0.512105  0.750127  1
  Cd  Cd11  1  0.469570  0.487895  0.250127  1
  Cd  Cd12  1  0.012105  0.749873  0.969570  1
  Cd  Cd13  1  0.969570  0.012105  0.749873  1
  Cd  Cd14  1  0.987895  0.249873  0.530430  1
  Cd  Cd15  1  0.487895  0.250127  0.469570  1
  Cd  Cd16  1  0.530430  0.987895  0.249873  1
  Cd  Cd17  1  0.250127  0.469570  0.487895  1
  Cd  Cd18  1  0.249873  0.530430  0.987895  1
  Cd  Cd19  1  0.749873  0.969570  0.012105  1
  Cd  Cd20  1  0.249873  0.969570  0.487895  1
  Cd  Cd21  1  0.487895  0.249873  0.969570  1
  Cd  Cd22  1  0.969570  0.487895  0.249873  1
  Cd  Cd23  1  0.530430  0.512105  0.749873  1
  Cd  Cd24  1  0.987895  0.250127  0.030430  1
  Cd  Cd25  1  0.030430  0.987895  0.250127  1
  Cd  Cd26  1  0.012105  0.750127  0.469570  1
  Cd  Cd27  1  0.512105  0.749873  0.530430  1
  Cd  Cd28  1  0.469570  0.012105  0.750127  1
  Cd  Cd29  1  0.749873  0.530430  0.512105  1
  Cd  Cd30  1  0.750127  0.469570  0.012105  1
  Cd  Cd31  1  0.250127  0.030430  0.987895  1
  P  P32  1  0.948984  0.051016  0.551016  1
  P  P33  1  0.551016  0.948984  0.051016  1
  P  P34  1  0.051016  0.551016  0.948984  1
  P  P35  1  0.448984  0.448984  0.448984  1
  P  P36  1  0.051016  0.948984  0.448984  1
  P  P37  1  0.448984  0.051016  0.948984  1
  P  P38  1  0.948984  0.448984  0.051016  1
  P  P39  1  0.551016  0.551016  0.551016  1
  P  P40  1  0.607310  0.107310  0.392690  1
  P  P41  1  0.392690  0.607310  0.107310  1
  P  P42  1  0.107310  0.392690  0.607310  1
  P  P43  1  0.892690  0.892690  0.892690  1
  P  P44  1  0.392690  0.892690  0.607310  1
  P  P45  1  0.607310  0.392690  0.892690  1
  P  P46  1  0.892690  0.607310  0.392690  1
  P  P47  1  0.107310  0.107310  0.107310  1
  Cl  Cl48  1  0.681311  0.073668  0.726700  1
  Cl  Cl49  1  0.726700  0.681311  0.073668  1
  Cl  Cl50  1  0.073668  0.726700  0.681311  1
  Cl  Cl51  1  0.426332  0.273300  0.181311  1
  Cl  Cl52  1  0.226700  0.818689  0.926332  1
  Cl  Cl53  1  0.926332  0.226700  0.818689  1
  Cl  Cl54  1  0.773300  0.318689  0.573668  1
  Cl  Cl55  1  0.273300  0.181311  0.426332  1
  Cl  Cl56  1  0.573668  0.773300  0.318689  1
  Cl  Cl57  1  0.181311  0.426332  0.273300  1
  Cl  Cl58  1  0.318689  0.573668  0.773300  1
  Cl  Cl59  1  0.818689  0.926332  0.226700  1
  Cl  Cl60  1  0.318689  0.926332  0.273300  1
  Cl  Cl61  1  0.273300  0.318689  0.926332  1
  Cl  Cl62  1  0.926332  0.273300  0.318689  1
  Cl  Cl63  1  0.573668  0.726700  0.818689  1
  Cl  Cl64  1  0.773300  0.181311  0.073668  1
  Cl  Cl65  1  0.073668  0.773300  0.181311  1
  Cl  Cl66  1  0.226700  0.681311  0.426332  1
  Cl  Cl67  1  0.726700  0.818689  0.573668  1
  Cl  Cl68  1  0.426332  0.226700  0.681311  1
  Cl  Cl69  1  0.818689  0.573668  0.726700  1
  Cl  Cl70  1  0.681311  0.426332  0.226700  1
  Cl  Cl71  1  0.181311  0.073668  0.773300  1
