# generated using pymatgen
data_CeTaO4
_symmetry_space_group_name_H-M   'P 1'
_cell_length_a   7.70595068
_cell_length_b   5.50978111
_cell_length_c   7.80138095
_cell_angle_alpha   90.00000000
_cell_angle_beta   100.12660021
_cell_angle_gamma   90.00000000
_symmetry_Int_Tables_number   1
_chemical_formula_structural   CeTaO4
_chemical_formula_sum   'Ce4 Ta4 O16'
_cell_volume   326.07178119
_cell_formula_units_Z   4
loop_
 _symmetry_equiv_pos_site_id
 _symmetry_equiv_pos_as_xyz
  1  'x, y, z'
loop_
 _atom_site_type_symbol
 _atom_site_label
 _atom_site_symmetry_multiplicity
 _atom_site_fract_x
 _atom_site_fract_y
 _atom_site_fract_z
 _atom_site_occupancy
  Ce  Ce0  1  0.348099  0.274894  0.101711  1
  Ce  Ce1  1  0.651901  0.725106  0.898289  1
  Ce  Ce2  1  0.348099  0.225106  0.601711  1
  Ce  Ce3  1  0.651901  0.774894  0.398289  1
  Ta  Ta4  1  0.833805  0.232707  0.695421  1
  Ta  Ta5  1  0.833805  0.267293  0.195421  1
  Ta  Ta6  1  0.166195  0.732707  0.804579  1
  Ta  Ta7  1  0.166195  0.767293  0.304579  1
  O  O8  1  0.830681  0.155565  0.444165  1
  O  O9  1  0.334545  0.995798  0.868648  1
  O  O10  1  0.613648  0.486669  0.168750  1
  O  O11  1  0.665455  0.495798  0.631352  1
  O  O12  1  0.057776  0.409914  0.705222  1
  O  O13  1  0.334545  0.504202  0.368648  1
  O  O14  1  0.169319  0.655565  0.055835  1
  O  O15  1  0.942224  0.590086  0.294778  1
  O  O16  1  0.386352  0.986669  0.331250  1
  O  O17  1  0.942224  0.909914  0.794778  1
  O  O18  1  0.830681  0.344435  0.944165  1
  O  O19  1  0.613648  0.013331  0.668750  1
  O  O20  1  0.057776  0.090086  0.205222  1
  O  O21  1  0.386352  0.513331  0.831250  1
  O  O22  1  0.665455  0.004202  0.131352  1
  O  O23  1  0.169319  0.844435  0.555835  1
