# generated using pymatgen
data_Ba(SiNi)2
_symmetry_space_group_name_H-M   'P 1'
_cell_length_a   4.21420167
_cell_length_b   4.21420167
_cell_length_c   11.43481545
_cell_angle_alpha   90.00000000
_cell_angle_beta   90.00000000
_cell_angle_gamma   101.03032019
_symmetry_Int_Tables_number   1
_chemical_formula_structural   Ba(SiNi)2
_chemical_formula_sum   'Ba2 Si4 Ni4'
_cell_volume   199.32493432
_cell_formula_units_Z   2
loop_
 _symmetry_equiv_pos_site_id
 _symmetry_equiv_pos_as_xyz
  1  'x, y, z'
loop_
 _atom_site_type_symbol
 _atom_site_label
 _atom_site_symmetry_multiplicity
 _atom_site_fract_x
 _atom_site_fract_y
 _atom_site_fract_z
 _atom_site_occupancy
  Ba  Ba0  1  0.796167  0.796167  0.750000  1
  Ba  Ba1  1  0.203833  0.203833  0.250000  1
  Si  Si2  1  0.688699  0.688699  0.433192  1
  Si  Si3  1  0.311301  0.311301  0.933192  1
  Si  Si4  1  0.688699  0.688699  0.066808  1
  Si  Si5  1  0.311301  0.311301  0.566808  1
  Ni  Ni6  1  0.204453  0.795547  1.000000  1
  Ni  Ni7  1  0.795547  0.204453  0.500000  1
  Ni  Ni8  1  0.204453  0.795547  0.500000  1
  Ni  Ni9  1  0.795547  0.204453  1.000000  1
