# generated using pymatgen
data_FeBiO3
_symmetry_space_group_name_H-M   'P 1'
_cell_length_a   5.72381361
_cell_length_b   5.72381361
_cell_length_c   5.72381361
_cell_angle_alpha   59.05301940
_cell_angle_beta   59.05301940
_cell_angle_gamma   59.05301940
_symmetry_Int_Tables_number   1
_chemical_formula_structural   FeBiO3
_chemical_formula_sum   'Fe2 Bi2 O6'
_cell_volume   129.73596663
_cell_formula_units_Z   2
loop_
 _symmetry_equiv_pos_site_id
 _symmetry_equiv_pos_as_xyz
  1  'x, y, z'
loop_
 _atom_site_type_symbol
 _atom_site_label
 _atom_site_symmetry_multiplicity
 _atom_site_fract_x
 _atom_site_fract_y
 _atom_site_fract_z
 _atom_site_occupancy
  Fe  Fe0  1  0.720358  0.720358  0.720358  1
  Fe  Fe1  1  0.220358  0.220358  0.220358  1
  Bi  Bi2  1  0.499779  0.499779  0.499779  1
  Bi  Bi3  1  0.999779  0.999779  0.999779  1
  O  O4  1  0.885995  0.036490  0.434378  1
  O  O5  1  0.434378  0.885995  0.036490  1
  O  O6  1  0.036490  0.434378  0.885995  1
  O  O7  1  0.934378  0.536490  0.385995  1
  O  O8  1  0.385995  0.934378  0.536490  1
  O  O9  1  0.536490  0.385995  0.934378  1
