# generated using pymatgen
data_SbAs2Cl13
_symmetry_space_group_name_H-M   'P 1'
_cell_length_a   9.87918632
_cell_length_b   9.87918632
_cell_length_c   12.18304244
_cell_angle_alpha   90.00000000
_cell_angle_beta   90.00000000
_cell_angle_gamma   113.64517667
_symmetry_Int_Tables_number   1
_chemical_formula_structural   SbAs2Cl13
_chemical_formula_sum   'Sb2 As4 Cl26'
_cell_volume   1089.22038367
_cell_formula_units_Z   2
loop_
 _symmetry_equiv_pos_site_id
 _symmetry_equiv_pos_as_xyz
  1  'x, y, z'
loop_
 _atom_site_type_symbol
 _atom_site_label
 _atom_site_symmetry_multiplicity
 _atom_site_fract_x
 _atom_site_fract_y
 _atom_site_fract_z
 _atom_site_occupancy
  Sb  Sb0  1  0.209684  0.790316  0.499159  1
  Sb  Sb1  1  0.790316  0.209684  0.999159  1
  As  As2  1  0.447840  0.552160  0.649601  1
  As  As3  1  0.143044  0.856956  0.961641  1
  As  As4  1  0.552160  0.447840  0.149601  1
  As  As5  1  0.856956  0.143044  0.461641  1
  Cl  Cl6  1  0.242475  0.074261  0.900989  1
  Cl  Cl7  1  0.377705  0.311000  0.630316  1
  Cl  Cl8  1  0.667762  0.332238  0.892120  1
  Cl  Cl9  1  0.332238  0.667762  0.392120  1
  Cl  Cl10  1  0.911340  0.088660  0.109694  1
  Cl  Cl11  1  0.088660  0.911340  0.609694  1
  Cl  Cl12  1  0.004766  0.310335  0.882388  1
  Cl  Cl13  1  0.995234  0.689665  0.382388  1
  Cl  Cl14  1  0.689665  0.995234  0.882388  1
  Cl  Cl15  1  0.310335  0.004766  0.382388  1
  Cl  Cl16  1  0.892394  0.425074  0.117183  1
  Cl  Cl17  1  0.107606  0.574926  0.617183  1
  Cl  Cl18  1  0.574926  0.107606  0.117183  1
  Cl  Cl19  1  0.425074  0.892394  0.617183  1
  Cl  Cl20  1  0.689000  0.622295  0.630316  1
  Cl  Cl21  1  0.074261  0.242475  0.400989  1
  Cl  Cl22  1  0.925739  0.757525  0.900989  1
  Cl  Cl23  1  0.757525  0.925739  0.400989  1
  Cl  Cl24  1  0.264373  0.735627  0.908617  1
  Cl  Cl25  1  0.735627  0.264373  0.408617  1
  Cl  Cl26  1  0.139791  0.860209  0.134741  1
  Cl  Cl27  1  0.860209  0.139791  0.634741  1
  Cl  Cl28  1  0.441702  0.558298  0.833875  1
  Cl  Cl29  1  0.558298  0.441702  0.333875  1
  Cl  Cl30  1  0.311000  0.377705  0.130316  1
  Cl  Cl31  1  0.622295  0.689000  0.130316  1
