# generated using pymatgen
data_KEr2F7
_symmetry_space_group_name_H-M   'P 1'
_cell_length_a   7.81234254
_cell_length_b   11.85847564
_cell_length_c   13.34199364
_cell_angle_alpha   90.00000000
_cell_angle_beta   90.00000000
_cell_angle_gamma   90.00000000
_symmetry_Int_Tables_number   1
_chemical_formula_structural   KEr2F7
_chemical_formula_sum   'K8 Er16 F56'
_cell_volume   1236.03529492
_cell_formula_units_Z   8
loop_
 _symmetry_equiv_pos_site_id
 _symmetry_equiv_pos_as_xyz
  1  'x, y, z'
loop_
 _atom_site_type_symbol
 _atom_site_label
 _atom_site_symmetry_multiplicity
 _atom_site_fract_x
 _atom_site_fract_y
 _atom_site_fract_z
 _atom_site_occupancy
  K  K0  1  0.004435  0.085410  0.093898  1
  K  K1  1  0.504435  0.914590  0.906102  1
  K  K2  1  0.504435  0.414590  0.593898  1
  K  K3  1  0.004435  0.585410  0.406102  1
  K  K4  1  0.981707  0.434907  0.068413  1
  K  K5  1  0.481707  0.565093  0.931587  1
  K  K6  1  0.481707  0.065093  0.568413  1
  K  K7  1  0.981707  0.934907  0.431587  1
  Er  Er8  1  0.779484  0.756059  0.162643  1
  Er  Er9  1  0.279484  0.243941  0.837357  1
  Er  Er10  1  0.279484  0.743941  0.662643  1
  Er  Er11  1  0.779484  0.256059  0.337357  1
  Er  Er12  1  0.006111  0.492935  0.758458  1
  Er  Er13  1  0.506111  0.507065  0.241542  1
  Er  Er14  1  0.506111  0.007065  0.258458  1
  Er  Er15  1  0.006111  0.992935  0.741542  1
  Er  Er16  1  0.732100  0.243687  0.837012  1
  Er  Er17  1  0.232100  0.756313  0.162988  1
  Er  Er18  1  0.232100  0.256313  0.337012  1
  Er  Er19  1  0.732100  0.743687  0.662988  1
  Er  Er20  1  0.504813  0.210184  0.062718  1
  Er  Er21  1  0.004813  0.789816  0.937282  1
  Er  Er22  1  0.004813  0.289816  0.562718  1
  Er  Er23  1  0.504813  0.710184  0.437282  1
  F  F24  1  0.338323  0.588861  0.123016  1
  F  F25  1  0.838323  0.411139  0.876984  1
  F  F26  1  0.838323  0.911139  0.623016  1
  F  F27  1  0.338323  0.088861  0.376984  1
  F  F28  1  0.253029  0.925326  0.232553  1
  F  F29  1  0.753029  0.074674  0.767447  1
  F  F30  1  0.753029  0.574674  0.732553  1
  F  F31  1  0.253029  0.425326  0.267447  1
  F  F32  1  0.335736  0.669485  0.301575  1
  F  F33  1  0.835736  0.330515  0.698425  1
  F  F34  1  0.835736  0.830515  0.801575  1
  F  F35  1  0.335736  0.169485  0.198425  1
  F  F36  1  0.504127  0.526490  0.410957  1
  F  F37  1  0.004127  0.473510  0.589043  1
  F  F38  1  0.004127  0.973510  0.910957  1
  F  F39  1  0.504127  0.026490  0.089043  1
  F  F40  1  0.509854  0.876344  0.374538  1
  F  F41  1  0.009854  0.123656  0.625462  1
  F  F42  1  0.009854  0.623656  0.874538  1
  F  F43  1  0.760227  0.926615  0.230487  1
  F  F44  1  0.509854  0.376344  0.125462  1
  F  F45  1  0.180757  0.413595  0.875808  1
  F  F46  1  0.180757  0.913595  0.624192  1
  F  F47  1  0.680757  0.086405  0.375808  1
  F  F48  1  0.006860  0.162855  0.419468  1
  F  F49  1  0.506860  0.837145  0.580532  1
  F  F50  1  0.506860  0.337145  0.919468  1
  F  F51  1  0.006860  0.662855  0.080532  1
  F  F52  1  0.673389  0.170165  0.198429  1
  F  F53  1  0.173389  0.829835  0.801571  1
  F  F54  1  0.173389  0.329835  0.698429  1
  F  F55  1  0.673389  0.670165  0.301571  1
  F  F56  1  0.269775  0.281159  0.502327  1
  F  F57  1  0.769775  0.718841  0.497673  1
  F  F58  1  0.769775  0.218841  0.002327  1
  F  F59  1  0.269775  0.781159  0.997673  1
  F  F60  1  0.241168  0.219106  0.001874  1
  F  F61  1  0.741168  0.780894  0.998126  1
  F  F62  1  0.741168  0.280894  0.501874  1
  F  F63  1  0.241168  0.719106  0.498126  1
  F  F64  1  0.004997  0.242898  0.234889  1
  F  F65  1  0.504997  0.757102  0.765111  1
  F  F66  1  0.504997  0.257102  0.734889  1
  F  F67  1  0.004997  0.742898  0.265111  1
  F  F68  1  0.006083  0.366469  0.404619  1
  F  F69  1  0.506083  0.633531  0.595381  1
  F  F70  1  0.506083  0.133531  0.904619  1
  F  F71  1  0.006083  0.866469  0.095381  1
  F  F72  1  0.506068  0.307426  0.339047  1
  F  F73  1  0.006068  0.692574  0.660953  1
  F  F74  1  0.006068  0.192574  0.839047  1
  F  F75  1  0.506068  0.807426  0.160953  1
  F  F76  1  0.760227  0.426615  0.269513  1
  F  F77  1  0.260226  0.573385  0.730487  1
  F  F78  1  0.260226  0.073385  0.769513  1
  F  F79  1  0.680757  0.586405  0.124192  1
