# generated using pymatgen
data_KMoP2O7
_symmetry_space_group_name_H-M   'P 1'
_cell_length_a   7.56242095
_cell_length_b   10.62912244
_cell_length_c   8.54249286
_cell_angle_alpha   90.00000000
_cell_angle_beta   106.98818468
_cell_angle_gamma   90.00000000
_symmetry_Int_Tables_number   1
_chemical_formula_structural   KMoP2O7
_chemical_formula_sum   'K4 Mo4 P8 O28'
_cell_volume   656.69932353
_cell_formula_units_Z   4
loop_
 _symmetry_equiv_pos_site_id
 _symmetry_equiv_pos_as_xyz
  1  'x, y, z'
loop_
 _atom_site_type_symbol
 _atom_site_label
 _atom_site_symmetry_multiplicity
 _atom_site_fract_x
 _atom_site_fract_y
 _atom_site_fract_z
 _atom_site_occupancy
  K  K0  1  0.179347  0.171871  0.060775  1
  K  K1  1  0.179347  0.328129  0.560775  1
  K  K2  1  0.820653  0.828129  0.939225  1
  K  K3  1  0.820653  0.671871  0.439225  1
  Mo  Mo4  1  0.234846  0.601026  0.258838  1
  Mo  Mo5  1  0.765154  0.398974  0.741162  1
  Mo  Mo6  1  0.234846  0.898974  0.758838  1
  Mo  Mo7  1  0.765154  0.101026  0.241162  1
  P  P8  1  0.440838  0.862521  0.195166  1
  P  P9  1  0.559162  0.137479  0.804834  1
  P  P10  1  0.128086  0.601397  0.824274  1
  P  P11  1  0.559162  0.362521  0.304834  1
  P  P12  1  0.871914  0.398603  0.175726  1
  P  P13  1  0.440838  0.637479  0.695166  1
  P  P14  1  0.128086  0.898603  0.324274  1
  P  P15  1  0.871914  0.101397  0.675726  1
  O  O16  1  0.458351  0.721675  0.239466  1
  O  O17  1  0.634161  0.920086  0.241025  1
  O  O18  1  0.541649  0.221675  0.260534  1
  O  O19  1  0.634161  0.579914  0.741025  1
  O  O20  1  0.541649  0.278325  0.760534  1
  O  O21  1  0.071168  0.768229  0.246466  1
  O  O22  1  0.928832  0.268229  0.253534  1
  O  O23  1  0.663985  0.070588  0.683774  1
  O  O24  1  0.677881  0.394057  0.477435  1
  O  O25  1  0.336015  0.570588  0.816226  1
  O  O26  1  0.322119  0.894057  0.022565  1
  O  O27  1  0.365839  0.420086  0.258975  1
  O  O28  1  0.868184  0.096937  0.498841  1
  O  O29  1  0.336015  0.929412  0.316226  1
  O  O30  1  0.071168  0.731771  0.746466  1
  O  O31  1  0.868184  0.403063  0.998841  1
  O  O32  1  0.003855  0.500731  0.717280  1
  O  O33  1  0.996145  0.499269  0.282720  1
  O  O34  1  0.322119  0.605943  0.522565  1
  O  O35  1  0.928832  0.231771  0.753534  1
  O  O36  1  0.003855  0.999269  0.217280  1
  O  O37  1  0.458351  0.778325  0.739466  1
  O  O38  1  0.996145  0.000731  0.782720  1
  O  O39  1  0.365839  0.079914  0.758975  1
  O  O40  1  0.663985  0.429412  0.183774  1
  O  O41  1  0.131816  0.596937  0.001159  1
  O  O42  1  0.677881  0.105943  0.977435  1
  O  O43  1  0.131816  0.903063  0.501159  1
