# generated using pymatgen
data_ThSnI6
_symmetry_space_group_name_H-M   'P 1'
_cell_length_a   7.82364608
_cell_length_b   7.82364608
_cell_length_c   14.21969962
_cell_angle_alpha   90.00000000
_cell_angle_beta   90.00000000
_cell_angle_gamma   120.00000000
_symmetry_Int_Tables_number   1
_chemical_formula_structural   ThSnI6
_chemical_formula_sum   'Th2 Sn2 I12'
_cell_volume   753.77103722
_cell_formula_units_Z   2
loop_
 _symmetry_equiv_pos_site_id
 _symmetry_equiv_pos_as_xyz
  1  'x, y, z'
loop_
 _atom_site_type_symbol
 _atom_site_label
 _atom_site_symmetry_multiplicity
 _atom_site_fract_x
 _atom_site_fract_y
 _atom_site_fract_z
 _atom_site_occupancy
  Th  Th0  1  0.666667  0.333333  0.750000  1
  Th  Th1  1  0.333333  0.666667  0.250000  1
  Sn  Sn2  1  0.000000  0.000000  0.000000  1
  Sn  Sn3  1  0.000000  0.000000  0.500000  1
  I  I4  1  0.662559  0.008044  0.625851  1
  I  I5  1  0.991956  0.654515  0.625851  1
  I  I6  1  0.337441  0.345485  0.125851  1
  I  I7  1  0.654515  0.991956  0.125851  1
  I  I8  1  0.008044  0.662559  0.125851  1
  I  I9  1  0.654515  0.662559  0.374149  1
  I  I10  1  0.008044  0.345485  0.374149  1
  I  I11  1  0.337441  0.991956  0.374149  1
  I  I12  1  0.662559  0.654515  0.874149  1
  I  I13  1  0.345485  0.008044  0.874149  1
  I  I14  1  0.991956  0.337441  0.874149  1
  I  I15  1  0.345485  0.337441  0.625851  1
