# generated using pymatgen
data_Hf3Si2
_symmetry_space_group_name_H-M   'P 1'
_cell_length_a   7.03075685
_cell_length_b   7.03075685
_cell_length_c   3.67119541
_cell_angle_alpha   90.00000000
_cell_angle_beta   90.00000000
_cell_angle_gamma   90.00000000
_symmetry_Int_Tables_number   1
_chemical_formula_structural   Hf3Si2
_chemical_formula_sum   'Hf6 Si4'
_cell_volume   181.47284967
_cell_formula_units_Z   2
loop_
 _symmetry_equiv_pos_site_id
 _symmetry_equiv_pos_as_xyz
  1  'x, y, z'
loop_
 _atom_site_type_symbol
 _atom_site_label
 _atom_site_symmetry_multiplicity
 _atom_site_fract_x
 _atom_site_fract_y
 _atom_site_fract_z
 _atom_site_occupancy
  Hf  Hf0  1  0.826777  0.673223  0.500000  1
  Hf  Hf1  1  0.326777  0.826777  0.500000  1
  Hf  Hf2  1  0.173223  0.326777  0.500000  1
  Hf  Hf3  1  0.673223  0.173223  0.500000  1
  Hf  Hf4  1  0.500000  0.500000  0.000000  1
  Hf  Hf5  1  0.000000  0.000000  0.000000  1
  Si  Si6  1  0.123949  0.623949  0.000000  1
  Si  Si7  1  0.623949  0.876051  0.000000  1
  Si  Si8  1  0.376051  0.123949  0.000000  1
  Si  Si9  1  0.876051  0.376051  0.000000  1
