# generated using pymatgen
data_PaCl5
_symmetry_space_group_name_H-M   'P 1'
_cell_length_a   7.44654969
_cell_length_b   7.44654969
_cell_length_c   8.47692106
_cell_angle_alpha   81.38941771
_cell_angle_beta   98.61058229
_cell_angle_gamma   70.26128527
_symmetry_Int_Tables_number   1
_chemical_formula_structural   PaCl5
_chemical_formula_sum   'Pa2 Cl10'
_cell_volume   427.19814185
_cell_formula_units_Z   2
loop_
 _symmetry_equiv_pos_site_id
 _symmetry_equiv_pos_as_xyz
  1  'x, y, z'
loop_
 _atom_site_type_symbol
 _atom_site_label
 _atom_site_symmetry_multiplicity
 _atom_site_fract_x
 _atom_site_fract_y
 _atom_site_fract_z
 _atom_site_occupancy
  Pa  Pa0  1  0.068638  0.068638  0.750000  1
  Pa  Pa1  1  0.931362  0.931362  0.250000  1
  Cl  Cl2  1  0.116705  0.126238  0.063538  1
  Cl  Cl3  1  0.126238  0.116705  0.436462  1
  Cl  Cl4  1  0.725497  0.725497  0.250000  1
  Cl  Cl5  1  0.274503  0.274503  0.750000  1
  Cl  Cl6  1  0.238220  0.636624  0.330751  1
  Cl  Cl7  1  0.636624  0.238220  0.169249  1
  Cl  Cl8  1  0.761780  0.363376  0.669249  1
  Cl  Cl9  1  0.363376  0.761780  0.830751  1
  Cl  Cl10  1  0.873762  0.883295  0.563538  1
  Cl  Cl11  1  0.883295  0.873762  0.936462  1
