# generated using pymatgen
data_Ho(MnSn)6
_symmetry_space_group_name_H-M   'P 1'
_cell_length_a   5.45538951
_cell_length_b   5.45538951
_cell_length_c   8.99316177
_cell_angle_alpha   90.00000000
_cell_angle_beta   90.00000000
_cell_angle_gamma   120.00000000
_symmetry_Int_Tables_number   1
_chemical_formula_structural   Ho(MnSn)6
_chemical_formula_sum   'Ho1 Mn6 Sn6'
_cell_volume   231.78993060
_cell_formula_units_Z   1
loop_
 _symmetry_equiv_pos_site_id
 _symmetry_equiv_pos_as_xyz
  1  'x, y, z'
loop_
 _atom_site_type_symbol
 _atom_site_label
 _atom_site_symmetry_multiplicity
 _atom_site_fract_x
 _atom_site_fract_y
 _atom_site_fract_z
 _atom_site_occupancy
  Ho  Ho0  1  0.000000  0.000000  0.000000  1
  Mn  Mn1  1  0.000000  0.500000  0.751432  1
  Mn  Mn2  1  0.000000  0.500000  0.248568  1
  Mn  Mn3  1  0.500000  0.500000  0.248568  1
  Mn  Mn4  1  0.500000  0.000000  0.248568  1
  Mn  Mn5  1  0.500000  0.500000  0.751432  1
  Mn  Mn6  1  0.500000  0.000000  0.751432  1
  Sn  Sn7  1  0.000000  0.000000  0.666559  1
  Sn  Sn8  1  0.333333  0.666667  0.500000  1
  Sn  Sn9  1  0.666667  0.333333  0.000000  1
  Sn  Sn10  1  0.333333  0.666667  0.000000  1
  Sn  Sn11  1  0.000000  0.000000  0.333441  1
  Sn  Sn12  1  0.666667  0.333333  0.500000  1
