# generated using pymatgen
data_CeInPd2
_symmetry_space_group_name_H-M   'P 1'
_cell_length_a   4.69055286
_cell_length_b   4.69055286
_cell_length_c   9.06721547
_cell_angle_alpha   90.00000000
_cell_angle_beta   90.00000000
_cell_angle_gamma   120.00000000
_symmetry_Int_Tables_number   1
_chemical_formula_structural   CeInPd2
_chemical_formula_sum   'Ce2 In2 Pd4'
_cell_volume   172.76375578
_cell_formula_units_Z   2
loop_
 _symmetry_equiv_pos_site_id
 _symmetry_equiv_pos_as_xyz
  1  'x, y, z'
loop_
 _atom_site_type_symbol
 _atom_site_label
 _atom_site_symmetry_multiplicity
 _atom_site_fract_x
 _atom_site_fract_y
 _atom_site_fract_z
 _atom_site_occupancy
  Ce  Ce0  1  0.666667  0.333333  0.750000  1
  Ce  Ce1  1  0.333333  0.666667  0.250000  1
  In  In2  1  0.000000  0.000000  0.000000  1
  In  In3  1  0.000000  0.000000  0.500000  1
  Pd  Pd4  1  0.333333  0.666667  0.915678  1
  Pd  Pd5  1  0.666667  0.333333  0.415678  1
  Pd  Pd6  1  0.333333  0.666667  0.584322  1
  Pd  Pd7  1  0.666667  0.333333  0.084322  1
