# generated using pymatgen
data_Li2BPt3
_symmetry_space_group_name_H-M   'P 1'
_cell_length_a   6.84464044
_cell_length_b   6.84464044
_cell_length_c   6.84464044
_cell_angle_alpha   90.00000000
_cell_angle_beta   90.00000000
_cell_angle_gamma   90.00000000
_symmetry_Int_Tables_number   1
_chemical_formula_structural   Li2BPt3
_chemical_formula_sum   'Li8 B4 Pt12'
_cell_volume   320.66526328
_cell_formula_units_Z   4
loop_
 _symmetry_equiv_pos_site_id
 _symmetry_equiv_pos_as_xyz
  1  'x, y, z'
loop_
 _atom_site_type_symbol
 _atom_site_label
 _atom_site_symmetry_multiplicity
 _atom_site_fract_x
 _atom_site_fract_y
 _atom_site_fract_z
 _atom_site_occupancy
  Li  Li0  1  0.303846  0.303846  0.303846  1
  Li  Li1  1  0.053846  0.446154  0.553846  1
  Li  Li2  1  0.553846  0.053846  0.446154  1
  Li  Li3  1  0.446154  0.553846  0.053846  1
  Li  Li4  1  0.196154  0.696154  0.803846  1
  Li  Li5  1  0.946154  0.946154  0.946154  1
  Li  Li6  1  0.803846  0.196154  0.696154  1
  Li  Li7  1  0.696154  0.803846  0.196154  1
  B  B8  1  0.875000  0.375000  0.125000  1
  B  B9  1  0.375000  0.125000  0.875000  1
  B  B10  1  0.625000  0.625000  0.625000  1
  B  B11  1  0.125000  0.875000  0.375000  1
  Pt  Pt12  1  0.189382  0.060618  0.625000  1
  Pt  Pt13  1  0.439382  0.375000  0.689382  1
  Pt  Pt14  1  0.060618  0.625000  0.189382  1
  Pt  Pt15  1  0.939382  0.125000  0.310618  1
  Pt  Pt16  1  0.310618  0.939382  0.125000  1
  Pt  Pt17  1  0.689382  0.439382  0.375000  1
  Pt  Pt18  1  0.560618  0.875000  0.810618  1
  Pt  Pt19  1  0.625000  0.189382  0.060618  1
  Pt  Pt20  1  0.375000  0.689382  0.439382  1
  Pt  Pt21  1  0.875000  0.810618  0.560618  1
  Pt  Pt22  1  0.125000  0.310618  0.939382  1
  Pt  Pt23  1  0.810618  0.560618  0.875000  1
