# generated using pymatgen
data_Nd2Re3Si5
_symmetry_space_group_name_H-M   'P 1'
_cell_length_a   11.03602655
_cell_length_b   11.03602655
_cell_length_c   5.74000279
_cell_angle_alpha   90.00000000
_cell_angle_beta   90.00000000
_cell_angle_gamma   90.00000000
_symmetry_Int_Tables_number   1
_chemical_formula_structural   Nd2Re3Si5
_chemical_formula_sum   'Nd8 Re12 Si20'
_cell_volume   699.09722256
_cell_formula_units_Z   4
loop_
 _symmetry_equiv_pos_site_id
 _symmetry_equiv_pos_as_xyz
  1  'x, y, z'
loop_
 _atom_site_type_symbol
 _atom_site_label
 _atom_site_symmetry_multiplicity
 _atom_site_fract_x
 _atom_site_fract_y
 _atom_site_fract_z
 _atom_site_occupancy
  Nd  Nd0  1  0.422882  0.263524  0.500000  1
  Nd  Nd1  1  0.077118  0.763524  0.000000  1
  Nd  Nd2  1  0.922882  0.236476  0.000000  1
  Nd  Nd3  1  0.763524  0.922882  0.000000  1
  Nd  Nd4  1  0.263524  0.577118  0.500000  1
  Nd  Nd5  1  0.736476  0.422882  0.500000  1
  Nd  Nd6  1  0.577118  0.736476  0.500000  1
  Nd  Nd7  1  0.236476  0.077118  0.000000  1
  Re  Re8  1  0.000000  0.500000  0.250000  1
  Re  Re9  1  0.500000  0.000000  0.750000  1
  Re  Re10  1  0.000000  0.500000  0.750000  1
  Re  Re11  1  0.500000  0.000000  0.250000  1
  Re  Re12  1  0.351590  0.375189  0.000000  1
  Re  Re13  1  0.375189  0.648410  0.000000  1
  Re  Re14  1  0.624811  0.351590  0.000000  1
  Re  Re15  1  0.648410  0.624811  0.000000  1
  Re  Re16  1  0.148410  0.875189  0.500000  1
  Re  Re17  1  0.851590  0.124811  0.500000  1
  Re  Re18  1  0.875189  0.851590  0.500000  1
  Re  Re19  1  0.124811  0.148410  0.500000  1
  Si  Si20  1  0.316841  0.024206  0.500000  1
  Si  Si21  1  0.683159  0.975794  0.500000  1
  Si  Si22  1  0.975794  0.316841  0.500000  1
  Si  Si23  1  0.024206  0.683159  0.500000  1
  Si  Si24  1  0.524206  0.816841  0.000000  1
  Si  Si25  1  0.816841  0.475794  0.000000  1
  Si  Si26  1  0.183159  0.524206  0.000000  1
  Si  Si27  1  0.475794  0.183159  0.000000  1
  Si  Si28  1  0.671339  0.171339  0.750000  1
  Si  Si29  1  0.171339  0.328661  0.750000  1
  Si  Si30  1  0.828661  0.671339  0.750000  1
  Si  Si31  1  0.328661  0.828661  0.750000  1
  Si  Si32  1  0.328661  0.828661  0.250000  1
  Si  Si33  1  0.000000  0.000000  0.262505  1
  Si  Si34  1  0.171339  0.328661  0.250000  1
  Si  Si35  1  0.671339  0.171339  0.250000  1
  Si  Si36  1  0.500000  0.500000  0.762505  1
  Si  Si37  1  0.000000  0.000000  0.737495  1
  Si  Si38  1  0.500000  0.500000  0.237495  1
  Si  Si39  1  0.828661  0.671339  0.250000  1
