# generated using pymatgen
data_Mo3Se4
_symmetry_space_group_name_H-M   'P 1'
_cell_length_a   6.75342169
_cell_length_b   6.75342169
_cell_length_c   6.75342169
_cell_angle_alpha   91.63846588
_cell_angle_beta   91.63846588
_cell_angle_gamma   91.63846588
_symmetry_Int_Tables_number   1
_chemical_formula_structural   Mo3Se4
_chemical_formula_sum   'Mo6 Se8'
_cell_volume   307.62964944
_cell_formula_units_Z   2
loop_
 _symmetry_equiv_pos_site_id
 _symmetry_equiv_pos_as_xyz
  1  'x, y, z'
loop_
 _atom_site_type_symbol
 _atom_site_label
 _atom_site_symmetry_multiplicity
 _atom_site_fract_x
 _atom_site_fract_y
 _atom_site_fract_z
 _atom_site_occupancy
  Mo  Mo0  1  0.774286  0.453755  0.585869  1
  Mo  Mo1  1  0.585869  0.774286  0.453755  1
  Mo  Mo2  1  0.453755  0.585869  0.774286  1
  Mo  Mo3  1  0.225714  0.546245  0.414131  1
  Mo  Mo4  1  0.414131  0.225714  0.546245  1
  Mo  Mo5  1  0.546245  0.414131  0.225714  1
  Se  Se6  1  0.783586  0.783586  0.783586  1
  Se  Se7  1  0.216414  0.216414  0.216414  1
  Se  Se8  1  0.618578  0.256974  0.871803  1
  Se  Se9  1  0.871803  0.618578  0.256974  1
  Se  Se10  1  0.256974  0.871803  0.618577  1
  Se  Se11  1  0.381423  0.743026  0.128197  1
  Se  Se12  1  0.128197  0.381423  0.743026  1
  Se  Se13  1  0.743026  0.128197  0.381422  1
