# generated using pymatgen
data_Rb3GaP2
_symmetry_space_group_name_H-M   'P 1'
_cell_length_a   9.24714579
_cell_length_b   14.92556056
_cell_length_c   25.12701619
_cell_angle_alpha   90.00000000
_cell_angle_beta   90.00000000
_cell_angle_gamma   90.00000000
_symmetry_Int_Tables_number   1
_chemical_formula_structural   Rb3GaP2
_chemical_formula_sum   'Rb48 Ga16 P32'
_cell_volume   3468.00148890
_cell_formula_units_Z   16
loop_
 _symmetry_equiv_pos_site_id
 _symmetry_equiv_pos_as_xyz
  1  'x, y, z'
loop_
 _atom_site_type_symbol
 _atom_site_label
 _atom_site_symmetry_multiplicity
 _atom_site_fract_x
 _atom_site_fract_y
 _atom_site_fract_z
 _atom_site_occupancy
  Rb  Rb0  1  0.213745  0.682120  0.829942  1
  Rb  Rb1  1  0.713745  0.817880  0.170058  1
  Rb  Rb2  1  0.786255  0.182120  0.670058  1
  Rb  Rb3  1  0.286255  0.317880  0.329942  1
  Rb  Rb4  1  0.786255  0.317880  0.170058  1
  Rb  Rb5  1  0.286255  0.182120  0.829942  1
  Rb  Rb6  1  0.213745  0.817880  0.329942  1
  Rb  Rb7  1  0.713745  0.682120  0.670058  1
  Rb  Rb8  1  0.781292  0.678948  0.928359  1
  Rb  Rb9  1  0.281292  0.821052  0.071641  1
  Rb  Rb10  1  0.218708  0.178948  0.571641  1
  Rb  Rb11  1  0.718708  0.321052  0.428359  1
  Rb  Rb12  1  0.218708  0.321052  0.071641  1
  Rb  Rb13  1  0.718708  0.178948  0.928359  1
  Rb  Rb14  1  0.781292  0.821052  0.428359  1
  Rb  Rb15  1  0.281292  0.678948  0.571641  1
  Rb  Rb16  1  0.890560  0.540285  0.790791  1
  Rb  Rb17  1  0.390560  0.959715  0.209209  1
  Rb  Rb18  1  0.109440  0.040285  0.709209  1
  Rb  Rb19  1  0.609440  0.459715  0.290791  1
  Rb  Rb20  1  0.109440  0.459715  0.209209  1
  Rb  Rb21  1  0.609440  0.040285  0.790791  1
  Rb  Rb22  1  0.890560  0.959715  0.290791  1
  Rb  Rb23  1  0.390560  0.540285  0.709209  1
  Rb  Rb24  1  0.359164  0.594511  0.972776  1
  Rb  Rb25  1  0.859164  0.905489  0.027224  1
  Rb  Rb26  1  0.640836  0.094511  0.527224  1
  Rb  Rb27  1  0.140836  0.405489  0.472776  1
  Rb  Rb28  1  0.640836  0.405489  0.027224  1
  Rb  Rb29  1  0.140836  0.094511  0.972776  1
  Rb  Rb30  1  0.359164  0.905489  0.472776  1
  Rb  Rb31  1  0.859164  0.594511  0.527224  1
  Rb  Rb32  1  0.859426  0.829721  0.775882  1
  Rb  Rb33  1  0.359426  0.670279  0.224118  1
  Rb  Rb34  1  0.140574  0.329721  0.724118  1
  Rb  Rb35  1  0.640574  0.170279  0.275882  1
  Rb  Rb36  1  0.140574  0.170279  0.224118  1
  Rb  Rb37  1  0.640574  0.329721  0.775882  1
  Rb  Rb38  1  0.859426  0.670279  0.275882  1
  Rb  Rb39  1  0.359426  0.829721  0.724118  1
  Rb  Rb40  1  0.459945  0.853003  0.913869  1
  Rb  Rb41  1  0.959945  0.646997  0.086131  1
  Rb  Rb42  1  0.540055  0.353003  0.586131  1
  Rb  Rb43  1  0.040055  0.146997  0.413869  1
  Rb  Rb44  1  0.540055  0.146997  0.086131  1
  Rb  Rb45  1  0.040055  0.353003  0.913869  1
  Rb  Rb46  1  0.459945  0.646997  0.413869  1
  Rb  Rb47  1  0.959945  0.853003  0.586131  1
  Ga  Ga48  1  0.528525  0.545123  0.841128  1
  Ga  Ga49  1  0.028525  0.954877  0.158872  1
  Ga  Ga50  1  0.471475  0.045123  0.658872  1
  Ga  Ga51  1  0.971475  0.454877  0.341128  1
  Ga  Ga52  1  0.471475  0.454877  0.158872  1
  Ga  Ga53  1  0.971475  0.045123  0.841128  1
  Ga  Ga54  1  0.528525  0.954877  0.341128  1
  Ga  Ga55  1  0.028525  0.545123  0.658872  1
  Ga  Ga56  1  0.049172  0.876833  0.901481  1
  Ga  Ga57  1  0.549172  0.623167  0.098519  1
  Ga  Ga58  1  0.950828  0.376833  0.598519  1
  Ga  Ga59  1  0.450828  0.123167  0.401481  1
  Ga  Ga60  1  0.950828  0.123167  0.098519  1
  Ga  Ga61  1  0.450828  0.376833  0.901481  1
  Ga  Ga62  1  0.049172  0.623167  0.401481  1
  Ga  Ga63  1  0.549172  0.876833  0.598519  1
  P  P64  1  0.185658  0.954064  0.834500  1
  P  P65  1  0.685658  0.545936  0.165500  1
  P  P66  1  0.814342  0.454064  0.665500  1
  P  P67  1  0.314342  0.045936  0.334500  1
  P  P68  1  0.814342  0.045936  0.165500  1
  P  P69  1  0.314342  0.454064  0.834500  1
  P  P70  1  0.185658  0.545936  0.334500  1
  P  P71  1  0.685658  0.954064  0.665500  1
  P  P72  1  0.078562  0.681033  0.695683  1
  P  P73  1  0.578562  0.818967  0.304317  1
  P  P74  1  0.921438  0.181033  0.804317  1
  P  P75  1  0.421438  0.318967  0.195683  1
  P  P76  1  0.921438  0.318967  0.304317  1
  P  P77  1  0.421438  0.181033  0.695683  1
  P  P78  1  0.078562  0.818967  0.195683  1
  P  P79  1  0.578562  0.681033  0.804317  1
  P  P80  1  0.675934  0.455790  0.896616  1
  P  P81  1  0.175934  0.044210  0.103384  1
  P  P82  1  0.324066  0.955790  0.603384  1
  P  P83  1  0.824066  0.544210  0.396616  1
  P  P84  1  0.324066  0.544210  0.103384  1
  P  P85  1  0.824066  0.955790  0.896616  1
  P  P86  1  0.675934  0.044210  0.396616  1
  P  P87  1  0.175934  0.455790  0.603384  1
  P  P88  1  0.118993  0.764341  0.955557  1
  P  P89  1  0.618993  0.735659  0.044443  1
  P  P90  1  0.881007  0.264341  0.544443  1
  P  P91  1  0.381007  0.235659  0.455557  1
  P  P92  1  0.881007  0.235659  0.044443  1
  P  P93  1  0.381007  0.264341  0.955557  1
  P  P94  1  0.118993  0.735659  0.455557  1
  P  P95  1  0.618993  0.764341  0.544443  1
