# generated using pymatgen
data_Fe2Si
_symmetry_space_group_name_H-M   'P 1'
_cell_length_a   3.92942628
_cell_length_b   3.92942628
_cell_length_c   4.83967724
_cell_angle_alpha   90.00000000
_cell_angle_beta   90.00000000
_cell_angle_gamma   120.00000000
_symmetry_Int_Tables_number   1
_chemical_formula_structural   Fe2Si
_chemical_formula_sum   'Fe4 Si2'
_cell_volume   64.71505457
_cell_formula_units_Z   2
loop_
 _symmetry_equiv_pos_site_id
 _symmetry_equiv_pos_as_xyz
  1  'x, y, z'
loop_
 _atom_site_type_symbol
 _atom_site_label
 _atom_site_symmetry_multiplicity
 _atom_site_fract_x
 _atom_site_fract_y
 _atom_site_fract_z
 _atom_site_occupancy
  Fe  Fe0  1  0.333333  0.666667  0.679039  1
  Fe  Fe1  1  0.666667  0.333333  0.320961  1
  Fe  Fe2  1  0.000000  0.000000  0.500000  1
  Fe  Fe3  1  0.000000  0.000000  0.000000  1
  Si  Si4  1  0.666667  0.333333  0.818682  1
  Si  Si5  1  0.333333  0.666667  0.181318  1
