# generated using pymatgen
data_RuXeF7
_symmetry_space_group_name_H-M   'P 1'
_cell_length_a   7.39862672
_cell_length_b   11.59700654
_cell_length_c   11.06522201
_cell_angle_alpha   90.00000000
_cell_angle_beta   131.58025812
_cell_angle_gamma   90.00000000
_symmetry_Int_Tables_number   1
_chemical_formula_structural   RuXeF7
_chemical_formula_sum   'Ru4 Xe4 F28'
_cell_volume   710.18960947
_cell_formula_units_Z   4
loop_
 _symmetry_equiv_pos_site_id
 _symmetry_equiv_pos_as_xyz
  1  'x, y, z'
loop_
 _atom_site_type_symbol
 _atom_site_label
 _atom_site_symmetry_multiplicity
 _atom_site_fract_x
 _atom_site_fract_y
 _atom_site_fract_z
 _atom_site_occupancy
  Ru  Ru0  1  0.467345  0.963549  0.247444  1
  Ru  Ru1  1  0.532655  0.463549  0.252556  1
  Ru  Ru2  1  0.532655  0.036451  0.752556  1
  Ru  Ru3  1  0.467345  0.536451  0.747444  1
  Xe  Xe4  1  0.911196  0.784088  0.243990  1
  Xe  Xe5  1  0.088804  0.284088  0.256010  1
  Xe  Xe6  1  0.088804  0.215912  0.756010  1
  Xe  Xe7  1  0.911196  0.715912  0.743990  1
  F  F8  1  0.524063  0.651687  0.889736  1
  F  F9  1  0.475937  0.151687  0.610264  1
  F  F10  1  0.475937  0.348313  0.110264  1
  F  F11  1  0.524063  0.848313  0.389736  1
  F  F12  1  0.421036  0.425325  0.604940  1
  F  F13  1  0.578964  0.925325  0.895060  1
  F  F14  1  0.578964  0.574675  0.395060  1
  F  F15  1  0.421036  0.074675  0.104940  1
  F  F16  1  0.041169  0.663191  0.190255  1
  F  F17  1  0.958831  0.163191  0.309745  1
  F  F18  1  0.958831  0.336809  0.809745  1
  F  F19  1  0.041169  0.836809  0.690255  1
  F  F20  1  0.790875  0.924409  0.315222  1
  F  F21  1  0.209125  0.424409  0.184778  1
  F  F22  1  0.209125  0.075591  0.684778  1
  F  F23  1  0.790875  0.575591  0.815222  1
  F  F24  1  0.175002  0.003206  0.190706  1
  F  F25  1  0.824998  0.503206  0.309294  1
  F  F26  1  0.824998  0.996794  0.809294  1
  F  F27  1  0.175002  0.496794  0.690706  1
  F  F28  1  0.636874  0.072103  0.416555  1
  F  F29  1  0.363126  0.572103  0.083445  1
  F  F30  1  0.363126  0.927897  0.583445  1
  F  F31  1  0.636874  0.427897  0.916555  1
  F  F32  1  0.325398  0.850635  0.083850  1
  F  F33  1  0.674602  0.350635  0.416150  1
  F  F34  1  0.674602  0.149365  0.916150  1
  F  F35  1  0.325398  0.649365  0.583850  1
