# generated using pymatgen
data_KCdCl3
_symmetry_space_group_name_H-M   'P 1'
_cell_length_a   4.06972578
_cell_length_b   9.01363539
_cell_length_c   14.90677931
_cell_angle_alpha   90.00000000
_cell_angle_beta   90.00000000
_cell_angle_gamma   90.00000000
_symmetry_Int_Tables_number   1
_chemical_formula_structural   KCdCl3
_chemical_formula_sum   'K4 Cd4 Cl12'
_cell_volume   546.82574793
_cell_formula_units_Z   4
loop_
 _symmetry_equiv_pos_site_id
 _symmetry_equiv_pos_as_xyz
  1  'x, y, z'
loop_
 _atom_site_type_symbol
 _atom_site_label
 _atom_site_symmetry_multiplicity
 _atom_site_fract_x
 _atom_site_fract_y
 _atom_site_fract_z
 _atom_site_occupancy
  K  K0  1  0.250000  0.927800  0.321630  1
  K  K1  1  0.750000  0.072200  0.678370  1
  K  K2  1  0.250000  0.427800  0.178370  1
  K  K3  1  0.750000  0.572200  0.821630  1
  Cd  Cd4  1  0.750000  0.328551  0.445473  1
  Cd  Cd5  1  0.250000  0.671449  0.554527  1
  Cd  Cd6  1  0.750000  0.828551  0.054527  1
  Cd  Cd7  1  0.250000  0.171449  0.945473  1
  Cl  Cl8  1  0.750000  0.480838  0.600948  1
  Cl  Cl9  1  0.250000  0.519162  0.399052  1
  Cl  Cl10  1  0.750000  0.980838  0.899052  1
  Cl  Cl11  1  0.250000  0.019162  0.100948  1
  Cl  Cl12  1  0.250000  0.166421  0.510141  1
  Cl  Cl13  1  0.750000  0.833579  0.489859  1
  Cl  Cl14  1  0.250000  0.666421  0.989859  1
  Cl  Cl15  1  0.750000  0.333579  0.010141  1
  Cl  Cl16  1  0.250000  0.291173  0.790746  1
  Cl  Cl17  1  0.750000  0.708827  0.209254  1
  Cl  Cl18  1  0.250000  0.791173  0.709254  1
  Cl  Cl19  1  0.750000  0.208827  0.290746  1
