# generated using pymatgen
data_BaIn2Ir
_symmetry_space_group_name_H-M   'P 1'
_cell_length_a   6.31947428
_cell_length_b   6.31947428
_cell_length_c   8.18888739
_cell_angle_alpha   90.00000000
_cell_angle_beta   90.00000000
_cell_angle_gamma   138.62203553
_symmetry_Int_Tables_number   1
_chemical_formula_structural   BaIn2Ir
_chemical_formula_sum   'Ba2 In4 Ir2'
_cell_volume   216.17406401
_cell_formula_units_Z   2
loop_
 _symmetry_equiv_pos_site_id
 _symmetry_equiv_pos_as_xyz
  1  'x, y, z'
loop_
 _atom_site_type_symbol
 _atom_site_label
 _atom_site_symmetry_multiplicity
 _atom_site_fract_x
 _atom_site_fract_y
 _atom_site_fract_z
 _atom_site_occupancy
  Ba  Ba0  1  0.053859  0.946141  0.250000  1
  Ba  Ba1  1  0.946141  0.053859  0.750000  1
  In  In2  1  0.664928  0.335072  0.555523  1
  In  In3  1  0.335072  0.664928  0.444477  1
  In  In4  1  0.664928  0.335072  0.944477  1
  In  In5  1  0.335072  0.664928  0.055523  1
  Ir  Ir6  1  0.220348  0.779652  0.750000  1
  Ir  Ir7  1  0.779652  0.220348  0.250000  1
