# generated using pymatgen
data_Cu3P
_symmetry_space_group_name_H-M   'P 1'
_cell_length_a   6.95793084
_cell_length_b   6.95793084
_cell_length_c   7.14840660
_cell_angle_alpha   90.00000000
_cell_angle_beta   90.00000000
_cell_angle_gamma   120.00000000
_symmetry_Int_Tables_number   1
_chemical_formula_structural   Cu3P
_chemical_formula_sum   'Cu18 P6'
_cell_volume   299.70921378
_cell_formula_units_Z   6
loop_
 _symmetry_equiv_pos_site_id
 _symmetry_equiv_pos_as_xyz
  1  'x, y, z'
loop_
 _atom_site_type_symbol
 _atom_site_label
 _atom_site_symmetry_multiplicity
 _atom_site_fract_x
 _atom_site_fract_y
 _atom_site_fract_z
 _atom_site_occupancy
  Cu  Cu0  1  0.682776  0.067784  0.079228  1
  Cu  Cu1  1  0.932216  0.614992  0.079228  1
  Cu  Cu2  1  0.385008  0.317224  0.079228  1
  Cu  Cu3  1  0.614992  0.932216  0.420772  1
  Cu  Cu4  1  0.317224  0.385008  0.420772  1
  Cu  Cu5  1  0.067784  0.682776  0.420772  1
  Cu  Cu6  1  0.317224  0.932216  0.920772  1
  Cu  Cu7  1  0.067784  0.385008  0.920772  1
  Cu  Cu8  1  0.614992  0.682776  0.920772  1
  Cu  Cu9  1  0.385008  0.067784  0.579228  1
  Cu  Cu10  1  0.682776  0.614992  0.579228  1
  Cu  Cu11  1  0.932216  0.317224  0.579228  1
  Cu  Cu12  1  0.333333  0.666667  0.673326  1
  Cu  Cu13  1  0.666667  0.333333  0.826674  1
  Cu  Cu14  1  0.666667  0.333333  0.326674  1
  Cu  Cu15  1  0.333333  0.666667  0.173326  1
  Cu  Cu16  1  0.000000  0.000000  0.500000  1
  Cu  Cu17  1  0.000000  0.000000  0.000000  1
  P  P18  1  0.319655  0.319655  0.750000  1
  P  P19  1  0.000000  0.680345  0.750000  1
  P  P20  1  0.680345  0.000000  0.750000  1
  P  P21  1  0.680345  0.680345  0.250000  1
  P  P22  1  0.000000  0.319655  0.250000  1
  P  P23  1  0.319655  0.000000  0.250000  1
