# generated using pymatgen
data_Ca3Zn
_symmetry_space_group_name_H-M   'P 1'
_cell_length_a   6.92315377
_cell_length_b   6.92315377
_cell_length_c   10.14500491
_cell_angle_alpha   90.00000000
_cell_angle_beta   90.00000000
_cell_angle_gamma   145.65972912
_symmetry_Int_Tables_number   1
_chemical_formula_structural   Ca3Zn
_chemical_formula_sum   'Ca6 Zn2'
_cell_volume   274.29718583
_cell_formula_units_Z   2
loop_
 _symmetry_equiv_pos_site_id
 _symmetry_equiv_pos_as_xyz
  1  'x, y, z'
loop_
 _atom_site_type_symbol
 _atom_site_label
 _atom_site_symmetry_multiplicity
 _atom_site_fract_x
 _atom_site_fract_y
 _atom_site_fract_z
 _atom_site_occupancy
  Ca  Ca0  1  0.068451  0.931549  0.750000  1
  Ca  Ca1  1  0.931549  0.068451  0.250000  1
  Ca  Ca2  1  0.357848  0.642152  0.939431  1
  Ca  Ca3  1  0.642152  0.357848  0.060569  1
  Ca  Ca4  1  0.642152  0.357848  0.439431  1
  Ca  Ca5  1  0.357848  0.642152  0.560569  1
  Zn  Zn6  1  0.747151  0.252849  0.750000  1
  Zn  Zn7  1  0.252849  0.747151  0.250000  1
