# generated using pymatgen
data_Nd2S3
_symmetry_space_group_name_H-M   'P 1'
_cell_length_a   14.21582724
_cell_length_b   14.21582724
_cell_length_c   14.21582724
_cell_angle_alpha   144.77272605
_cell_angle_beta   144.77272605
_cell_angle_gamma   50.67334377
_symmetry_Int_Tables_number   1
_chemical_formula_structural   Nd2S3
_chemical_formula_sum   'Nd16 S24'
_cell_volume   951.00216768
_cell_formula_units_Z   8
loop_
 _symmetry_equiv_pos_site_id
 _symmetry_equiv_pos_as_xyz
  1  'x, y, z'
loop_
 _atom_site_type_symbol
 _atom_site_label
 _atom_site_symmetry_multiplicity
 _atom_site_fract_x
 _atom_site_fract_y
 _atom_site_fract_z
 _atom_site_occupancy
  Nd  Nd0  1  0.177480  0.297409  0.396487  1
  Nd  Nd1  1  0.584262  0.084262  0.500000  1
  Nd  Nd2  1  0.375000  0.745036  0.870036  1
  Nd  Nd3  1  0.165738  0.165738  0.000000  1
  Nd  Nd4  1  0.849078  0.952591  0.380071  1
  Nd  Nd5  1  0.572520  0.469007  0.619929  1
  Nd  Nd6  1  0.875000  0.504964  0.129964  1
  Nd  Nd7  1  0.047409  0.427480  0.896487  1
  Nd  Nd8  1  0.495036  0.625000  0.370036  1
  Nd  Nd9  1  0.834262  0.834262  0.000000  1
  Nd  Nd10  1  0.530993  0.150922  0.103513  1
  Nd  Nd11  1  0.254964  0.125000  0.629964  1
  Nd  Nd12  1  0.915738  0.415738  0.500000  1
  Nd  Nd13  1  0.702591  0.099078  0.880071  1
  Nd  Nd14  1  0.900922  0.780993  0.603513  1
  Nd  Nd15  1  0.219007  0.822520  0.119929  1
  S  S16  1  0.531509  0.423258  0.745278  1
  S  S17  1  0.242813  0.995380  0.104550  1
  S  S18  1  0.507187  0.111737  0.252567  1
  S  S19  1  0.890830  0.138263  0.895450  1
  S  S20  1  0.859170  0.254620  0.747433  1
  S  S21  1  0.677981  0.786232  0.254722  1
  S  S22  1  0.072019  0.826742  0.608251  1
  S  S23  1  0.185885  0.097514  0.750615  1
  S  S24  1  0.902486  0.653100  0.088371  1
  S  S25  1  0.218491  0.463768  0.391749  1
  S  S26  1  0.564729  0.814115  0.911629  1
  S  S27  1  0.173258  0.781509  0.245278  1
  S  S28  1  0.536232  0.927981  0.754722  1
  S  S29  1  0.346900  0.435271  0.249385  1
  S  S30  1  0.745380  0.492813  0.604550  1
  S  S31  1  0.861737  0.757187  0.752567  1
  S  S32  1  0.576742  0.322019  0.108251  1
  S  S33  1  0.888263  0.140830  0.395450  1
  S  S34  1  0.847514  0.435885  0.250615  1
  S  S35  1  0.213768  0.468491  0.891749  1
  S  S36  1  0.185271  0.596900  0.749385  1
  S  S37  1  0.004620  0.109170  0.247433  1
  S  S38  1  0.403100  0.152486  0.588371  1
  S  S39  1  0.564115  0.814729  0.411629  1
