# generated using pymatgen
data_Ta3As
_symmetry_space_group_name_H-M   'P 1'
_cell_length_a   7.83808881
_cell_length_b   7.83808881
_cell_length_c   14.65893413
_cell_angle_alpha   89.39495308
_cell_angle_beta   90.60504692
_cell_angle_gamma   141.72984779
_symmetry_Int_Tables_number   1
_chemical_formula_structural   Ta3As
_chemical_formula_sum   'Ta24 As8'
_cell_volume   557.75808647
_cell_formula_units_Z   8
loop_
 _symmetry_equiv_pos_site_id
 _symmetry_equiv_pos_as_xyz
  1  'x, y, z'
loop_
 _atom_site_type_symbol
 _atom_site_label
 _atom_site_symmetry_multiplicity
 _atom_site_fract_x
 _atom_site_fract_y
 _atom_site_fract_z
 _atom_site_occupancy
  Ta  Ta0  1  0.567547  0.433934  0.829274  1
  Ta  Ta1  1  0.433934  0.567547  0.670726  1
  Ta  Ta2  1  0.432453  0.566066  0.170726  1
  Ta  Ta3  1  0.566066  0.432453  0.329274  1
  Ta  Ta4  1  0.063119  0.914559  0.677150  1
  Ta  Ta5  1  0.914559  0.063119  0.822850  1
  Ta  Ta6  1  0.936881  0.085441  0.322850  1
  Ta  Ta7  1  0.085441  0.936881  0.177150  1
  Ta  Ta8  1  0.500343  0.015706  0.797918  1
  Ta  Ta9  1  0.015706  0.500343  0.702082  1
  Ta  Ta10  1  0.499657  0.984294  0.202082  1
  Ta  Ta11  1  0.984294  0.499657  0.297918  1
  Ta  Ta12  1  0.798947  0.701972  0.005811  1
  Ta  Ta13  1  0.701972  0.798947  0.494189  1
  Ta  Ta14  1  0.201053  0.298028  0.994189  1
  Ta  Ta15  1  0.298028  0.201053  0.505811  1
  Ta  Ta16  1  0.905120  0.587804  0.504303  1
  Ta  Ta17  1  0.587804  0.905120  0.995697  1
  Ta  Ta18  1  0.094880  0.412196  0.495697  1
  Ta  Ta19  1  0.412196  0.094880  0.004303  1
  Ta  Ta20  1  0.023847  0.518183  0.090866  1
  Ta  Ta21  1  0.518183  0.023847  0.409134  1
  Ta  Ta22  1  0.976153  0.481817  0.909134  1
  Ta  Ta23  1  0.481817  0.976153  0.590866  1
  As  As24  1  0.101847  0.900797  0.358965  1
  As  As25  1  0.900797  0.101847  0.141035  1
  As  As26  1  0.898153  0.099203  0.641035  1
  As  As27  1  0.099203  0.898153  0.858965  1
  As  As28  1  0.400579  0.627830  0.344135  1
  As  As29  1  0.627830  0.400579  0.155865  1
  As  As30  1  0.599421  0.372170  0.655865  1
  As  As31  1  0.372170  0.599421  0.844135  1
