# generated using pymatgen
data_LiUN2
_symmetry_space_group_name_H-M   'P 1'
_cell_length_a   6.35412162
_cell_length_b   6.35412162
_cell_length_c   6.35412162
_cell_angle_alpha   139.78974554
_cell_angle_beta   139.78974554
_cell_angle_gamma   58.17267948
_symmetry_Int_Tables_number   1
_chemical_formula_structural   LiUN2
_chemical_formula_sum   'Li2 U2 N4'
_cell_volume   105.96244724
_cell_formula_units_Z   2
loop_
 _symmetry_equiv_pos_site_id
 _symmetry_equiv_pos_as_xyz
  1  'x, y, z'
loop_
 _atom_site_type_symbol
 _atom_site_label
 _atom_site_symmetry_multiplicity
 _atom_site_fract_x
 _atom_site_fract_y
 _atom_site_fract_z
 _atom_site_occupancy
  Li  Li0  1  0.250000  0.750000  0.500000  1
  Li  Li1  1  0.500000  0.500000  0.000000  1
  U  U2  1  0.750000  0.250000  0.500000  1
  U  U3  1  0.000000  0.000000  0.000000  1
  N  N4  1  0.540532  0.040532  0.500000  1
  N  N5  1  0.790532  0.790532  0.000000  1
  N  N6  1  0.959468  0.459468  0.500000  1
  N  N7  1  0.209468  0.209468  0.000000  1
