# generated using pymatgen
data_Hg2GeSe4
_symmetry_space_group_name_H-M   'P 1'
_cell_length_a   7.15338473
_cell_length_b   7.15338473
_cell_length_c   7.15338473
_cell_angle_alpha   131.92466258
_cell_angle_beta   131.92466258
_cell_angle_gamma   70.34804021
_symmetry_Int_Tables_number   1
_chemical_formula_structural   Hg2GeSe4
_chemical_formula_sum   'Hg2 Ge1 Se4'
_cell_volume   198.58238583
_cell_formula_units_Z   1
loop_
 _symmetry_equiv_pos_site_id
 _symmetry_equiv_pos_as_xyz
  1  'x, y, z'
loop_
 _atom_site_type_symbol
 _atom_site_label
 _atom_site_symmetry_multiplicity
 _atom_site_fract_x
 _atom_site_fract_y
 _atom_site_fract_z
 _atom_site_occupancy
  Hg  Hg0  1  0.250000  0.750000  0.500000  1
  Hg  Hg1  1  0.000000  0.000000  0.000000  1
  Ge  Ge2  1  0.500000  0.500000  0.000000  1
  Se  Se3  1  0.823316  0.371823  0.935770  1
  Se  Se4  1  0.628177  0.563947  0.451493  1
  Se  Se5  1  0.436053  0.887546  0.064230  1
  Se  Se6  1  0.112454  0.176684  0.548507  1
