# generated using pymatgen
data_LiCoPO4
_symmetry_space_group_name_H-M   'P 1'
_cell_length_a   4.98073720
_cell_length_b   4.98073720
_cell_length_c   6.24196003
_cell_angle_alpha   90.00000000
_cell_angle_beta   90.00000000
_cell_angle_gamma   112.90214517
_symmetry_Int_Tables_number   1
_chemical_formula_structural   LiCoPO4
_chemical_formula_sum   'Li2 Co2 P2 O8'
_cell_volume   142.64232783
_cell_formula_units_Z   2
loop_
 _symmetry_equiv_pos_site_id
 _symmetry_equiv_pos_as_xyz
  1  'x, y, z'
loop_
 _atom_site_type_symbol
 _atom_site_label
 _atom_site_symmetry_multiplicity
 _atom_site_fract_x
 _atom_site_fract_y
 _atom_site_fract_z
 _atom_site_occupancy
  Li  Li0  1  0.329437  0.670563  0.250000  1
  Li  Li1  1  0.670563  0.329437  0.750000  1
  Co  Co2  1  0.000000  0.000000  0.000000  1
  Co  Co3  1  0.000000  0.000000  0.500000  1
  P  P4  1  0.349862  0.650138  0.750000  1
  P  P5  1  0.650138  0.349862  0.250000  1
  O  O6  1  0.754199  0.245801  0.046839  1
  O  O7  1  0.238658  0.306302  0.750000  1
  O  O8  1  0.761342  0.693698  0.250000  1
  O  O9  1  0.245801  0.754199  0.546839  1
  O  O10  1  0.245801  0.754199  0.953161  1
  O  O11  1  0.306302  0.238658  0.250000  1
  O  O12  1  0.693698  0.761342  0.750000  1
  O  O13  1  0.754199  0.245801  0.453161  1
