# generated using pymatgen
data_Ho5Bi3
_symmetry_space_group_name_H-M   'P 1'
_cell_length_a   8.22917478
_cell_length_b   9.51159570
_cell_length_c   11.99667633
_cell_angle_alpha   90.00000000
_cell_angle_beta   90.00000000
_cell_angle_gamma   90.00000000
_symmetry_Int_Tables_number   1
_chemical_formula_structural   Ho5Bi3
_chemical_formula_sum   'Ho20 Bi12'
_cell_volume   939.01084919
_cell_formula_units_Z   4
loop_
 _symmetry_equiv_pos_site_id
 _symmetry_equiv_pos_as_xyz
  1  'x, y, z'
loop_
 _atom_site_type_symbol
 _atom_site_label
 _atom_site_symmetry_multiplicity
 _atom_site_fract_x
 _atom_site_fract_y
 _atom_site_fract_z
 _atom_site_occupancy
  Ho  Ho0  1  0.353839  0.750000  0.216064  1
  Ho  Ho1  1  0.853839  0.750000  0.283936  1
  Ho  Ho2  1  0.646161  0.250000  0.783936  1
  Ho  Ho3  1  0.146161  0.250000  0.716064  1
  Ho  Ho4  1  0.692082  0.564157  0.058987  1
  Ho  Ho5  1  0.192082  0.935843  0.441013  1
  Ho  Ho6  1  0.307918  0.064157  0.941013  1
  Ho  Ho7  1  0.807918  0.435843  0.558987  1
  Ho  Ho8  1  0.307918  0.435843  0.941013  1
  Ho  Ho9  1  0.807918  0.064157  0.558987  1
  Ho  Ho10  1  0.692082  0.935843  0.058987  1
  Ho  Ho11  1  0.192082  0.564157  0.441013  1
  Ho  Ho12  1  0.477115  0.250000  0.489064  1
  Ho  Ho13  1  0.977115  0.250000  0.010936  1
  Ho  Ho14  1  0.522885  0.750000  0.510936  1
  Ho  Ho15  1  0.022885  0.750000  0.989064  1
  Ho  Ho16  1  0.314822  0.250000  0.218120  1
  Ho  Ho17  1  0.814822  0.250000  0.281880  1
  Ho  Ho18  1  0.685178  0.750000  0.781880  1
  Ho  Ho19  1  0.185178  0.750000  0.718120  1
  Bi  Bi20  1  0.405423  0.750000  0.957476  1
  Bi  Bi21  1  0.905423  0.750000  0.542524  1
  Bi  Bi22  1  0.594577  0.250000  0.042524  1
  Bi  Bi23  1  0.094577  0.250000  0.457476  1
  Bi  Bi24  1  0.565828  0.996299  0.325689  1
  Bi  Bi25  1  0.065828  0.503701  0.174311  1
  Bi  Bi26  1  0.434172  0.496299  0.674311  1
  Bi  Bi27  1  0.934172  0.003701  0.825689  1
  Bi  Bi28  1  0.434172  0.003701  0.674311  1
  Bi  Bi29  1  0.934172  0.496299  0.825689  1
  Bi  Bi30  1  0.565828  0.503701  0.325689  1
  Bi  Bi31  1  0.065828  0.996299  0.174311  1
