# generated using pymatgen
data_Rb2TbF6
_symmetry_space_group_name_H-M   'P 1'
_cell_length_a   7.01175696
_cell_length_b   7.01175696
_cell_length_c   7.50972717
_cell_angle_alpha   89.36686583
_cell_angle_beta   90.63313417
_cell_angle_gamma   62.15183267
_symmetry_Int_Tables_number   1
_chemical_formula_structural   Rb2TbF6
_chemical_formula_sum   'Rb4 Tb2 F12'
_cell_volume   326.37976987
_cell_formula_units_Z   2
loop_
 _symmetry_equiv_pos_site_id
 _symmetry_equiv_pos_as_xyz
  1  'x, y, z'
loop_
 _atom_site_type_symbol
 _atom_site_label
 _atom_site_symmetry_multiplicity
 _atom_site_fract_x
 _atom_site_fract_y
 _atom_site_fract_z
 _atom_site_occupancy
  Rb  Rb0  1  0.643325  0.674631  0.001221  1
  Rb  Rb1  1  0.674631  0.643325  0.498779  1
  Rb  Rb2  1  0.325369  0.356675  0.501221  1
  Rb  Rb3  1  0.356675  0.325369  0.998779  1
  Tb  Tb4  1  0.960925  0.960925  0.750000  1
  Tb  Tb5  1  0.039075  0.039075  0.250000  1
  F  F6  1  0.129508  0.073669  0.954715  1
  F  F7  1  0.073669  0.129508  0.545285  1
  F  F8  1  0.870492  0.926331  0.045285  1
  F  F9  1  0.926331  0.870492  0.454715  1
  F  F10  1  0.004527  0.381377  0.232322  1
  F  F11  1  0.381377  0.004527  0.267678  1
  F  F12  1  0.702480  0.307880  0.764417  1
  F  F13  1  0.307880  0.702480  0.735583  1
  F  F14  1  0.297520  0.692120  0.235583  1
  F  F15  1  0.692120  0.297520  0.264417  1
  F  F16  1  0.618623  0.995473  0.732322  1
  F  F17  1  0.995473  0.618623  0.767678  1
