# generated using pymatgen
data_Li7Sn2
_symmetry_space_group_name_H-M   'P 1'
_cell_length_a   8.47649448
_cell_length_b   8.47649448
_cell_length_c   4.71086654
_cell_angle_alpha   90.00000000
_cell_angle_beta   90.00000000
_cell_angle_gamma   109.37277858
_symmetry_Int_Tables_number   1
_chemical_formula_structural   Li7Sn2
_chemical_formula_sum   'Li14 Sn4'
_cell_volume   319.31564625
_cell_formula_units_Z   2
loop_
 _symmetry_equiv_pos_site_id
 _symmetry_equiv_pos_as_xyz
  1  'x, y, z'
loop_
 _atom_site_type_symbol
 _atom_site_label
 _atom_site_symmetry_multiplicity
 _atom_site_fract_x
 _atom_site_fract_y
 _atom_site_fract_z
 _atom_site_occupancy
  Li  Li0  1  0.000000  0.000000  0.000000  1
  Li  Li1  1  0.500000  0.500000  0.500000  1
  Li  Li2  1  0.346909  0.346909  0.000000  1
  Li  Li3  1  0.653091  0.653091  0.000000  1
  Li  Li4  1  0.827456  0.172544  0.500000  1
  Li  Li5  1  0.172544  0.827456  0.500000  1
  Li  Li6  1  0.029295  0.343969  1.000000  1
  Li  Li7  1  0.970705  0.656031  1.000000  1
  Li  Li8  1  0.343969  0.029295  0.000000  1
  Li  Li9  1  0.656031  0.970705  0.000000  1
  Li  Li10  1  0.180387  0.503426  0.500000  1
  Li  Li11  1  0.819613  0.496574  0.500000  1
  Li  Li12  1  0.503426  0.180387  0.500000  1
  Li  Li13  1  0.496574  0.819613  0.500000  1
  Sn  Sn14  1  0.164716  0.164716  0.500000  1
  Sn  Sn15  1  0.835284  0.835284  0.500000  1
  Sn  Sn16  1  0.682324  0.317677  0.000000  1
  Sn  Sn17  1  0.317676  0.682324  0.000000  1
