# generated using pymatgen
data_Mg(HO)2
_symmetry_space_group_name_H-M   'P 1'
_cell_length_a   3.18589065
_cell_length_b   3.18589065
_cell_length_c   4.78161780
_cell_angle_alpha   90.00000000
_cell_angle_beta   90.00000000
_cell_angle_gamma   120.00000000
_symmetry_Int_Tables_number   1
_chemical_formula_structural   Mg(HO)2
_chemical_formula_sum   'Mg1 H2 O2'
_cell_volume   42.03075785
_cell_formula_units_Z   1
loop_
 _symmetry_equiv_pos_site_id
 _symmetry_equiv_pos_as_xyz
  1  'x, y, z'
loop_
 _atom_site_type_symbol
 _atom_site_label
 _atom_site_symmetry_multiplicity
 _atom_site_fract_x
 _atom_site_fract_y
 _atom_site_fract_z
 _atom_site_occupancy
  Mg  Mg0  1  0.000000  0.000000  0.000000  1
  H  H1  1  0.666667  0.333333  0.578699  1
  H  H2  1  0.333333  0.666667  0.421301  1
  O  O3  1  0.666667  0.333333  0.781776  1
  O  O4  1  0.333333  0.666667  0.218224  1
