# generated using pymatgen
data_Sr4Bi3
_symmetry_space_group_name_H-M   'P 1'
_cell_length_a   8.85500802
_cell_length_b   8.85500802
_cell_length_c   8.85500802
_cell_angle_alpha   109.47122063
_cell_angle_beta   109.47122063
_cell_angle_gamma   109.47122063
_symmetry_Int_Tables_number   1
_chemical_formula_structural   Sr4Bi3
_chemical_formula_sum   'Sr8 Bi6'
_cell_volume   534.49664741
_cell_formula_units_Z   2
loop_
 _symmetry_equiv_pos_site_id
 _symmetry_equiv_pos_as_xyz
  1  'x, y, z'
loop_
 _atom_site_type_symbol
 _atom_site_label
 _atom_site_symmetry_multiplicity
 _atom_site_fract_x
 _atom_site_fract_y
 _atom_site_fract_z
 _atom_site_occupancy
  Sr  Sr0  1  0.645601  0.645601  0.645601  1
  Sr  Sr1  1  0.354399  0.500000  0.000000  1
  Sr  Sr2  1  0.500000  1.000000  0.354399  1
  Sr  Sr3  1  0.000000  0.354399  0.500000  1
  Sr  Sr4  1  0.500000  1.000000  0.854399  1
  Sr  Sr5  1  0.000000  0.854399  0.500000  1
  Sr  Sr6  1  0.145601  0.145601  0.145601  1
  Sr  Sr7  1  0.854399  0.500000  0.000000  1
  Bi  Bi8  1  0.750000  0.875000  0.125000  1
  Bi  Bi9  1  0.625000  0.375000  0.250000  1
  Bi  Bi10  1  0.875000  0.125000  0.750000  1
  Bi  Bi11  1  0.125000  0.750000  0.875000  1
  Bi  Bi12  1  0.375000  0.250000  0.625000  1
  Bi  Bi13  1  0.250000  0.625000  0.375000  1
