# generated using pymatgen
data_CeAlRh
_symmetry_space_group_name_H-M   'P 1'
_cell_length_a   4.21001610
_cell_length_b   7.12403758
_cell_length_c   15.87366652
_cell_angle_alpha   90.00000000
_cell_angle_beta   90.00000000
_cell_angle_gamma   90.00000000
_symmetry_Int_Tables_number   1
_chemical_formula_structural   CeAlRh
_chemical_formula_sum   'Ce8 Al8 Rh8'
_cell_volume   476.08797328
_cell_formula_units_Z   8
loop_
 _symmetry_equiv_pos_site_id
 _symmetry_equiv_pos_as_xyz
  1  'x, y, z'
loop_
 _atom_site_type_symbol
 _atom_site_label
 _atom_site_symmetry_multiplicity
 _atom_site_fract_x
 _atom_site_fract_y
 _atom_site_fract_z
 _atom_site_occupancy
  Ce  Ce0  1  0.250000  0.653239  0.941014  1
  Ce  Ce1  1  0.750000  0.346761  0.058986  1
  Ce  Ce2  1  0.250000  0.153239  0.558986  1
  Ce  Ce3  1  0.750000  0.846761  0.441014  1
  Ce  Ce4  1  0.250000  0.527243  0.720458  1
  Ce  Ce5  1  0.750000  0.472757  0.279542  1
  Ce  Ce6  1  0.250000  0.027243  0.779542  1
  Ce  Ce7  1  0.750000  0.972757  0.220458  1
  Al  Al8  1  0.250000  0.644409  0.149955  1
  Al  Al9  1  0.750000  0.355591  0.850045  1
  Al  Al10  1  0.250000  0.144409  0.350045  1
  Al  Al11  1  0.750000  0.855591  0.649955  1
  Al  Al12  1  0.250000  0.505390  0.437950  1
  Al  Al13  1  0.750000  0.494610  0.562050  1
  Al  Al14  1  0.250000  0.005390  0.062050  1
  Al  Al15  1  0.750000  0.994610  0.937950  1
  Rh  Rh16  1  0.750000  0.779468  0.073220  1
  Rh  Rh17  1  0.250000  0.220532  0.926780  1
  Rh  Rh18  1  0.750000  0.279468  0.426780  1
  Rh  Rh19  1  0.250000  0.720532  0.573220  1
  Rh  Rh20  1  0.750000  0.235680  0.681922  1
  Rh  Rh21  1  0.250000  0.764320  0.318078  1
  Rh  Rh22  1  0.750000  0.735680  0.818078  1
  Rh  Rh23  1  0.250000  0.264320  0.181922  1
