# generated using pymatgen
data_BaCu
_symmetry_space_group_name_H-M   'P 1'
_cell_length_a   4.51018073
_cell_length_b   4.51018073
_cell_length_c   16.79121924
_cell_angle_alpha   90.00000000
_cell_angle_beta   90.00000000
_cell_angle_gamma   120.00000000
_symmetry_Int_Tables_number   1
_chemical_formula_structural   BaCu
_chemical_formula_sum   'Ba4 Cu4'
_cell_volume   295.80176016
_cell_formula_units_Z   4
loop_
 _symmetry_equiv_pos_site_id
 _symmetry_equiv_pos_as_xyz
  1  'x, y, z'
loop_
 _atom_site_type_symbol
 _atom_site_label
 _atom_site_symmetry_multiplicity
 _atom_site_fract_x
 _atom_site_fract_y
 _atom_site_fract_z
 _atom_site_occupancy
  Ba  Ba0  1  0.333333  0.666667  0.125092  1
  Ba  Ba1  1  0.666667  0.333333  0.874908  1
  Ba  Ba2  1  0.333333  0.666667  0.374908  1
  Ba  Ba3  1  0.666667  0.333333  0.625092  1
  Cu  Cu4  1  0.000000  0.000000  0.250000  1
  Cu  Cu5  1  0.666667  0.333333  0.250000  1
  Cu  Cu6  1  0.333333  0.666667  0.750000  1
  Cu  Cu7  1  0.000000  0.000000  0.750000  1
