# generated using pymatgen
data_LiNi(PO3)4
_symmetry_space_group_name_H-M   'P 1'
_cell_length_a   8.24762011
_cell_length_b   8.24762011
_cell_length_c   7.81759166
_cell_angle_alpha   82.88446887
_cell_angle_beta   97.11553113
_cell_angle_gamma   69.73591885
_symmetry_Int_Tables_number   1
_chemical_formula_structural   LiNi(PO3)4
_chemical_formula_sum   'Li2 Ni2 P8 O24'
_cell_volume   487.01301381
_cell_formula_units_Z   2
loop_
 _symmetry_equiv_pos_site_id
 _symmetry_equiv_pos_as_xyz
  1  'x, y, z'
loop_
 _atom_site_type_symbol
 _atom_site_label
 _atom_site_symmetry_multiplicity
 _atom_site_fract_x
 _atom_site_fract_y
 _atom_site_fract_z
 _atom_site_occupancy
  Li  Li0  1  0.192072  0.500446  0.259650  1
  Li  Li1  1  0.499554  0.807928  0.759650  1
  Ni  Ni2  1  0.130669  0.126994  0.745355  1
  Ni  Ni3  1  0.873006  0.869331  0.245355  1
  P  P4  1  0.577657  0.766041  0.382278  1
  P  P5  1  0.793297  0.050914  0.819079  1
  P  P6  1  0.209411  0.947819  0.166136  1
  P  P7  1  0.052181  0.790589  0.666136  1
  P  P8  1  0.233959  0.422343  0.882278  1
  P  P9  1  0.949086  0.206703  0.319079  1
  P  P10  1  0.423221  0.242615  0.634595  1
  P  P11  1  0.757385  0.576779  0.134595  1
  O  O12  1  0.368543  0.845568  0.322041  1
  O  O13  1  0.122427  0.126142  0.236448  1
  O  O14  1  0.398707  0.366440  0.781750  1
  O  O15  1  0.089789  0.841513  0.165845  1
  O  O16  1  0.363470  0.089421  0.694111  1
  O  O17  1  0.098509  0.352240  0.801555  1
  O  O18  1  0.873858  0.877573  0.736448  1
  O  O19  1  0.158487  0.910211  0.665845  1
  O  O20  1  0.351665  0.344024  0.455665  1
  O  O21  1  0.730501  0.010313  0.984881  1
  O  O22  1  0.840561  0.367870  0.161959  1
  O  O23  1  0.851903  0.080692  0.330488  1
  O  O24  1  0.154432  0.631457  0.822041  1
  O  O25  1  0.910579  0.636530  0.194111  1
  O  O26  1  0.608530  0.709356  0.574043  1
  O  O27  1  0.020399  0.727499  0.498023  1
  O  O28  1  0.655976  0.648335  0.955665  1
  O  O29  1  0.272501  0.979601  0.998023  1
  O  O30  1  0.989687  0.269499  0.484881  1
  O  O31  1  0.919308  0.148097  0.830488  1
  O  O32  1  0.633560  0.601293  0.281750  1
  O  O33  1  0.632130  0.159439  0.661959  1
  O  O34  1  0.647760  0.901491  0.301555  1
  O  O35  1  0.290644  0.391470  0.074043  1
