# generated using pymatgen
data_PrPS4
_symmetry_space_group_name_H-M   'P 1'
_cell_length_a   12.52554340
_cell_length_b   12.52554340
_cell_length_c   12.52554340
_cell_angle_alpha   127.40149960
_cell_angle_beta   127.40149960
_cell_angle_gamma   77.59660119
_symmetry_Int_Tables_number   1
_chemical_formula_structural   PrPS4
_chemical_formula_sum   'Pr8 P8 S32'
_cell_volume   1202.56880701
_cell_formula_units_Z   8
loop_
 _symmetry_equiv_pos_site_id
 _symmetry_equiv_pos_as_xyz
  1  'x, y, z'
loop_
 _atom_site_type_symbol
 _atom_site_label
 _atom_site_symmetry_multiplicity
 _atom_site_fract_x
 _atom_site_fract_y
 _atom_site_fract_z
 _atom_site_occupancy
  Pr  Pr0  1  0.000000  0.000000  0.000000  1
  Pr  Pr1  1  0.750000  0.250000  0.500000  1
  Pr  Pr2  1  0.250000  0.750000  0.500000  1
  Pr  Pr3  1  0.500000  0.500000  0.000000  1
  Pr  Pr4  1  0.750000  0.750000  0.000000  1
  Pr  Pr5  1  0.500000  0.000000  0.500000  1
  Pr  Pr6  1  0.000000  0.500000  0.500000  1
  Pr  Pr7  1  0.250000  0.250000  0.000000  1
  P  P8  1  0.125000  0.412146  0.787146  1
  P  P9  1  0.125000  0.912146  0.287146  1
  P  P10  1  0.662146  0.875000  0.287146  1
  P  P11  1  0.587854  0.375000  0.712854  1
  P  P12  1  0.625000  0.837854  0.712854  1
  P  P13  1  0.625000  0.337854  0.212854  1
  P  P14  1  0.087854  0.375000  0.212854  1
  P  P15  1  0.162146  0.875000  0.787146  1
  S  S16  1  0.488214  0.217073  0.457872  1
  S  S17  1  0.759201  0.030342  0.542128  1
  S  S18  1  0.780342  0.738214  0.771141  1
  S  S19  1  0.967073  0.009201  0.228859  1
  S  S20  1  0.490799  0.532927  0.771141  1
  S  S21  1  0.761786  0.719658  0.228859  1
  S  S22  1  0.282927  0.011786  0.542128  1
  S  S23  1  0.469658  0.740799  0.457872  1
  S  S24  1  0.103508  0.286447  0.314326  1
  S  S25  1  0.036447  0.222122  0.682939  1
  S  S26  1  0.539183  0.353508  0.317061  1
  S  S27  1  0.146492  0.960817  0.682939  1
  S  S28  1  0.277878  0.463553  0.317061  1
  S  S29  1  0.710817  0.527878  0.314326  1
  S  S30  1  0.213553  0.396492  0.685674  1
  S  S31  1  0.972122  0.789183  0.685674  1
  S  S32  1  0.646492  0.963553  0.185674  1
  S  S33  1  0.713553  0.027878  0.817061  1
  S  S34  1  0.210817  0.896492  0.182939  1
  S  S35  1  0.603508  0.289183  0.817061  1
  S  S36  1  0.472122  0.786447  0.182939  1
  S  S37  1  0.039183  0.722122  0.185674  1
  S  S38  1  0.536447  0.853508  0.814326  1
  S  S39  1  0.777878  0.460817  0.814326  1
  S  S40  1  0.990799  0.219658  0.957872  1
  S  S41  1  0.969658  0.511786  0.728859  1
  S  S42  1  0.782927  0.240799  0.271141  1
  S  S43  1  0.259201  0.717073  0.728859  1
  S  S44  1  0.988214  0.530342  0.271141  1
  S  S45  1  0.467073  0.238214  0.957872  1
  S  S46  1  0.280342  0.509201  0.042128  1
  S  S47  1  0.261786  0.032927  0.042128  1
