# generated using pymatgen
data_K5Hg7
_symmetry_space_group_name_H-M   'P 1'
_cell_length_a   8.52723125
_cell_length_b   10.31897818
_cell_length_c   19.81031328
_cell_angle_alpha   90.00000000
_cell_angle_beta   90.00000000
_cell_angle_gamma   90.00000000
_symmetry_Int_Tables_number   1
_chemical_formula_structural   K5Hg7
_chemical_formula_sum   'K20 Hg28'
_cell_volume   1743.15529081
_cell_formula_units_Z   4
loop_
 _symmetry_equiv_pos_site_id
 _symmetry_equiv_pos_as_xyz
  1  'x, y, z'
loop_
 _atom_site_type_symbol
 _atom_site_label
 _atom_site_symmetry_multiplicity
 _atom_site_fract_x
 _atom_site_fract_y
 _atom_site_fract_z
 _atom_site_occupancy
  K  K0  1  0.250000  0.105832  0.588282  1
  K  K1  1  0.750000  0.894168  0.411718  1
  K  K2  1  0.750000  0.105832  0.911718  1
  K  K3  1  0.250000  0.894168  0.088282  1
  K  K4  1  0.250000  0.994454  0.890542  1
  K  K5  1  0.750000  0.005546  0.109458  1
  K  K6  1  0.750000  0.994454  0.609458  1
  K  K7  1  0.250000  0.005546  0.390542  1
  K  K8  1  0.250000  0.815206  0.709384  1
  K  K9  1  0.750000  0.184794  0.290616  1
  K  K10  1  0.750000  0.815206  0.790616  1
  K  K11  1  0.250000  0.184794  0.209385  1
  K  K12  1  0.250000  0.479163  0.516515  1
  K  K13  1  0.750000  0.520837  0.483485  1
  K  K14  1  0.750000  0.479163  0.983485  1
  K  K15  1  0.250000  0.520837  0.016515  1
  K  K16  1  0.250000  0.427090  0.727870  1
  K  K17  1  0.750000  0.572910  0.272130  1
  K  K18  1  0.750000  0.427090  0.772130  1
  K  K19  1  0.250000  0.572910  0.227870  1
  Hg  Hg20  1  0.567189  0.370046  0.143024  1
  Hg  Hg21  1  0.067189  0.629954  0.856976  1
  Hg  Hg22  1  0.432811  0.370046  0.356976  1
  Hg  Hg23  1  0.932811  0.629954  0.643024  1
  Hg  Hg24  1  0.432811  0.629954  0.856976  1
  Hg  Hg25  1  0.932811  0.370046  0.143024  1
  Hg  Hg26  1  0.567189  0.629954  0.643024  1
  Hg  Hg27  1  0.067189  0.370046  0.356976  1
  Hg  Hg28  1  0.068851  0.679643  0.380914  1
  Hg  Hg29  1  0.568851  0.320357  0.619086  1
  Hg  Hg30  1  0.931149  0.679643  0.119086  1
  Hg  Hg31  1  0.431149  0.320357  0.880914  1
  Hg  Hg32  1  0.931149  0.320357  0.619086  1
  Hg  Hg33  1  0.431149  0.679643  0.380914  1
  Hg  Hg34  1  0.068851  0.320357  0.880914  1
  Hg  Hg35  1  0.568851  0.679643  0.119086  1
  Hg  Hg36  1  0.564961  0.196429  0.471581  1
  Hg  Hg37  1  0.064961  0.803571  0.528419  1
  Hg  Hg38  1  0.435039  0.196429  0.028419  1
  Hg  Hg39  1  0.935039  0.803571  0.971581  1
  Hg  Hg40  1  0.435039  0.803571  0.528419  1
  Hg  Hg41  1  0.935039  0.196429  0.471581  1
  Hg  Hg42  1  0.564961  0.803571  0.971581  1
  Hg  Hg43  1  0.064961  0.196429  0.028419  1
  Hg  Hg44  1  0.500000  0.874427  0.250000  1
  Hg  Hg45  1  0.000000  0.125573  0.750000  1
  Hg  Hg46  1  0.500000  0.125573  0.750000  1
  Hg  Hg47  1  0.000000  0.874427  0.250000  1
