# generated using pymatgen
data_SrTe3O8
_symmetry_space_group_name_H-M   'P 1'
_cell_length_a   6.96432173
_cell_length_b   6.96432173
_cell_length_c   6.85824051
_cell_angle_alpha   90.00000000
_cell_angle_beta   90.00000000
_cell_angle_gamma   90.00000000
_symmetry_Int_Tables_number   1
_chemical_formula_structural   SrTe3O8
_chemical_formula_sum   'Sr2 Te6 O16'
_cell_volume   332.63685292
_cell_formula_units_Z   2
loop_
 _symmetry_equiv_pos_site_id
 _symmetry_equiv_pos_as_xyz
  1  'x, y, z'
loop_
 _atom_site_type_symbol
 _atom_site_label
 _atom_site_symmetry_multiplicity
 _atom_site_fract_x
 _atom_site_fract_y
 _atom_site_fract_z
 _atom_site_occupancy
  Sr  Sr0  1  0.000000  0.000000  0.250000  1
  Sr  Sr1  1  0.000000  0.000000  0.750000  1
  Te  Te2  1  0.784799  0.565720  0.000000  1
  Te  Te3  1  0.565720  0.215201  0.500000  1
  Te  Te4  1  0.434280  0.784799  0.500000  1
  Te  Te5  1  0.215201  0.434280  0.000000  1
  Te  Te6  1  0.500000  0.000000  0.000000  1
  Te  Te7  1  0.000000  0.500000  0.500000  1
  O  O8  1  0.953765  0.322380  0.000000  1
  O  O9  1  0.322380  0.046235  0.500000  1
  O  O10  1  0.677620  0.953765  0.500000  1
  O  O11  1  0.046235  0.677620  0.000000  1
  O  O12  1  0.756917  0.882883  0.000000  1
  O  O13  1  0.882883  0.243083  0.500000  1
  O  O14  1  0.117117  0.756917  0.500000  1
  O  O15  1  0.243083  0.117117  0.000000  1
  O  O16  1  0.187958  0.412171  0.306022  1
  O  O17  1  0.412171  0.812042  0.806022  1
  O  O18  1  0.587829  0.187958  0.806022  1
  O  O19  1  0.812042  0.587829  0.306022  1
  O  O20  1  0.812042  0.587829  0.693978  1
  O  O21  1  0.587829  0.187958  0.193978  1
  O  O22  1  0.412171  0.812042  0.193978  1
  O  O23  1  0.187958  0.412171  0.693978  1
