# generated using pymatgen
data_NdCuSe2
_symmetry_space_group_name_H-M   'P 1'
_cell_length_a   6.74499634
_cell_length_b   7.50932532
_cell_length_c   7.21991575
_cell_angle_alpha   90.00000000
_cell_angle_beta   96.53229775
_cell_angle_gamma   90.00000000
_symmetry_Int_Tables_number   1
_chemical_formula_structural   NdCuSe2
_chemical_formula_sum   'Nd4 Cu4 Se8'
_cell_volume   363.31730669
_cell_formula_units_Z   4
loop_
 _symmetry_equiv_pos_site_id
 _symmetry_equiv_pos_as_xyz
  1  'x, y, z'
loop_
 _atom_site_type_symbol
 _atom_site_label
 _atom_site_symmetry_multiplicity
 _atom_site_fract_x
 _atom_site_fract_y
 _atom_site_fract_z
 _atom_site_occupancy
  Nd  Nd0  1  0.306605  0.545288  0.700579  1
  Nd  Nd1  1  0.693395  0.045288  0.799421  1
  Nd  Nd2  1  0.693395  0.454712  0.299421  1
  Nd  Nd3  1  0.306605  0.954712  0.200579  1
  Cu  Cu4  1  0.931066  0.839557  0.453919  1
  Cu  Cu5  1  0.068934  0.160443  0.546081  1
  Cu  Cu6  1  0.931066  0.660443  0.953919  1
  Cu  Cu7  1  0.068934  0.339557  0.046081  1
  Se  Se8  1  0.581408  0.723510  0.997608  1
  Se  Se9  1  0.581408  0.776490  0.497608  1
  Se  Se10  1  0.418592  0.223510  0.502392  1
  Se  Se11  1  0.418592  0.276490  0.002392  1
  Se  Se12  1  0.097780  0.611954  0.279080  1
  Se  Se13  1  0.902220  0.111954  0.220920  1
  Se  Se14  1  0.902220  0.388046  0.720920  1
  Se  Se15  1  0.097780  0.888046  0.779080  1
