# generated using pymatgen
data_Rb3NbS4
_symmetry_space_group_name_H-M   'P 1'
_cell_length_a   9.71679332
_cell_length_b   9.88508524
_cell_length_c   11.28878486
_cell_angle_alpha   90.00000000
_cell_angle_beta   90.00000000
_cell_angle_gamma   90.00000000
_symmetry_Int_Tables_number   1
_chemical_formula_structural   Rb3NbS4
_chemical_formula_sum   'Rb12 Nb4 S16'
_cell_volume   1084.30280246
_cell_formula_units_Z   4
loop_
 _symmetry_equiv_pos_site_id
 _symmetry_equiv_pos_as_xyz
  1  'x, y, z'
loop_
 _atom_site_type_symbol
 _atom_site_label
 _atom_site_symmetry_multiplicity
 _atom_site_fract_x
 _atom_site_fract_y
 _atom_site_fract_z
 _atom_site_occupancy
  Rb  Rb0  1  0.554782  0.289082  0.544065  1
  Rb  Rb1  1  0.360732  0.923261  0.750000  1
  Rb  Rb2  1  0.639268  0.076739  0.250000  1
  Rb  Rb3  1  0.139268  0.423261  0.250000  1
  Rb  Rb4  1  0.445218  0.710918  0.455935  1
  Rb  Rb5  1  0.945218  0.789082  0.044065  1
  Rb  Rb6  1  0.054782  0.210918  0.544065  1
  Rb  Rb7  1  0.554782  0.289082  0.955935  1
  Rb  Rb8  1  0.445218  0.710918  0.044065  1
  Rb  Rb9  1  0.054782  0.210918  0.955935  1
  Rb  Rb10  1  0.945218  0.789082  0.455935  1
  Rb  Rb11  1  0.860732  0.576739  0.750000  1
  Nb  Nb12  1  0.782246  0.013143  0.750000  1
  Nb  Nb13  1  0.282246  0.486857  0.750000  1
  Nb  Nb14  1  0.717754  0.513143  0.250000  1
  Nb  Nb15  1  0.217754  0.986857  0.250000  1
  S  S16  1  0.803168  0.244827  0.750000  1
  S  S17  1  0.303168  0.255173  0.750000  1
  S  S18  1  0.696832  0.744827  0.250000  1
  S  S19  1  0.196832  0.755173  0.250000  1
  S  S20  1  0.498537  0.581475  0.750000  1
  S  S21  1  0.998537  0.918525  0.750000  1
  S  S22  1  0.001463  0.081475  0.250000  1
  S  S23  1  0.501463  0.418525  0.250000  1
  S  S24  1  0.333576  0.050306  0.082066  1
  S  S25  1  0.833576  0.449694  0.417934  1
  S  S26  1  0.166424  0.550306  0.917934  1
  S  S27  1  0.666424  0.949694  0.582066  1
  S  S28  1  0.666424  0.949694  0.917934  1
  S  S29  1  0.333576  0.050306  0.417934  1
  S  S30  1  0.833576  0.449694  0.082066  1
  S  S31  1  0.166424  0.550306  0.582066  1
