# generated using pymatgen
data_PrAu2
_symmetry_space_group_name_H-M   'P 1'
_cell_length_a   6.01498859
_cell_length_b   6.01498859
_cell_length_c   6.01498859
_cell_angle_alpha   133.73581959
_cell_angle_beta   106.10867257
_cell_angle_gamma   91.78824341
_symmetry_Int_Tables_number   1
_chemical_formula_structural   PrAu2
_chemical_formula_sum   'Pr2 Au4'
_cell_volume   143.05741004
_cell_formula_units_Z   2
loop_
 _symmetry_equiv_pos_site_id
 _symmetry_equiv_pos_as_xyz
  1  'x, y, z'
loop_
 _atom_site_type_symbol
 _atom_site_label
 _atom_site_symmetry_multiplicity
 _atom_site_fract_x
 _atom_site_fract_y
 _atom_site_fract_z
 _atom_site_occupancy
  Pr  Pr0  1  0.784599  0.534599  0.750000  1
  Pr  Pr1  1  0.215401  0.465401  0.250000  1
  Au  Au2  1  0.630484  0.163521  0.966963  1
  Au  Au3  1  0.369516  0.836479  0.033037  1
  Au  Au4  1  0.196559  0.163521  0.533037  1
  Au  Au5  1  0.803441  0.836479  0.466963  1
