# generated using pymatgen
data_Ca5Ag3
_symmetry_space_group_name_H-M   'P 1'
_cell_length_a   9.38219090
_cell_length_b   9.38219090
_cell_length_c   9.38219090
_cell_angle_alpha   129.39349164
_cell_angle_beta   129.39349164
_cell_angle_gamma   74.37824771
_symmetry_Int_Tables_number   1
_chemical_formula_structural   Ca5Ag3
_chemical_formula_sum   'Ca10 Ag6'
_cell_volume   480.75653569
_cell_formula_units_Z   2
loop_
 _symmetry_equiv_pos_site_id
 _symmetry_equiv_pos_as_xyz
  1  'x, y, z'
loop_
 _atom_site_type_symbol
 _atom_site_label
 _atom_site_symmetry_multiplicity
 _atom_site_fract_x
 _atom_site_fract_y
 _atom_site_fract_z
 _atom_site_occupancy
  Ca  Ca0  1  0.478279  0.978279  0.165324  1
  Ca  Ca1  1  0.187046  0.687046  0.165324  1
  Ca  Ca2  1  0.521721  0.021721  0.834676  1
  Ca  Ca3  1  0.021721  0.187046  0.500000  1
  Ca  Ca4  1  0.687046  0.521721  0.500000  1
  Ca  Ca5  1  0.978279  0.812954  0.500000  1
  Ca  Ca6  1  0.000000  0.000000  0.000000  1
  Ca  Ca7  1  0.500000  0.500000  0.000000  1
  Ca  Ca8  1  0.812954  0.312954  0.834676  1
  Ca  Ca9  1  0.312954  0.478279  0.500000  1
  Ag  Ag10  1  0.126837  0.626837  0.753673  1
  Ag  Ag11  1  0.626837  0.873163  0.500000  1
  Ag  Ag12  1  0.373163  0.126837  0.500000  1
  Ag  Ag13  1  0.873163  0.373163  0.246327  1
  Ag  Ag14  1  0.750000  0.750000  0.000000  1
  Ag  Ag15  1  0.250000  0.250000  0.000000  1
