# generated using pymatgen
data_NpIO5
_symmetry_space_group_name_H-M   'P 1'
_cell_length_a   5.65009351
_cell_length_b   6.04436313
_cell_length_c   14.00002525
_cell_angle_alpha   90.00000000
_cell_angle_beta   90.00000000
_cell_angle_gamma   90.00000000
_symmetry_Int_Tables_number   1
_chemical_formula_structural   NpIO5
_chemical_formula_sum   'Np4 I4 O20'
_cell_volume   478.11789882
_cell_formula_units_Z   4
loop_
 _symmetry_equiv_pos_site_id
 _symmetry_equiv_pos_as_xyz
  1  'x, y, z'
loop_
 _atom_site_type_symbol
 _atom_site_label
 _atom_site_symmetry_multiplicity
 _atom_site_fract_x
 _atom_site_fract_y
 _atom_site_fract_z
 _atom_site_occupancy
  Np  Np0  1  0.403070  0.752183  0.971075  1
  Np  Np1  1  0.903070  0.247817  0.028925  1
  Np  Np2  1  0.403070  0.747817  0.471075  1
  Np  Np3  1  0.903070  0.252183  0.528925  1
  I  I4  1  0.399148  0.508731  0.217165  1
  I  I5  1  0.899148  0.491269  0.782835  1
  I  I6  1  0.399148  0.991269  0.717165  1
  I  I7  1  0.899148  0.008731  0.282835  1
  O  O8  1  0.600079  0.996545  0.989278  1
  O  O9  1  0.100079  0.003455  0.010722  1
  O  O10  1  0.600079  0.503455  0.489278  1
  O  O11  1  0.100079  0.496545  0.510722  1
  O  O12  1  0.189885  0.509772  0.955092  1
  O  O13  1  0.689885  0.490228  0.044908  1
  O  O14  1  0.189885  0.990228  0.455092  1
  O  O15  1  0.689885  0.009772  0.544908  1
  O  O16  1  0.826030  0.242153  0.360243  1
  O  O17  1  0.326030  0.757847  0.639757  1
  O  O18  1  0.826030  0.257847  0.860243  1
  O  O19  1  0.326030  0.742153  0.139757  1
  O  O20  1  0.741388  0.104591  0.176045  1
  O  O21  1  0.241388  0.895409  0.823955  1
  O  O22  1  0.741388  0.395409  0.676045  1
  O  O23  1  0.241388  0.604591  0.323955  1
  O  O24  1  0.677509  0.810667  0.325874  1
  O  O25  1  0.177509  0.189333  0.674126  1
  O  O26  1  0.677509  0.689333  0.825874  1
  O  O27  1  0.177509  0.310667  0.174126  1
