# generated using pymatgen
data_ErSi
_symmetry_space_group_name_H-M   'P 1'
_cell_length_a   5.63162966
_cell_length_b   5.63162966
_cell_length_c   3.80439282
_cell_angle_alpha   90.00000000
_cell_angle_beta   90.00000000
_cell_angle_gamma   135.78574862
_symmetry_Int_Tables_number   1
_chemical_formula_structural   ErSi
_chemical_formula_sum   'Er2 Si2'
_cell_volume   84.13955767
_cell_formula_units_Z   2
loop_
 _symmetry_equiv_pos_site_id
 _symmetry_equiv_pos_as_xyz
  1  'x, y, z'
loop_
 _atom_site_type_symbol
 _atom_site_label
 _atom_site_symmetry_multiplicity
 _atom_site_fract_x
 _atom_site_fract_y
 _atom_site_fract_z
 _atom_site_occupancy
  Er  Er0  1  0.140207  0.859793  0.250000  1
  Er  Er1  1  0.859793  0.140207  0.750000  1
  Si  Si2  1  0.422676  0.577324  0.250000  1
  Si  Si3  1  0.577324  0.422676  0.750000  1
