# generated using pymatgen
data_Tl9SbTe6
_symmetry_space_group_name_H-M   'P 1'
_cell_length_a   9.26580902
_cell_length_b   9.26580902
_cell_length_c   9.26580902
_cell_angle_alpha   122.29817818
_cell_angle_beta   122.29817818
_cell_angle_gamma   86.06349435
_symmetry_Int_Tables_number   1
_chemical_formula_structural   Tl9SbTe6
_chemical_formula_sum   'Tl9 Sb1 Te6'
_cell_volume   541.58353244
_cell_formula_units_Z   1
loop_
 _symmetry_equiv_pos_site_id
 _symmetry_equiv_pos_as_xyz
  1  'x, y, z'
loop_
 _atom_site_type_symbol
 _atom_site_label
 _atom_site_symmetry_multiplicity
 _atom_site_fract_x
 _atom_site_fract_y
 _atom_site_fract_z
 _atom_site_occupancy
  Tl  Tl0  1  0.993884  0.200166  0.495296  1
  Tl  Tl1  1  0.521187  0.015196  0.207784  1
  Tl  Tl2  1  0.004245  0.004245  0.000000  1
  Tl  Tl3  1  0.807412  0.313403  0.792216  1
  Tl  Tl4  1  0.704870  0.498588  0.504704  1
  Tl  Tl5  1  0.200166  0.704870  0.206282  1
  Tl  Tl6  1  0.313403  0.521187  0.505991  1
  Tl  Tl7  1  0.015196  0.807412  0.494009  1
  Tl  Tl8  1  0.498588  0.993884  0.793718  1
  Sb  Sb9  1  0.499994  0.499994  0.000000  1
  Te  Te10  1  0.278542  0.278542  0.000000  1
  Te  Te11  1  0.358137  0.185575  0.528097  1
  Te  Te12  1  0.830039  0.358137  0.172562  1
  Te  Te13  1  0.751032  0.751032  0.000000  1
  Te  Te14  1  0.185575  0.657478  0.827438  1
  Te  Te15  1  0.657478  0.830039  0.471903  1
