# generated using pymatgen
data_K6Si2O7
_symmetry_space_group_name_H-M   'P 1'
_cell_length_a   6.53329866
_cell_length_b   8.98622000
_cell_length_c   11.03365598
_cell_angle_alpha   90.00000000
_cell_angle_beta   124.79390695
_cell_angle_gamma   90.00000000
_symmetry_Int_Tables_number   1
_chemical_formula_structural   K6Si2O7
_chemical_formula_sum   'K12 Si4 O14'
_cell_volume   531.96513729
_cell_formula_units_Z   2
loop_
 _symmetry_equiv_pos_site_id
 _symmetry_equiv_pos_as_xyz
  1  'x, y, z'
loop_
 _atom_site_type_symbol
 _atom_site_label
 _atom_site_symmetry_multiplicity
 _atom_site_fract_x
 _atom_site_fract_y
 _atom_site_fract_z
 _atom_site_occupancy
  K  K0  1  0.291630  0.026730  0.043815  1
  K  K1  1  0.291630  0.473270  0.543815  1
  K  K2  1  0.708370  0.973270  0.956185  1
  K  K3  1  0.470429  0.851091  0.585268  1
  K  K4  1  0.529571  0.351091  0.914732  1
  K  K5  1  0.529571  0.148909  0.414732  1
  K  K6  1  0.470429  0.648909  0.085268  1
  K  K7  1  0.105048  0.781620  0.723636  1
  K  K8  1  0.894952  0.281620  0.776364  1
  K  K9  1  0.894952  0.218380  0.276364  1
  K  K10  1  0.105048  0.718380  0.223636  1
  K  K11  1  0.708370  0.526730  0.456185  1
  Si  Si12  1  0.174168  0.135524  0.625722  1
  Si  Si13  1  0.174168  0.364476  0.125722  1
  Si  Si14  1  0.825832  0.864476  0.374278  1
  Si  Si15  1  0.825832  0.635524  0.874278  1
  O  O16  1  0.000000  0.000000  0.500000  1
  O  O17  1  0.759465  0.581341  0.713265  1
  O  O18  1  0.240535  0.081341  0.786735  1
  O  O19  1  0.240535  0.418659  0.286735  1
  O  O20  1  0.000000  0.500000  0.000000  1
  O  O21  1  0.573765  0.842291  0.372895  1
  O  O22  1  0.426235  0.342291  0.127105  1
  O  O23  1  0.426235  0.157709  0.627105  1
  O  O24  1  0.573765  0.657709  0.872895  1
  O  O25  1  0.004530  0.715349  0.434599  1
  O  O26  1  0.995470  0.215349  0.065401  1
  O  O27  1  0.995470  0.284651  0.565401  1
  O  O28  1  0.004530  0.784651  0.934599  1
  O  O29  1  0.759465  0.918659  0.213265  1
