# generated using pymatgen
data_Ba5Nb4O15
_symmetry_space_group_name_H-M   'P 1'
_cell_length_a   5.88872032
_cell_length_b   5.88872032
_cell_length_c   12.00272268
_cell_angle_alpha   90.00000000
_cell_angle_beta   90.00000000
_cell_angle_gamma   120.00000000
_symmetry_Int_Tables_number   1
_chemical_formula_structural   Ba5Nb4O15
_chemical_formula_sum   'Ba5 Nb4 O15'
_cell_volume   360.45600095
_cell_formula_units_Z   1
loop_
 _symmetry_equiv_pos_site_id
 _symmetry_equiv_pos_as_xyz
  1  'x, y, z'
loop_
 _atom_site_type_symbol
 _atom_site_label
 _atom_site_symmetry_multiplicity
 _atom_site_fract_x
 _atom_site_fract_y
 _atom_site_fract_z
 _atom_site_occupancy
  Ba  Ba0  1  0.666667  0.333333  0.570927  1
  Ba  Ba1  1  0.333333  0.666667  0.429073  1
  Ba  Ba2  1  0.666667  0.333333  0.208251  1
  Ba  Ba3  1  0.333333  0.666667  0.791749  1
  Ba  Ba4  1  0.000000  0.000000  0.000000  1
  Nb  Nb5  1  0.666667  0.333333  0.895094  1
  Nb  Nb6  1  0.333333  0.666667  0.104906  1
  Nb  Nb7  1  0.000000  0.000000  0.316611  1
  Nb  Nb8  1  0.000000  0.000000  0.683389  1
  O  O9  1  0.836231  0.163769  0.387275  1
  O  O10  1  0.836231  0.672462  0.387275  1
  O  O11  1  0.327538  0.163769  0.387275  1
  O  O12  1  0.672462  0.836231  0.612725  1
  O  O13  1  0.163769  0.327538  0.612725  1
  O  O14  1  0.163769  0.836231  0.612725  1
  O  O15  1  0.830680  0.169320  0.808233  1
  O  O16  1  0.830680  0.661360  0.808233  1
  O  O17  1  0.338640  0.169320  0.808233  1
  O  O18  1  0.500000  0.000000  0.000000  1
  O  O19  1  0.000000  0.500000  0.000000  1
  O  O20  1  0.500000  0.500000  0.000000  1
  O  O21  1  0.169320  0.830680  0.191767  1
  O  O22  1  0.169320  0.338640  0.191767  1
  O  O23  1  0.661360  0.830680  0.191767  1
