# generated using pymatgen
data_SmRhO3
_symmetry_space_group_name_H-M   'P 1'
_cell_length_a   5.35539149
_cell_length_b   5.88530409
_cell_length_c   7.77385730
_cell_angle_alpha   90.00000000
_cell_angle_beta   90.00000000
_cell_angle_gamma   90.00000000
_symmetry_Int_Tables_number   1
_chemical_formula_structural   SmRhO3
_chemical_formula_sum   'Sm4 Rh4 O12'
_cell_volume   245.01726960
_cell_formula_units_Z   4
loop_
 _symmetry_equiv_pos_site_id
 _symmetry_equiv_pos_as_xyz
  1  'x, y, z'
loop_
 _atom_site_type_symbol
 _atom_site_label
 _atom_site_symmetry_multiplicity
 _atom_site_fract_x
 _atom_site_fract_y
 _atom_site_fract_z
 _atom_site_occupancy
  Sm  Sm0  1  0.471152  0.582155  0.750000  1
  Sm  Sm1  1  0.971152  0.917845  0.250000  1
  Sm  Sm2  1  0.028848  0.082155  0.750000  1
  Sm  Sm3  1  0.528848  0.417845  0.250000  1
  Rh  Rh4  1  0.500000  0.000000  0.500000  1
  Rh  Rh5  1  0.000000  0.500000  0.500000  1
  Rh  Rh6  1  0.000000  0.500000  0.000000  1
  Rh  Rh7  1  0.500000  0.000000  0.000000  1
  O  O8  1  0.819974  0.193081  0.441839  1
  O  O9  1  0.319974  0.306919  0.558161  1
  O  O10  1  0.680026  0.693081  0.058161  1
  O  O11  1  0.180026  0.806919  0.941839  1
  O  O12  1  0.180026  0.806919  0.558161  1
  O  O13  1  0.680026  0.693081  0.441839  1
  O  O14  1  0.319974  0.306919  0.941839  1
  O  O15  1  0.819974  0.193081  0.058161  1
  O  O16  1  0.376426  0.043667  0.250000  1
  O  O17  1  0.876426  0.456333  0.750000  1
  O  O18  1  0.123574  0.543667  0.250000  1
  O  O19  1  0.623574  0.956333  0.750000  1
