# generated using pymatgen
data_Sr3UO6
_symmetry_space_group_name_H-M   'P 1'
_cell_length_a   6.05300563
_cell_length_b   6.28418781
_cell_length_c   10.58074706
_cell_angle_alpha   90.00000000
_cell_angle_beta   124.56153221
_cell_angle_gamma   90.00000000
_symmetry_Int_Tables_number   1
_chemical_formula_structural   Sr3UO6
_chemical_formula_sum   'Sr6 U2 O12'
_cell_volume   331.44338851
_cell_formula_units_Z   2
loop_
 _symmetry_equiv_pos_site_id
 _symmetry_equiv_pos_as_xyz
  1  'x, y, z'
loop_
 _atom_site_type_symbol
 _atom_site_label
 _atom_site_symmetry_multiplicity
 _atom_site_fract_x
 _atom_site_fract_y
 _atom_site_fract_z
 _atom_site_occupancy
  Sr  Sr0  1  0.500000  0.500000  0.000000  1
  Sr  Sr1  1  0.500000  0.000000  0.500000  1
  Sr  Sr2  1  0.271669  0.048821  0.757165  1
  Sr  Sr3  1  0.728331  0.548821  0.742835  1
  Sr  Sr4  1  0.271669  0.451179  0.257165  1
  Sr  Sr5  1  0.728331  0.951179  0.242835  1
  U  U6  1  0.000000  0.500000  0.500000  1
  U  U7  1  0.000000  0.000000  0.000000  1
  O  O8  1  0.749868  0.227177  0.423305  1
  O  O9  1  0.250132  0.727177  0.076695  1
  O  O10  1  0.331713  0.323604  0.549808  1
  O  O11  1  0.668287  0.823604  0.950192  1
  O  O12  1  0.106242  0.062487  0.224105  1
  O  O13  1  0.893758  0.562487  0.275895  1
  O  O14  1  0.749868  0.272823  0.923305  1
  O  O15  1  0.250132  0.772823  0.576695  1
  O  O16  1  0.893758  0.937513  0.775895  1
  O  O17  1  0.106242  0.437513  0.724105  1
  O  O18  1  0.668287  0.676396  0.450192  1
  O  O19  1  0.331713  0.176396  0.049808  1
