# generated using pymatgen
data_ErInAu2
_symmetry_space_group_name_H-M   'P 1'
_cell_length_a   4.93145727
_cell_length_b   4.93145727
_cell_length_c   4.93145727
_cell_angle_alpha   60.00000000
_cell_angle_beta   60.00000000
_cell_angle_gamma   60.00000000
_symmetry_Int_Tables_number   1
_chemical_formula_structural   ErInAu2
_chemical_formula_sum   'Er1 In1 Au2'
_cell_volume   84.80292363
_cell_formula_units_Z   1
loop_
 _symmetry_equiv_pos_site_id
 _symmetry_equiv_pos_as_xyz
  1  'x, y, z'
loop_
 _atom_site_type_symbol
 _atom_site_label
 _atom_site_symmetry_multiplicity
 _atom_site_fract_x
 _atom_site_fract_y
 _atom_site_fract_z
 _atom_site_occupancy
  Er  Er0  1  0.500000  0.500000  0.500000  1
  In  In1  1  0.000000  1.000000  1.000000  1
  Au  Au2  1  0.750000  0.750000  0.750000  1
  Au  Au3  1  0.250000  0.250000  0.250000  1
