# generated using pymatgen
data_LiCoP2O7
_symmetry_space_group_name_H-M   'P 1'
_cell_length_a   4.86869706
_cell_length_b   8.12349190
_cell_length_c   6.99665710
_cell_angle_alpha   90.00000000
_cell_angle_beta   108.50683894
_cell_angle_gamma   90.00000000
_symmetry_Int_Tables_number   1
_chemical_formula_structural   LiCoP2O7
_chemical_formula_sum   'Li2 Co2 P4 O14'
_cell_volume   262.41299065
_cell_formula_units_Z   2
loop_
 _symmetry_equiv_pos_site_id
 _symmetry_equiv_pos_as_xyz
  1  'x, y, z'
loop_
 _atom_site_type_symbol
 _atom_site_label
 _atom_site_symmetry_multiplicity
 _atom_site_fract_x
 _atom_site_fract_y
 _atom_site_fract_z
 _atom_site_occupancy
  Li  Li0  1  0.177592  0.362187  0.669176  1
  Li  Li1  1  0.822408  0.862187  0.330824  1
  Co  Co2  1  0.216743  0.999225  0.732135  1
  Co  Co3  1  0.783257  0.499225  0.267865  1
  P  P4  1  0.786159  0.787524  0.914915  1
  P  P5  1  0.399330  0.681425  0.520275  1
  P  P6  1  0.213841  0.287524  0.085085  1
  P  P7  1  0.600670  0.181425  0.479725  1
  O  O8  1  0.399605  0.154054  0.247787  1
  O  O9  1  0.248887  0.848826  0.507691  1
  O  O10  1  0.400597  0.178985  0.610376  1
  O  O11  1  0.130284  0.198042  0.883368  1
  O  O12  1  0.814964  0.038530  0.518353  1
  O  O13  1  0.943999  0.330986  0.143351  1
  O  O14  1  0.185036  0.538530  0.481647  1
  O  O15  1  0.056001  0.830986  0.856649  1
  O  O16  1  0.600395  0.654054  0.752213  1
  O  O17  1  0.599403  0.678985  0.389624  1
  O  O18  1  0.869716  0.698042  0.116632  1
  O  O19  1  0.396574  0.440376  0.082269  1
  O  O20  1  0.751113  0.348826  0.492309  1
  O  O21  1  0.603426  0.940376  0.917731  1
