# generated using pymatgen
data_Dy5Ru2
_symmetry_space_group_name_H-M   'P 1'
_cell_length_a   8.49644877
_cell_length_b   8.49644877
_cell_length_c   7.27546842
_cell_angle_alpha   83.20508043
_cell_angle_beta   96.79491957
_cell_angle_gamma   136.05718384
_symmetry_Int_Tables_number   1
_chemical_formula_structural   Dy5Ru2
_chemical_formula_sum   'Dy10 Ru4'
_cell_volume   361.48825728
_cell_formula_units_Z   2
loop_
 _symmetry_equiv_pos_site_id
 _symmetry_equiv_pos_as_xyz
  1  'x, y, z'
loop_
 _atom_site_type_symbol
 _atom_site_label
 _atom_site_symmetry_multiplicity
 _atom_site_fract_x
 _atom_site_fract_y
 _atom_site_fract_z
 _atom_site_occupancy
  Dy  Dy0  1  0.020508  0.206705  0.585238  1
  Dy  Dy1  1  0.206705  0.020508  0.914762  1
  Dy  Dy2  1  0.640361  0.206226  0.314128  1
  Dy  Dy3  1  0.206226  0.640361  0.185872  1
  Dy  Dy4  1  0.359639  0.793774  0.685872  1
  Dy  Dy5  1  0.793774  0.359639  0.814128  1
  Dy  Dy6  1  0.793295  0.979492  0.085238  1
  Dy  Dy7  1  0.979492  0.793295  0.414762  1
  Dy  Dy8  1  0.579239  0.579239  0.750000  1
  Dy  Dy9  1  0.420761  0.420761  0.250000  1
  Ru  Ru10  1  0.396846  0.175245  0.576027  1
  Ru  Ru11  1  0.175245  0.396846  0.923973  1
  Ru  Ru12  1  0.603154  0.824755  0.423973  1
  Ru  Ru13  1  0.824755  0.603154  0.076027  1
