# generated using pymatgen
data_Ce10Ga5Cl4
_symmetry_space_group_name_H-M   'P 1'
_cell_length_a   16.57767267
_cell_length_b   16.57767267
_cell_length_c   16.57767267
_cell_angle_alpha   152.84439588
_cell_angle_beta   152.84439588
_cell_angle_gamma   38.78146933
_symmetry_Int_Tables_number   1
_chemical_formula_structural   Ce10Ga5Cl4
_chemical_formula_sum   'Ce20 Ga10 Cl8'
_cell_volume   947.41070868
_cell_formula_units_Z   2
loop_
 _symmetry_equiv_pos_site_id
 _symmetry_equiv_pos_as_xyz
  1  'x, y, z'
loop_
 _atom_site_type_symbol
 _atom_site_label
 _atom_site_symmetry_multiplicity
 _atom_site_fract_x
 _atom_site_fract_y
 _atom_site_fract_z
 _atom_site_occupancy
  Ce  Ce0  1  0.153424  0.153424  0.000000  1
  Ce  Ce1  1  0.346576  0.346576  0.000000  1
  Ce  Ce2  1  0.653424  0.653424  0.000000  1
  Ce  Ce3  1  0.846576  0.846576  0.000000  1
  Ce  Ce4  1  0.625572  0.468039  0.500000  1
  Ce  Ce5  1  0.374428  0.531961  0.500000  1
  Ce  Ce6  1  0.031961  0.874428  0.500000  1
  Ce  Ce7  1  0.874428  0.374428  0.842467  1
  Ce  Ce8  1  0.531961  0.031961  0.157533  1
  Ce  Ce9  1  0.468039  0.968039  0.842467  1
  Ce  Ce10  1  0.125572  0.625572  0.157533  1
  Ce  Ce11  1  0.968039  0.125572  0.500000  1
  Ce  Ce12  1  0.759915  0.602765  0.500000  1
  Ce  Ce13  1  0.240085  0.397235  0.500000  1
  Ce  Ce14  1  0.897235  0.740085  0.500000  1
  Ce  Ce15  1  0.740085  0.240085  0.842849  1
  Ce  Ce16  1  0.397235  0.897235  0.157151  1
  Ce  Ce17  1  0.602765  0.102765  0.842849  1
  Ce  Ce18  1  0.259915  0.759915  0.157151  1
  Ce  Ce19  1  0.102765  0.259915  0.500000  1
  Ga  Ga20  1  0.250000  0.250000  0.000000  1
  Ga  Ga21  1  0.750000  0.750000  0.000000  1
  Ga  Ga22  1  0.989225  0.489225  0.745973  1
  Ga  Ga23  1  0.256748  0.756748  0.745973  1
  Ga  Ga24  1  0.010775  0.510775  0.254027  1
  Ga  Ga25  1  0.510775  0.256748  0.500000  1
  Ga  Ga26  1  0.756748  0.010775  0.500000  1
  Ga  Ga27  1  0.489225  0.743252  0.500000  1
  Ga  Ga28  1  0.243252  0.989225  0.500000  1
  Ga  Ga29  1  0.743252  0.243252  0.254027  1
  Cl  Cl30  1  0.639986  0.860014  0.500000  1
  Cl  Cl31  1  0.860014  0.360014  0.220028  1
  Cl  Cl32  1  0.139986  0.639986  0.779972  1
  Cl  Cl33  1  0.360014  0.139986  0.500000  1
  Cl  Cl34  1  0.443074  0.443074  0.000000  1
  Cl  Cl35  1  0.056926  0.056926  0.000000  1
  Cl  Cl36  1  0.556926  0.556926  0.000000  1
  Cl  Cl37  1  0.943074  0.943074  0.000000  1
