# generated using pymatgen
data_NiP2O7
_symmetry_space_group_name_H-M   'P 1'
_cell_length_a   7.33396467
_cell_length_b   8.40245157
_cell_length_c   9.28721671
_cell_angle_alpha   90.00000000
_cell_angle_beta   115.27201796
_cell_angle_gamma   90.00000000
_symmetry_Int_Tables_number   1
_chemical_formula_structural   NiP2O7
_chemical_formula_sum   'Ni4 P8 O28'
_cell_volume   517.53377036
_cell_formula_units_Z   4
loop_
 _symmetry_equiv_pos_site_id
 _symmetry_equiv_pos_as_xyz
  1  'x, y, z'
loop_
 _atom_site_type_symbol
 _atom_site_label
 _atom_site_symmetry_multiplicity
 _atom_site_fract_x
 _atom_site_fract_y
 _atom_site_fract_z
 _atom_site_occupancy
  Ni  Ni0  1  0.769976  0.583175  0.891244  1
  Ni  Ni1  1  0.230024  0.083175  0.608756  1
  Ni  Ni2  1  0.230024  0.416825  0.108756  1
  Ni  Ni3  1  0.769976  0.916825  0.391244  1
  P  P4  1  0.066955  0.781612  0.749305  1
  P  P5  1  0.458234  0.763821  0.032772  1
  P  P6  1  0.066955  0.718388  0.249305  1
  P  P7  1  0.541766  0.236179  0.967228  1
  P  P8  1  0.933045  0.281612  0.750695  1
  P  P9  1  0.458234  0.736179  0.532773  1
  P  P10  1  0.541766  0.263821  0.467228  1
  P  P11  1  0.933045  0.218388  0.250695  1
  O  O12  1  0.532233  0.610171  0.664586  1
  O  O13  1  0.093903  0.247726  0.692080  1
  O  O14  1  0.263807  0.849754  0.895122  1
  O  O15  1  0.467767  0.389829  0.335414  1
  O  O16  1  0.906097  0.747726  0.807920  1
  O  O17  1  0.608110  0.768764  0.462802  1
  O  O18  1  0.607600  0.391369  0.917569  1
  O  O19  1  0.467767  0.110171  0.835414  1
  O  O20  1  0.736193  0.349754  0.604878  1
  O  O21  1  0.893679  0.379973  0.311531  1
  O  O22  1  0.391890  0.231236  0.537198  1
  O  O23  1  0.980837  0.413998  0.877130  1
  O  O24  1  0.607600  0.108631  0.417569  1
  O  O25  1  0.106321  0.620027  0.688469  1
  O  O26  1  0.736193  0.150246  0.104878  1
  O  O27  1  0.392400  0.608631  0.082431  1
  O  O28  1  0.391890  0.268764  0.037198  1
  O  O29  1  0.019163  0.586002  0.122870  1
  O  O30  1  0.019163  0.913998  0.622870  1
  O  O31  1  0.392400  0.891369  0.582431  1
  O  O32  1  0.906097  0.752274  0.307920  1
  O  O33  1  0.532233  0.889829  0.164586  1
  O  O34  1  0.980837  0.086002  0.377130  1
  O  O35  1  0.093903  0.252274  0.192080  1
  O  O36  1  0.263807  0.650246  0.395122  1
  O  O37  1  0.106321  0.879973  0.188469  1
  O  O38  1  0.608110  0.731236  0.962802  1
  O  O39  1  0.893679  0.120027  0.811531  1
