# generated using pymatgen
data_Sr7Re4O19
_symmetry_space_group_name_H-M   'P 1'
_cell_length_a   7.47564795
_cell_length_b   7.47564795
_cell_length_c   10.51411707
_cell_angle_alpha   81.99635246
_cell_angle_beta   98.00364754
_cell_angle_gamma   135.68819843
_symmetry_Int_Tables_number   1
_chemical_formula_structural   Sr7Re4O19
_chemical_formula_sum   'Sr7 Re4 O19'
_cell_volume   405.79975695
_cell_formula_units_Z   1
loop_
 _symmetry_equiv_pos_site_id
 _symmetry_equiv_pos_as_xyz
  1  'x, y, z'
loop_
 _atom_site_type_symbol
 _atom_site_label
 _atom_site_symmetry_multiplicity
 _atom_site_fract_x
 _atom_site_fract_y
 _atom_site_fract_z
 _atom_site_occupancy
  Sr  Sr0  1  0.210776  0.789224  0.587223  1
  Sr  Sr1  1  0.789224  0.210776  0.412777  1
  Sr  Sr2  1  0.416224  0.583776  0.835364  1
  Sr  Sr3  1  0.583776  0.416224  0.164636  1
  Sr  Sr4  1  0.500000  0.500000  0.500000  1
  Sr  Sr5  1  0.858467  0.141533  0.042456  1
  Sr  Sr6  1  0.141533  0.858467  0.957544  1
  Re  Re7  1  0.966858  0.033142  0.677182  1
  Re  Re8  1  0.033142  0.966858  0.322818  1
  Re  Re9  1  0.669238  0.330762  0.780205  1
  Re  Re10  1  0.330762  0.669238  0.219795  1
  O  O11  1  0.000000  0.000000  0.500000  1
  O  O12  1  0.696112  0.303888  0.613379  1
  O  O13  1  0.303888  0.696112  0.386621  1
  O  O14  1  0.044659  0.955341  0.145727  1
  O  O15  1  0.955341  0.044659  0.854273  1
  O  O16  1  0.398212  0.601788  0.069603  1
  O  O17  1  0.601788  0.398212  0.930397  1
  O  O18  1  0.825278  0.683552  0.715348  1
  O  O19  1  0.683552  0.825278  0.284652  1
  O  O20  1  0.174722  0.316448  0.284652  1
  O  O21  1  0.316448  0.174722  0.715348  1
  O  O22  1  0.630412  0.878628  0.626787  1
  O  O23  1  0.878628  0.630412  0.373213  1
  O  O24  1  0.369588  0.121372  0.373213  1
  O  O25  1  0.121372  0.369588  0.626787  1
  O  O26  1  0.995880  0.483244  0.846313  1
  O  O27  1  0.483244  0.995880  0.153687  1
  O  O28  1  0.004120  0.516756  0.153687  1
  O  O29  1  0.516756  0.004120  0.846313  1
