# generated using pymatgen
data_PrTe2Se
_symmetry_space_group_name_H-M   'P 1'
_cell_length_a   13.41218562
_cell_length_b   13.41218562
_cell_length_c   4.32411330
_cell_angle_alpha   90.00000000
_cell_angle_beta   90.00000000
_cell_angle_gamma   161.49612933
_symmetry_Int_Tables_number   1
_chemical_formula_structural   PrTe2Se
_chemical_formula_sum   'Pr2 Te4 Se2'
_cell_volume   246.86544102
_cell_formula_units_Z   2
loop_
 _symmetry_equiv_pos_site_id
 _symmetry_equiv_pos_as_xyz
  1  'x, y, z'
loop_
 _atom_site_type_symbol
 _atom_site_label
 _atom_site_symmetry_multiplicity
 _atom_site_fract_x
 _atom_site_fract_y
 _atom_site_fract_z
 _atom_site_occupancy
  Pr  Pr0  1  0.179600  0.820400  0.250000  1
  Pr  Pr1  1  0.820400  0.179600  0.750000  1
  Te  Te2  1  0.078702  0.921298  0.750000  1
  Te  Te3  1  0.921298  0.078702  0.250000  1
  Te  Te4  1  0.421445  0.578555  0.750000  1
  Te  Te5  1  0.578555  0.421445  0.250000  1
  Se  Se6  1  0.294264  0.705736  0.250000  1
  Se  Se7  1  0.705736  0.294264  0.750000  1
