# generated using pymatgen
data_K2Hg7
_symmetry_space_group_name_H-M   'P 1'
_cell_length_a   7.14330971
_cell_length_b   7.14330971
_cell_length_c   6.55712582
_cell_angle_alpha   90.00000000
_cell_angle_beta   90.00000000
_cell_angle_gamma   120.00000000
_symmetry_Int_Tables_number   1
_chemical_formula_structural   K2Hg7
_chemical_formula_sum   'K2 Hg7'
_cell_volume   289.76311953
_cell_formula_units_Z   1
loop_
 _symmetry_equiv_pos_site_id
 _symmetry_equiv_pos_as_xyz
  1  'x, y, z'
loop_
 _atom_site_type_symbol
 _atom_site_label
 _atom_site_symmetry_multiplicity
 _atom_site_fract_x
 _atom_site_fract_y
 _atom_site_fract_z
 _atom_site_occupancy
  K  K0  1  0.333333  0.666667  0.841138  1
  K  K1  1  0.666667  0.333333  0.158862  1
  Hg  Hg2  1  0.182049  0.364099  0.332506  1
  Hg  Hg3  1  0.635901  0.817951  0.332506  1
  Hg  Hg4  1  0.182049  0.817951  0.332506  1
  Hg  Hg5  1  0.817951  0.635901  0.667494  1
  Hg  Hg6  1  0.817951  0.182049  0.667494  1
  Hg  Hg7  1  0.364099  0.182049  0.667494  1
  Hg  Hg8  1  0.000000  0.000000  0.000000  1
