# generated using pymatgen
data_Cr2P3O10
_symmetry_space_group_name_H-M   'P 1'
_cell_length_a   4.72121889
_cell_length_b   8.57069481
_cell_length_c   9.09829163
_cell_angle_alpha   90.00000000
_cell_angle_beta   99.86274663
_cell_angle_gamma   90.00000000
_symmetry_Int_Tables_number   1
_chemical_formula_structural   Cr2P3O10
_chemical_formula_sum   'Cr4 P6 O20'
_cell_volume   362.71343218
_cell_formula_units_Z   2
loop_
 _symmetry_equiv_pos_site_id
 _symmetry_equiv_pos_as_xyz
  1  'x, y, z'
loop_
 _atom_site_type_symbol
 _atom_site_label
 _atom_site_symmetry_multiplicity
 _atom_site_fract_x
 _atom_site_fract_y
 _atom_site_fract_z
 _atom_site_occupancy
  Cr  Cr0  1  0.949051  0.566722  0.675894  1
  Cr  Cr1  1  0.949051  0.933278  0.675894  1
  Cr  Cr2  1  0.050949  0.433278  0.324106  1
  Cr  Cr3  1  0.050949  0.066722  0.324106  1
  P  P4  1  0.529680  0.750000  0.856280  1
  P  P5  1  0.399897  0.750000  0.459086  1
  P  P6  1  0.470320  0.250000  0.143720  1
  P  P7  1  0.326473  0.250000  0.817339  1
  P  P8  1  0.600103  0.250000  0.540914  1
  P  P9  1  0.673527  0.750000  0.182661  1
  O  O10  1  0.766099  0.099561  0.517930  1
  O  O11  1  0.838376  0.600498  0.202917  1
  O  O12  1  0.161624  0.100498  0.797083  1
  O  O13  1  0.214553  0.750000  0.766031  1
  O  O14  1  0.466624  0.750000  0.026095  1
  O  O15  1  0.233901  0.900439  0.482070  1
  O  O16  1  0.838376  0.899502  0.202917  1
  O  O17  1  0.785447  0.250000  0.233969  1
  O  O18  1  0.567531  0.250000  0.711929  1
  O  O19  1  0.161624  0.399502  0.797083  1
  O  O20  1  0.315204  0.099934  0.168707  1
  O  O21  1  0.233901  0.599561  0.482070  1
  O  O22  1  0.684796  0.900066  0.831293  1
  O  O23  1  0.315204  0.400066  0.168707  1
  O  O24  1  0.706170  0.750000  0.555527  1
  O  O25  1  0.533376  0.250000  0.973905  1
  O  O26  1  0.766099  0.400439  0.517930  1
  O  O27  1  0.432469  0.750000  0.288071  1
  O  O28  1  0.293830  0.250000  0.444473  1
  O  O29  1  0.684796  0.599934  0.831293  1
