# generated using pymatgen
data_Ca7Tl3N2
_symmetry_space_group_name_H-M   'P 1'
_cell_length_a   12.68880082
_cell_length_b   12.68880082
_cell_length_c   4.88635369
_cell_angle_alpha   90.00000000
_cell_angle_beta   90.00000000
_cell_angle_gamma   157.42354803
_symmetry_Int_Tables_number   1
_chemical_formula_structural   Ca7Tl3N2
_chemical_formula_sum   'Ca7 Tl3 N2'
_cell_volume   302.03836654
_cell_formula_units_Z   1
loop_
 _symmetry_equiv_pos_site_id
 _symmetry_equiv_pos_as_xyz
  1  'x, y, z'
loop_
 _atom_site_type_symbol
 _atom_site_label
 _atom_site_symmetry_multiplicity
 _atom_site_fract_x
 _atom_site_fract_y
 _atom_site_fract_z
 _atom_site_occupancy
  Ca  Ca0  1  0.600224  0.399776  0.000000  1
  Ca  Ca1  1  0.196495  0.803505  1.000000  1
  Ca  Ca2  1  0.000000  0.000000  0.000000  1
  Ca  Ca3  1  0.399776  0.600224  1.000000  1
  Ca  Ca4  1  0.900961  0.099039  0.500000  1
  Ca  Ca5  1  0.099039  0.900961  0.500000  1
  Ca  Ca6  1  0.803505  0.196495  0.000000  1
  Tl  Tl7  1  0.500000  0.500000  0.500000  1
  Tl  Tl8  1  0.293415  0.706585  0.500000  1
  Tl  Tl9  1  0.706585  0.293415  0.500000  1
  N  N10  1  0.102848  0.897152  1.000000  1
  N  N11  1  0.897152  0.102848  0.000000  1
