# generated using pymatgen
data_Li4Ni(PO4)2
_symmetry_space_group_name_H-M   'P 1'
_cell_length_a   8.27525353
_cell_length_b   10.28175812
_cell_length_c   8.28991295
_cell_angle_alpha   90.00000000
_cell_angle_beta   106.21807663
_cell_angle_gamma   90.00000000
_symmetry_Int_Tables_number   1
_chemical_formula_structural   Li4Ni(PO4)2
_chemical_formula_sum   'Li16 Ni4 P8 O32'
_cell_volume   677.27166048
_cell_formula_units_Z   4
loop_
 _symmetry_equiv_pos_site_id
 _symmetry_equiv_pos_as_xyz
  1  'x, y, z'
loop_
 _atom_site_type_symbol
 _atom_site_label
 _atom_site_symmetry_multiplicity
 _atom_site_fract_x
 _atom_site_fract_y
 _atom_site_fract_z
 _atom_site_occupancy
  Li  Li0  1  0.599175  0.663780  0.600606  1
  Li  Li1  1  0.351548  0.653181  0.851330  1
  Li  Li2  1  0.900825  0.163780  0.399394  1
  Li  Li3  1  0.840526  0.663125  0.347065  1
  Li  Li4  1  0.271059  0.574227  0.521383  1
  Li  Li5  1  0.659474  0.163125  0.652935  1
  Li  Li6  1  0.851548  0.846819  0.851330  1
  Li  Li7  1  0.099175  0.836220  0.600606  1
  Li  Li8  1  0.400825  0.336220  0.399394  1
  Li  Li9  1  0.771059  0.925773  0.521383  1
  Li  Li10  1  0.228941  0.074227  0.478617  1
  Li  Li11  1  0.728941  0.425773  0.478617  1
  Li  Li12  1  0.148452  0.153181  0.148670  1
  Li  Li13  1  0.648452  0.346819  0.148670  1
  Li  Li14  1  0.159474  0.336875  0.652935  1
  Li  Li15  1  0.340526  0.836875  0.347065  1
  Ni  Ni16  1  0.407408  0.150379  0.903088  1
  Ni  Ni17  1  0.092592  0.650379  0.096912  1
  Ni  Ni18  1  0.907408  0.349621  0.903088  1
  Ni  Ni19  1  0.592592  0.849621  0.096912  1
  P  P20  1  0.476478  0.908676  0.708673  1
  P  P21  1  0.036776  0.093636  0.769979  1
  P  P22  1  0.976478  0.591324  0.708673  1
  P  P23  1  0.463224  0.593636  0.230021  1
  P  P24  1  0.023522  0.408676  0.291327  1
  P  P25  1  0.536776  0.406364  0.769979  1
  P  P26  1  0.963224  0.906364  0.230021  1
  P  P27  1  0.523522  0.091324  0.291327  1
  O  O28  1  0.187403  0.396629  0.438165  1
  O  O29  1  0.051954  0.335641  0.136741  1
  O  O30  1  0.551954  0.164359  0.136741  1
  O  O31  1  0.812956  0.895593  0.067057  1
  O  O32  1  0.479299  0.548599  0.727471  1
  O  O33  1  0.312597  0.896629  0.561835  1
  O  O34  1  0.312956  0.604407  0.067057  1
  O  O35  1  0.128881  0.650555  0.661125  1
  O  O36  1  0.908202  0.847384  0.379477  1
  O  O37  1  0.187044  0.104407  0.932943  1
  O  O38  1  0.628881  0.849445  0.661125  1
  O  O39  1  0.979299  0.951401  0.727471  1
  O  O40  1  0.948046  0.664359  0.863259  1
  O  O41  1  0.591798  0.347384  0.620523  1
  O  O42  1  0.408202  0.652616  0.379477  1
  O  O43  1  0.091798  0.152616  0.620523  1
  O  O44  1  0.871119  0.349445  0.338875  1
  O  O45  1  0.009482  0.443497  0.746953  1
  O  O46  1  0.371119  0.150555  0.338875  1
  O  O47  1  0.611310  0.672713  0.196528  1
  O  O48  1  0.990518  0.556503  0.253047  1
  O  O49  1  0.687044  0.395593  0.932943  1
  O  O50  1  0.520701  0.451401  0.272529  1
  O  O51  1  0.490518  0.943497  0.253047  1
  O  O52  1  0.111310  0.827287  0.196528  1
  O  O53  1  0.812597  0.603371  0.561835  1
  O  O54  1  0.388690  0.327287  0.803472  1
  O  O55  1  0.888690  0.172713  0.803472  1
  O  O56  1  0.020701  0.048599  0.272529  1
  O  O57  1  0.687403  0.103371  0.438165  1
  O  O58  1  0.509482  0.056503  0.746953  1
  O  O59  1  0.448046  0.835641  0.863259  1
