# generated using pymatgen
data_Nd2Zn17
_symmetry_space_group_name_H-M   'P 1'
_cell_length_a   6.85813177
_cell_length_b   6.85813177
_cell_length_c   6.85813177
_cell_angle_alpha   82.65474486
_cell_angle_beta   82.65474486
_cell_angle_gamma   82.65474486
_symmetry_Int_Tables_number   1
_chemical_formula_structural   Nd2Zn17
_chemical_formula_sum   'Nd2 Zn17'
_cell_volume   315.24768766
_cell_formula_units_Z   1
loop_
 _symmetry_equiv_pos_site_id
 _symmetry_equiv_pos_as_xyz
  1  'x, y, z'
loop_
 _atom_site_type_symbol
 _atom_site_label
 _atom_site_symmetry_multiplicity
 _atom_site_fract_x
 _atom_site_fract_y
 _atom_site_fract_z
 _atom_site_occupancy
  Nd  Nd0  1  0.335631  0.335631  0.335631  1
  Nd  Nd1  1  0.664369  0.664369  0.664369  1
  Zn  Zn2  1  0.161151  0.649940  0.649940  1
  Zn  Zn3  1  0.649940  0.649940  0.161151  1
  Zn  Zn4  1  0.901206  0.901206  0.901206  1
  Zn  Zn5  1  0.098794  0.098794  0.098794  1
  Zn  Zn6  1  0.500000  0.000000  0.000000  1
  Zn  Zn7  1  0.000000  0.500000  0.000000  1
  Zn  Zn8  1  0.000000  0.000000  0.500000  1
  Zn  Zn9  1  0.000000  0.293204  0.706796  1
  Zn  Zn10  1  0.706796  0.000000  0.293204  1
  Zn  Zn11  1  0.293204  0.706796  0.000000  1
  Zn  Zn12  1  1.000000  0.706796  0.293204  1
  Zn  Zn13  1  0.293204  1.000000  0.706796  1
  Zn  Zn14  1  0.706796  0.293204  0.000000  1
  Zn  Zn15  1  0.350060  0.350060  0.838849  1
  Zn  Zn16  1  0.838849  0.350060  0.350060  1
  Zn  Zn17  1  0.350060  0.838849  0.350060  1
  Zn  Zn18  1  0.649940  0.161151  0.649940  1
