# generated using pymatgen
data_Te(HO)6
_symmetry_space_group_name_H-M   'P 1'
_cell_length_a   6.54252084
_cell_length_b   9.44044010
_cell_length_c   8.38834733
_cell_angle_alpha   90.00000000
_cell_angle_beta   100.06037964
_cell_angle_gamma   90.00000000
_symmetry_Int_Tables_number   1
_chemical_formula_structural   Te(HO)6
_chemical_formula_sum   'Te4 H24 O24'
_cell_volume   510.13400149
_cell_formula_units_Z   4
loop_
 _symmetry_equiv_pos_site_id
 _symmetry_equiv_pos_as_xyz
  1  'x, y, z'
loop_
 _atom_site_type_symbol
 _atom_site_label
 _atom_site_symmetry_multiplicity
 _atom_site_fract_x
 _atom_site_fract_y
 _atom_site_fract_z
 _atom_site_occupancy
  Te  Te0  1  0.000000  0.500000  0.000000  1
  Te  Te1  1  0.000000  0.000000  0.500000  1
  Te  Te2  1  0.500000  0.500000  0.500000  1
  Te  Te3  1  0.500000  0.000000  0.000000  1
  H  H4  1  0.207537  0.833664  0.696350  1
  H  H5  1  0.792463  0.333664  0.803650  1
  H  H6  1  0.792463  0.166336  0.303650  1
  H  H7  1  0.207537  0.666336  0.196350  1
  H  H8  1  0.814258  0.463762  0.237305  1
  H  H9  1  0.185742  0.963762  0.262695  1
  H  H10  1  0.745738  0.701037  0.987153  1
  H  H11  1  0.254262  0.201037  0.512847  1
  H  H12  1  0.254262  0.298963  0.012847  1
  H  H13  1  0.745738  0.798963  0.487153  1
  H  H14  1  0.850749  0.593275  0.627410  1
  H  H15  1  0.149251  0.093275  0.872590  1
  H  H16  1  0.149251  0.406725  0.372590  1
  H  H17  1  0.850749  0.906725  0.127410  1
  H  H18  1  0.541605  0.569936  0.793907  1
  H  H19  1  0.458395  0.069936  0.706093  1
  H  H20  1  0.458395  0.430064  0.206093  1
  H  H21  1  0.541605  0.930064  0.293907  1
  H  H22  1  0.268667  0.785473  0.969657  1
  H  H23  1  0.731333  0.285473  0.530343  1
  H  H24  1  0.731333  0.214527  0.030343  1
  H  H25  1  0.268667  0.714527  0.469657  1
  H  H26  1  0.185742  0.536238  0.762695  1
  H  H27  1  0.814258  0.036238  0.737305  1
  O  O28  1  0.143365  0.674524  0.078795  1
  O  O29  1  0.856635  0.174524  0.421205  1
  O  O30  1  0.856635  0.325476  0.921205  1
  O  O31  1  0.143365  0.825476  0.578795  1
  O  O32  1  0.960723  0.048931  0.718110  1
  O  O33  1  0.039277  0.548931  0.781890  1
  O  O34  1  0.734046  0.598321  0.953521  1
  O  O35  1  0.265954  0.098321  0.546479  1
  O  O36  1  0.265954  0.401679  0.046479  1
  O  O37  1  0.734046  0.901679  0.453521  1
  O  O38  1  0.738627  0.872593  0.038092  1
  O  O39  1  0.261373  0.372593  0.461908  1
  O  O40  1  0.261373  0.127407  0.961908  1
  O  O41  1  0.738627  0.627407  0.538092  1
  O  O42  1  0.419761  0.547811  0.706570  1
  O  O43  1  0.580239  0.047811  0.793430  1
  O  O44  1  0.580239  0.452189  0.293430  1
  O  O45  1  0.419761  0.952189  0.206570  1
  O  O46  1  0.334410  0.655557  0.392310  1
  O  O47  1  0.665590  0.155557  0.107690  1
  O  O48  1  0.665590  0.344443  0.607690  1
  O  O49  1  0.334410  0.844443  0.892310  1
  O  O50  1  0.039277  0.951069  0.281890  1
  O  O51  1  0.960723  0.451069  0.218110  1
