# generated using pymatgen
data_BH6N
_symmetry_space_group_name_H-M   'P 1'
_cell_length_a   4.94102839
_cell_length_b   5.02302288
_cell_length_c   5.41648335
_cell_angle_alpha   90.00000000
_cell_angle_beta   90.00000000
_cell_angle_gamma   90.00000000
_symmetry_Int_Tables_number   1
_chemical_formula_structural   BH6N
_chemical_formula_sum   'B2 H12 N2'
_cell_volume   134.43115132
_cell_formula_units_Z   2
loop_
 _symmetry_equiv_pos_site_id
 _symmetry_equiv_pos_as_xyz
  1  'x, y, z'
loop_
 _atom_site_type_symbol
 _atom_site_label
 _atom_site_symmetry_multiplicity
 _atom_site_fract_x
 _atom_site_fract_y
 _atom_site_fract_z
 _atom_site_occupancy
  B  B0  1  0.178869  0.992292  0.000000  1
  B  B1  1  0.821131  0.492292  0.500000  1
  H  H2  1  0.719858  0.396995  0.314170  1
  H  H3  1  0.847610  0.896505  0.346666  1
  H  H4  1  0.719858  0.396995  0.685830  1
  H  H5  1  0.280142  0.896995  0.814170  1
  H  H6  1  0.280142  0.896995  0.185830  1
  H  H7  1  0.067038  0.456125  0.500000  1
  H  H8  1  0.932962  0.956125  0.000000  1
  H  H9  1  0.152390  0.396505  0.153334  1
  H  H10  1  0.437066  0.348353  0.000000  1
  H  H11  1  0.562934  0.848353  0.500000  1
  H  H12  1  0.847610  0.896505  0.653334  1
  H  H13  1  0.152390  0.396505  0.846666  1
  N  N14  1  0.765893  0.805229  0.500000  1
  N  N15  1  0.234107  0.305229  0.000000  1
