# generated using pymatgen
data_Zr3(Mn2Si3)2
_symmetry_space_group_name_H-M   'P 1'
_cell_length_a   17.13424812
_cell_length_b   17.13424812
_cell_length_c   5.09150570
_cell_angle_alpha   90.00000000
_cell_angle_beta   90.00000000
_cell_angle_gamma   90.00000000
_symmetry_Int_Tables_number   1
_chemical_formula_structural   Zr3(Mn2Si3)2
_chemical_formula_sum   'Zr24 Mn32 Si48'
_cell_volume   1494.77676157
_cell_formula_units_Z   8
loop_
 _symmetry_equiv_pos_site_id
 _symmetry_equiv_pos_as_xyz
  1  'x, y, z'
loop_
 _atom_site_type_symbol
 _atom_site_label
 _atom_site_symmetry_multiplicity
 _atom_site_fract_x
 _atom_site_fract_y
 _atom_site_fract_z
 _atom_site_occupancy
  Zr  Zr0  1  0.101877  0.204168  0.000000  1
  Zr  Zr1  1  0.204168  0.898123  0.500000  1
  Zr  Zr2  1  0.795832  0.101877  0.500000  1
  Zr  Zr3  1  0.898123  0.795832  0.000000  1
  Zr  Zr4  1  0.398123  0.704168  0.000000  1
  Zr  Zr5  1  0.601877  0.295832  0.000000  1
  Zr  Zr6  1  0.704168  0.601877  0.500000  1
  Zr  Zr7  1  0.295832  0.398123  0.500000  1
  Zr  Zr8  1  0.298868  0.282455  0.000000  1
  Zr  Zr9  1  0.282455  0.701132  0.500000  1
  Zr  Zr10  1  0.717545  0.298868  0.500000  1
  Zr  Zr11  1  0.701132  0.717545  0.000000  1
  Zr  Zr12  1  0.201132  0.782455  0.000000  1
  Zr  Zr13  1  0.798868  0.217545  0.000000  1
  Zr  Zr14  1  0.782455  0.798868  0.500000  1
  Zr  Zr15  1  0.217545  0.201132  0.500000  1
  Zr  Zr16  1  0.209818  0.473988  0.000000  1
  Zr  Zr17  1  0.473988  0.790182  0.500000  1
  Zr  Zr18  1  0.526012  0.209818  0.500000  1
  Zr  Zr19  1  0.790182  0.526012  0.000000  1
  Zr  Zr20  1  0.290182  0.973988  0.000000  1
  Zr  Zr21  1  0.709818  0.026012  0.000000  1
  Zr  Zr22  1  0.973988  0.709818  0.500000  1
  Zr  Zr23  1  0.026012  0.290182  0.500000  1
  Mn  Mn24  1  0.154031  0.051931  0.251128  1
  Mn  Mn25  1  0.051931  0.845969  0.751128  1
  Mn  Mn26  1  0.948069  0.154031  0.751128  1
  Mn  Mn27  1  0.845969  0.948069  0.251128  1
  Mn  Mn28  1  0.345969  0.551931  0.748872  1
  Mn  Mn29  1  0.654031  0.448069  0.748872  1
  Mn  Mn30  1  0.551931  0.654031  0.248872  1
  Mn  Mn31  1  0.448069  0.345969  0.248872  1
  Mn  Mn32  1  0.845969  0.948069  0.748872  1
  Mn  Mn33  1  0.948069  0.154031  0.248872  1
  Mn  Mn34  1  0.051931  0.845969  0.248872  1
  Mn  Mn35  1  0.154031  0.051931  0.748872  1
  Mn  Mn36  1  0.654031  0.448069  0.251128  1
  Mn  Mn37  1  0.345969  0.551931  0.251128  1
  Mn  Mn38  1  0.448069  0.345969  0.751128  1
  Mn  Mn39  1  0.551931  0.654031  0.751128  1
  Mn  Mn40  1  0.044083  0.385027  0.000000  1
  Mn  Mn41  1  0.385027  0.955917  0.500000  1
  Mn  Mn42  1  0.614973  0.044083  0.500000  1
  Mn  Mn43  1  0.955917  0.614973  0.000000  1
  Mn  Mn44  1  0.455917  0.885027  0.000000  1
  Mn  Mn45  1  0.544083  0.114973  0.000000  1
  Mn  Mn46  1  0.885027  0.544083  0.500000  1
  Mn  Mn47  1  0.114973  0.455917  0.500000  1
  Mn  Mn48  1  0.126225  0.626225  0.250000  1
  Mn  Mn49  1  0.626225  0.873775  0.750000  1
  Mn  Mn50  1  0.373775  0.126225  0.750000  1
  Mn  Mn51  1  0.873775  0.373775  0.250000  1
  Mn  Mn52  1  0.873775  0.373775  0.750000  1
  Mn  Mn53  1  0.373775  0.126225  0.250000  1
  Mn  Mn54  1  0.626225  0.873775  0.250000  1
  Mn  Mn55  1  0.126225  0.626225  0.750000  1
  Si  Si56  1  0.435111  0.023599  0.000000  1
  Si  Si57  1  0.023599  0.564889  0.500000  1
  Si  Si58  1  0.976401  0.435111  0.500000  1
  Si  Si59  1  0.564889  0.976401  0.000000  1
  Si  Si60  1  0.064889  0.523599  0.000000  1
  Si  Si61  1  0.935111  0.476401  0.000000  1
  Si  Si62  1  0.523599  0.935111  0.500000  1
  Si  Si63  1  0.476401  0.064889  0.500000  1
  Si  Si64  1  0.030998  0.061924  0.000000  1
  Si  Si65  1  0.061924  0.969002  0.500000  1
  Si  Si66  1  0.938076  0.030998  0.500000  1
  Si  Si67  1  0.969002  0.938076  0.000000  1
  Si  Si68  1  0.469002  0.561924  0.000000  1
  Si  Si69  1  0.530998  0.438076  0.000000  1
  Si  Si70  1  0.561924  0.530998  0.500000  1
  Si  Si71  1  0.438076  0.469002  0.500000  1
  Si  Si72  1  0.247781  0.130021  0.000000  1
  Si  Si73  1  0.130021  0.752219  0.500000  1
  Si  Si74  1  0.869979  0.247781  0.500000  1
  Si  Si75  1  0.752219  0.869979  0.000000  1
  Si  Si76  1  0.252219  0.630021  0.000000  1
  Si  Si77  1  0.747781  0.369979  0.000000  1
  Si  Si78  1  0.630021  0.747781  0.500000  1
  Si  Si79  1  0.369979  0.252219  0.500000  1
  Si  Si80  1  0.452095  0.224819  0.000000  1
  Si  Si81  1  0.224819  0.547905  0.500000  1
  Si  Si82  1  0.775181  0.452095  0.500000  1
  Si  Si83  1  0.547905  0.775181  0.000000  1
  Si  Si84  1  0.047905  0.724819  0.000000  1
  Si  Si85  1  0.952095  0.275181  0.000000  1
  Si  Si86  1  0.724819  0.952095  0.500000  1
  Si  Si87  1  0.275181  0.047905  0.500000  1
  Si  Si88  1  0.363824  0.432107  0.000000  1
  Si  Si89  1  0.432107  0.636176  0.500000  1
  Si  Si90  1  0.567893  0.363824  0.500000  1
  Si  Si91  1  0.636176  0.567893  0.000000  1
  Si  Si92  1  0.136176  0.932107  0.000000  1
  Si  Si93  1  0.863824  0.067893  0.000000  1
  Si  Si94  1  0.932107  0.863824  0.500000  1
  Si  Si95  1  0.067893  0.136176  0.500000  1
  Si  Si96  1  0.661666  0.161666  0.250000  1
  Si  Si97  1  0.161666  0.338334  0.750000  1
  Si  Si98  1  0.838334  0.661666  0.750000  1
  Si  Si99  1  0.338334  0.838334  0.250000  1
  Si  Si100  1  0.338334  0.838334  0.750000  1
  Si  Si101  1  0.838334  0.661666  0.250000  1
  Si  Si102  1  0.161666  0.338334  0.250000  1
  Si  Si103  1  0.661666  0.161666  0.750000  1
