# generated using pymatgen
data_WO3
_symmetry_space_group_name_H-M   'P 1'
_cell_length_a   7.50943532
_cell_length_b   7.50943532
_cell_length_c   7.74412224
_cell_angle_alpha   90.00000000
_cell_angle_beta   90.00000000
_cell_angle_gamma   120.00000000
_symmetry_Int_Tables_number   1
_chemical_formula_structural   WO3
_chemical_formula_sum   'W6 O18'
_cell_volume   378.19640211
_cell_formula_units_Z   6
loop_
 _symmetry_equiv_pos_site_id
 _symmetry_equiv_pos_as_xyz
  1  'x, y, z'
loop_
 _atom_site_type_symbol
 _atom_site_label
 _atom_site_symmetry_multiplicity
 _atom_site_fract_x
 _atom_site_fract_y
 _atom_site_fract_z
 _atom_site_occupancy
  W  W0  1  0.514715  0.000000  0.264179  1
  W  W1  1  0.485285  0.485285  0.264179  1
  W  W2  1  0.000000  0.514715  0.264179  1
  W  W3  1  0.485285  0.000000  0.764179  1
  W  W4  1  0.514715  0.514715  0.764179  1
  W  W5  1  0.000000  0.485285  0.764179  1
  O  O6  1  0.573843  0.784316  0.252614  1
  O  O7  1  0.210473  0.426157  0.252614  1
  O  O8  1  0.215684  0.789527  0.252614  1
  O  O9  1  0.789527  0.215684  0.252614  1
  O  O10  1  0.784316  0.573843  0.252614  1
  O  O11  1  0.426157  0.210473  0.252614  1
  O  O12  1  0.426157  0.215684  0.752614  1
  O  O13  1  0.789527  0.573843  0.752614  1
  O  O14  1  0.784316  0.210473  0.752614  1
  O  O15  1  0.210473  0.784316  0.752614  1
  O  O16  1  0.215684  0.426157  0.752614  1
  O  O17  1  0.573843  0.789527  0.752614  1
  O  O18  1  0.501300  0.000000  0.504594  1
  O  O19  1  0.498700  0.498700  0.504594  1
  O  O20  1  0.000000  0.501300  0.504594  1
  O  O21  1  0.498700  0.000000  0.004594  1
  O  O22  1  0.501300  0.501300  0.004594  1
  O  O23  1  0.000000  0.498700  0.004594  1
