# generated using pymatgen
data_Be(N3O7)2
_symmetry_space_group_name_H-M   'P 1'
_cell_length_a   14.26083234
_cell_length_b   12.88429801
_cell_length_c   7.58798933
_cell_angle_alpha   84.06695666
_cell_angle_beta   63.97920662
_cell_angle_gamma   31.95383672
_symmetry_Int_Tables_number   1
_chemical_formula_structural   Be(N3O7)2
_chemical_formula_sum   'Be2 N12 O28'
_cell_volume   546.95742937
_cell_formula_units_Z   2
loop_
 _symmetry_equiv_pos_site_id
 _symmetry_equiv_pos_as_xyz
  1  'x, y, z'
loop_
 _atom_site_type_symbol
 _atom_site_label
 _atom_site_symmetry_multiplicity
 _atom_site_fract_x
 _atom_site_fract_y
 _atom_site_fract_z
 _atom_site_occupancy
  Be  Be0  1  0.902359  0.097641  0.097641  1
  Be  Be1  1  0.152359  0.347641  0.347641  1
  N  N2  1  0.150421  0.962825  0.659150  1
  N  N3  1  0.227604  0.659150  0.962825  1
  N  N4  1  0.590850  0.022396  0.099579  1
  N  N5  1  0.287175  0.099579  0.022396  1
  N  N6  1  0.480165  0.408586  0.322028  1
  N  N7  1  0.789221  0.322028  0.408586  1
  N  N8  1  0.927972  0.460779  0.769835  1
  N  N9  1  0.841414  0.769835  0.460779  1
  N  N10  1  0.435097  0.926229  0.612971  1
  N  N11  1  0.025703  0.612971  0.926229  1
  N  N12  1  0.637029  0.224297  0.814903  1
  N  N13  1  0.323771  0.814903  0.224297  1
  O  O14  1  0.064023  0.045365  0.872384  1
  O  O15  1  0.018229  0.872384  0.045365  1
  O  O16  1  0.377616  0.231771  0.185977  1
  O  O17  1  0.204635  0.185977  0.231771  1
  O  O18  1  0.148462  0.881338  0.589002  1
  O  O19  1  0.381198  0.589002  0.881338  1
  O  O20  1  0.660998  0.868802  0.101538  1
  O  O21  1  0.368662  0.101538  0.868802  1
  O  O22  1  0.240210  0.964527  0.522331  1
  O  O23  1  0.272932  0.522331  0.964527  1
  O  O24  1  0.727669  0.977068  0.009790  1
  O  O25  1  0.285473  0.009790  0.977068  1
  O  O26  1  0.666137  0.299195  0.135060  1
  O  O27  1  0.899608  0.135060  0.299195  1
  O  O28  1  0.114940  0.350392  0.583863  1
  O  O29  1  0.950805  0.583863  0.350392  1
  O  O30  1  0.488378  0.361117  0.472762  1
  O  O31  1  0.677744  0.472762  0.361117  1
  O  O32  1  0.777238  0.572256  0.761622  1
  O  O33  1  0.888883  0.761622  0.572256  1
  O  O34  1  0.313130  0.550117  0.330957  1
  O  O35  1  0.805796  0.330957  0.550117  1
  O  O36  1  0.919043  0.444204  0.936870  1
  O  O37  1  0.699883  0.936870  0.444204  1
  O  O38  1  0.624275  0.731279  0.475337  1
  O  O39  1  0.169110  0.475337  0.731279  1
  O  O40  1  0.774663  0.080890  0.625725  1
  O  O41  1  0.518721  0.625725  0.080890  1
