# generated using pymatgen
data_LiCaSn
_symmetry_space_group_name_H-M   'P 1'
_cell_length_a   4.92989921
_cell_length_b   4.92989921
_cell_length_c   10.77890364
_cell_angle_alpha   90.00000000
_cell_angle_beta   90.00000000
_cell_angle_gamma   120.00000000
_symmetry_Int_Tables_number   1
_chemical_formula_structural   LiCaSn
_chemical_formula_sum   'Li3 Ca3 Sn3'
_cell_volume   226.87221057
_cell_formula_units_Z   3
loop_
 _symmetry_equiv_pos_site_id
 _symmetry_equiv_pos_as_xyz
  1  'x, y, z'
loop_
 _atom_site_type_symbol
 _atom_site_label
 _atom_site_symmetry_multiplicity
 _atom_site_fract_x
 _atom_site_fract_y
 _atom_site_fract_z
 _atom_site_occupancy
  Li  Li0  1  0.333333  0.666667  0.801444  1
  Li  Li1  1  0.666667  0.333333  0.480569  1
  Li  Li2  1  0.333333  0.666667  0.194448  1
  Ca  Ca3  1  0.000000  0.000000  0.663305  1
  Ca  Ca4  1  0.000000  0.000000  0.328468  1
  Ca  Ca5  1  0.000000  0.000000  0.996141  1
  Sn  Sn6  1  0.666667  0.333333  0.847224  1
  Sn  Sn7  1  0.666667  0.333333  0.148224  1
  Sn  Sn8  1  0.333333  0.666667  0.496178  1
