# generated using pymatgen
data_Sc5NCl8
_symmetry_space_group_name_H-M   'P 1'
_cell_length_a   9.23198260
_cell_length_b   9.23198260
_cell_length_c   12.13407130
_cell_angle_alpha   51.07216288
_cell_angle_beta   128.92783712
_cell_angle_gamma   158.03195007
_symmetry_Int_Tables_number   1
_chemical_formula_structural   Sc5NCl8
_chemical_formula_sum   'Sc5 N1 Cl8'
_cell_volume   297.24441245
_cell_formula_units_Z   1
loop_
 _symmetry_equiv_pos_site_id
 _symmetry_equiv_pos_as_xyz
  1  'x, y, z'
loop_
 _atom_site_type_symbol
 _atom_site_label
 _atom_site_symmetry_multiplicity
 _atom_site_fract_x
 _atom_site_fract_y
 _atom_site_fract_z
 _atom_site_occupancy
  Sc  Sc0  1  0.154823  0.845177  0.666903  1
  Sc  Sc1  1  0.845177  0.154823  0.333097  1
  Sc  Sc2  1  0.511320  0.488680  0.389143  1
  Sc  Sc3  1  0.488680  0.511320  0.610857  1
  Sc  Sc4  1  0.000000  0.000000  0.000000  1
  N  N5  1  0.000000  0.000000  0.500000  1
  Cl  Cl6  1  0.971857  0.028143  0.762949  1
  Cl  Cl7  1  0.028143  0.971857  0.237051  1
  Cl  Cl8  1  0.668642  0.331358  0.830940  1
  Cl  Cl9  1  0.331358  0.668642  0.169060  1
  Cl  Cl10  1  0.303591  0.696409  0.436850  1
  Cl  Cl11  1  0.696409  0.303591  0.563150  1
  Cl  Cl12  1  0.630143  0.369857  0.102852  1
  Cl  Cl13  1  0.369857  0.630143  0.897148  1
