# generated using pymatgen
data_ErAl4Ni
_symmetry_space_group_name_H-M   'P 1'
_cell_length_a   7.94166052
_cell_length_b   7.94166052
_cell_length_c   6.51524926
_cell_angle_alpha   90.00000000
_cell_angle_beta   90.00000000
_cell_angle_gamma   150.17582679
_symmetry_Int_Tables_number   1
_chemical_formula_structural   ErAl4Ni
_chemical_formula_sum   'Er2 Al8 Ni2'
_cell_volume   204.36526720
_cell_formula_units_Z   2
loop_
 _symmetry_equiv_pos_site_id
 _symmetry_equiv_pos_as_xyz
  1  'x, y, z'
loop_
 _atom_site_type_symbol
 _atom_site_label
 _atom_site_symmetry_multiplicity
 _atom_site_fract_x
 _atom_site_fract_y
 _atom_site_fract_z
 _atom_site_occupancy
  Er  Er0  1  0.881601  0.118399  0.250000  1
  Er  Er1  1  0.118399  0.881601  0.750000  1
  Al  Al2  1  0.074692  0.925308  0.250000  1
  Al  Al3  1  0.311697  0.688303  0.551193  1
  Al  Al4  1  0.925308  0.074692  0.750000  1
  Al  Al5  1  0.688303  0.311697  0.051193  1
  Al  Al6  1  0.500000  0.500000  0.000000  1
  Al  Al7  1  0.311697  0.688303  0.948807  1
  Al  Al8  1  0.500000  0.500000  0.500000  1
  Al  Al9  1  0.688303  0.311697  0.448807  1
  Ni  Ni10  1  0.775512  0.224488  0.750000  1
  Ni  Ni11  1  0.224488  0.775512  0.250000  1
