# generated using pymatgen
data_Hg4OF6
_symmetry_space_group_name_H-M   'P 1'
_cell_length_a   7.92679091
_cell_length_b   7.92679091
_cell_length_c   6.16816106
_cell_angle_alpha   90.00000000
_cell_angle_beta   90.00000000
_cell_angle_gamma   120.00000000
_symmetry_Int_Tables_number   1
_chemical_formula_structural   Hg4OF6
_chemical_formula_sum   'Hg8 O2 F12'
_cell_volume   335.64574234
_cell_formula_units_Z   2
loop_
 _symmetry_equiv_pos_site_id
 _symmetry_equiv_pos_as_xyz
  1  'x, y, z'
loop_
 _atom_site_type_symbol
 _atom_site_label
 _atom_site_symmetry_multiplicity
 _atom_site_fract_x
 _atom_site_fract_y
 _atom_site_fract_z
 _atom_site_occupancy
  Hg  Hg0  1  0.635448  0.817724  0.500265  1
  Hg  Hg1  1  0.817724  0.635448  0.000265  1
  Hg  Hg2  1  0.817724  0.182276  0.000265  1
  Hg  Hg3  1  0.182276  0.817724  0.500265  1
  Hg  Hg4  1  0.182276  0.364552  0.500265  1
  Hg  Hg5  1  0.364552  0.182276  0.000265  1
  Hg  Hg6  1  0.333333  0.666667  0.975919  1
  Hg  Hg7  1  0.666667  0.333333  0.475919  1
  O  O8  1  0.666667  0.333333  0.127666  1
  O  O9  1  0.333333  0.666667  0.627666  1
  F  F10  1  0.919920  0.459960  0.726649  1
  F  F11  1  0.080080  0.540040  0.226649  1
  F  F12  1  0.459960  0.540040  0.226649  1
  F  F13  1  0.540040  0.080080  0.726649  1
  F  F14  1  0.745214  0.872607  0.895524  1
  F  F15  1  0.872607  0.745214  0.395524  1
  F  F16  1  0.459960  0.919920  0.226649  1
  F  F17  1  0.540040  0.459960  0.726649  1
  F  F18  1  0.254786  0.127393  0.395524  1
  F  F19  1  0.127393  0.254786  0.895524  1
  F  F20  1  0.127393  0.872607  0.895524  1
  F  F21  1  0.872607  0.127393  0.395524  1
