# generated using pymatgen
data_SrLa4TiAl4O15
_symmetry_space_group_name_H-M   'P 1'
_cell_length_a   3.84749883
_cell_length_b   5.41785790
_cell_length_c   27.13806955
_cell_angle_alpha   90.00000000
_cell_angle_beta   90.00000000
_cell_angle_gamma   90.00000000
_symmetry_Int_Tables_number   1
_chemical_formula_structural   SrLa4TiAl4O15
_chemical_formula_sum   'Sr2 La8 Ti2 Al8 O30'
_cell_volume   565.69853982
_cell_formula_units_Z   2
loop_
 _symmetry_equiv_pos_site_id
 _symmetry_equiv_pos_as_xyz
  1  'x, y, z'
loop_
 _atom_site_type_symbol
 _atom_site_label
 _atom_site_symmetry_multiplicity
 _atom_site_fract_x
 _atom_site_fract_y
 _atom_site_fract_z
 _atom_site_occupancy
  Sr  Sr0  1  0.000000  0.750000  0.947031  1
  Sr  Sr1  1  0.000000  0.250000  0.052969  1
  La  La2  1  0.000000  0.750000  0.154181  1
  La  La3  1  0.000000  0.250000  0.251478  1
  La  La4  1  0.000000  0.750000  0.351000  1
  La  La5  1  0.000000  0.250000  0.450150  1
  La  La6  1  0.000000  0.750000  0.549850  1
  La  La7  1  0.000000  0.250000  0.649000  1
  La  La8  1  0.000000  0.750000  0.748522  1
  La  La9  1  0.000000  0.250000  0.845819  1
  Ti  Ti10  1  0.500000  0.250000  0.947844  1
  Ti  Ti11  1  0.500000  0.750000  0.052156  1
  Al  Al12  1  0.500000  0.250000  0.153318  1
  Al  Al13  1  0.500000  0.750000  0.252193  1
  Al  Al14  1  0.500000  0.250000  0.350955  1
  Al  Al15  1  0.500000  0.750000  0.450325  1
  Al  Al16  1  0.500000  0.250000  0.549675  1
  Al  Al17  1  0.500000  0.750000  0.649045  1
  Al  Al18  1  0.500000  0.250000  0.747807  1
  Al  Al19  1  0.500000  0.750000  0.846682  1
  O  O20  1  0.000000  0.250000  0.946179  1
  O  O21  1  0.000000  0.750000  0.053821  1
  O  O22  1  0.000000  0.250000  0.155033  1
  O  O23  1  0.000000  0.750000  0.251745  1
  O  O24  1  0.000000  0.250000  0.351053  1
  O  O25  1  0.000000  0.750000  0.450170  1
  O  O26  1  0.000000  0.250000  0.549830  1
  O  O27  1  0.500000  0.000000  0.000000  1
  O  O28  1  0.500000  0.500583  0.104178  1
  O  O29  1  0.500000  0.998590  0.202558  1
  O  O30  1  0.500000  0.500298  0.301500  1
  O  O31  1  0.500000  0.000035  0.400646  1
  O  O32  1  0.500000  0.500000  0.500000  1
  O  O33  1  0.500000  0.999965  0.599354  1
  O  O34  1  0.500000  0.499702  0.698500  1
  O  O35  1  0.500000  0.999417  0.104178  1
  O  O36  1  0.500000  0.001410  0.797442  1
  O  O37  1  0.500000  0.500000  0.000000  1
  O  O38  1  0.500000  0.499417  0.895822  1
  O  O39  1  0.500000  0.999702  0.301500  1
  O  O40  1  0.500000  0.501410  0.202558  1
  O  O41  1  0.500000  0.499965  0.400646  1
  O  O42  1  0.500000  0.500035  0.599354  1
  O  O43  1  0.500000  0.000000  0.500000  1
  O  O44  1  0.500000  0.498590  0.797442  1
  O  O45  1  0.500000  0.000298  0.698500  1
  O  O46  1  0.500000  0.000583  0.895822  1
  O  O47  1  0.000000  0.750000  0.648947  1
  O  O48  1  0.000000  0.250000  0.748255  1
  O  O49  1  0.000000  0.750000  0.844967  1
