# generated using pymatgen
data_Sr3P4O13
_symmetry_space_group_name_H-M   'P 1'
_cell_length_a   7.36169045
_cell_length_b   7.85033935
_cell_length_c   10.32385780
_cell_angle_alpha   102.53435874
_cell_angle_beta   103.14408557
_cell_angle_gamma   94.36112149
_symmetry_Int_Tables_number   1
_chemical_formula_structural   Sr3P4O13
_chemical_formula_sum   'Sr6 P8 O26'
_cell_volume   562.19925403
_cell_formula_units_Z   2
loop_
 _symmetry_equiv_pos_site_id
 _symmetry_equiv_pos_as_xyz
  1  'x, y, z'
loop_
 _atom_site_type_symbol
 _atom_site_label
 _atom_site_symmetry_multiplicity
 _atom_site_fract_x
 _atom_site_fract_y
 _atom_site_fract_z
 _atom_site_occupancy
  Sr  Sr0  1  0.785774  0.770535  0.374099  1
  Sr  Sr1  1  0.214226  0.229465  0.625901  1
  Sr  Sr2  1  0.706700  0.220916  0.136102  1
  Sr  Sr3  1  0.293300  0.779084  0.863898  1
  Sr  Sr4  1  0.750619  0.015960  0.756816  1
  Sr  Sr5  1  0.249381  0.984040  0.243184  1
  P  P6  1  0.137988  0.463298  0.347724  1
  P  P7  1  0.862012  0.536702  0.652276  1
  P  P8  1  0.826148  0.810497  0.021602  1
  P  P9  1  0.173852  0.189503  0.978398  1
  P  P10  1  0.671251  0.189820  0.488395  1
  P  P11  1  0.328749  0.810180  0.511605  1
  P  P12  1  0.638377  0.460980  0.858813  1
  P  P13  1  0.361623  0.539020  0.141187  1
  O  O14  1  0.454397  0.509673  0.788404  1
  O  O15  1  0.545603  0.490327  0.211596  1
  O  O16  1  0.790756  0.469488  0.770822  1
  O  O17  1  0.209244  0.530512  0.229178  1
  O  O18  1  0.182845  0.283446  0.363425  1
  O  O19  1  0.817155  0.716554  0.636575  1
  O  O20  1  0.991297  0.808261  0.956354  1
  O  O21  1  0.008703  0.191739  0.043646  1
  O  O22  1  0.744477  0.401218  0.514739  1
  O  O23  1  0.255523  0.598782  0.485261  1
  O  O24  1  0.932645  0.487422  0.317176  1
  O  O25  1  0.067355  0.512578  0.682824  1
  O  O26  1  0.525908  0.180925  0.571354  1
  O  O27  1  0.474092  0.819075  0.428646  1
  O  O28  1  0.336357  0.099229  0.046163  1
  O  O29  1  0.663643  0.900771  0.953837  1
  O  O30  1  0.155047  0.897018  0.456214  1
  O  O31  1  0.844953  0.102982  0.543786  1
  O  O32  1  0.118193  0.120226  0.821936  1
  O  O33  1  0.881807  0.879774  0.178064  1
  O  O34  1  0.263693  0.397051  0.000851  1
  O  O35  1  0.736307  0.602949  0.999149  1
  O  O36  1  0.400462  0.871681  0.667167  1
  O  O37  1  0.599538  0.128319  0.332833  1
  O  O38  1  0.366380  0.716912  0.107537  1
  O  O39  1  0.633620  0.283088  0.892463  1
