# generated using pymatgen
data_BaSiN2
_symmetry_space_group_name_H-M   'P 1'
_cell_length_a   6.44956537
_cell_length_b   6.44956537
_cell_length_c   7.65287075
_cell_angle_alpha   90.00000000
_cell_angle_beta   90.00000000
_cell_angle_gamma   127.97147118
_symmetry_Int_Tables_number   1
_chemical_formula_structural   BaSiN2
_chemical_formula_sum   'Ba4 Si4 N8'
_cell_volume   250.94947013
_cell_formula_units_Z   4
loop_
 _symmetry_equiv_pos_site_id
 _symmetry_equiv_pos_as_xyz
  1  'x, y, z'
loop_
 _atom_site_type_symbol
 _atom_site_label
 _atom_site_symmetry_multiplicity
 _atom_site_fract_x
 _atom_site_fract_y
 _atom_site_fract_z
 _atom_site_occupancy
  Ba  Ba0  1  0.163635  0.836365  0.563736  1
  Ba  Ba1  1  0.836365  0.163635  0.436264  1
  Ba  Ba2  1  0.336365  0.663635  0.063736  1
  Ba  Ba3  1  0.663635  0.336365  0.936264  1
  Si  Si4  1  0.951488  0.048512  0.859747  1
  Si  Si5  1  0.548512  0.451488  0.359747  1
  Si  Si6  1  0.048512  0.951488  0.140253  1
  Si  Si7  1  0.451488  0.548512  0.640253  1
  N  N8  1  0.154602  0.345398  0.750000  1
  N  N9  1  0.345398  0.154602  0.250000  1
  N  N10  1  0.845398  0.654602  0.250000  1
  N  N11  1  0.654602  0.845398  0.750000  1
  N  N12  1  0.100818  0.899182  0.920201  1
  N  N13  1  0.600818  0.399182  0.579799  1
  N  N14  1  0.399182  0.600818  0.420201  1
  N  N15  1  0.899182  0.100818  0.079799  1
