# generated using pymatgen
data_NaPb
_symmetry_space_group_name_H-M   'P 1'
_cell_length_a   11.76823405
_cell_length_b   11.76823405
_cell_length_c   11.76823405
_cell_angle_alpha   126.06405351
_cell_angle_beta   126.06405351
_cell_angle_gamma   79.78288980
_symmetry_Int_Tables_number   1
_chemical_formula_structural   NaPb
_chemical_formula_sum   'Na16 Pb16'
_cell_volume   1028.67207651
_cell_formula_units_Z   16
loop_
 _symmetry_equiv_pos_site_id
 _symmetry_equiv_pos_as_xyz
  1  'x, y, z'
loop_
 _atom_site_type_symbol
 _atom_site_label
 _atom_site_symmetry_multiplicity
 _atom_site_fract_x
 _atom_site_fract_y
 _atom_site_fract_z
 _atom_site_occupancy
  Na  Na0  1  0.243602  0.375000  0.368602  1
  Na  Na1  1  0.125000  0.256398  0.631398  1
  Na  Na2  1  0.625000  0.493602  0.368602  1
  Na  Na3  1  0.006398  0.875000  0.631398  1
  Na  Na4  1  0.506398  0.875000  0.131398  1
  Na  Na5  1  0.625000  0.993602  0.868602  1
  Na  Na6  1  0.125000  0.756398  0.131398  1
  Na  Na7  1  0.743602  0.375000  0.868602  1
  Na  Na8  1  0.875228  0.875228  0.250457  1
  Na  Na9  1  0.625228  0.874772  0.500000  1
  Na  Na10  1  0.374772  0.125228  0.500000  1
  Na  Na11  1  0.624772  0.624772  0.749543  1
  Na  Na12  1  0.874772  0.374772  0.249543  1
  Na  Na13  1  0.124772  0.375228  0.000000  1
  Na  Na14  1  0.375228  0.124772  1.000000  1
  Na  Na15  1  0.125228  0.625228  0.750457  1
  Pb  Pb16  1  0.932147  0.133991  0.938444  1
  Pb  Pb17  1  0.883991  0.445547  0.701844  1
  Pb  Pb18  1  0.743704  0.182147  0.298156  1
  Pb  Pb19  1  0.317853  0.756296  0.701843  1
  Pb  Pb20  1  0.054453  0.616009  0.298156  1
  Pb  Pb21  1  0.506296  0.304453  0.938444  1
  Pb  Pb22  1  0.366009  0.567853  0.061556  1
  Pb  Pb23  1  0.195547  0.993704  0.061556  1
  Pb  Pb24  1  0.817853  0.116009  0.561556  1
  Pb  Pb25  1  0.866009  0.804453  0.798156  1
  Pb  Pb26  1  0.006296  0.067853  0.201843  1
  Pb  Pb27  1  0.432147  0.493704  0.798156  1
  Pb  Pb28  1  0.695547  0.633991  0.201844  1
  Pb  Pb29  1  0.243704  0.945547  0.561556  1
  Pb  Pb30  1  0.383991  0.682147  0.438444  1
  Pb  Pb31  1  0.554453  0.256296  0.438444  1
