# generated using pymatgen
data_NdPS4
_symmetry_space_group_name_H-M   'P 1'
_cell_length_a   12.46772895
_cell_length_b   12.46772895
_cell_length_c   12.46772895
_cell_angle_alpha   127.43213707
_cell_angle_beta   127.43213707
_cell_angle_gamma   77.54676658
_symmetry_Int_Tables_number   1
_chemical_formula_structural   NdPS4
_chemical_formula_sum   'Nd8 P8 S32'
_cell_volume   1185.12453574
_cell_formula_units_Z   8
loop_
 _symmetry_equiv_pos_site_id
 _symmetry_equiv_pos_as_xyz
  1  'x, y, z'
loop_
 _atom_site_type_symbol
 _atom_site_label
 _atom_site_symmetry_multiplicity
 _atom_site_fract_x
 _atom_site_fract_y
 _atom_site_fract_z
 _atom_site_occupancy
  Nd  Nd0  1  0.000000  0.000000  0.000000  1
  Nd  Nd1  1  0.750000  0.250000  0.500000  1
  Nd  Nd2  1  0.250000  0.750000  0.500000  1
  Nd  Nd3  1  0.500000  0.500000  0.000000  1
  Nd  Nd4  1  0.750000  0.750000  0.000000  1
  Nd  Nd5  1  0.500000  0.000000  0.500000  1
  Nd  Nd6  1  0.000000  0.500000  0.500000  1
  Nd  Nd7  1  0.250000  0.250000  0.000000  1
  P  P8  1  0.125000  0.412327  0.787327  1
  P  P9  1  0.125000  0.912327  0.287327  1
  P  P10  1  0.662327  0.875000  0.287327  1
  P  P11  1  0.587673  0.375000  0.712673  1
  P  P12  1  0.625000  0.837673  0.712673  1
  P  P13  1  0.625000  0.337673  0.212673  1
  P  P14  1  0.087673  0.375000  0.212673  1
  P  P15  1  0.162327  0.875000  0.787327  1
  S  S16  1  0.487847  0.215762  0.456626  1
  S  S17  1  0.759136  0.031221  0.543374  1
  S  S18  1  0.781221  0.737847  0.772085  1
  S  S19  1  0.965762  0.009136  0.227915  1
  S  S20  1  0.490864  0.534238  0.772085  1
  S  S21  1  0.762153  0.718779  0.227915  1
  S  S22  1  0.284238  0.012153  0.543374  1
  S  S23  1  0.468779  0.740864  0.456626  1
  S  S24  1  0.278215  0.464353  0.317197  1
  S  S25  1  0.214353  0.397156  0.686138  1
  S  S26  1  0.711018  0.528215  0.313862  1
  S  S27  1  0.971785  0.788982  0.686138  1
  S  S28  1  0.102844  0.285647  0.313862  1
  S  S29  1  0.538982  0.352844  0.317197  1
  S  S30  1  0.035647  0.221785  0.682803  1
  S  S31  1  0.147156  0.961018  0.682803  1
  S  S32  1  0.471785  0.785647  0.182803  1
  S  S33  1  0.535647  0.852844  0.813862  1
  S  S34  1  0.038982  0.721785  0.186138  1
  S  S35  1  0.778215  0.461018  0.813862  1
  S  S36  1  0.647156  0.964353  0.186138  1
  S  S37  1  0.211018  0.897156  0.182803  1
  S  S38  1  0.714353  0.028215  0.817197  1
  S  S39  1  0.602844  0.288982  0.817197  1
  S  S40  1  0.990864  0.218779  0.956626  1
  S  S41  1  0.968779  0.512153  0.727915  1
  S  S42  1  0.784238  0.240864  0.272085  1
  S  S43  1  0.259136  0.715762  0.727915  1
  S  S44  1  0.987847  0.531221  0.272085  1
  S  S45  1  0.465762  0.237847  0.956626  1
  S  S46  1  0.281221  0.509136  0.043374  1
  S  S47  1  0.262153  0.034238  0.043374  1
