# generated using pymatgen
data_LiCr2(PO4)3
_symmetry_space_group_name_H-M   'P 1'
_cell_length_a   8.23837897
_cell_length_b   8.31666552
_cell_length_c   8.81540439
_cell_angle_alpha   62.12696919
_cell_angle_beta   62.44946490
_cell_angle_gamma   60.59386635
_symmetry_Int_Tables_number   1
_chemical_formula_structural   LiCr2(PO4)3
_chemical_formula_sum   'Li2 Cr4 P6 O24'
_cell_volume   443.33551172
_cell_formula_units_Z   2
loop_
 _symmetry_equiv_pos_site_id
 _symmetry_equiv_pos_as_xyz
  1  'x, y, z'
loop_
 _atom_site_type_symbol
 _atom_site_label
 _atom_site_symmetry_multiplicity
 _atom_site_fract_x
 _atom_site_fract_y
 _atom_site_fract_z
 _atom_site_occupancy
  Li  Li0  1  0.255954  0.923392  0.135957  1
  Li  Li1  1  0.744046  0.076608  0.864043  1
  Cr  Cr2  1  0.856655  0.852882  0.430711  1
  Cr  Cr3  1  0.349295  0.356634  0.943332  1
  Cr  Cr4  1  0.650705  0.643366  0.056668  1
  Cr  Cr5  1  0.143345  0.147118  0.569289  1
  P  P6  1  0.749100  0.466584  0.751691  1
  P  P7  1  0.462622  0.032107  0.751850  1
  P  P8  1  0.035240  0.750975  0.748688  1
  P  P9  1  0.964760  0.249025  0.251312  1
  P  P10  1  0.537378  0.967893  0.248150  1
  P  P11  1  0.250900  0.533416  0.248309  1
  O  O12  1  0.989232  0.201547  0.433947  1
  O  O13  1  0.534401  0.490450  0.797744  1
  O  O14  1  0.174572  0.541402  0.796999  1
  O  O15  1  0.825428  0.458598  0.203001  1
  O  O16  1  0.117352  0.740353  0.260573  1
  O  O17  1  0.830333  0.790193  0.896208  1
  O  O18  1  0.169667  0.209807  0.103792  1
  O  O19  1  0.780105  0.491775  0.899242  1
  O  O20  1  0.882648  0.259647  0.739427  1
  O  O21  1  0.010768  0.798453  0.566053  1
  O  O22  1  0.219895  0.508225  0.100758  1
  O  O23  1  0.191878  0.383655  0.429023  1
  O  O24  1  0.539786  0.154566  0.082157  1
  O  O25  1  0.488437  0.176601  0.797984  1
  O  O26  1  0.511563  0.823399  0.202016  1
  O  O27  1  0.258693  0.117737  0.727917  1
  O  O28  1  0.624154  0.995476  0.580318  1
  O  O29  1  0.741307  0.882263  0.272083  1
  O  O30  1  0.892320  0.098239  0.273316  1
  O  O31  1  0.465599  0.509550  0.202256  1
  O  O32  1  0.808122  0.616345  0.570977  1
  O  O33  1  0.460214  0.845434  0.917843  1
  O  O34  1  0.107680  0.901761  0.726684  1
  O  O35  1  0.375846  0.004524  0.419682  1
