# generated using pymatgen
data_Ho10In20Ni9
_symmetry_space_group_name_H-M   'P 1'
_cell_length_a   13.38459180
_cell_length_b   13.38459180
_cell_length_c   9.17852261
_cell_angle_alpha   90.00000000
_cell_angle_beta   90.00000000
_cell_angle_gamma   90.00000000
_symmetry_Int_Tables_number   1
_chemical_formula_structural   Ho10In20Ni9
_chemical_formula_sum   'Ho20 In40 Ni18'
_cell_volume   1644.30752203
_cell_formula_units_Z   2
loop_
 _symmetry_equiv_pos_site_id
 _symmetry_equiv_pos_as_xyz
  1  'x, y, z'
loop_
 _atom_site_type_symbol
 _atom_site_label
 _atom_site_symmetry_multiplicity
 _atom_site_fract_x
 _atom_site_fract_y
 _atom_site_fract_z
 _atom_site_occupancy
  Ho  Ho0  1  0.000000  0.500000  0.363267  1
  Ho  Ho1  1  0.500000  0.000000  0.636733  1
  Ho  Ho2  1  0.000000  0.500000  0.835237  1
  Ho  Ho3  1  0.500000  0.000000  0.164763  1
  Ho  Ho4  1  0.276710  0.500000  0.768128  1
  Ho  Ho5  1  0.000000  0.223290  0.768128  1
  Ho  Ho6  1  0.000000  0.776710  0.768128  1
  Ho  Ho7  1  0.723290  0.500000  0.768128  1
  Ho  Ho8  1  0.223290  0.000000  0.231872  1
  Ho  Ho9  1  0.776710  0.000000  0.231872  1
  Ho  Ho10  1  0.500000  0.276710  0.231872  1
  Ho  Ho11  1  0.500000  0.723290  0.231872  1
  Ho  Ho12  1  0.203395  0.703395  0.268394  1
  Ho  Ho13  1  0.203395  0.296605  0.268394  1
  Ho  Ho14  1  0.796605  0.703395  0.268394  1
  Ho  Ho15  1  0.796605  0.296605  0.268394  1
  Ho  Ho16  1  0.296605  0.203395  0.731606  1
  Ho  Ho17  1  0.703395  0.796605  0.731606  1
  Ho  Ho18  1  0.703395  0.203395  0.731606  1
  Ho  Ho19  1  0.296605  0.796605  0.731606  1
  In  In20  1  0.844908  0.844908  0.000000  1
  In  In21  1  0.344908  0.655092  0.000000  1
  In  In22  1  0.655092  0.344908  0.000000  1
  In  In23  1  0.155092  0.155092  0.000000  1
  In  In24  1  0.655092  0.655092  0.000000  1
  In  In25  1  0.155092  0.844908  0.000000  1
  In  In26  1  0.844908  0.155092  0.000000  1
  In  In27  1  0.344908  0.344908  0.000000  1
  In  In28  1  0.369766  0.369766  0.500000  1
  In  In29  1  0.869766  0.130234  0.500000  1
  In  In30  1  0.130234  0.869766  0.500000  1
  In  In31  1  0.630234  0.630234  0.500000  1
  In  In32  1  0.130234  0.130234  0.500000  1
  In  In33  1  0.630234  0.369766  0.500000  1
  In  In34  1  0.369766  0.630234  0.500000  1
  In  In35  1  0.869766  0.869766  0.500000  1
  In  In36  1  0.833439  0.500000  0.092997  1
  In  In37  1  0.000000  0.666561  0.092997  1
  In  In38  1  0.000000  0.333439  0.092997  1
  In  In39  1  0.166561  0.500000  0.092997  1
  In  In40  1  0.666561  0.000000  0.907003  1
  In  In41  1  0.333439  0.000000  0.907003  1
  In  In42  1  0.500000  0.833439  0.907003  1
  In  In43  1  0.500000  0.166561  0.907003  1
  In  In44  1  0.615981  0.500000  0.234617  1
  In  In45  1  0.000000  0.884019  0.234617  1
  In  In46  1  0.000000  0.115981  0.234617  1
  In  In47  1  0.384019  0.500000  0.234617  1
  In  In48  1  0.884019  0.000000  0.765383  1
  In  In49  1  0.115981  0.000000  0.765383  1
  In  In50  1  0.500000  0.615981  0.765383  1
  In  In51  1  0.500000  0.384019  0.765383  1
  In  In52  1  0.131932  0.631932  0.590215  1
  In  In53  1  0.131932  0.368068  0.590215  1
  In  In54  1  0.868068  0.631932  0.590215  1
  In  In55  1  0.868068  0.368068  0.590215  1
  In  In56  1  0.368068  0.131932  0.409785  1
  In  In57  1  0.631932  0.868068  0.409785  1
  In  In58  1  0.631932  0.131932  0.409785  1
  In  In59  1  0.368068  0.868068  0.409785  1
  Ni  Ni60  1  0.500000  0.500000  0.000000  1
  Ni  Ni61  1  0.000000  0.000000  0.000000  1
  Ni  Ni62  1  0.777278  0.500000  0.408837  1
  Ni  Ni63  1  0.000000  0.722722  0.408837  1
  Ni  Ni64  1  0.000000  0.277278  0.408837  1
  Ni  Ni65  1  0.222722  0.500000  0.408837  1
  Ni  Ni66  1  0.722722  0.000000  0.591163  1
  Ni  Ni67  1  0.277278  0.000000  0.591163  1
  Ni  Ni68  1  0.500000  0.777278  0.591163  1
  Ni  Ni69  1  0.500000  0.222722  0.591163  1
  Ni  Ni70  1  0.344782  0.844782  0.104529  1
  Ni  Ni71  1  0.344782  0.155218  0.104529  1
  Ni  Ni72  1  0.655218  0.844782  0.104529  1
  Ni  Ni73  1  0.655218  0.155218  0.104529  1
  Ni  Ni74  1  0.155218  0.344782  0.895471  1
  Ni  Ni75  1  0.844782  0.655218  0.895471  1
  Ni  Ni76  1  0.844782  0.344782  0.895471  1
  Ni  Ni77  1  0.155218  0.655218  0.895471  1
