# generated using pymatgen
data_La(SbO3)3
_symmetry_space_group_name_H-M   'P 1'
_cell_length_a   5.58800234
_cell_length_b   5.58800234
_cell_length_c   11.91255119
_cell_angle_alpha   90.00000000
_cell_angle_beta   90.00000000
_cell_angle_gamma   107.12595442
_symmetry_Int_Tables_number   1
_chemical_formula_structural   La(SbO3)3
_chemical_formula_sum   'La2 Sb6 O18'
_cell_volume   355.48495069
_cell_formula_units_Z   2
loop_
 _symmetry_equiv_pos_site_id
 _symmetry_equiv_pos_as_xyz
  1  'x, y, z'
loop_
 _atom_site_type_symbol
 _atom_site_label
 _atom_site_symmetry_multiplicity
 _atom_site_fract_x
 _atom_site_fract_y
 _atom_site_fract_z
 _atom_site_occupancy
  La  La0  1  0.245374  0.754626  0.250000  1
  La  La1  1  0.754626  0.245374  0.750000  1
  Sb  Sb2  1  0.878363  0.121637  0.091700  1
  Sb  Sb3  1  0.121637  0.878363  0.591700  1
  Sb  Sb4  1  0.121637  0.878363  0.908300  1
  Sb  Sb5  1  0.878363  0.121637  0.408300  1
  Sb  Sb6  1  0.500000  0.500000  0.000000  1
  Sb  Sb7  1  0.500000  0.500000  0.500000  1
  O  O8  1  0.056643  0.943357  0.750000  1
  O  O9  1  0.943357  0.056643  0.250000  1
  O  O10  1  0.895937  0.104063  0.925265  1
  O  O11  1  0.104063  0.895937  0.425265  1
  O  O12  1  0.104063  0.895937  0.074735  1
  O  O13  1  0.895937  0.104063  0.574735  1
  O  O14  1  0.663484  0.336516  0.116739  1
  O  O15  1  0.336516  0.663484  0.616739  1
  O  O16  1  0.192363  0.417957  0.400103  1
  O  O17  1  0.807637  0.582043  0.900103  1
  O  O18  1  0.417957  0.192363  0.599897  1
  O  O19  1  0.582043  0.807637  0.099897  1
  O  O20  1  0.807637  0.582043  0.599897  1
  O  O21  1  0.192363  0.417957  0.099897  1
  O  O22  1  0.582043  0.807637  0.400103  1
  O  O23  1  0.417957  0.192363  0.900103  1
  O  O24  1  0.663484  0.336516  0.383261  1
  O  O25  1  0.336516  0.663484  0.883261  1
