# generated using pymatgen
data_Zr3Ga2
_symmetry_space_group_name_H-M   'P 1'
_cell_length_a   7.37724654
_cell_length_b   7.37724654
_cell_length_c   3.70616717
_cell_angle_alpha   90.00000000
_cell_angle_beta   90.00000000
_cell_angle_gamma   90.00000000
_symmetry_Int_Tables_number   1
_chemical_formula_structural   Zr3Ga2
_chemical_formula_sum   'Zr6 Ga4'
_cell_volume   201.70357671
_cell_formula_units_Z   2
loop_
 _symmetry_equiv_pos_site_id
 _symmetry_equiv_pos_as_xyz
  1  'x, y, z'
loop_
 _atom_site_type_symbol
 _atom_site_label
 _atom_site_symmetry_multiplicity
 _atom_site_fract_x
 _atom_site_fract_y
 _atom_site_fract_z
 _atom_site_occupancy
  Zr  Zr0  1  0.000000  0.000000  0.000000  1
  Zr  Zr1  1  0.500000  0.500000  0.000000  1
  Zr  Zr2  1  0.676797  0.176797  0.500000  1
  Zr  Zr3  1  0.176797  0.323203  0.500000  1
  Zr  Zr4  1  0.823203  0.676797  0.500000  1
  Zr  Zr5  1  0.323203  0.823203  0.500000  1
  Ga  Ga6  1  0.877053  0.377053  0.000000  1
  Ga  Ga7  1  0.377053  0.122947  0.000000  1
  Ga  Ga8  1  0.622947  0.877053  0.000000  1
  Ga  Ga9  1  0.122947  0.622947  0.000000  1
