# generated using pymatgen
data_PtCl3
_symmetry_space_group_name_H-M   'P 1'
_cell_length_a   13.09195420
_cell_length_b   13.09195420
_cell_length_c   13.09195420
_cell_angle_alpha   115.13172583
_cell_angle_beta   115.13172583
_cell_angle_gamma   115.13172583
_symmetry_Int_Tables_number   1
_chemical_formula_structural   PtCl3
_chemical_formula_sum   'Pt12 Cl36'
_cell_volume   1240.64436138
_cell_formula_units_Z   12
loop_
 _symmetry_equiv_pos_site_id
 _symmetry_equiv_pos_as_xyz
  1  'x, y, z'
loop_
 _atom_site_type_symbol
 _atom_site_label
 _atom_site_symmetry_multiplicity
 _atom_site_fract_x
 _atom_site_fract_y
 _atom_site_fract_z
 _atom_site_occupancy
  Pt  Pt0  1  0.229133  0.476770  0.801934  1
  Pt  Pt1  1  0.801934  0.229133  0.476770  1
  Pt  Pt2  1  0.476770  0.801934  0.229133  1
  Pt  Pt3  1  0.770867  0.523230  0.198066  1
  Pt  Pt4  1  0.198066  0.770867  0.523230  1
  Pt  Pt5  1  0.523230  0.198066  0.770867  1
  Pt  Pt6  1  0.756495  0.836326  0.934313  1
  Pt  Pt7  1  0.934313  0.756495  0.836326  1
  Pt  Pt8  1  0.836326  0.934313  0.756495  1
  Pt  Pt9  1  0.243505  0.163674  0.065687  1
  Pt  Pt10  1  0.065687  0.243505  0.163674  1
  Pt  Pt11  1  0.163674  0.065687  0.243505  1
  Cl  Cl12  1  0.460257  0.628441  0.853905  1
  Cl  Cl13  1  0.853905  0.460257  0.628441  1
  Cl  Cl14  1  0.628441  0.853905  0.460257  1
  Cl  Cl15  1  0.539743  0.371559  0.146095  1
  Cl  Cl16  1  0.146095  0.539743  0.371559  1
  Cl  Cl17  1  0.371559  0.146095  0.539743  1
  Cl  Cl18  1  0.166387  0.242001  0.652172  1
  Cl  Cl19  1  0.652172  0.166387  0.242001  1
  Cl  Cl20  1  0.242001  0.652172  0.166387  1
  Cl  Cl21  1  0.833613  0.757999  0.347828  1
  Cl  Cl22  1  0.347828  0.833613  0.757999  1
  Cl  Cl23  1  0.757999  0.347828  0.833613  1
  Cl  Cl24  1  0.094512  0.827349  0.077161  1
  Cl  Cl25  1  0.827349  0.077161  0.094512  1
  Cl  Cl26  1  0.077161  0.094512  0.827349  1
  Cl  Cl27  1  0.905488  0.172651  0.922839  1
  Cl  Cl28  1  0.172651  0.922839  0.905488  1
  Cl  Cl29  1  0.922839  0.905488  0.172651  1
  Cl  Cl30  1  0.394309  0.221929  0.299298  1
  Cl  Cl31  1  0.221929  0.299298  0.394309  1
  Cl  Cl32  1  0.299298  0.394309  0.221929  1
  Cl  Cl33  1  0.605691  0.778071  0.700702  1
  Cl  Cl34  1  0.778071  0.700702  0.605691  1
  Cl  Cl35  1  0.700702  0.605691  0.778071  1
  Cl  Cl36  1  0.442900  0.950405  0.603047  1
  Cl  Cl37  1  0.950405  0.603047  0.442900  1
  Cl  Cl38  1  0.603047  0.442900  0.950405  1
  Cl  Cl39  1  0.557100  0.049595  0.396953  1
  Cl  Cl40  1  0.049595  0.396953  0.557100  1
  Cl  Cl41  1  0.396953  0.557100  0.049595  1
  Cl  Cl42  1  0.690923  0.273039  0.025452  1
  Cl  Cl43  1  0.273039  0.025452  0.690923  1
  Cl  Cl44  1  0.025452  0.690923  0.273039  1
  Cl  Cl45  1  0.309077  0.726961  0.974548  1
  Cl  Cl46  1  0.726961  0.974548  0.309077  1
  Cl  Cl47  1  0.974548  0.309077  0.726961  1
