# generated using pymatgen
data_BaNbS3
_symmetry_space_group_name_H-M   'P 1'
_cell_length_a   6.95228867
_cell_length_b   6.95228867
_cell_length_c   5.74903376
_cell_angle_alpha   90.00000000
_cell_angle_beta   90.00000000
_cell_angle_gamma   120.00000000
_symmetry_Int_Tables_number   1
_chemical_formula_structural   BaNbS3
_chemical_formula_sum   'Ba2 Nb2 S6'
_cell_volume   240.64735023
_cell_formula_units_Z   2
loop_
 _symmetry_equiv_pos_site_id
 _symmetry_equiv_pos_as_xyz
  1  'x, y, z'
loop_
 _atom_site_type_symbol
 _atom_site_label
 _atom_site_symmetry_multiplicity
 _atom_site_fract_x
 _atom_site_fract_y
 _atom_site_fract_z
 _atom_site_occupancy
  Ba  Ba0  1  0.666667  0.333333  0.250000  1
  Ba  Ba1  1  0.333333  0.666667  0.750000  1
  Nb  Nb2  1  0.000000  0.000000  0.000000  1
  Nb  Nb3  1  0.000000  0.000000  0.500000  1
  S  S4  1  0.829226  0.170774  0.750000  1
  S  S5  1  0.658452  0.829226  0.250000  1
  S  S6  1  0.170774  0.341548  0.250000  1
  S  S7  1  0.829226  0.658452  0.750000  1
  S  S8  1  0.341548  0.170774  0.750000  1
  S  S9  1  0.170774  0.829226  0.250000  1
