# generated using pymatgen
data_Co2P5O16
_symmetry_space_group_name_H-M   'P 1'
_cell_length_a   4.88907380
_cell_length_b   6.62659036
_cell_length_c   18.51150601
_cell_angle_alpha   90.00000000
_cell_angle_beta   91.18411150
_cell_angle_gamma   90.00000000
_symmetry_Int_Tables_number   1
_chemical_formula_structural   Co2P5O16
_chemical_formula_sum   'Co4 P10 O32'
_cell_volume   599.60565166
_cell_formula_units_Z   2
loop_
 _symmetry_equiv_pos_site_id
 _symmetry_equiv_pos_as_xyz
  1  'x, y, z'
loop_
 _atom_site_type_symbol
 _atom_site_label
 _atom_site_symmetry_multiplicity
 _atom_site_fract_x
 _atom_site_fract_y
 _atom_site_fract_z
 _atom_site_occupancy
  Co  Co0  1  0.758847  0.822455  0.593342  1
  Co  Co1  1  0.241153  0.177545  0.406658  1
  Co  Co2  1  0.758847  0.177545  0.093342  1
  Co  Co3  1  0.241153  0.822455  0.906658  1
  P  P4  1  0.268971  0.452479  0.129323  1
  P  P5  1  0.268971  0.547521  0.629323  1
  P  P6  1  0.249033  0.124379  0.574446  1
  P  P7  1  0.000000  0.253082  0.250000  1
  P  P8  1  0.000000  0.746918  0.750000  1
  P  P9  1  0.750967  0.875621  0.425554  1
  P  P10  1  0.731029  0.547521  0.870677  1
  P  P11  1  0.249033  0.875621  0.074446  1
  P  P12  1  0.731029  0.452479  0.370677  1
  P  P13  1  0.750967  0.124379  0.925554  1
  O  O14  1  0.435869  0.974867  0.613083  1
  O  O15  1  0.054297  0.055450  0.932321  1
  O  O16  1  0.435869  0.025133  0.113083  1
  O  O17  1  0.650646  0.784152  0.495837  1
  O  O18  1  0.774227  0.689507  0.368726  1
  O  O19  1  0.070246  0.652804  0.578530  1
  O  O20  1  0.792263  0.594072  0.787255  1
  O  O21  1  0.792263  0.405928  0.287255  1
  O  O22  1  0.070246  0.347196  0.078530  1
  O  O23  1  0.054297  0.944550  0.432321  1
  O  O24  1  0.349354  0.215848  0.504163  1
  O  O25  1  0.851562  0.871180  0.693492  1
  O  O26  1  0.929754  0.652804  0.921470  1
  O  O27  1  0.225773  0.689507  0.131274  1
  O  O28  1  0.774227  0.310493  0.868726  1
  O  O29  1  0.650646  0.215848  0.995837  1
  O  O30  1  0.225773  0.310493  0.631274  1
  O  O31  1  0.427845  0.580002  0.882484  1
  O  O32  1  0.572155  0.419998  0.117516  1
  O  O33  1  0.148438  0.871180  0.806508  1
  O  O34  1  0.207737  0.405928  0.212745  1
  O  O35  1  0.945703  0.944550  0.067679  1
  O  O36  1  0.564131  0.025133  0.386917  1
  O  O37  1  0.851562  0.128820  0.193492  1
  O  O38  1  0.349354  0.784152  0.004163  1
  O  O39  1  0.945703  0.055450  0.567679  1
  O  O40  1  0.564131  0.974867  0.886917  1
  O  O41  1  0.207737  0.594072  0.712745  1
  O  O42  1  0.572155  0.580002  0.617516  1
  O  O43  1  0.148438  0.128820  0.306508  1
  O  O44  1  0.929754  0.347196  0.421470  1
  O  O45  1  0.427845  0.419998  0.382484  1
