# generated using pymatgen
data_NaZnF3
_symmetry_space_group_name_H-M   'P 1'
_cell_length_a   5.49013121
_cell_length_b   5.68395039
_cell_length_c   7.89140096
_cell_angle_alpha   90.00000000
_cell_angle_beta   90.00000000
_cell_angle_gamma   90.00000000
_symmetry_Int_Tables_number   1
_chemical_formula_structural   NaZnF3
_chemical_formula_sum   'Na4 Zn4 F12'
_cell_volume   246.25616562
_cell_formula_units_Z   4
loop_
 _symmetry_equiv_pos_site_id
 _symmetry_equiv_pos_as_xyz
  1  'x, y, z'
loop_
 _atom_site_type_symbol
 _atom_site_label
 _atom_site_symmetry_multiplicity
 _atom_site_fract_x
 _atom_site_fract_y
 _atom_site_fract_z
 _atom_site_occupancy
  Na  Na0  1  0.016022  0.943084  0.750000  1
  Na  Na1  1  0.516022  0.556916  0.250000  1
  Na  Na2  1  0.483978  0.443084  0.750000  1
  Na  Na3  1  0.983978  0.056916  0.250000  1
  Zn  Zn4  1  0.500000  0.000000  0.500000  1
  Zn  Zn5  1  0.000000  0.500000  0.500000  1
  Zn  Zn6  1  0.000000  0.500000  0.000000  1
  Zn  Zn7  1  0.500000  0.000000  0.000000  1
  F  F8  1  0.697100  0.299259  0.443386  1
  F  F9  1  0.197100  0.200741  0.556614  1
  F  F10  1  0.802900  0.799259  0.056614  1
  F  F11  1  0.302900  0.700741  0.943386  1
  F  F12  1  0.302900  0.700741  0.556614  1
  F  F13  1  0.802900  0.799259  0.443386  1
  F  F14  1  0.197100  0.200741  0.943386  1
  F  F15  1  0.697100  0.299259  0.056614  1
  F  F16  1  0.107902  0.460182  0.250000  1
  F  F17  1  0.607902  0.039818  0.750000  1
  F  F18  1  0.392098  0.960182  0.250000  1
  F  F19  1  0.892098  0.539818  0.750000  1
