# generated using pymatgen
data_Ho5Pb3
_symmetry_space_group_name_H-M   'P 1'
_cell_length_a   9.02936500
_cell_length_b   9.02936500
_cell_length_c   6.60771977
_cell_angle_alpha   90.00000000
_cell_angle_beta   90.00000000
_cell_angle_gamma   120.00000000
_symmetry_Int_Tables_number   1
_chemical_formula_structural   Ho5Pb3
_chemical_formula_sum   'Ho10 Pb6'
_cell_volume   466.54835930
_cell_formula_units_Z   2
loop_
 _symmetry_equiv_pos_site_id
 _symmetry_equiv_pos_as_xyz
  1  'x, y, z'
loop_
 _atom_site_type_symbol
 _atom_site_label
 _atom_site_symmetry_multiplicity
 _atom_site_fract_x
 _atom_site_fract_y
 _atom_site_fract_z
 _atom_site_occupancy
  Ho  Ho0  1  0.333333  0.666667  0.000000  1
  Ho  Ho1  1  0.666667  0.333333  0.500000  1
  Ho  Ho2  1  0.666667  0.333333  0.000000  1
  Ho  Ho3  1  0.333333  0.666667  0.500000  1
  Ho  Ho4  1  0.236636  0.000000  0.250000  1
  Ho  Ho5  1  0.236636  0.236636  0.750000  1
  Ho  Ho6  1  0.000000  0.763364  0.750000  1
  Ho  Ho7  1  0.000000  0.236636  0.250000  1
  Ho  Ho8  1  0.763364  0.763364  0.250000  1
  Ho  Ho9  1  0.763364  0.000000  0.750000  1
  Pb  Pb10  1  0.605613  0.000000  0.250000  1
  Pb  Pb11  1  0.605613  0.605613  0.750000  1
  Pb  Pb12  1  0.000000  0.394387  0.750000  1
  Pb  Pb13  1  0.000000  0.605613  0.250000  1
  Pb  Pb14  1  0.394387  0.394387  0.250000  1
  Pb  Pb15  1  0.394387  0.000000  0.750000  1
