# generated using pymatgen
data_CrReO4
_symmetry_space_group_name_H-M   'P 1'
_cell_length_a   5.52421829
_cell_length_b   5.52421829
_cell_length_c   4.75155525
_cell_angle_alpha   88.05567383
_cell_angle_beta   91.94432617
_cell_angle_gamma   116.87001977
_symmetry_Int_Tables_number   1
_chemical_formula_structural   CrReO4
_chemical_formula_sum   'Cr2 Re2 O8'
_cell_volume   129.24517503
_cell_formula_units_Z   2
loop_
 _symmetry_equiv_pos_site_id
 _symmetry_equiv_pos_as_xyz
  1  'x, y, z'
loop_
 _atom_site_type_symbol
 _atom_site_label
 _atom_site_symmetry_multiplicity
 _atom_site_fract_x
 _atom_site_fract_y
 _atom_site_fract_z
 _atom_site_occupancy
  Cr  Cr0  1  0.263371  0.736629  0.492749  1
  Cr  Cr1  1  0.736629  0.263371  0.507251  1
  Re  Re2  1  0.222240  0.222240  0.000000  1
  Re  Re3  1  0.777760  0.777760  0.000000  1
  O  O4  1  0.591239  0.408761  0.816858  1
  O  O5  1  0.408761  0.591239  0.183142  1
  O  O6  1  0.884015  0.115985  0.212850  1
  O  O7  1  0.115985  0.884015  0.787150  1
  O  O8  1  0.906655  0.616350  0.297399  1
  O  O9  1  0.616350  0.906655  0.702601  1
  O  O10  1  0.093345  0.383650  0.702601  1
  O  O11  1  0.383650  0.093345  0.297399  1
