# generated using pymatgen
data_Be17Nb2
_symmetry_space_group_name_H-M   'P 1'
_cell_length_a   5.56194949
_cell_length_b   5.56194949
_cell_length_c   5.56194949
_cell_angle_alpha   83.13461253
_cell_angle_beta   83.13461253
_cell_angle_gamma   83.13461253
_symmetry_Int_Tables_number   1
_chemical_formula_structural   Be17Nb2
_chemical_formula_sum   'Be17 Nb2'
_cell_volume   168.63233051
_cell_formula_units_Z   1
loop_
 _symmetry_equiv_pos_site_id
 _symmetry_equiv_pos_as_xyz
  1  'x, y, z'
loop_
 _atom_site_type_symbol
 _atom_site_label
 _atom_site_symmetry_multiplicity
 _atom_site_fract_x
 _atom_site_fract_y
 _atom_site_fract_z
 _atom_site_occupancy
  Be  Be0  1  0.598918  0.598918  0.598918  1
  Be  Be1  1  0.401082  0.401082  0.401082  1
  Be  Be2  1  0.000000  0.500000  0.500000  1
  Be  Be3  1  0.500000  1.000000  0.500000  1
  Be  Be4  1  0.500000  0.500000  0.000000  1
  Be  Be5  1  0.793671  0.206329  0.500000  1
  Be  Be6  1  0.500000  0.793671  0.206329  1
  Be  Be7  1  0.206329  0.500000  0.793671  1
  Be  Be8  1  0.206329  0.793671  0.500000  1
  Be  Be9  1  0.500000  0.206329  0.793671  1
  Be  Be10  1  0.793671  0.500000  0.206329  1
  Be  Be11  1  0.846733  0.846733  0.339509  1
  Be  Be12  1  0.339509  0.846733  0.846733  1
  Be  Be13  1  0.846733  0.339509  0.846733  1
  Be  Be14  1  0.153267  0.660491  0.153267  1
  Be  Be15  1  0.153267  0.153267  0.660491  1
  Be  Be16  1  0.660491  0.153267  0.153267  1
  Nb  Nb17  1  0.841117  0.841117  0.841117  1
  Nb  Nb18  1  0.158883  0.158883  0.158883  1
