# generated using pymatgen
data_U2Al19Co6
_symmetry_space_group_name_H-M   'P 1'
_cell_length_a   10.61423274
_cell_length_b   10.61423274
_cell_length_c   8.15856291
_cell_angle_alpha   78.53480497
_cell_angle_beta   101.46519503
_cell_angle_gamma   111.11234256
_symmetry_Int_Tables_number   1
_chemical_formula_structural   U2Al19Co6
_chemical_formula_sum   'U4 Al38 Co12'
_cell_volume   832.18189040
_cell_formula_units_Z   2
loop_
 _symmetry_equiv_pos_site_id
 _symmetry_equiv_pos_as_xyz
  1  'x, y, z'
loop_
 _atom_site_type_symbol
 _atom_site_label
 _atom_site_symmetry_multiplicity
 _atom_site_fract_x
 _atom_site_fract_y
 _atom_site_fract_z
 _atom_site_occupancy
  U  U0  1  0.718854  0.281146  0.745507  1
  U  U1  1  0.281146  0.718854  0.254493  1
  U  U2  1  0.718511  0.281489  0.223691  1
  U  U3  1  0.281489  0.718511  0.776309  1
  Al  Al4  1  0.146779  0.200643  0.637155  1
  Al  Al5  1  0.814189  0.533760  0.945856  1
  Al  Al6  1  0.433711  0.329485  0.154968  1
  Al  Al7  1  0.515539  0.814263  0.551409  1
  Al  Al8  1  0.497128  0.001897  0.760556  1
  Al  Al9  1  0.001897  0.497128  0.239444  1
  Al  Al10  1  0.167574  0.167574  0.000000  1
  Al  Al11  1  0.090203  0.909797  0.185663  1
  Al  Al12  1  0.909797  0.090203  0.814337  1
  Al  Al13  1  0.082409  0.917591  0.644832  1
  Al  Al14  1  0.670515  0.566289  0.154968  1
  Al  Al15  1  0.533760  0.814189  0.054144  1
  Al  Al16  1  0.917591  0.082409  0.355168  1
  Al  Al17  1  0.832426  0.832426  0.000000  1
  Al  Al18  1  0.329485  0.433711  0.845032  1
  Al  Al19  1  0.068961  0.700412  0.466929  1
  Al  Al20  1  0.700412  0.068961  0.533071  1
  Al  Al21  1  0.853221  0.799357  0.362845  1
  Al  Al22  1  0.945662  0.278871  0.046286  1
  Al  Al23  1  0.278871  0.945662  0.953714  1
  Al  Al24  1  0.466240  0.185811  0.945856  1
  Al  Al25  1  0.799357  0.853221  0.637155  1
  Al  Al26  1  0.931039  0.299588  0.533071  1
  Al  Al27  1  0.436716  0.327821  0.648236  1
  Al  Al28  1  0.721129  0.054338  0.046286  1
  Al  Al29  1  0.484461  0.185737  0.448591  1
  Al  Al30  1  0.299588  0.931039  0.466929  1
  Al  Al31  1  0.672179  0.563284  0.648236  1
  Al  Al32  1  0.566289  0.670515  0.845032  1
  Al  Al33  1  0.563284  0.672179  0.351764  1
  Al  Al34  1  0.054338  0.721129  0.953714  1
  Al  Al35  1  0.200643  0.146779  0.362845  1
  Al  Al36  1  0.185811  0.466240  0.054144  1
  Al  Al37  1  0.814263  0.515539  0.448591  1
  Al  Al38  1  0.185737  0.484461  0.551409  1
  Al  Al39  1  0.998103  0.502872  0.760556  1
  Al  Al40  1  0.327821  0.436716  0.351764  1
  Al  Al41  1  0.502872  0.998103  0.239444  1
  Co  Co42  1  0.078144  0.320409  0.811057  1
  Co  Co43  1  0.313353  0.081557  0.670081  1
  Co  Co44  1  0.435937  0.564063  0.092500  1
  Co  Co45  1  0.679591  0.921856  0.811057  1
  Co  Co46  1  0.081557  0.313353  0.329919  1
  Co  Co47  1  0.564063  0.435937  0.907500  1
  Co  Co48  1  0.560953  0.439047  0.405132  1
  Co  Co49  1  0.686647  0.918443  0.329919  1
  Co  Co50  1  0.921856  0.679591  0.188943  1
  Co  Co51  1  0.918443  0.686647  0.670081  1
  Co  Co52  1  0.439047  0.560953  0.594868  1
  Co  Co53  1  0.320409  0.078144  0.188943  1
