# generated using pymatgen
data_Zn(FeO2)2
_symmetry_space_group_name_H-M   'P 1'
_cell_length_a   6.06705751
_cell_length_b   6.06705751
_cell_length_c   14.85353311
_cell_angle_alpha   90.00000000
_cell_angle_beta   90.00000000
_cell_angle_gamma   120.00000000
_symmetry_Int_Tables_number   1
_chemical_formula_structural   Zn(FeO2)2
_chemical_formula_sum   'Zn6 Fe12 O24'
_cell_volume   473.49633712
_cell_formula_units_Z   6
loop_
 _symmetry_equiv_pos_site_id
 _symmetry_equiv_pos_as_xyz
  1  'x, y, z'
loop_
 _atom_site_type_symbol
 _atom_site_label
 _atom_site_symmetry_multiplicity
 _atom_site_fract_x
 _atom_site_fract_y
 _atom_site_fract_z
 _atom_site_occupancy
  Zn  Zn0  1  0.666667  0.333333  0.955666  1
  Zn  Zn1  1  0.333333  0.666667  0.621434  1
  Zn  Zn2  1  0.000000  0.000000  0.665263  1
  Zn  Zn3  1  0.000000  0.000000  0.291967  1
  Zn  Zn4  1  0.333333  0.666667  0.999239  1
  Zn  Zn5  1  0.333333  0.666667  0.377010  1
  Fe  Fe6  1  0.169463  0.338926  0.833812  1
  Fe  Fe7  1  0.661074  0.830537  0.833812  1
  Fe  Fe8  1  0.835350  0.670700  0.500825  1
  Fe  Fe9  1  0.169463  0.830537  0.833812  1
  Fe  Fe10  1  0.329300  0.164650  0.500825  1
  Fe  Fe11  1  0.666667  0.333333  0.335608  1
  Fe  Fe12  1  0.666667  0.333333  0.711629  1
  Fe  Fe13  1  0.501116  0.002232  0.167538  1
  Fe  Fe14  1  0.835350  0.164650  0.500825  1
  Fe  Fe15  1  0.997768  0.498884  0.167538  1
  Fe  Fe16  1  0.501116  0.498884  0.167538  1
  Fe  Fe17  1  0.000000  0.000000  0.042916  1
  O  O18  1  0.488579  0.977157  0.909441  1
  O  O19  1  0.333333  0.666667  0.758390  1
  O  O20  1  0.022843  0.511421  0.909441  1
  O  O21  1  0.488579  0.511421  0.909441  1
  O  O22  1  0.155789  0.311578  0.575243  1
  O  O23  1  0.841137  0.158863  0.755828  1
  O  O24  1  0.000000  0.000000  0.425397  1
  O  O25  1  0.317727  0.158863  0.755828  1
  O  O26  1  0.000000  0.000000  0.910565  1
  O  O27  1  0.688422  0.844211  0.575243  1
  O  O28  1  0.155789  0.844211  0.575243  1
  O  O29  1  0.841137  0.682273  0.755828  1
  O  O30  1  0.819082  0.638163  0.246350  1
  O  O31  1  0.514917  0.485083  0.419986  1
  O  O32  1  0.970167  0.485083  0.419986  1
  O  O33  1  0.666667  0.333333  0.092832  1
  O  O34  1  0.666667  0.333333  0.579232  1
  O  O35  1  0.361837  0.180918  0.246350  1
  O  O36  1  0.819082  0.180918  0.246350  1
  O  O37  1  0.514917  0.029833  0.419986  1
  O  O38  1  0.172870  0.827130  0.089034  1
  O  O39  1  0.654259  0.827130  0.089034  1
  O  O40  1  0.333333  0.666667  0.238500  1
  O  O41  1  0.172870  0.345741  0.089034  1
