# generated using pymatgen
data_BAsO4
_symmetry_space_group_name_H-M   'P 1'
_cell_length_a   4.72681605
_cell_length_b   4.72681605
_cell_length_c   4.72681605
_cell_angle_alpha   121.96538508
_cell_angle_beta   121.96538508
_cell_angle_gamma   86.62828046
_symmetry_Int_Tables_number   1
_chemical_formula_structural   BAsO4
_chemical_formula_sum   'B1 As1 O4'
_cell_volume   72.32301017
_cell_formula_units_Z   1
loop_
 _symmetry_equiv_pos_site_id
 _symmetry_equiv_pos_as_xyz
  1  'x, y, z'
loop_
 _atom_site_type_symbol
 _atom_site_label
 _atom_site_symmetry_multiplicity
 _atom_site_fract_x
 _atom_site_fract_y
 _atom_site_fract_z
 _atom_site_occupancy
  B  B0  1  0.250000  0.750000  0.500000  1
  As  As1  1  1.000000  0.000000  0.000000  1
  O  O2  1  0.143803  0.021722  0.432182  1
  O  O3  1  0.288380  0.856197  0.877919  1
  O  O4  1  0.589540  0.711620  0.567818  1
  O  O5  1  0.978278  0.410460  0.122081  1
