# generated using pymatgen
data_Nb21S8
_symmetry_space_group_name_H-M   'P 1'
_cell_length_a   12.09464996
_cell_length_b   12.09464996
_cell_length_c   12.09464996
_cell_angle_alpha   91.11834977
_cell_angle_beta   91.11834977
_cell_angle_gamma   163.93838157
_symmetry_Int_Tables_number   1
_chemical_formula_structural   Nb21S8
_chemical_formula_sum   'Nb21 S8'
_cell_volume   484.68927536
_cell_formula_units_Z   1
loop_
 _symmetry_equiv_pos_site_id
 _symmetry_equiv_pos_as_xyz
  1  'x, y, z'
loop_
 _atom_site_type_symbol
 _atom_site_label
 _atom_site_symmetry_multiplicity
 _atom_site_fract_x
 _atom_site_fract_y
 _atom_site_fract_z
 _atom_site_occupancy
  Nb  Nb0  1  0.019886  0.721927  0.741813  1
  Nb  Nb1  1  0.814592  0.384051  0.198643  1
  Nb  Nb2  1  0.615949  0.814592  0.430542  1
  Nb  Nb3  1  0.384051  0.185408  0.569458  1
  Nb  Nb4  1  0.185408  0.615949  0.801357  1
  Nb  Nb5  1  0.802255  0.191840  0.994095  1
  Nb  Nb6  1  0.808160  0.802255  0.610415  1
  Nb  Nb7  1  0.191840  0.197745  0.389585  1
  Nb  Nb8  1  0.197745  0.808160  0.005905  1
  Nb  Nb9  1  0.635058  0.451304  0.086363  1
  Nb  Nb10  1  0.548696  0.635058  0.183754  1
  Nb  Nb11  1  0.451304  0.364942  0.816246  1
  Nb  Nb12  1  0.364942  0.548696  0.913637  1
  Nb  Nb13  1  0.278073  0.019886  0.297959  1
  Nb  Nb14  1  0.721927  0.980114  0.702041  1
  Nb  Nb15  1  0.980114  0.278073  0.258187  1
  Nb  Nb16  1  0.450233  0.918847  0.369080  1
  Nb  Nb17  1  0.081153  0.450233  0.531386  1
  Nb  Nb18  1  0.918847  0.549767  0.468614  1
  Nb  Nb19  1  0.549767  0.081153  0.630920  1
  Nb  Nb20  1  0.000000  0.000000  0.000000  1
  S  S21  1  0.364384  0.787100  0.151484  1
  S  S22  1  0.212900  0.364384  0.577284  1
  S  S23  1  0.787100  0.635616  0.422716  1
  S  S24  1  0.635616  0.212900  0.848516  1
  S  S25  1  0.063925  0.862580  0.926505  1
  S  S26  1  0.137420  0.063925  0.201345  1
  S  S27  1  0.862580  0.936075  0.798655  1
  S  S28  1  0.936075  0.137420  0.073495  1
