# generated using pymatgen
data_Ni2P5O16
_symmetry_space_group_name_H-M   'P 1'
_cell_length_a   5.02525337
_cell_length_b   6.75765931
_cell_length_c   18.85229326
_cell_angle_alpha   90.00000000
_cell_angle_beta   90.61988650
_cell_angle_gamma   90.00000000
_symmetry_Int_Tables_number   1
_chemical_formula_structural   Ni2P5O16
_chemical_formula_sum   'Ni4 P10 O32'
_cell_volume   640.16661965
_cell_formula_units_Z   2
loop_
 _symmetry_equiv_pos_site_id
 _symmetry_equiv_pos_as_xyz
  1  'x, y, z'
loop_
 _atom_site_type_symbol
 _atom_site_label
 _atom_site_symmetry_multiplicity
 _atom_site_fract_x
 _atom_site_fract_y
 _atom_site_fract_z
 _atom_site_occupancy
  Ni  Ni0  1  0.242884  0.180279  0.406549  1
  Ni  Ni1  1  0.757116  0.819721  0.593451  1
  Ni  Ni2  1  0.757116  0.180279  0.093451  1
  Ni  Ni3  1  0.242884  0.819721  0.906549  1
  P  P4  1  0.240876  0.134039  0.575729  1
  P  P5  1  0.759124  0.134039  0.924271  1
  P  P6  1  0.759124  0.865961  0.424271  1
  P  P7  1  0.000000  0.746109  0.750000  1
  P  P8  1  0.000000  0.253891  0.250000  1
  P  P9  1  0.734726  0.546122  0.868970  1
  P  P10  1  0.240876  0.865961  0.075729  1
  P  P11  1  0.734726  0.453878  0.368970  1
  P  P12  1  0.265274  0.546122  0.631030  1
  P  P13  1  0.265274  0.453878  0.131030  1
  O  O14  1  0.569481  0.985337  0.890186  1
  O  O15  1  0.657153  0.777776  0.493327  1
  O  O16  1  0.430519  0.014663  0.109814  1
  O  O17  1  0.200925  0.594308  0.712406  1
  O  O18  1  0.847866  0.863519  0.695497  1
  O  O19  1  0.952998  0.940866  0.069715  1
  O  O20  1  0.926319  0.648625  0.918950  1
  O  O21  1  0.952998  0.059134  0.569715  1
  O  O22  1  0.200925  0.405692  0.212406  1
  O  O23  1  0.657153  0.222224  0.993327  1
  O  O24  1  0.430519  0.985337  0.609814  1
  O  O25  1  0.441312  0.580371  0.880436  1
  O  O26  1  0.558688  0.580371  0.619564  1
  O  O27  1  0.926319  0.351375  0.418950  1
  O  O28  1  0.799075  0.594308  0.787594  1
  O  O29  1  0.781311  0.313142  0.867385  1
  O  O30  1  0.569481  0.014663  0.390186  1
  O  O31  1  0.047002  0.940866  0.430285  1
  O  O32  1  0.152134  0.863519  0.804503  1
  O  O33  1  0.218689  0.313142  0.632615  1
  O  O34  1  0.441312  0.419629  0.380436  1
  O  O35  1  0.799075  0.405692  0.287594  1
  O  O36  1  0.152134  0.136481  0.304503  1
  O  O37  1  0.073681  0.648625  0.581050  1
  O  O38  1  0.047002  0.059134  0.930285  1
  O  O39  1  0.558688  0.419629  0.119564  1
  O  O40  1  0.218689  0.686858  0.132615  1
  O  O41  1  0.342847  0.777776  0.006673  1
  O  O42  1  0.781311  0.686858  0.367385  1
  O  O43  1  0.847866  0.136481  0.195497  1
  O  O44  1  0.342847  0.222224  0.506673  1
  O  O45  1  0.073681  0.351375  0.081050  1
