# generated using pymatgen
data_LiCoP2O7
_symmetry_space_group_name_H-M   'P 1'
_cell_length_a   5.07604022
_cell_length_b   7.91864926
_cell_length_c   14.35654576
_cell_angle_alpha   90.00000000
_cell_angle_beta   110.45019241
_cell_angle_gamma   90.00000000
_symmetry_Int_Tables_number   1
_chemical_formula_structural   LiCoP2O7
_chemical_formula_sum   'Li4 Co4 P8 O28'
_cell_volume   540.69793938
_cell_formula_units_Z   4
loop_
 _symmetry_equiv_pos_site_id
 _symmetry_equiv_pos_as_xyz
  1  'x, y, z'
loop_
 _atom_site_type_symbol
 _atom_site_label
 _atom_site_symmetry_multiplicity
 _atom_site_fract_x
 _atom_site_fract_y
 _atom_site_fract_z
 _atom_site_occupancy
  Li  Li0  1  0.488228  0.272284  0.757624  1
  Li  Li1  1  0.511772  0.727716  0.242376  1
  Li  Li2  1  0.488228  0.227716  0.257624  1
  Li  Li3  1  0.511772  0.772284  0.742376  1
  Co  Co4  1  0.913199  0.847407  0.116660  1
  Co  Co5  1  0.913199  0.652593  0.616660  1
  Co  Co6  1  0.086801  0.347407  0.383340  1
  Co  Co7  1  0.086801  0.152593  0.883340  1
  P  P8  1  0.928887  0.467214  0.179207  1
  P  P9  1  0.071113  0.967214  0.320793  1
  P  P10  1  0.720746  0.205717  0.023670  1
  P  P11  1  0.071113  0.532786  0.820793  1
  P  P12  1  0.279254  0.794283  0.976330  1
  P  P13  1  0.720746  0.294283  0.523670  1
  P  P14  1  0.928887  0.032786  0.679207  1
  P  P15  1  0.279254  0.705717  0.476330  1
  O  O16  1  0.411899  0.319192  0.510482  1
  O  O17  1  0.201959  0.637027  0.757643  1
  O  O18  1  0.246772  0.035880  0.720274  1
  O  O19  1  0.770270  0.297003  0.423614  1
  O  O20  1  0.588101  0.819192  0.989518  1
  O  O21  1  0.915741  0.084654  0.102086  1
  O  O22  1  0.814946  0.108229  0.566792  1
  O  O23  1  0.229730  0.797003  0.076386  1
  O  O24  1  0.770270  0.202997  0.923614  1
  O  O25  1  0.411899  0.180808  0.010482  1
  O  O26  1  0.207036  0.145960  0.336572  1
  O  O27  1  0.753228  0.964120  0.279726  1
  O  O28  1  0.792964  0.854040  0.663428  1
  O  O29  1  0.229730  0.702997  0.576386  1
  O  O30  1  0.798041  0.362973  0.242357  1
  O  O31  1  0.185054  0.891771  0.433208  1
  O  O32  1  0.207036  0.354040  0.836572  1
  O  O33  1  0.084259  0.915346  0.897914  1
  O  O34  1  0.246772  0.464120  0.220274  1
  O  O35  1  0.753228  0.535880  0.779726  1
  O  O36  1  0.792964  0.645960  0.163428  1
  O  O37  1  0.084259  0.584654  0.397914  1
  O  O38  1  0.915741  0.415346  0.602086  1
  O  O39  1  0.201959  0.862973  0.257643  1
  O  O40  1  0.814946  0.391771  0.066792  1
  O  O41  1  0.185054  0.608229  0.933208  1
  O  O42  1  0.588101  0.680808  0.489518  1
  O  O43  1  0.798041  0.137027  0.742357  1
