# generated using pymatgen
data_Fe5CuO8
_symmetry_space_group_name_H-M   'P 1'
_cell_length_a   6.04008723
_cell_length_b   6.04008723
_cell_length_c   6.04008723
_cell_angle_alpha   60.00000000
_cell_angle_beta   60.00000000
_cell_angle_gamma   60.00000000
_symmetry_Int_Tables_number   1
_chemical_formula_structural   Fe5CuO8
_chemical_formula_sum   'Fe5 Cu1 O8'
_cell_volume   155.81692634
_cell_formula_units_Z   1
loop_
 _symmetry_equiv_pos_site_id
 _symmetry_equiv_pos_as_xyz
  1  'x, y, z'
loop_
 _atom_site_type_symbol
 _atom_site_label
 _atom_site_symmetry_multiplicity
 _atom_site_fract_x
 _atom_site_fract_y
 _atom_site_fract_z
 _atom_site_occupancy
  Fe  Fe0  1  0.500000  0.500000  0.500000  1
  Fe  Fe1  1  0.877871  0.877871  0.366388  1
  Fe  Fe2  1  0.366388  0.877871  0.877871  1
  Fe  Fe3  1  0.877871  0.877871  0.877871  1
  Fe  Fe4  1  0.877871  0.366388  0.877871  1
  Cu  Cu5  1  0.250000  0.250000  0.250000  1
  O  O6  1  0.113307  0.660079  0.113307  1
  O  O7  1  0.113307  0.113307  0.113307  1
  O  O8  1  0.660079  0.113307  0.113307  1
  O  O9  1  0.113307  0.113307  0.660079  1
  O  O10  1  0.632555  0.632555  0.102335  1
  O  O11  1  0.102335  0.632555  0.632555  1
  O  O12  1  0.632555  0.632555  0.632555  1
  O  O13  1  0.632555  0.102335  0.632555  1
