# generated using pymatgen
data_Ba(NdS2)2
_symmetry_space_group_name_H-M   'P 1'
_cell_length_a   7.67853911
_cell_length_b   7.67853911
_cell_length_c   7.67853911
_cell_angle_alpha   109.46163146
_cell_angle_beta   109.46163146
_cell_angle_gamma   109.49040068
_symmetry_Int_Tables_number   1
_chemical_formula_structural   Ba(NdS2)2
_chemical_formula_sum   'Ba2 Nd4 S8'
_cell_volume   348.50890061
_cell_formula_units_Z   2
loop_
 _symmetry_equiv_pos_site_id
 _symmetry_equiv_pos_as_xyz
  1  'x, y, z'
loop_
 _atom_site_type_symbol
 _atom_site_label
 _atom_site_symmetry_multiplicity
 _atom_site_fract_x
 _atom_site_fract_y
 _atom_site_fract_z
 _atom_site_occupancy
  Ba  Ba0  1  0.250000  0.750000  0.500000  1
  Ba  Ba1  1  0.000000  0.000000  0.000000  1
  Nd  Nd2  1  0.625000  0.253537  0.128537  1
  Nd  Nd3  1  0.503537  0.375000  0.628537  1
  Nd  Nd4  1  0.125000  0.496463  0.871463  1
  Nd  Nd5  1  0.746463  0.875000  0.371463  1
  S  S6  1  0.732721  0.142572  0.745319  1
  S  S7  1  0.012597  0.267279  0.409851  1
  S  S8  1  0.392572  0.482721  0.245319  1
  S  S9  1  0.852746  0.607428  0.090149  1
  S  S10  1  0.517279  0.762597  0.909851  1
  S  S11  1  0.857428  0.602746  0.590149  1
  S  S12  1  0.397254  0.987403  0.254681  1
  S  S13  1  0.237403  0.147254  0.754681  1
