# generated using pymatgen
data_Ce2Nd2O7
_symmetry_space_group_name_H-M   'P 1'
_cell_length_a   9.57380695
_cell_length_b   9.58795350
_cell_length_c   9.66860630
_cell_angle_alpha   109.24753322
_cell_angle_beta   109.80763288
_cell_angle_gamma   108.97674881
_symmetry_Int_Tables_number   1
_chemical_formula_structural   Ce2Nd2O7
_chemical_formula_sum   'Ce8 Nd8 O28'
_cell_volume   686.37908372
_cell_formula_units_Z   4
loop_
 _symmetry_equiv_pos_site_id
 _symmetry_equiv_pos_as_xyz
  1  'x, y, z'
loop_
 _atom_site_type_symbol
 _atom_site_label
 _atom_site_symmetry_multiplicity
 _atom_site_fract_x
 _atom_site_fract_y
 _atom_site_fract_z
 _atom_site_occupancy
  Ce  Ce0  1  0.248585  0.250812  0.994251  1
  Ce  Ce1  1  0.526416  0.272682  0.770206  1
  Ce  Ce2  1  0.498687  0.494741  0.495960  1
  Ce  Ce3  1  0.493716  0.744874  0.248827  1
  Ce  Ce4  1  0.758928  0.755367  0.003936  1
  Ce  Ce5  1  0.495711  0.996966  0.995055  1
  Ce  Ce6  1  0.748448  0.003130  0.749886  1
  Ce  Ce7  1  0.997605  0.246555  0.228019  1
  Nd  Nd8  1  0.994349  0.765846  0.763218  1
  Nd  Nd9  1  0.240806  0.997592  0.225473  1
  Nd  Nd10  1  0.972937  0.007824  0.495490  1
  Nd  Nd11  1  0.006023  0.510979  0.029439  1
  Nd  Nd12  1  0.295052  0.519086  0.772670  1
  Nd  Nd13  1  0.269575  0.725124  0.504499  1
  Nd  Nd14  1  0.698725  0.229502  0.478698  1
  Nd  Nd15  1  0.733882  0.479070  0.241645  1
  O  O16  1  0.234148  0.737901  0.746037  1
  O  O17  1  0.254424  0.240638  0.725694  1
  O  O18  1  0.000352  0.017552  0.261411  1
  O  O19  1  0.246264  0.470997  0.495546  1
  O  O20  1  0.995766  0.240648  0.992558  1
  O  O21  1  0.264914  0.769788  0.276132  1
  O  O22  1  0.249014  0.256927  0.235454  1
  O  O23  1  0.741314  0.006772  0.989992  1
  O  O24  1  0.510017  0.738391  0.498207  1
  O  O25  1  0.502676  0.241026  0.998298  1
  O  O26  1  0.527343  0.514271  0.758150  1
  O  O27  1  0.243334  0.505294  0.991970  1
  O  O28  1  0.483415  0.493480  0.236654  1
  O  O29  1  0.524733  0.757510  0.014779  1
  O  O30  1  0.467666  0.232678  0.498287  1
  O  O31  1  0.253860  0.013347  0.994630  1
  O  O32  1  0.746804  0.768280  0.762915  1
  O  O33  1  0.492877  0.006099  0.731050  1
  O  O34  1  0.992538  0.740753  0.989062  1
  O  O35  1  0.762497  0.274971  0.756637  1
  O  O36  1  0.485932  0.986257  0.224781  1
  O  O37  1  0.753304  0.506305  0.512198  1
  O  O38  1  0.993765  0.994484  0.736712  1
  O  O39  1  0.769265  0.747940  0.280753  1
  O  O40  1  0.743836  0.506854  0.006100  1
  O  O41  1  0.774210  0.236637  0.268358  1
  O  O42  1  0.742198  0.009474  0.496909  1
  O  O43  1  0.001991  0.503941  0.266186  1
