# generated using pymatgen
data_LaScO3
_symmetry_space_group_name_H-M   'P 1'
_cell_length_a   5.70556683
_cell_length_b   5.83691774
_cell_length_c   8.15521334
_cell_angle_alpha   90.00000000
_cell_angle_beta   90.00000000
_cell_angle_gamma   90.00000000
_symmetry_Int_Tables_number   1
_chemical_formula_structural   LaScO3
_chemical_formula_sum   'La4 Sc4 O12'
_cell_volume   271.59245208
_cell_formula_units_Z   4
loop_
 _symmetry_equiv_pos_site_id
 _symmetry_equiv_pos_as_xyz
  1  'x, y, z'
loop_
 _atom_site_type_symbol
 _atom_site_label
 _atom_site_symmetry_multiplicity
 _atom_site_fract_x
 _atom_site_fract_y
 _atom_site_fract_z
 _atom_site_occupancy
  La  La0  1  0.988132  0.044964  0.750000  1
  La  La1  1  0.488132  0.455036  0.250000  1
  La  La2  1  0.511868  0.544964  0.750000  1
  La  La3  1  0.011868  0.955036  0.250000  1
  Sc  Sc4  1  0.000000  0.500000  0.500000  1
  Sc  Sc5  1  0.500000  0.000000  0.500000  1
  Sc  Sc6  1  0.500000  0.000000  0.000000  1
  Sc  Sc7  1  0.000000  0.500000  0.000000  1
  O  O8  1  0.703569  0.296598  0.554549  1
  O  O9  1  0.203569  0.203402  0.445451  1
  O  O10  1  0.796431  0.796598  0.945451  1
  O  O11  1  0.296431  0.703402  0.054549  1
  O  O12  1  0.296431  0.703402  0.445451  1
  O  O13  1  0.796431  0.796598  0.554549  1
  O  O14  1  0.203569  0.203402  0.054549  1
  O  O15  1  0.703569  0.296598  0.945451  1
  O  O16  1  0.897740  0.534917  0.250000  1
  O  O17  1  0.397740  0.965083  0.750000  1
  O  O18  1  0.602260  0.034917  0.250000  1
  O  O19  1  0.102260  0.465083  0.750000  1
