# generated using pymatgen
data_DyZn3
_symmetry_space_group_name_H-M   'P 1'
_cell_length_a   4.38718388
_cell_length_b   6.69092809
_cell_length_c   10.09994698
_cell_angle_alpha   90.00000000
_cell_angle_beta   90.00000000
_cell_angle_gamma   90.00000000
_symmetry_Int_Tables_number   1
_chemical_formula_structural   DyZn3
_chemical_formula_sum   'Dy4 Zn12'
_cell_volume   296.47719541
_cell_formula_units_Z   4
loop_
 _symmetry_equiv_pos_site_id
 _symmetry_equiv_pos_as_xyz
  1  'x, y, z'
loop_
 _atom_site_type_symbol
 _atom_site_label
 _atom_site_symmetry_multiplicity
 _atom_site_fract_x
 _atom_site_fract_y
 _atom_site_fract_z
 _atom_site_occupancy
  Dy  Dy0  1  0.250000  0.776734  0.838243  1
  Dy  Dy1  1  0.750000  0.223266  0.161757  1
  Dy  Dy2  1  0.250000  0.276734  0.661757  1
  Dy  Dy3  1  0.750000  0.723266  0.338243  1
  Zn  Zn4  1  0.250000  0.038487  0.393239  1
  Zn  Zn5  1  0.750000  0.961513  0.606761  1
  Zn  Zn6  1  0.250000  0.538487  0.106761  1
  Zn  Zn7  1  0.750000  0.461513  0.893239  1
  Zn  Zn8  1  0.750000  0.779328  0.043283  1
  Zn  Zn9  1  0.250000  0.220672  0.956717  1
  Zn  Zn10  1  0.750000  0.279328  0.456717  1
  Zn  Zn11  1  0.250000  0.720672  0.543283  1
  Zn  Zn12  1  0.750000  0.079368  0.854214  1
  Zn  Zn13  1  0.250000  0.920632  0.145786  1
  Zn  Zn14  1  0.750000  0.579368  0.645786  1
  Zn  Zn15  1  0.250000  0.420632  0.354214  1
