# generated using pymatgen
data_Na2S2O7
_symmetry_space_group_name_H-M   'P 1'
_cell_length_a   6.88532700
_cell_length_b   6.92737441
_cell_length_c   6.97503128
_cell_angle_alpha   83.85994289
_cell_angle_beta   63.62070704
_cell_angle_gamma   83.60001899
_symmetry_Int_Tables_number   1
_chemical_formula_structural   Na2S2O7
_chemical_formula_sum   'Na4 S4 O14'
_cell_volume   295.57315433
_cell_formula_units_Z   2
loop_
 _symmetry_equiv_pos_site_id
 _symmetry_equiv_pos_as_xyz
  1  'x, y, z'
loop_
 _atom_site_type_symbol
 _atom_site_label
 _atom_site_symmetry_multiplicity
 _atom_site_fract_x
 _atom_site_fract_y
 _atom_site_fract_z
 _atom_site_occupancy
  Na  Na0  1  0.775107  0.864224  0.176031  1
  Na  Na1  1  0.224893  0.135776  0.823969  1
  Na  Na2  1  0.384687  0.335898  0.243086  1
  Na  Na3  1  0.615313  0.664102  0.756914  1
  S  S4  1  0.269726  0.840634  0.252248  1
  S  S5  1  0.730274  0.159366  0.747752  1
  S  S6  1  0.142439  0.639701  0.685114  1
  S  S7  1  0.857561  0.360299  0.314886  1
  O  O8  1  0.235308  0.447107  0.608817  1
  O  O9  1  0.764692  0.552893  0.391183  1
  O  O10  1  0.710519  0.243293  0.286874  1
  O  O11  1  0.289481  0.756707  0.713126  1
  O  O12  1  0.921580  0.643398  0.855485  1
  O  O13  1  0.078420  0.356602  0.144515  1
  O  O14  1  0.088923  0.758891  0.486840  1
  O  O15  1  0.911077  0.241109  0.513160  1
  O  O16  1  0.383036  0.988062  0.290288  1
  O  O17  1  0.616964  0.011938  0.709712  1
  O  O18  1  0.582001  0.326134  0.848616  1
  O  O19  1  0.417999  0.673866  0.151384  1
  O  O20  1  0.871877  0.083668  0.847237  1
  O  O21  1  0.128123  0.916332  0.152763  1
