# generated using pymatgen
data_Ag3(PO4)2
_symmetry_space_group_name_H-M   'P 1'
_cell_length_a   5.87781057
_cell_length_b   5.87781057
_cell_length_c   5.87781057
_cell_angle_alpha   86.52273872
_cell_angle_beta   86.52273872
_cell_angle_gamma   86.52273872
_symmetry_Int_Tables_number   1
_chemical_formula_structural   Ag3(PO4)2
_chemical_formula_sum   'Ag3 P2 O8'
_cell_volume   201.99235199
_cell_formula_units_Z   1
loop_
 _symmetry_equiv_pos_site_id
 _symmetry_equiv_pos_as_xyz
  1  'x, y, z'
loop_
 _atom_site_type_symbol
 _atom_site_label
 _atom_site_symmetry_multiplicity
 _atom_site_fract_x
 _atom_site_fract_y
 _atom_site_fract_z
 _atom_site_occupancy
  Ag  Ag0  1  0.990612  0.516326  0.258075  1
  Ag  Ag1  1  0.516326  0.258075  0.990612  1
  Ag  Ag2  1  0.258075  0.990612  0.516326  1
  P  P3  1  0.013789  0.013789  0.013789  1
  P  P4  1  0.486205  0.486205  0.486205  1
  O  O5  1  0.874394  0.874394  0.874394  1
  O  O6  1  0.861118  0.211105  0.127617  1
  O  O7  1  0.632168  0.631471  0.314048  1
  O  O8  1  0.631471  0.314048  0.632168  1
  O  O9  1  0.314048  0.632168  0.631471  1
  O  O10  1  0.333072  0.333072  0.333072  1
  O  O11  1  0.127617  0.861118  0.211105  1
  O  O12  1  0.211105  0.127617  0.861118  1
