# generated using pymatgen
data_Pr2USe4
_symmetry_space_group_name_H-M   'P 1'
_cell_length_a   7.70755872
_cell_length_b   7.70755872
_cell_length_c   7.70755872
_cell_angle_alpha   109.33885795
_cell_angle_beta   109.33885795
_cell_angle_gamma   109.73627158
_symmetry_Int_Tables_number   1
_chemical_formula_structural   Pr2USe4
_chemical_formula_sum   'Pr4 U2 Se8'
_cell_volume   352.46959608
_cell_formula_units_Z   2
loop_
 _symmetry_equiv_pos_site_id
 _symmetry_equiv_pos_as_xyz
  1  'x, y, z'
loop_
 _atom_site_type_symbol
 _atom_site_label
 _atom_site_symmetry_multiplicity
 _atom_site_fract_x
 _atom_site_fract_y
 _atom_site_fract_z
 _atom_site_occupancy
  Pr  Pr0  1  0.125000  0.501150  0.876150  1
  Pr  Pr1  1  0.625000  0.248850  0.123850  1
  Pr  Pr2  1  0.498850  0.375000  0.623850  1
  Pr  Pr3  1  0.751150  0.875000  0.376150  1
  U  U4  1  1.000000  1.000000  0.000000  1
  U  U5  1  0.250000  0.750000  0.500000  1
  Se  Se6  1  0.881025  0.630011  0.101107  1
  Se  Se7  1  0.880011  0.631025  0.601107  1
  Se  Se8  1  0.029918  0.278904  0.398893  1
  Se  Se9  1  0.369989  0.471096  0.251015  1
  Se  Se10  1  0.220082  0.118975  0.748985  1
  Se  Se11  1  0.528904  0.779918  0.898893  1
  Se  Se12  1  0.368975  0.970082  0.248985  1
  Se  Se13  1  0.721096  0.119989  0.751015  1
