# generated using pymatgen
data_Pr12InPt7
_symmetry_space_group_name_H-M   'P 1'
_cell_length_a   11.35040189
_cell_length_b   11.35040189
_cell_length_c   11.35040189
_cell_angle_alpha   114.84205786
_cell_angle_beta   114.84205786
_cell_angle_gamma   99.19316086
_symmetry_Int_Tables_number   1
_chemical_formula_structural   Pr12InPt7
_chemical_formula_sum   'Pr24 In2 Pt14'
_cell_volume   1099.23085692
_cell_formula_units_Z   2
loop_
 _symmetry_equiv_pos_site_id
 _symmetry_equiv_pos_as_xyz
  1  'x, y, z'
loop_
 _atom_site_type_symbol
 _atom_site_label
 _atom_site_symmetry_multiplicity
 _atom_site_fract_x
 _atom_site_fract_y
 _atom_site_fract_z
 _atom_site_occupancy
  Pr  Pr0  1  0.569258  0.435206  0.719070  1
  Pr  Pr1  1  0.283864  0.149812  0.719070  1
  Pr  Pr2  1  0.430742  0.564794  0.280930  1
  Pr  Pr3  1  0.069258  0.350188  0.134052  1
  Pr  Pr4  1  0.149812  0.430742  0.865948  1
  Pr  Pr5  1  0.564794  0.283864  0.134052  1
  Pr  Pr6  1  0.783864  0.064794  0.134052  1
  Pr  Pr7  1  0.064794  0.930742  0.280930  1
  Pr  Pr8  1  0.649812  0.783864  0.719070  1
  Pr  Pr9  1  0.716136  0.850188  0.280930  1
  Pr  Pr10  1  0.174977  0.325023  0.500000  1
  Pr  Pr11  1  0.930742  0.649812  0.865948  1
  Pr  Pr12  1  0.850188  0.569258  0.134052  1
  Pr  Pr13  1  0.435206  0.716136  0.865948  1
  Pr  Pr14  1  0.135929  0.635929  0.500000  1
  Pr  Pr15  1  0.635929  0.135929  0.500000  1
  Pr  Pr16  1  0.364071  0.864071  0.500000  1
  Pr  Pr17  1  0.864071  0.364071  0.500000  1
  Pr  Pr18  1  0.325023  0.825023  0.150046  1
  Pr  Pr19  1  0.935206  0.069258  0.719070  1
  Pr  Pr20  1  0.674977  0.174977  0.849954  1
  Pr  Pr21  1  0.825023  0.674977  0.500000  1
  Pr  Pr22  1  0.216136  0.935206  0.865948  1
  Pr  Pr23  1  0.350188  0.216136  0.280930  1
  In  In24  1  0.500000  0.500000  0.000000  1
  In  In25  1  0.000000  0.000000  0.000000  1
  Pt  Pt26  1  0.870037  0.370037  0.849337  1
  Pt  Pt27  1  0.129963  0.629963  0.150663  1
  Pt  Pt28  1  0.479300  0.979300  0.849337  1
  Pt  Pt29  1  0.020700  0.870037  0.500000  1
  Pt  Pt30  1  0.629963  0.479300  0.500000  1
  Pt  Pt31  1  0.979300  0.129963  0.500000  1
  Pt  Pt32  1  0.625600  0.874400  0.500000  1
  Pt  Pt33  1  0.874400  0.374400  0.248799  1
  Pt  Pt34  1  0.125600  0.625600  0.751201  1
  Pt  Pt35  1  0.374400  0.125600  0.500000  1
  Pt  Pt36  1  0.250000  0.250000  0.000000  1
  Pt  Pt37  1  0.750000  0.750000  0.000000  1
  Pt  Pt38  1  0.520700  0.020700  0.150663  1
  Pt  Pt39  1  0.370037  0.520700  0.500000  1
