# generated using pymatgen
data_Si19Te8
_symmetry_space_group_name_H-M   'P 1'
_cell_length_a   10.55554925
_cell_length_b   10.55554925
_cell_length_c   10.55554925
_cell_angle_alpha   89.64445393
_cell_angle_beta   89.64445393
_cell_angle_gamma   89.64445393
_symmetry_Int_Tables_number   1
_chemical_formula_structural   Si19Te8
_chemical_formula_sum   'Si38 Te16'
_cell_volume   1176.02763251
_cell_formula_units_Z   2
loop_
 _symmetry_equiv_pos_site_id
 _symmetry_equiv_pos_as_xyz
  1  'x, y, z'
loop_
 _atom_site_type_symbol
 _atom_site_label
 _atom_site_symmetry_multiplicity
 _atom_site_fract_x
 _atom_site_fract_y
 _atom_site_fract_z
 _atom_site_occupancy
  Si  Si0  1  0.530158  0.618292  0.168527  1
  Si  Si1  1  0.618292  0.168527  0.530158  1
  Si  Si2  1  0.168527  0.530158  0.618292  1
  Si  Si3  1  0.668527  0.118292  0.030158  1
  Si  Si4  1  0.856626  0.856626  0.856626  1
  Si  Si5  1  0.356626  0.356626  0.356626  1
  Si  Si6  1  0.118292  0.030158  0.668527  1
  Si  Si7  1  0.030158  0.668527  0.118292  1
  Si  Si8  1  0.426429  0.417971  0.149870  1
  Si  Si9  1  0.417971  0.149870  0.426429  1
  Si  Si10  1  0.149870  0.426429  0.417971  1
  Si  Si11  1  0.649870  0.917971  0.926429  1
  Si  Si12  1  0.917971  0.926429  0.649870  1
  Si  Si13  1  0.926429  0.649870  0.917971  1
  Si  Si14  1  0.503599  0.388733  0.817906  1
  Si  Si15  1  0.388733  0.817906  0.503599  1
  Si  Si16  1  0.817906  0.503599  0.388733  1
  Si  Si17  1  0.317906  0.888733  0.003599  1
  Si  Si18  1  0.992057  0.503025  0.758022  1
  Si  Si19  1  0.758022  0.992057  0.503025  1
  Si  Si20  1  0.503025  0.758022  0.992057  1
  Si  Si21  1  0.003025  0.492057  0.258022  1
  Si  Si22  1  0.258022  0.003025  0.492057  1
  Si  Si23  1  0.492057  0.258022  0.003025  1
  Si  Si24  1  0.165259  0.174326  0.830702  1
  Si  Si25  1  0.830702  0.165259  0.174325  1
  Si  Si26  1  0.174326  0.830702  0.165259  1
  Si  Si27  1  0.674326  0.665259  0.330702  1
  Si  Si28  1  0.330702  0.674326  0.665259  1
  Si  Si29  1  0.665259  0.330702  0.674325  1
  Si  Si30  1  0.980223  0.319217  0.113895  1
  Si  Si31  1  0.113895  0.980223  0.319217  1
  Si  Si32  1  0.319217  0.113895  0.980223  1
  Si  Si33  1  0.819217  0.480223  0.613895  1
  Si  Si34  1  0.613895  0.819217  0.480223  1
  Si  Si35  1  0.480223  0.613895  0.819217  1
  Si  Si36  1  0.003599  0.317906  0.888733  1
  Si  Si37  1  0.888733  0.003599  0.317906  1
  Te  Te38  1  0.309176  0.316557  0.682554  1
  Te  Te39  1  0.316557  0.682554  0.309176  1
  Te  Te40  1  0.682554  0.309176  0.316557  1
  Te  Te41  1  0.182554  0.816557  0.809176  1
  Te  Te42  1  0.816557  0.809176  0.182554  1
  Te  Te43  1  0.809176  0.182554  0.816557  1
  Te  Te44  1  0.005204  0.246594  0.509320  1
  Te  Te45  1  0.246594  0.509320  0.005204  1
  Te  Te46  1  0.509320  0.005204  0.246594  1
  Te  Te47  1  0.009320  0.746594  0.505204  1
  Te  Te48  1  0.746594  0.505204  0.009320  1
  Te  Te49  1  0.505204  0.009320  0.746594  1
  Te  Te50  1  0.687842  0.687842  0.687842  1
  Te  Te51  1  0.187842  0.187842  0.187842  1
  Te  Te52  1  0.500046  0.500046  0.500046  1
  Te  Te53  1  0.000046  0.000046  0.000046  1
