# generated using pymatgen
data_Tb2Te4O11
_symmetry_space_group_name_H-M   'P 1'
_cell_length_a   6.78003484
_cell_length_b   6.78003484
_cell_length_c   16.38412358
_cell_angle_alpha   76.06143272
_cell_angle_beta   103.93856728
_cell_angle_gamma   134.98426278
_symmetry_Int_Tables_number   1
_chemical_formula_structural   Tb2Te4O11
_chemical_formula_sum   'Tb4 Te8 O22'
_cell_volume   514.28318915
_cell_formula_units_Z   2
loop_
 _symmetry_equiv_pos_site_id
 _symmetry_equiv_pos_as_xyz
  1  'x, y, z'
loop_
 _atom_site_type_symbol
 _atom_site_label
 _atom_site_symmetry_multiplicity
 _atom_site_fract_x
 _atom_site_fract_y
 _atom_site_fract_z
 _atom_site_occupancy
  Tb  Tb0  1  0.131011  0.368986  0.462751  1
  Tb  Tb1  1  0.368986  0.131011  0.037249  1
  Tb  Tb2  1  0.868989  0.631014  0.537249  1
  Tb  Tb3  1  0.631014  0.868989  0.962751  1
  Te  Te4  1  0.600470  0.842425  0.301820  1
  Te  Te5  1  0.842425  0.600470  0.198180  1
  Te  Te6  1  0.399530  0.157575  0.698180  1
  Te  Te7  1  0.157575  0.399530  0.801820  1
  Te  Te8  1  0.153562  0.411745  0.125033  1
  Te  Te9  1  0.411745  0.153562  0.374967  1
  Te  Te10  1  0.846438  0.588255  0.874967  1
  Te  Te11  1  0.588255  0.846438  0.625033  1
  O  O12  1  0.854062  0.854062  0.250000  1
  O  O13  1  0.145938  0.145938  0.750000  1
  O  O14  1  0.204853  0.907629  0.167355  1
  O  O15  1  0.907629  0.204853  0.332645  1
  O  O16  1  0.795147  0.092371  0.832645  1
  O  O17  1  0.092371  0.795147  0.667355  1
  O  O18  1  0.603243  0.554945  0.096674  1
  O  O19  1  0.554945  0.603243  0.403326  1
  O  O20  1  0.396757  0.445055  0.903326  1
  O  O21  1  0.445055  0.396757  0.596674  1
  O  O22  1  0.039180  0.178356  0.044975  1
  O  O23  1  0.178356  0.039180  0.455025  1
  O  O24  1  0.683268  0.189294  0.627154  1
  O  O25  1  0.189294  0.683268  0.872846  1
  O  O26  1  0.316732  0.810706  0.372846  1
  O  O27  1  0.810706  0.316732  0.127154  1
  O  O28  1  0.247451  0.663381  0.552447  1
  O  O29  1  0.663381  0.247451  0.947553  1
  O  O30  1  0.752549  0.336619  0.447553  1
  O  O31  1  0.336619  0.752549  0.052447  1
  O  O32  1  0.821644  0.960820  0.544975  1
  O  O33  1  0.960820  0.821644  0.955025  1
