# generated using pymatgen
data_Th2Al7
_symmetry_space_group_name_H-M   'P 1'
_cell_length_a   5.55318748
_cell_length_b   5.86976548
_cell_length_c   11.49104035
_cell_angle_alpha   90.00000000
_cell_angle_beta   90.00000000
_cell_angle_gamma   90.00000000
_symmetry_Int_Tables_number   1
_chemical_formula_structural   Th2Al7
_chemical_formula_sum   'Th4 Al14'
_cell_volume   374.56089607
_cell_formula_units_Z   2
loop_
 _symmetry_equiv_pos_site_id
 _symmetry_equiv_pos_as_xyz
  1  'x, y, z'
loop_
 _atom_site_type_symbol
 _atom_site_label
 _atom_site_symmetry_multiplicity
 _atom_site_fract_x
 _atom_site_fract_y
 _atom_site_fract_z
 _atom_site_occupancy
  Th  Th0  1  0.000000  0.856094  0.852727  1
  Th  Th1  1  0.000000  0.143906  0.147273  1
  Th  Th2  1  0.000000  0.356094  0.647273  1
  Th  Th3  1  0.000000  0.643906  0.352727  1
  Al  Al4  1  0.500000  0.000000  0.000000  1
  Al  Al5  1  0.500000  0.500000  0.500000  1
  Al  Al6  1  0.500000  0.597227  0.751743  1
  Al  Al7  1  0.500000  0.402773  0.248257  1
  Al  Al8  1  0.500000  0.097227  0.748257  1
  Al  Al9  1  0.500000  0.902773  0.251743  1
  Al  Al10  1  0.762195  0.852373  0.591276  1
  Al  Al11  1  0.762195  0.147627  0.408724  1
  Al  Al12  1  0.237805  0.352373  0.908724  1
  Al  Al13  1  0.237805  0.647627  0.091276  1
  Al  Al14  1  0.237805  0.147627  0.408724  1
  Al  Al15  1  0.237805  0.852373  0.591276  1
  Al  Al16  1  0.762195  0.647627  0.091276  1
  Al  Al17  1  0.762195  0.352373  0.908724  1
