# generated using pymatgen
data_LiMoPO5
_symmetry_space_group_name_H-M   'P 1'
_cell_length_a   6.53695936
_cell_length_b   10.80641434
_cell_length_c   13.12885849
_cell_angle_alpha   90.00000000
_cell_angle_beta   90.00000000
_cell_angle_gamma   90.00000000
_symmetry_Int_Tables_number   1
_chemical_formula_structural   LiMoPO5
_chemical_formula_sum   'Li8 Mo8 P8 O40'
_cell_volume   927.43689215
_cell_formula_units_Z   8
loop_
 _symmetry_equiv_pos_site_id
 _symmetry_equiv_pos_as_xyz
  1  'x, y, z'
loop_
 _atom_site_type_symbol
 _atom_site_label
 _atom_site_symmetry_multiplicity
 _atom_site_fract_x
 _atom_site_fract_y
 _atom_site_fract_z
 _atom_site_occupancy
  Li  Li0  1  0.431099  0.553671  0.908973  1
  Li  Li1  1  0.068901  0.553671  0.408973  1
  Li  Li2  1  0.766086  0.267698  0.768041  1
  Li  Li3  1  0.266086  0.767698  0.731959  1
  Li  Li4  1  0.733914  0.267698  0.268041  1
  Li  Li5  1  0.568901  0.053671  0.091027  1
  Li  Li6  1  0.931099  0.053671  0.591027  1
  Li  Li7  1  0.233914  0.767698  0.231959  1
  Mo  Mo8  1  0.772807  0.748455  0.771513  1
  Mo  Mo9  1  0.272807  0.248455  0.728487  1
  Mo  Mo10  1  0.023167  0.513386  0.632288  1
  Mo  Mo11  1  0.227193  0.248455  0.228487  1
  Mo  Mo12  1  0.523167  0.013386  0.867712  1
  Mo  Mo13  1  0.727193  0.748455  0.271513  1
  Mo  Mo14  1  0.976833  0.013386  0.367712  1
  Mo  Mo15  1  0.476833  0.513386  0.132288  1
  P  P16  1  0.341166  0.272679  0.981569  1
  P  P17  1  0.527922  0.506374  0.689329  1
  P  P18  1  0.027922  0.006374  0.810671  1
  P  P19  1  0.658834  0.772679  0.018431  1
  P  P20  1  0.841166  0.772679  0.518431  1
  P  P21  1  0.158834  0.272679  0.481569  1
  P  P22  1  0.972078  0.506374  0.189329  1
  P  P23  1  0.472078  0.006374  0.310671  1
  O  O24  1  0.977661  0.860530  0.287059  1
  O  O25  1  0.022339  0.360530  0.712941  1
  O  O26  1  0.949459  0.603513  0.278461  1
  O  O27  1  0.210278  0.004044  0.882737  1
  O  O28  1  0.512133  0.139728  0.759793  1
  O  O29  1  0.802971  0.748234  0.926739  1
  O  O30  1  0.489346  0.879776  0.254867  1
  O  O31  1  0.697029  0.748234  0.426739  1
  O  O32  1  0.550541  0.603513  0.778461  1
  O  O33  1  0.789722  0.504044  0.117263  1
  O  O34  1  0.214036  0.271172  0.882732  1
  O  O35  1  0.837232  0.039449  0.872306  1
  O  O36  1  0.197029  0.248234  0.073261  1
  O  O37  1  0.987867  0.139728  0.259793  1
  O  O38  1  0.510654  0.379776  0.745133  1
  O  O39  1  0.710278  0.504044  0.617263  1
  O  O40  1  0.441085  0.403605  0.993897  1
  O  O41  1  0.302971  0.248234  0.573261  1
  O  O42  1  0.337232  0.539449  0.627694  1
  O  O43  1  0.509519  0.169449  0.978353  1
  O  O44  1  0.012133  0.639728  0.740207  1
  O  O45  1  0.490481  0.669449  0.021647  1
  O  O46  1  0.714036  0.771172  0.617268  1
  O  O47  1  0.662768  0.039449  0.372306  1
  O  O48  1  0.941085  0.903605  0.506103  1
  O  O49  1  0.785964  0.771172  0.117268  1
  O  O50  1  0.449459  0.103513  0.221539  1
  O  O51  1  0.162768  0.539449  0.127694  1
  O  O52  1  0.558915  0.903605  0.006103  1
  O  O53  1  0.990481  0.169449  0.478353  1
  O  O54  1  0.285964  0.271172  0.382732  1
  O  O55  1  0.477661  0.360530  0.212941  1
  O  O56  1  0.050541  0.103513  0.721539  1
  O  O57  1  0.487867  0.639728  0.240207  1
  O  O58  1  0.522339  0.860530  0.787059  1
  O  O59  1  0.058915  0.403605  0.493897  1
  O  O60  1  0.010654  0.879776  0.754867  1
  O  O61  1  0.989346  0.379776  0.245133  1
  O  O62  1  0.289722  0.004044  0.382737  1
  O  O63  1  0.009519  0.669449  0.521647  1
