# generated using pymatgen
data_SrNiSn3
_symmetry_space_group_name_H-M   'P 1'
_cell_length_a   6.45024915
_cell_length_b   6.45024915
_cell_length_c   6.45024915
_cell_angle_alpha   136.40402089
_cell_angle_beta   136.40402089
_cell_angle_gamma   63.35632728
_symmetry_Int_Tables_number   1
_chemical_formula_structural   SrNiSn3
_chemical_formula_sum   'Sr1 Ni1 Sn3'
_cell_volume   125.96710996
_cell_formula_units_Z   1
loop_
 _symmetry_equiv_pos_site_id
 _symmetry_equiv_pos_as_xyz
  1  'x, y, z'
loop_
 _atom_site_type_symbol
 _atom_site_label
 _atom_site_symmetry_multiplicity
 _atom_site_fract_x
 _atom_site_fract_y
 _atom_site_fract_z
 _atom_site_occupancy
  Sr  Sr0  1  0.999952  0.999952  0.000000  1
  Ni  Ni1  1  0.658742  0.658742  0.000000  1
  Sn  Sn2  1  0.429985  0.429985  0.000000  1
  Sn  Sn3  1  0.249660  0.749660  0.500000  1
  Sn  Sn4  1  0.749660  0.249660  0.500000  1
