# generated using pymatgen
data_LaCu4
_symmetry_space_group_name_H-M   'P 1'
_cell_length_a   11.46436059
_cell_length_b   11.46436059
_cell_length_c   11.46436059
_cell_angle_alpha   134.37375536
_cell_angle_beta   134.37375536
_cell_angle_gamma   66.50481512
_symmetry_Int_Tables_number   1
_chemical_formula_structural   LaCu4
_chemical_formula_sum   'La9 Cu36'
_cell_volume   757.71150707
_cell_formula_units_Z   9
loop_
 _symmetry_equiv_pos_site_id
 _symmetry_equiv_pos_as_xyz
  1  'x, y, z'
loop_
 _atom_site_type_symbol
 _atom_site_label
 _atom_site_symmetry_multiplicity
 _atom_site_fract_x
 _atom_site_fract_y
 _atom_site_fract_z
 _atom_site_occupancy
  La  La0  1  0.000000  0.000000  0.000000  1
  La  La1  1  0.206756  0.206756  0.000000  1
  La  La2  1  0.793244  0.793244  0.000000  1
  La  La3  1  0.051820  0.551820  0.500000  1
  La  La4  1  0.448180  0.948180  0.500000  1
  La  La5  1  0.618414  0.374131  0.244282  1
  La  La6  1  0.625869  0.870151  0.244282  1
  La  La7  1  0.625869  0.381586  0.755718  1
  La  La8  1  0.129849  0.374131  0.755718  1
  Cu  Cu9  1  0.245939  0.754061  1.000000  1
  Cu  Cu10  1  0.245939  0.245939  0.491877  1
  Cu  Cu11  1  0.754061  0.754061  0.508123  1
  Cu  Cu12  1  0.754061  0.245939  1.000000  1
  Cu  Cu13  1  0.552956  0.209047  0.343909  1
  Cu  Cu14  1  0.790953  0.134862  0.343909  1
  Cu  Cu15  1  0.790953  0.447044  0.656091  1
  Cu  Cu16  1  0.865138  0.209047  0.656091  1
  Cu  Cu17  1  0.151241  0.794191  0.357051  1
  Cu  Cu18  1  0.205809  0.562860  0.357051  1
  Cu  Cu19  1  0.205809  0.848759  0.642949  1
  Cu  Cu20  1  0.437140  0.794191  0.642949  1
  Cu  Cu21  1  0.922970  0.668785  0.254184  1
  Cu  Cu22  1  0.331215  0.585399  0.254184  1
  Cu  Cu23  1  0.331215  0.077030  0.745816  1
  Cu  Cu24  1  0.414601  0.668785  0.745816  1
  Cu  Cu25  1  0.697808  0.541445  0.156363  1
  Cu  Cu26  1  0.458555  0.614917  0.156363  1
  Cu  Cu27  1  0.458555  0.302192  0.843637  1
  Cu  Cu28  1  0.385083  0.541445  0.843637  1
  Cu  Cu29  1  0.365364  0.079261  0.286102  1
  Cu  Cu30  1  0.920739  0.206841  0.286102  1
  Cu  Cu31  1  0.920739  0.634636  0.713898  1
  Cu  Cu32  1  0.793159  0.079261  0.713898  1
  Cu  Cu33  1  0.004386  0.995614  0.500000  1
  Cu  Cu34  1  0.004386  0.504386  0.008771  1
  Cu  Cu35  1  0.495614  0.995614  0.991229  1
  Cu  Cu36  1  0.495614  0.504386  0.500000  1
  Cu  Cu37  1  0.282268  0.887278  0.927367  1
  Cu  Cu38  1  0.112722  0.040089  0.394990  1
  Cu  Cu39  1  0.645099  0.717732  0.605010  1
  Cu  Cu40  1  0.112722  0.717732  0.072633  1
  Cu  Cu41  1  0.645099  0.040089  0.927367  1
  Cu  Cu42  1  0.959911  0.354901  0.072633  1
  Cu  Cu43  1  0.959911  0.887278  0.605010  1
  Cu  Cu44  1  0.282268  0.354901  0.394990  1
