# generated using pymatgen
data_KHo2F7
_symmetry_space_group_name_H-M   'P 1'
_cell_length_a   8.26719041
_cell_length_b   8.26719041
_cell_length_c   12.02089653
_cell_angle_alpha   59.76341522
_cell_angle_beta   120.23658478
_cell_angle_gamma   121.68301353
_symmetry_Int_Tables_number   1
_chemical_formula_structural   KHo2F7
_chemical_formula_sum   'K4 Ho8 F28'
_cell_volume   571.19432147
_cell_formula_units_Z   4
loop_
 _symmetry_equiv_pos_site_id
 _symmetry_equiv_pos_as_xyz
  1  'x, y, z'
loop_
 _atom_site_type_symbol
 _atom_site_label
 _atom_site_symmetry_multiplicity
 _atom_site_fract_x
 _atom_site_fract_y
 _atom_site_fract_z
 _atom_site_occupancy
  K  K0  1  0.738010  0.261990  0.480811  1
  K  K1  1  0.261990  0.738010  0.519189  1
  K  K2  1  0.764747  0.235253  0.846999  1
  K  K3  1  0.235253  0.764747  0.153001  1
  Ho  Ho4  1  0.763032  0.762187  0.180413  1
  Ho  Ho5  1  0.740819  0.740819  0.500000  1
  Ho  Ho6  1  0.762187  0.763032  0.819587  1
  Ho  Ho7  1  0.259181  0.259181  0.500000  1
  Ho  Ho8  1  0.237813  0.236968  0.180413  1
  Ho  Ho9  1  0.758220  0.241780  0.178739  1
  Ho  Ho10  1  0.236968  0.237813  0.819587  1
  Ho  Ho11  1  0.241780  0.758220  0.821261  1
  F  F12  1  0.134519  0.335806  0.584795  1
  F  F13  1  0.353246  0.118511  0.736597  1
  F  F14  1  0.395954  0.604046  0.426742  1
  F  F15  1  0.179020  0.179020  0.000000  1
  F  F16  1  0.503316  0.496684  0.230685  1
  F  F17  1  0.842560  0.498728  0.238554  1
  F  F18  1  0.820980  0.820980  0.000000  1
  F  F19  1  0.157440  0.501272  0.761446  1
  F  F20  1  0.168424  0.496387  0.998746  1
  F  F21  1  0.118511  0.353246  0.263403  1
  F  F22  1  0.646754  0.881489  0.263403  1
  F  F23  1  0.885580  0.114420  0.118734  1
  F  F24  1  0.105533  0.894467  0.587476  1
  F  F25  1  0.865481  0.664194  0.415205  1
  F  F26  1  0.503613  0.831576  0.998746  1
  F  F27  1  0.335806  0.134519  0.415205  1
  F  F28  1  0.881489  0.646754  0.736597  1
  F  F29  1  0.501272  0.157440  0.238554  1
  F  F30  1  0.896882  0.103118  0.751405  1
  F  F31  1  0.496684  0.503316  0.769315  1
  F  F32  1  0.496387  0.168424  0.001254  1
  F  F33  1  0.103118  0.896882  0.248595  1
  F  F34  1  0.114420  0.885580  0.881266  1
  F  F35  1  0.498728  0.842560  0.761446  1
  F  F36  1  0.664194  0.865481  0.584795  1
  F  F37  1  0.604046  0.395954  0.573258  1
  F  F38  1  0.831576  0.503613  0.001254  1
  F  F39  1  0.894467  0.105533  0.412524  1
