# generated using pymatgen
data_NaAl11O17
_symmetry_space_group_name_H-M   'P 1'
_cell_length_a   5.65187028
_cell_length_b   5.65187028
_cell_length_c   22.78231427
_cell_angle_alpha   90.00000000
_cell_angle_beta   90.00000000
_cell_angle_gamma   120.00000000
_symmetry_Int_Tables_number   1
_chemical_formula_structural   NaAl11O17
_chemical_formula_sum   'Na2 Al22 O34'
_cell_volume   630.24998163
_cell_formula_units_Z   2
loop_
 _symmetry_equiv_pos_site_id
 _symmetry_equiv_pos_as_xyz
  1  'x, y, z'
loop_
 _atom_site_type_symbol
 _atom_site_label
 _atom_site_symmetry_multiplicity
 _atom_site_fract_x
 _atom_site_fract_y
 _atom_site_fract_z
 _atom_site_occupancy
  Na  Na0  1  0.666667  0.333333  0.250000  1
  Na  Na1  1  0.333333  0.666667  0.750000  1
  Al  Al2  1  0.000000  0.000000  0.000000  1
  Al  Al3  1  0.000000  0.000000  0.500000  1
  Al  Al4  1  0.333333  0.666667  0.024680  1
  Al  Al5  1  0.666667  0.333333  0.524680  1
  Al  Al6  1  0.666667  0.333333  0.975320  1
  Al  Al7  1  0.333333  0.666667  0.475320  1
  Al  Al8  1  0.832484  0.167516  0.106930  1
  Al  Al9  1  0.664969  0.832484  0.606930  1
  Al  Al10  1  0.167516  0.335031  0.606930  1
  Al  Al11  1  0.832484  0.664969  0.106930  1
  Al  Al12  1  0.335031  0.167516  0.106930  1
  Al  Al13  1  0.664969  0.832484  0.893070  1
  Al  Al14  1  0.167516  0.335031  0.893070  1
  Al  Al15  1  0.167516  0.832484  0.606930  1
  Al  Al16  1  0.167516  0.832484  0.893070  1
  Al  Al17  1  0.832484  0.167516  0.393070  1
  Al  Al18  1  0.335031  0.167516  0.393070  1
  Al  Al19  1  0.832484  0.664969  0.393070  1
  Al  Al20  1  0.333333  0.666667  0.175514  1
  Al  Al21  1  0.666667  0.333333  0.675514  1
  Al  Al22  1  0.666667  0.333333  0.824486  1
  Al  Al23  1  0.333333  0.666667  0.324486  1
  O  O24  1  0.157328  0.842672  0.049770  1
  O  O25  1  0.314656  0.157328  0.549770  1
  O  O26  1  0.842672  0.685344  0.549770  1
  O  O27  1  0.157328  0.314656  0.049770  1
  O  O28  1  0.685344  0.842672  0.049770  1
  O  O29  1  0.314656  0.157328  0.950230  1
  O  O30  1  0.842672  0.685344  0.950230  1
  O  O31  1  0.842672  0.157328  0.549770  1
  O  O32  1  0.842672  0.157328  0.950230  1
  O  O33  1  0.157328  0.842672  0.450230  1
  O  O34  1  0.685344  0.842672  0.450230  1
  O  O35  1  0.157328  0.314656  0.450230  1
  O  O36  1  0.666667  0.333333  0.055596  1
  O  O37  1  0.333333  0.666667  0.555596  1
  O  O38  1  0.333333  0.666667  0.944404  1
  O  O39  1  0.666667  0.333333  0.444404  1
  O  O40  1  0.000000  0.000000  0.141380  1
  O  O41  1  0.000000  0.000000  0.641381  1
  O  O42  1  0.000000  0.000000  0.858619  1
  O  O43  1  0.000000  0.000000  0.358619  1
  O  O44  1  0.503354  0.496646  0.146210  1
  O  O45  1  0.006708  0.503354  0.646210  1
  O  O46  1  0.496646  0.993292  0.646210  1
  O  O47  1  0.503354  0.006708  0.146210  1
  O  O48  1  0.993292  0.496646  0.146210  1
  O  O49  1  0.006708  0.503354  0.853790  1
  O  O50  1  0.496646  0.993292  0.853790  1
  O  O51  1  0.496646  0.503354  0.646210  1
  O  O52  1  0.496646  0.503354  0.853790  1
  O  O53  1  0.503354  0.496646  0.353790  1
  O  O54  1  0.993292  0.496646  0.353790  1
  O  O55  1  0.503354  0.006708  0.353790  1
  O  O56  1  0.333333  0.666667  0.250000  1
  O  O57  1  0.666667  0.333333  0.750000  1
