# generated using pymatgen
data_La5Sn4
_symmetry_space_group_name_H-M   'P 1'
_cell_length_a   8.55408765
_cell_length_b   8.64158241
_cell_length_c   16.34543453
_cell_angle_alpha   90.00000000
_cell_angle_beta   90.00000000
_cell_angle_gamma   90.00000000
_symmetry_Int_Tables_number   1
_chemical_formula_structural   La5Sn4
_chemical_formula_sum   'La20 Sn16'
_cell_volume   1208.26846916
_cell_formula_units_Z   4
loop_
 _symmetry_equiv_pos_site_id
 _symmetry_equiv_pos_as_xyz
  1  'x, y, z'
loop_
 _atom_site_type_symbol
 _atom_site_label
 _atom_site_symmetry_multiplicity
 _atom_site_fract_x
 _atom_site_fract_y
 _atom_site_fract_z
 _atom_site_occupancy
  La  La0  1  0.973823  0.819620  0.898943  1
  La  La1  1  0.473823  0.680380  0.601057  1
  La  La2  1  0.526177  0.319620  0.101057  1
  La  La3  1  0.026177  0.180380  0.398943  1
  La  La4  1  0.973823  0.819620  0.601057  1
  La  La5  1  0.473823  0.680380  0.898943  1
  La  La6  1  0.526177  0.319620  0.398943  1
  La  La7  1  0.026177  0.180380  0.101057  1
  La  La8  1  0.880665  0.661483  0.383039  1
  La  La9  1  0.380665  0.838517  0.116961  1
  La  La10  1  0.619335  0.161483  0.616961  1
  La  La11  1  0.119335  0.338517  0.883039  1
  La  La12  1  0.119335  0.338517  0.616961  1
  La  La13  1  0.619335  0.161483  0.883039  1
  La  La14  1  0.380665  0.838517  0.383039  1
  La  La15  1  0.880665  0.661483  0.116961  1
  La  La16  1  0.289487  0.003348  0.750000  1
  La  La17  1  0.789487  0.496652  0.750000  1
  La  La18  1  0.210513  0.503348  0.250000  1
  La  La19  1  0.710513  0.996652  0.250000  1
  Sn  Sn20  1  0.780388  0.468802  0.543912  1
  Sn  Sn21  1  0.280388  0.031198  0.956088  1
  Sn  Sn22  1  0.719612  0.968802  0.456088  1
  Sn  Sn23  1  0.219612  0.531198  0.043912  1
  Sn  Sn24  1  0.219612  0.531198  0.456088  1
  Sn  Sn25  1  0.719612  0.968802  0.043912  1
  Sn  Sn26  1  0.280388  0.031198  0.543912  1
  Sn  Sn27  1  0.780388  0.468802  0.956088  1
  Sn  Sn28  1  0.171621  0.638161  0.750000  1
  Sn  Sn29  1  0.671621  0.861839  0.750000  1
  Sn  Sn30  1  0.328379  0.138161  0.250000  1
  Sn  Sn31  1  0.828379  0.361839  0.250000  1
  Sn  Sn32  1  0.918419  0.114067  0.750000  1
  Sn  Sn33  1  0.418419  0.385933  0.750000  1
  Sn  Sn34  1  0.581581  0.614067  0.250000  1
  Sn  Sn35  1  0.081581  0.885933  0.250000  1
