# generated using pymatgen
data_Ba(AlTe2)2
_symmetry_space_group_name_H-M   'P 1'
_cell_length_a   7.01022976
_cell_length_b   7.01022976
_cell_length_c   7.01022976
_cell_angle_alpha   103.34291980
_cell_angle_beta   103.34291980
_cell_angle_gamma   122.57768636
_symmetry_Int_Tables_number   1
_chemical_formula_structural   Ba(AlTe2)2
_chemical_formula_sum   'Ba1 Al2 Te4'
_cell_volume   254.61026213
_cell_formula_units_Z   1
loop_
 _symmetry_equiv_pos_site_id
 _symmetry_equiv_pos_as_xyz
  1  'x, y, z'
loop_
 _atom_site_type_symbol
 _atom_site_label
 _atom_site_symmetry_multiplicity
 _atom_site_fract_x
 _atom_site_fract_y
 _atom_site_fract_z
 _atom_site_occupancy
  Ba  Ba0  1  0.500000  0.500000  0.000000  1
  Al  Al1  1  0.500000  0.000000  0.500000  1
  Al  Al2  1  1.000000  0.500000  0.500000  1
  Te  Te3  1  0.082872  0.917128  0.500000  1
  Te  Te4  1  0.582872  0.082872  0.165745  1
  Te  Te5  1  0.917128  0.417128  0.834255  1
  Te  Te6  1  0.417128  0.582872  0.500000  1
