# generated using pymatgen
data_Li2NiGe3O8
_symmetry_space_group_name_H-M   'P 1'
_cell_length_a   8.30532866
_cell_length_b   8.30532866
_cell_length_c   8.30532866
_cell_angle_alpha   90.00000000
_cell_angle_beta   90.00000000
_cell_angle_gamma   90.00000000
_symmetry_Int_Tables_number   1
_chemical_formula_structural   Li2NiGe3O8
_chemical_formula_sum   'Li8 Ni4 Ge12 O32'
_cell_volume   572.88898134
_cell_formula_units_Z   4
loop_
 _symmetry_equiv_pos_site_id
 _symmetry_equiv_pos_as_xyz
  1  'x, y, z'
loop_
 _atom_site_type_symbol
 _atom_site_label
 _atom_site_symmetry_multiplicity
 _atom_site_fract_x
 _atom_site_fract_y
 _atom_site_fract_z
 _atom_site_occupancy
  Li  Li0  1  0.503211  0.503211  0.503211  1
  Li  Li1  1  0.253211  0.246789  0.753211  1
  Li  Li2  1  0.753211  0.253211  0.246789  1
  Li  Li3  1  0.246789  0.753211  0.253211  1
  Li  Li4  1  0.996789  0.496789  0.003211  1
  Li  Li5  1  0.003211  0.996789  0.496789  1
  Li  Li6  1  0.496789  0.003211  0.996789  1
  Li  Li7  1  0.746789  0.746789  0.746789  1
  Ni  Ni8  1  0.125000  0.125000  0.125000  1
  Ni  Ni9  1  0.375000  0.875000  0.625000  1
  Ni  Ni10  1  0.625000  0.375000  0.875000  1
  Ni  Ni11  1  0.875000  0.625000  0.375000  1
  Ge  Ge12  1  0.877445  0.372555  0.625000  1
  Ge  Ge13  1  0.372555  0.625000  0.877445  1
  Ge  Ge14  1  0.627445  0.125000  0.622555  1
  Ge  Ge15  1  0.872555  0.875000  0.122555  1
  Ge  Ge16  1  0.122555  0.872555  0.875000  1
  Ge  Ge17  1  0.622555  0.627445  0.125000  1
  Ge  Ge18  1  0.875000  0.122555  0.872555  1
  Ge  Ge19  1  0.375000  0.377445  0.127445  1
  Ge  Ge20  1  0.625000  0.877445  0.372555  1
  Ge  Ge21  1  0.127445  0.375000  0.377445  1
  Ge  Ge22  1  0.125000  0.622555  0.627445  1
  Ge  Ge23  1  0.377445  0.127445  0.375000  1
  O  O24  1  0.615870  0.115870  0.384130  1
  O  O25  1  0.649544  0.356705  0.623830  1
  O  O26  1  0.149544  0.143295  0.376170  1
  O  O27  1  0.356705  0.623830  0.649544  1
  O  O28  1  0.643295  0.123830  0.850456  1
  O  O29  1  0.623830  0.649544  0.356705  1
  O  O30  1  0.876170  0.350456  0.856705  1
  O  O31  1  0.899544  0.373830  0.393295  1
  O  O32  1  0.399544  0.126170  0.606705  1
  O  O33  1  0.100456  0.873830  0.106705  1
  O  O34  1  0.126170  0.606705  0.399544  1
  O  O35  1  0.106705  0.100456  0.873830  1
  O  O36  1  0.606705  0.399544  0.126170  1
  O  O37  1  0.373830  0.393295  0.899544  1
  O  O38  1  0.393295  0.899544  0.373830  1
  O  O39  1  0.873830  0.106705  0.100456  1
  O  O40  1  0.884130  0.884130  0.884130  1
  O  O41  1  0.634130  0.865870  0.134130  1
  O  O42  1  0.134130  0.634130  0.865870  1
  O  O43  1  0.865870  0.134130  0.634130  1
  O  O44  1  0.626170  0.893295  0.600456  1
  O  O45  1  0.384130  0.615870  0.115870  1
  O  O46  1  0.115870  0.384130  0.615870  1
  O  O47  1  0.365870  0.365870  0.365870  1
  O  O48  1  0.893295  0.600456  0.626170  1
  O  O49  1  0.350456  0.856705  0.876170  1
  O  O50  1  0.850456  0.643295  0.123830  1
  O  O51  1  0.143295  0.376170  0.149544  1
  O  O52  1  0.856705  0.876170  0.350456  1
  O  O53  1  0.123830  0.850456  0.643295  1
  O  O54  1  0.376170  0.149544  0.143295  1
  O  O55  1  0.600456  0.626170  0.893295  1
