# generated using pymatgen
data_La5Bi3Br
_symmetry_space_group_name_H-M   'P 1'
_cell_length_a   9.83154980
_cell_length_b   9.83154980
_cell_length_c   6.87172776
_cell_angle_alpha   90.00000000
_cell_angle_beta   90.00000000
_cell_angle_gamma   120.00000000
_symmetry_Int_Tables_number   1
_chemical_formula_structural   La5Bi3Br
_chemical_formula_sum   'La10 Bi6 Br2'
_cell_volume   575.22869679
_cell_formula_units_Z   2
loop_
 _symmetry_equiv_pos_site_id
 _symmetry_equiv_pos_as_xyz
  1  'x, y, z'
loop_
 _atom_site_type_symbol
 _atom_site_label
 _atom_site_symmetry_multiplicity
 _atom_site_fract_x
 _atom_site_fract_y
 _atom_site_fract_z
 _atom_site_occupancy
  La  La0  1  0.727658  0.000000  0.750000  1
  La  La1  1  0.000000  0.272342  0.250000  1
  La  La2  1  0.727658  0.727658  0.250000  1
  La  La3  1  0.333333  0.666667  0.500000  1
  La  La4  1  0.333333  0.666667  0.000000  1
  La  La5  1  0.666667  0.333333  0.500000  1
  La  La6  1  0.666667  0.333333  0.000000  1
  La  La7  1  0.272342  0.000000  0.250000  1
  La  La8  1  0.272342  0.272342  0.750000  1
  La  La9  1  0.000000  0.727658  0.750000  1
  Bi  Bi10  1  0.383484  0.000000  0.750000  1
  Bi  Bi11  1  0.616516  0.000000  0.250000  1
  Bi  Bi12  1  0.000000  0.616516  0.250000  1
  Bi  Bi13  1  0.616516  0.616516  0.750000  1
  Bi  Bi14  1  0.000000  0.383484  0.750000  1
  Bi  Bi15  1  0.383484  0.383484  0.250000  1
  Br  Br16  1  0.000000  0.000000  0.500000  1
  Br  Br17  1  0.000000  0.000000  0.000000  1
