# generated using pymatgen
data_LiMo2(PO4)3
_symmetry_space_group_name_H-M   'P 1'
_cell_length_a   4.90010564
_cell_length_b   4.90010564
_cell_length_c   20.31813940
_cell_angle_alpha   87.68856094
_cell_angle_beta   92.31143906
_cell_angle_gamma   113.47106523
_symmetry_Int_Tables_number   1
_chemical_formula_structural   LiMo2(PO4)3
_chemical_formula_sum   'Li2 Mo4 P6 O24'
_cell_volume   446.97384024
_cell_formula_units_Z   2
loop_
 _symmetry_equiv_pos_site_id
 _symmetry_equiv_pos_as_xyz
  1  'x, y, z'
loop_
 _atom_site_type_symbol
 _atom_site_label
 _atom_site_symmetry_multiplicity
 _atom_site_fract_x
 _atom_site_fract_y
 _atom_site_fract_z
 _atom_site_occupancy
  Li  Li0  1  0.000086  0.999914  0.162121  1
  Li  Li1  1  0.999914  0.000086  0.837879  1
  Mo  Mo2  1  0.000000  1.000000  0.500000  1
  Mo  Mo3  1  0.011992  0.988008  0.668408  1
  Mo  Mo4  1  0.000000  0.000000  0.000000  1
  Mo  Mo5  1  0.988008  0.011992  0.331592  1
  P  P6  1  0.659765  0.340235  0.078651  1
  P  P7  1  0.670589  0.329411  0.745823  1
  P  P8  1  0.354717  0.645283  0.582648  1
  P  P9  1  0.340235  0.659765  0.921349  1
  P  P10  1  0.329411  0.670589  0.254177  1
  P  P11  1  0.645283  0.354717  0.417352  1
  O  O12  1  0.690426  0.781633  0.930080  1
  O  O13  1  0.676659  0.789868  0.263127  1
  O  O14  1  0.222780  0.777220  0.318169  1
  O  O15  1  0.210132  0.323341  0.263127  1
  O  O16  1  0.230327  0.769673  0.191163  1
  O  O17  1  0.772340  0.707075  0.415837  1
  O  O18  1  0.309574  0.218367  0.069920  1
  O  O19  1  0.767632  0.232368  0.015790  1
  O  O20  1  0.761031  0.238969  0.141183  1
  O  O21  1  0.745582  0.254418  0.355525  1
  O  O22  1  0.789868  0.676659  0.736873  1
  O  O23  1  0.254934  0.745066  0.517772  1
  O  O24  1  0.769673  0.230327  0.808837  1
  O  O25  1  0.238969  0.761031  0.858817  1
  O  O26  1  0.254418  0.745582  0.644475  1
  O  O27  1  0.745066  0.254934  0.482228  1
  O  O28  1  0.227660  0.292925  0.584163  1
  O  O29  1  0.777220  0.222780  0.681831  1
  O  O30  1  0.323341  0.210132  0.736873  1
  O  O31  1  0.292925  0.227660  0.415837  1
  O  O32  1  0.707075  0.772340  0.584163  1
  O  O33  1  0.232368  0.767632  0.984210  1
  O  O34  1  0.781633  0.690426  0.069920  1
  O  O35  1  0.218367  0.309574  0.930080  1
