# generated using pymatgen
data_Bi2Te7Cl8
_symmetry_space_group_name_H-M   'P 1'
_cell_length_a   5.59870815
_cell_length_b   13.55310495
_cell_length_c   15.51883623
_cell_angle_alpha   103.82341430
_cell_angle_beta   95.23459505
_cell_angle_gamma   96.45966433
_symmetry_Int_Tables_number   1
_chemical_formula_structural   Bi2Te7Cl8
_chemical_formula_sum   'Bi4 Te14 Cl16'
_cell_volume   1127.65639793
_cell_formula_units_Z   2
loop_
 _symmetry_equiv_pos_site_id
 _symmetry_equiv_pos_as_xyz
  1  'x, y, z'
loop_
 _atom_site_type_symbol
 _atom_site_label
 _atom_site_symmetry_multiplicity
 _atom_site_fract_x
 _atom_site_fract_y
 _atom_site_fract_z
 _atom_site_occupancy
  Bi  Bi0  1  0.791604  0.259404  0.274262  1
  Bi  Bi1  1  0.208396  0.740596  0.725738  1
  Bi  Bi2  1  0.905752  0.591811  0.389789  1
  Bi  Bi3  1  0.094248  0.408189  0.610211  1
  Te  Te4  1  0.811710  0.982372  0.562861  1
  Te  Te5  1  0.188290  0.017628  0.437139  1
  Te  Te6  1  0.467327  0.809265  0.166282  1
  Te  Te7  1  0.532673  0.190735  0.833718  1
  Te  Te8  1  0.169819  0.956752  0.151112  1
  Te  Te9  1  0.830181  0.043248  0.848888  1
  Te  Te10  1  0.778587  0.836430  0.035644  1
  Te  Te11  1  0.221413  0.163570  0.964356  1
  Te  Te12  1  0.058342  0.650339  0.046552  1
  Te  Te13  1  0.941658  0.349661  0.953448  1
  Te  Te14  1  0.354305  0.491339  0.068342  1
  Te  Te15  1  0.645695  0.508661  0.931658  1
  Te  Te16  1  0.559449  0.147107  0.563865  1
  Te  Te17  1  0.440551  0.852893  0.436135  1
  Cl  Cl18  1  0.802838  0.152815  0.111343  1
  Cl  Cl19  1  0.197162  0.847185  0.888657  1
  Cl  Cl20  1  0.354007  0.275358  0.229456  1
  Cl  Cl21  1  0.645993  0.724642  0.770544  1
  Cl  Cl22  1  0.903081  0.449503  0.225297  1
  Cl  Cl23  1  0.096919  0.550497  0.774703  1
  Cl  Cl24  1  0.845741  0.738507  0.535199  1
  Cl  Cl25  1  0.154259  0.261493  0.464801  1
  Cl  Cl26  1  0.727323  0.423280  0.441126  1
  Cl  Cl27  1  0.272677  0.576720  0.558874  1
  Cl  Cl28  1  0.471220  0.603284  0.330369  1
  Cl  Cl29  1  0.528780  0.396716  0.669631  1
  Cl  Cl30  1  0.012505  0.757214  0.313126  1
  Cl  Cl31  1  0.987495  0.242786  0.686874  1
  Cl  Cl32  1  0.354714  0.918599  0.691671  1
  Cl  Cl33  1  0.645286  0.081401  0.308329  1
