# generated using pymatgen
data_P2PbAu2
_symmetry_space_group_name_H-M   'P 1'
_cell_length_a   6.01360974
_cell_length_b   6.01360974
_cell_length_c   11.38190942
_cell_angle_alpha   90.00000000
_cell_angle_beta   90.00000000
_cell_angle_gamma   148.15200177
_symmetry_Int_Tables_number   1
_chemical_formula_structural   P2PbAu2
_chemical_formula_sum   'P4 Pb2 Au4'
_cell_volume   217.19310083
_cell_formula_units_Z   2
loop_
 _symmetry_equiv_pos_site_id
 _symmetry_equiv_pos_as_xyz
  1  'x, y, z'
loop_
 _atom_site_type_symbol
 _atom_site_label
 _atom_site_symmetry_multiplicity
 _atom_site_fract_x
 _atom_site_fract_y
 _atom_site_fract_z
 _atom_site_occupancy
  P  P0  1  0.798414  0.201586  0.543527  1
  P  P1  1  0.201586  0.798414  0.043527  1
  P  P2  1  0.201586  0.798414  0.456473  1
  P  P3  1  0.798414  0.201586  0.956473  1
  Pb  Pb4  1  0.522888  0.477112  0.750000  1
  Pb  Pb5  1  0.477112  0.522888  0.250000  1
  Au  Au6  1  0.000000  0.000000  0.000000  1
  Au  Au7  1  0.776110  0.223890  0.750000  1
  Au  Au8  1  0.000000  0.000000  0.500000  1
  Au  Au9  1  0.223890  0.776110  0.250000  1
