# generated using pymatgen
data_TbAl3
_symmetry_space_group_name_H-M   'P 1'
_cell_length_a   7.92720314
_cell_length_b   7.92720314
_cell_length_c   7.92720314
_cell_angle_alpha   46.10973736
_cell_angle_beta   46.10973736
_cell_angle_gamma   46.10973736
_symmetry_Int_Tables_number   1
_chemical_formula_structural   TbAl3
_chemical_formula_sum   'Tb3 Al9'
_cell_volume   236.04185824
_cell_formula_units_Z   3
loop_
 _symmetry_equiv_pos_site_id
 _symmetry_equiv_pos_as_xyz
  1  'x, y, z'
loop_
 _atom_site_type_symbol
 _atom_site_label
 _atom_site_symmetry_multiplicity
 _atom_site_fract_x
 _atom_site_fract_y
 _atom_site_fract_z
 _atom_site_occupancy
  Tb  Tb0  1  0.218041  0.218041  0.218041  1
  Tb  Tb1  1  0.781959  0.781959  0.781959  1
  Tb  Tb2  1  0.000000  0.000000  0.000000  1
  Al  Al3  1  0.297193  0.736539  0.297193  1
  Al  Al4  1  0.736539  0.297193  0.297193  1
  Al  Al5  1  0.297193  0.297193  0.736539  1
  Al  Al6  1  0.500000  0.000000  0.500000  1
  Al  Al7  1  0.500000  0.500000  0.000000  1
  Al  Al8  1  0.000000  0.500000  0.500000  1
  Al  Al9  1  0.263461  0.702807  0.702807  1
  Al  Al10  1  0.702807  0.263461  0.702807  1
  Al  Al11  1  0.702807  0.702807  0.263461  1
