# generated using pymatgen
data_LiNi2P5O16
_symmetry_space_group_name_H-M   'P 1'
_cell_length_a   5.03646339
_cell_length_b   6.81288880
_cell_length_c   18.46594012
_cell_angle_alpha   90.00000000
_cell_angle_beta   90.95676386
_cell_angle_gamma   90.00000000
_symmetry_Int_Tables_number   1
_chemical_formula_structural   LiNi2P5O16
_chemical_formula_sum   'Li2 Ni4 P10 O32'
_cell_volume   633.53097111
_cell_formula_units_Z   2
loop_
 _symmetry_equiv_pos_site_id
 _symmetry_equiv_pos_as_xyz
  1  'x, y, z'
loop_
 _atom_site_type_symbol
 _atom_site_label
 _atom_site_symmetry_multiplicity
 _atom_site_fract_x
 _atom_site_fract_y
 _atom_site_fract_z
 _atom_site_occupancy
  Li  Li0  1  0.735719  0.144185  0.968143  1
  Li  Li1  1  0.735719  0.855815  0.468143  1
  Ni  Ni2  1  0.261091  0.314220  0.092915  1
  Ni  Ni3  1  0.261091  0.685780  0.592915  1
  Ni  Ni4  1  0.738535  0.319938  0.406540  1
  Ni  Ni5  1  0.738535  0.680062  0.906540  1
  P  P6  1  0.743802  0.036930  0.128027  1
  P  P7  1  0.005634  0.252795  0.249998  1
  P  P8  1  0.743802  0.963070  0.628027  1
  P  P9  1  0.227560  0.626058  0.418699  1
  P  P10  1  0.773889  0.373321  0.581323  1
  P  P11  1  0.773889  0.626679  0.081323  1
  P  P12  1  0.251015  0.032735  0.371768  1
  P  P13  1  0.005634  0.747205  0.749998  1
  P  P14  1  0.227560  0.373942  0.918699  1
  P  P15  1  0.251015  0.967265  0.871768  1
  O  O16  1  0.209302  0.105246  0.290187  1
  O  O17  1  0.061521  0.440596  0.571579  1
  O  O18  1  0.656767  0.287640  0.511481  1
  O  O19  1  0.600572  0.474662  0.117009  1
  O  O20  1  0.845664  0.365131  0.303861  1
  O  O21  1  0.384654  0.536209  0.883241  1
  O  O22  1  0.449599  0.062701  0.112758  1
  O  O23  1  0.656767  0.712360  0.011481  1
  O  O24  1  0.208107  0.802671  0.358770  1
  O  O25  1  0.449599  0.937299  0.612758  1
  O  O26  1  0.600572  0.525338  0.617009  1
  O  O27  1  0.933861  0.582150  0.432646  1
  O  O28  1  0.922920  0.868811  0.572687  1
  O  O29  1  0.061521  0.559404  0.071579  1
  O  O30  1  0.208107  0.197329  0.858770  1
  O  O31  1  0.046079  0.113864  0.422206  1
  O  O32  1  0.798990  0.191929  0.638396  1
  O  O33  1  0.160266  0.367105  0.195846  1
  O  O34  1  0.933861  0.417850  0.932646  1
  O  O35  1  0.809346  0.898209  0.709185  1
  O  O36  1  0.384654  0.463791  0.383241  1
  O  O37  1  0.922920  0.131189  0.072687  1
  O  O38  1  0.160266  0.632895  0.695846  1
  O  O39  1  0.541471  0.056928  0.393126  1
  O  O40  1  0.373656  0.711324  0.485612  1
  O  O41  1  0.373656  0.288676  0.985612  1
  O  O42  1  0.541471  0.943072  0.893126  1
  O  O43  1  0.209302  0.894754  0.790187  1
  O  O44  1  0.046079  0.886136  0.922206  1
  O  O45  1  0.845664  0.634869  0.803861  1
  O  O46  1  0.809346  0.101791  0.209185  1
  O  O47  1  0.798990  0.808071  0.138396  1
