# generated using pymatgen
data_Ba4Ge20Pd3
_symmetry_space_group_name_H-M   'P 1'
_cell_length_a   10.90699314
_cell_length_b   10.90699314
_cell_length_c   10.90699314
_cell_angle_alpha   90.00000000
_cell_angle_beta   90.00000000
_cell_angle_gamma   90.00000000
_symmetry_Int_Tables_number   1
_chemical_formula_structural   Ba4Ge20Pd3
_chemical_formula_sum   'Ba8 Ge40 Pd6'
_cell_volume   1297.52316439
_cell_formula_units_Z   2
loop_
 _symmetry_equiv_pos_site_id
 _symmetry_equiv_pos_as_xyz
  1  'x, y, z'
loop_
 _atom_site_type_symbol
 _atom_site_label
 _atom_site_symmetry_multiplicity
 _atom_site_fract_x
 _atom_site_fract_y
 _atom_site_fract_z
 _atom_site_occupancy
  Ba  Ba0  1  0.000000  0.000000  0.000000  1
  Ba  Ba1  1  0.500000  0.500000  0.500000  1
  Ba  Ba2  1  0.250000  0.500000  0.000000  1
  Ba  Ba3  1  0.750000  0.500000  0.000000  1
  Ba  Ba4  1  0.500000  0.000000  0.250000  1
  Ba  Ba5  1  0.500000  0.000000  0.750000  1
  Ba  Ba6  1  0.000000  0.750000  0.500000  1
  Ba  Ba7  1  0.000000  0.250000  0.500000  1
  Ge  Ge8  1  0.183020  0.183020  0.183020  1
  Ge  Ge9  1  0.683020  0.316980  0.683020  1
  Ge  Ge10  1  0.683020  0.683020  0.316980  1
  Ge  Ge11  1  0.316980  0.683020  0.683020  1
  Ge  Ge12  1  0.816980  0.816980  0.183020  1
  Ge  Ge13  1  0.183020  0.816980  0.816980  1
  Ge  Ge14  1  0.816980  0.183020  0.816980  1
  Ge  Ge15  1  0.316980  0.316980  0.316980  1
  Ge  Ge16  1  0.816980  0.816980  0.816980  1
  Ge  Ge17  1  0.316980  0.683020  0.316980  1
  Ge  Ge18  1  0.316980  0.316980  0.683020  1
  Ge  Ge19  1  0.683020  0.316980  0.316980  1
  Ge  Ge20  1  0.183020  0.183020  0.816980  1
  Ge  Ge21  1  0.816980  0.183020  0.183020  1
  Ge  Ge22  1  0.183020  0.816980  0.183020  1
  Ge  Ge23  1  0.683020  0.683020  0.683020  1
  Ge  Ge24  1  0.000000  0.314587  0.119024  1
  Ge  Ge25  1  0.500000  0.380976  0.814587  1
  Ge  Ge26  1  0.500000  0.619024  0.185413  1
  Ge  Ge27  1  0.619024  0.814587  0.500000  1
  Ge  Ge28  1  0.380976  0.814587  0.500000  1
  Ge  Ge29  1  0.185413  0.500000  0.619024  1
  Ge  Ge30  1  0.814587  0.500000  0.619024  1
  Ge  Ge31  1  0.119024  0.000000  0.314587  1
  Ge  Ge32  1  0.314587  0.119024  0.000000  1
  Ge  Ge33  1  0.685413  0.880976  0.000000  1
  Ge  Ge34  1  0.119024  0.000000  0.685413  1
  Ge  Ge35  1  0.685413  0.119024  0.000000  1
  Ge  Ge36  1  0.880976  0.000000  0.314587  1
  Ge  Ge37  1  0.880976  0.000000  0.685413  1
  Ge  Ge38  1  0.314587  0.880976  0.000000  1
  Ge  Ge39  1  0.000000  0.685413  0.880976  1
  Ge  Ge40  1  0.000000  0.314587  0.880976  1
  Ge  Ge41  1  0.000000  0.685413  0.119024  1
  Ge  Ge42  1  0.814587  0.500000  0.380976  1
  Ge  Ge43  1  0.185413  0.500000  0.380976  1
  Ge  Ge44  1  0.619024  0.185413  0.500000  1
  Ge  Ge45  1  0.380976  0.185413  0.500000  1
  Ge  Ge46  1  0.500000  0.619024  0.814587  1
  Ge  Ge47  1  0.500000  0.380976  0.185413  1
  Pd  Pd48  1  0.250000  0.000000  0.500000  1
  Pd  Pd49  1  0.750000  0.000000  0.500000  1
  Pd  Pd50  1  0.000000  0.500000  0.250000  1
  Pd  Pd51  1  0.000000  0.500000  0.750000  1
  Pd  Pd52  1  0.500000  0.750000  0.000000  1
  Pd  Pd53  1  0.500000  0.250000  0.000000  1
