# generated using pymatgen
data_Li3Cr(PO4)2
_symmetry_space_group_name_H-M   'P 1'
_cell_length_a   4.93182102
_cell_length_b   17.74591021
_cell_length_c   7.85267638
_cell_angle_alpha   90.00000000
_cell_angle_beta   125.71086001
_cell_angle_gamma   90.00000000
_symmetry_Int_Tables_number   1
_chemical_formula_structural   Li3Cr(PO4)2
_chemical_formula_sum   'Li12 Cr4 P8 O32'
_cell_volume   558.03935128
_cell_formula_units_Z   4
loop_
 _symmetry_equiv_pos_site_id
 _symmetry_equiv_pos_as_xyz
  1  'x, y, z'
loop_
 _atom_site_type_symbol
 _atom_site_label
 _atom_site_symmetry_multiplicity
 _atom_site_fract_x
 _atom_site_fract_y
 _atom_site_fract_z
 _atom_site_occupancy
  Li  Li0  1  0.988353  0.444245  0.214176  1
  Li  Li1  1  0.623430  0.198528  0.311174  1
  Li  Li2  1  0.623430  0.301472  0.811174  1
  Li  Li3  1  0.011647  0.555755  0.785824  1
  Li  Li4  1  0.988353  0.055755  0.714176  1
  Li  Li5  1  0.376570  0.801472  0.688826  1
  Li  Li6  1  0.721669  0.616893  0.002009  1
  Li  Li7  1  0.278331  0.116893  0.497991  1
  Li  Li8  1  0.011647  0.944245  0.285824  1
  Li  Li9  1  0.278331  0.383107  0.997991  1
  Li  Li10  1  0.376570  0.698528  0.188826  1
  Li  Li11  1  0.721669  0.883107  0.502009  1
  Cr  Cr12  1  0.183925  0.627614  0.484713  1
  Cr  Cr13  1  0.816075  0.372386  0.515287  1
  Cr  Cr14  1  0.183925  0.872386  0.984713  1
  Cr  Cr15  1  0.816075  0.127614  0.015287  1
  P  P16  1  0.504506  0.464517  0.726123  1
  P  P17  1  0.495494  0.535483  0.273877  1
  P  P18  1  0.113226  0.284885  0.288169  1
  P  P19  1  0.886774  0.784885  0.211831  1
  P  P20  1  0.113226  0.215115  0.788169  1
  P  P21  1  0.495494  0.964517  0.773877  1
  P  P22  1  0.504506  0.035483  0.226123  1
  P  P23  1  0.886774  0.715115  0.711831  1
  O  O24  1  0.140718  0.302542  0.762497  1
  O  O25  1  0.174641  0.432874  0.530020  1
  O  O26  1  0.560875  0.435986  0.926425  1
  O  O27  1  0.174641  0.067126  0.030020  1
  O  O28  1  0.539012  0.692761  0.510322  1
  O  O29  1  0.037930  0.171847  0.597949  1
  O  O30  1  0.166339  0.800774  0.179470  1
  O  O31  1  0.962070  0.828153  0.402051  1
  O  O32  1  0.189777  0.939960  0.776482  1
  O  O33  1  0.439125  0.564014  0.073575  1
  O  O34  1  0.460988  0.307239  0.489678  1
  O  O35  1  0.825359  0.932874  0.969980  1
  O  O36  1  0.810223  0.060040  0.223518  1
  O  O37  1  0.493958  0.446679  0.278314  1
  O  O38  1  0.859282  0.802542  0.737503  1
  O  O39  1  0.859282  0.697458  0.237503  1
  O  O40  1  0.506042  0.946679  0.221686  1
  O  O41  1  0.166339  0.699226  0.679470  1
  O  O42  1  0.810223  0.439960  0.723518  1
  O  O43  1  0.189777  0.560040  0.276482  1
  O  O44  1  0.037930  0.328153  0.097949  1
  O  O45  1  0.539012  0.807239  0.010322  1
  O  O46  1  0.560875  0.064014  0.426425  1
  O  O47  1  0.506042  0.553321  0.721686  1
  O  O48  1  0.140718  0.197458  0.262497  1
  O  O49  1  0.460988  0.192761  0.989678  1
  O  O50  1  0.825359  0.567126  0.469980  1
  O  O51  1  0.493958  0.053321  0.778314  1
  O  O52  1  0.962070  0.671847  0.902051  1
  O  O53  1  0.833661  0.300774  0.320530  1
  O  O54  1  0.439125  0.935986  0.573575  1
  O  O55  1  0.833661  0.199226  0.820530  1
