# generated using pymatgen
data_Ga5Rh3
_symmetry_space_group_name_H-M   'P 1'
_cell_length_a   5.03021651
_cell_length_b   6.73405249
_cell_length_c   7.99228802
_cell_angle_alpha   100.93681069
_cell_angle_beta   104.73406011
_cell_angle_gamma   101.40113065
_symmetry_Int_Tables_number   1
_chemical_formula_structural   Ga5Rh3
_chemical_formula_sum   'Ga10 Rh6'
_cell_volume   248.29901841
_cell_formula_units_Z   2
loop_
 _symmetry_equiv_pos_site_id
 _symmetry_equiv_pos_as_xyz
  1  'x, y, z'
loop_
 _atom_site_type_symbol
 _atom_site_label
 _atom_site_symmetry_multiplicity
 _atom_site_fract_x
 _atom_site_fract_y
 _atom_site_fract_z
 _atom_site_occupancy
  Ga  Ga0  1  0.776963  0.546995  0.539600  1
  Ga  Ga1  1  0.223037  0.453005  0.460400  1
  Ga  Ga2  1  0.913571  0.178006  0.045569  1
  Ga  Ga3  1  0.086429  0.821994  0.954431  1
  Ga  Ga4  1  0.551347  0.142856  0.274136  1
  Ga  Ga5  1  0.448653  0.857144  0.725864  1
  Ga  Ga6  1  0.680618  0.473599  0.872122  1
  Ga  Ga7  1  0.319382  0.526401  0.127878  1
  Ga  Ga8  1  0.041147  0.906234  0.346446  1
  Ga  Ga9  1  0.958853  0.093766  0.653554  1
  Rh  Rh10  1  0.847865  0.513775  0.224384  1
  Rh  Rh11  1  0.152135  0.486225  0.775616  1
  Rh  Rh12  1  0.635195  0.826984  0.049783  1
  Rh  Rh13  1  0.364805  0.173016  0.950217  1
  Rh  Rh14  1  0.544347  0.804806  0.421789  1
  Rh  Rh15  1  0.455653  0.195194  0.578211  1
