# generated using pymatgen
data_La2Te4O11
_symmetry_space_group_name_H-M   'P 1'
_cell_length_a   7.00425858
_cell_length_b   7.00425858
_cell_length_c   16.77704173
_cell_angle_alpha   76.57252476
_cell_angle_beta   103.42747524
_cell_angle_gamma   134.99122753
_symmetry_Int_Tables_number   1
_chemical_formula_structural   La2Te4O11
_chemical_formula_sum   'La4 Te8 O22'
_cell_volume   563.40337709
_cell_formula_units_Z   2
loop_
 _symmetry_equiv_pos_site_id
 _symmetry_equiv_pos_as_xyz
  1  'x, y, z'
loop_
 _atom_site_type_symbol
 _atom_site_label
 _atom_site_symmetry_multiplicity
 _atom_site_fract_x
 _atom_site_fract_y
 _atom_site_fract_z
 _atom_site_occupancy
  La  La0  1  0.133520  0.371257  0.461298  1
  La  La1  1  0.371257  0.133520  0.038702  1
  La  La2  1  0.866480  0.628743  0.538702  1
  La  La3  1  0.628743  0.866480  0.961298  1
  Te  Te4  1  0.608479  0.843690  0.299529  1
  Te  Te5  1  0.843690  0.608479  0.200471  1
  Te  Te6  1  0.391521  0.156310  0.700471  1
  Te  Te7  1  0.156310  0.391521  0.799529  1
  Te  Te8  1  0.148119  0.414450  0.126220  1
  Te  Te9  1  0.414450  0.148119  0.373780  1
  Te  Te10  1  0.851881  0.585550  0.873780  1
  Te  Te11  1  0.585550  0.851881  0.626220  1
  O  O12  1  0.852559  0.852559  0.250000  1
  O  O13  1  0.147441  0.147441  0.750000  1
  O  O14  1  0.194356  0.903424  0.170351  1
  O  O15  1  0.903424  0.194356  0.329649  1
  O  O16  1  0.805644  0.096576  0.829649  1
  O  O17  1  0.096576  0.805644  0.670351  1
  O  O18  1  0.615957  0.564604  0.102570  1
  O  O19  1  0.564604  0.615957  0.397430  1
  O  O20  1  0.384043  0.435396  0.897430  1
  O  O21  1  0.435396  0.384043  0.602570  1
  O  O22  1  0.046150  0.194054  0.047081  1
  O  O23  1  0.194054  0.046150  0.452919  1
  O  O24  1  0.676725  0.181081  0.628137  1
  O  O25  1  0.181081  0.676725  0.871863  1
  O  O26  1  0.323275  0.818919  0.371863  1
  O  O27  1  0.818919  0.323275  0.128137  1
  O  O28  1  0.253663  0.667727  0.556648  1
  O  O29  1  0.667727  0.253663  0.943352  1
  O  O30  1  0.746337  0.332273  0.443352  1
  O  O31  1  0.332273  0.746337  0.056648  1
  O  O32  1  0.805946  0.953850  0.547081  1
  O  O33  1  0.953850  0.805946  0.952919  1
