# generated using pymatgen
data_Hg4As2O7
_symmetry_space_group_name_H-M   'P 1'
_cell_length_a   7.53944721
_cell_length_b   10.27488904
_cell_length_c   12.48559563
_cell_angle_alpha   90.00000000
_cell_angle_beta   90.00000000
_cell_angle_gamma   90.00000000
_symmetry_Int_Tables_number   1
_chemical_formula_structural   Hg4As2O7
_chemical_formula_sum   'Hg16 As8 O28'
_cell_volume   967.22143073
_cell_formula_units_Z   4
loop_
 _symmetry_equiv_pos_site_id
 _symmetry_equiv_pos_as_xyz
  1  'x, y, z'
loop_
 _atom_site_type_symbol
 _atom_site_label
 _atom_site_symmetry_multiplicity
 _atom_site_fract_x
 _atom_site_fract_y
 _atom_site_fract_z
 _atom_site_occupancy
  Hg  Hg0  1  0.053789  0.104633  0.451155  1
  Hg  Hg1  1  0.553789  0.395367  0.548845  1
  Hg  Hg2  1  0.446211  0.604633  0.048845  1
  Hg  Hg3  1  0.946211  0.895367  0.951155  1
  Hg  Hg4  1  0.946211  0.895367  0.548845  1
  Hg  Hg5  1  0.446211  0.604633  0.451155  1
  Hg  Hg6  1  0.553789  0.395367  0.951155  1
  Hg  Hg7  1  0.053789  0.104633  0.048845  1
  Hg  Hg8  1  0.558090  0.010131  0.402195  1
  Hg  Hg9  1  0.058090  0.489869  0.597805  1
  Hg  Hg10  1  0.941910  0.510131  0.097805  1
  Hg  Hg11  1  0.441910  0.989869  0.902195  1
  Hg  Hg12  1  0.441910  0.989869  0.597805  1
  Hg  Hg13  1  0.941910  0.510131  0.402195  1
  Hg  Hg14  1  0.058090  0.489869  0.902195  1
  Hg  Hg15  1  0.558090  0.010131  0.097805  1
  As  As16  1  0.318574  0.696766  0.750000  1
  As  As17  1  0.818574  0.803234  0.250000  1
  As  As18  1  0.181426  0.196766  0.750000  1
  As  As19  1  0.681426  0.303234  0.250000  1
  As  As20  1  0.722778  0.761933  0.750000  1
  As  As21  1  0.222778  0.738067  0.250000  1
  As  As22  1  0.777222  0.261933  0.750000  1
  As  As23  1  0.277222  0.238067  0.250000  1
  O  O24  1  0.214681  0.545369  0.750000  1
  O  O25  1  0.714681  0.954631  0.250000  1
  O  O26  1  0.285319  0.045369  0.750000  1
  O  O27  1  0.785319  0.454631  0.250000  1
  O  O28  1  0.551028  0.641882  0.750000  1
  O  O29  1  0.051028  0.858118  0.250000  1
  O  O30  1  0.948972  0.141882  0.750000  1
  O  O31  1  0.448972  0.358118  0.250000  1
  O  O32  1  0.634759  0.914786  0.750000  1
  O  O33  1  0.134759  0.585214  0.250000  1
  O  O34  1  0.865241  0.414786  0.750000  1
  O  O35  1  0.365241  0.085214  0.250000  1
  O  O36  1  0.156684  0.270955  0.364265  1
  O  O37  1  0.656684  0.229045  0.635735  1
  O  O38  1  0.343316  0.770955  0.135735  1
  O  O39  1  0.843316  0.729045  0.864265  1
  O  O40  1  0.843316  0.729045  0.635735  1
  O  O41  1  0.343316  0.770955  0.364265  1
  O  O42  1  0.656684  0.229045  0.864265  1
  O  O43  1  0.156684  0.270955  0.135735  1
  O  O44  1  0.213641  0.271867  0.869487  1
  O  O45  1  0.713641  0.228133  0.130513  1
  O  O46  1  0.286359  0.771867  0.630513  1
  O  O47  1  0.786359  0.728133  0.369487  1
  O  O48  1  0.213641  0.271867  0.630513  1
  O  O49  1  0.713641  0.228133  0.369487  1
  O  O50  1  0.286359  0.771867  0.869487  1
  O  O51  1  0.786359  0.728133  0.130513  1
