# generated using pymatgen
data_NaClO4
_symmetry_space_group_name_H-M   'P 1'
_cell_length_a   4.87140098
_cell_length_b   4.87140098
_cell_length_c   4.87140098
_cell_angle_alpha   117.10630529
_cell_angle_beta   117.10630529
_cell_angle_gamma   95.08964366
_symmetry_Int_Tables_number   1
_chemical_formula_structural   NaClO4
_chemical_formula_sum   'Na1 Cl1 O4'
_cell_volume   84.95478335
_cell_formula_units_Z   1
loop_
 _symmetry_equiv_pos_site_id
 _symmetry_equiv_pos_as_xyz
  1  'x, y, z'
loop_
 _atom_site_type_symbol
 _atom_site_label
 _atom_site_symmetry_multiplicity
 _atom_site_fract_x
 _atom_site_fract_y
 _atom_site_fract_z
 _atom_site_occupancy
  Na  Na0  1  0.500000  0.500000  0.000000  1
  Cl  Cl1  1  0.000000  0.000000  0.000000  1
  O  O2  1  0.035194  0.035194  0.330535  1
  O  O3  1  0.964806  0.295341  0.000000  1
  O  O4  1  0.295341  0.964806  1.000000  1
  O  O5  1  0.704659  0.704659  0.669465  1
