# generated using pymatgen
data_Zr6Co23
_symmetry_space_group_name_H-M   'P 1'
_cell_length_a   8.13517217
_cell_length_b   8.13517217
_cell_length_c   8.13517217
_cell_angle_alpha   60.00000000
_cell_angle_beta   60.00000000
_cell_angle_gamma   60.00000000
_symmetry_Int_Tables_number   1
_chemical_formula_structural   Zr6Co23
_chemical_formula_sum   'Zr6 Co23'
_cell_volume   380.70207832
_cell_formula_units_Z   1
loop_
 _symmetry_equiv_pos_site_id
 _symmetry_equiv_pos_as_xyz
  1  'x, y, z'
loop_
 _atom_site_type_symbol
 _atom_site_label
 _atom_site_symmetry_multiplicity
 _atom_site_fract_x
 _atom_site_fract_y
 _atom_site_fract_z
 _atom_site_occupancy
  Zr  Zr0  1  0.788831  0.211169  0.211169  1
  Zr  Zr1  1  0.211169  0.788831  0.211169  1
  Zr  Zr2  1  0.788831  0.211169  0.788831  1
  Zr  Zr3  1  0.788831  0.788831  0.211169  1
  Zr  Zr4  1  0.211169  0.211169  0.788831  1
  Zr  Zr5  1  0.211169  0.788831  0.788831  1
  Co  Co6  1  0.500000  0.500000  0.500000  1
  Co  Co7  1  0.000000  0.500000  0.500000  1
  Co  Co8  1  0.000000  0.500000  1.000000  1
  Co  Co9  1  0.500000  0.000000  0.500000  1
  Co  Co10  1  0.500000  0.000000  1.000000  1
  Co  Co11  1  0.500000  0.500000  1.000000  1
  Co  Co12  1  1.000000  1.000000  0.500000  1
  Co  Co13  1  0.621045  0.136865  0.621045  1
  Co  Co14  1  0.378955  0.378955  0.378955  1
  Co  Co15  1  0.378955  0.378955  0.863135  1
  Co  Co16  1  0.863135  0.378955  0.378955  1
  Co  Co17  1  0.621045  0.621045  0.136865  1
  Co  Co18  1  0.136865  0.621045  0.621045  1
  Co  Co19  1  0.621045  0.621045  0.621045  1
  Co  Co20  1  0.378955  0.863135  0.378955  1
  Co  Co21  1  0.825063  0.524810  0.825063  1
  Co  Co22  1  0.174937  0.174937  0.174937  1
  Co  Co23  1  0.174937  0.174937  0.475190  1
  Co  Co24  1  0.475190  0.174937  0.174937  1
  Co  Co25  1  0.825063  0.825063  0.524810  1
  Co  Co26  1  0.524810  0.825063  0.825063  1
  Co  Co27  1  0.825063  0.825063  0.825063  1
  Co  Co28  1  0.174937  0.475190  0.174937  1
