# generated using pymatgen
data_MnHO2
_symmetry_space_group_name_H-M   'P 1'
_cell_length_a   5.37507241
_cell_length_b   5.36554592
_cell_length_c   5.38276926
_cell_angle_alpha   90.00000000
_cell_angle_beta   113.18397669
_cell_angle_gamma   90.00000000
_symmetry_Int_Tables_number   1
_chemical_formula_structural   MnHO2
_chemical_formula_sum   'Mn4 H4 O8'
_cell_volume   142.70378706
_cell_formula_units_Z   4
loop_
 _symmetry_equiv_pos_site_id
 _symmetry_equiv_pos_as_xyz
  1  'x, y, z'
loop_
 _atom_site_type_symbol
 _atom_site_label
 _atom_site_symmetry_multiplicity
 _atom_site_fract_x
 _atom_site_fract_y
 _atom_site_fract_z
 _atom_site_occupancy
  Mn  Mn0  1  0.261935  0.511850  0.251922  1
  Mn  Mn1  1  0.738065  0.011850  0.248078  1
  Mn  Mn2  1  0.738065  0.488150  0.748078  1
  Mn  Mn3  1  0.261935  0.988150  0.751922  1
  H  H4  1  0.779167  0.523036  0.233205  1
  H  H5  1  0.220833  0.023036  0.266795  1
  H  H6  1  0.220833  0.476964  0.766795  1
  H  H7  1  0.779167  0.976964  0.733205  1
  O  O8  1  0.126649  0.377463  0.869636  1
  O  O9  1  0.873351  0.877463  0.630364  1
  O  O10  1  0.126649  0.122537  0.369636  1
  O  O11  1  0.873351  0.622537  0.130364  1
  O  O12  1  0.373377  0.625508  0.621517  1
  O  O13  1  0.626623  0.374492  0.378483  1
  O  O14  1  0.626623  0.125508  0.878483  1
  O  O15  1  0.373377  0.874492  0.121517  1
