# generated using pymatgen
data_CoP2O7
_symmetry_space_group_name_H-M   'P 1'
_cell_length_a   7.08986688
_cell_length_b   7.85793381
_cell_length_c   9.09617580
_cell_angle_alpha   90.00000000
_cell_angle_beta   110.21003510
_cell_angle_gamma   90.00000000
_symmetry_Int_Tables_number   1
_chemical_formula_structural   CoP2O7
_chemical_formula_sum   'Co4 P8 O28'
_cell_volume   475.56331620
_cell_formula_units_Z   4
loop_
 _symmetry_equiv_pos_site_id
 _symmetry_equiv_pos_as_xyz
  1  'x, y, z'
loop_
 _atom_site_type_symbol
 _atom_site_label
 _atom_site_symmetry_multiplicity
 _atom_site_fract_x
 _atom_site_fract_y
 _atom_site_fract_z
 _atom_site_occupancy
  Co  Co0  1  0.268161  0.493225  0.247263  1
  Co  Co1  1  0.731839  0.993225  0.252737  1
  Co  Co2  1  0.268161  0.006775  0.747263  1
  Co  Co3  1  0.731839  0.506775  0.752737  1
  P  P4  1  0.075315  0.262700  0.942524  1
  P  P5  1  0.327658  0.699092  0.556176  1
  P  P6  1  0.672342  0.199092  0.943824  1
  P  P7  1  0.924685  0.762700  0.557476  1
  P  P8  1  0.327658  0.800908  0.056176  1
  P  P9  1  0.672342  0.300908  0.443824  1
  P  P10  1  0.924685  0.737300  0.057476  1
  P  P11  1  0.075315  0.237300  0.442524  1
  O  O12  1  0.671993  0.318975  0.612648  1
  O  O13  1  0.002019  0.916855  0.666828  1
  O  O14  1  0.182160  0.305648  0.117201  1
  O  O15  1  0.182160  0.194352  0.617201  1
  O  O16  1  0.328007  0.681025  0.387352  1
  O  O17  1  0.888347  0.356233  0.436860  1
  O  O18  1  0.224836  0.148487  0.903457  1
  O  O19  1  0.817840  0.694352  0.882799  1
  O  O20  1  0.464875  0.577599  0.679163  1
  O  O21  1  0.351327  0.610149  0.094277  1
  O  O22  1  0.535125  0.077599  0.820837  1
  O  O23  1  0.111653  0.856233  0.063140  1
  O  O24  1  0.464875  0.922401  0.179163  1
  O  O25  1  0.817840  0.805648  0.382799  1
  O  O26  1  0.648673  0.110149  0.405723  1
  O  O27  1  0.775164  0.648487  0.596543  1
  O  O28  1  0.328007  0.818975  0.887352  1
  O  O29  1  0.111653  0.643767  0.563140  1
  O  O30  1  0.671993  0.181025  0.112648  1
  O  O31  1  0.648673  0.389851  0.905723  1
  O  O32  1  0.997981  0.083145  0.333172  1
  O  O33  1  0.997981  0.416855  0.833172  1
  O  O34  1  0.351327  0.889851  0.594277  1
  O  O35  1  0.888347  0.143767  0.936860  1
  O  O36  1  0.224836  0.351513  0.403457  1
  O  O37  1  0.535125  0.422401  0.320837  1
  O  O38  1  0.775164  0.851513  0.096543  1
  O  O39  1  0.002019  0.583145  0.166828  1
