# generated using pymatgen
data_MgAl2Cu
_symmetry_space_group_name_H-M   'P 1'
_cell_length_a   5.05914834
_cell_length_b   5.05914834
_cell_length_c   7.13124889
_cell_angle_alpha   90.00000000
_cell_angle_beta   90.00000000
_cell_angle_gamma   133.43011768
_symmetry_Int_Tables_number   1
_chemical_formula_structural   MgAl2Cu
_chemical_formula_sum   'Mg2 Al4 Cu2'
_cell_volume   132.55151008
_cell_formula_units_Z   2
loop_
 _symmetry_equiv_pos_site_id
 _symmetry_equiv_pos_as_xyz
  1  'x, y, z'
loop_
 _atom_site_type_symbol
 _atom_site_label
 _atom_site_symmetry_multiplicity
 _atom_site_fract_x
 _atom_site_fract_y
 _atom_site_fract_z
 _atom_site_occupancy
  Mg  Mg0  1  0.935059  0.064941  0.750000  1
  Mg  Mg1  1  0.064941  0.935059  0.250000  1
  Al  Al2  1  0.644005  0.355995  0.945188  1
  Al  Al3  1  0.644005  0.355995  0.554812  1
  Al  Al4  1  0.355995  0.644005  0.054812  1
  Al  Al5  1  0.355995  0.644005  0.445188  1
  Cu  Cu6  1  0.220497  0.779503  0.750000  1
  Cu  Cu7  1  0.779503  0.220497  0.250000  1
