# generated using pymatgen
data_Nd3Sb5O12
_symmetry_space_group_name_H-M   'P 1'
_cell_length_a   9.65626213
_cell_length_b   9.65626213
_cell_length_c   9.65626213
_cell_angle_alpha   109.47122063
_cell_angle_beta   109.47122063
_cell_angle_gamma   109.47122063
_symmetry_Int_Tables_number   1
_chemical_formula_structural   Nd3Sb5O12
_chemical_formula_sum   'Nd6 Sb10 O24'
_cell_volume   693.11492199
_cell_formula_units_Z   2
loop_
 _symmetry_equiv_pos_site_id
 _symmetry_equiv_pos_as_xyz
  1  'x, y, z'
loop_
 _atom_site_type_symbol
 _atom_site_label
 _atom_site_symmetry_multiplicity
 _atom_site_fract_x
 _atom_site_fract_y
 _atom_site_fract_z
 _atom_site_occupancy
  Nd  Nd0  1  0.500000  0.750000  0.250000  1
  Nd  Nd1  1  0.250000  0.750000  0.500000  1
  Nd  Nd2  1  0.750000  0.250000  0.500000  1
  Nd  Nd3  1  0.250000  0.500000  0.750000  1
  Nd  Nd4  1  0.750000  0.500000  0.250000  1
  Nd  Nd5  1  0.500000  0.250000  0.750000  1
  Sb  Sb6  1  1.000000  1.000000  0.505928  1
  Sb  Sb7  1  1.000000  0.505928  0.000000  1
  Sb  Sb8  1  0.505928  1.000000  0.000000  1
  Sb  Sb9  1  0.494072  0.494072  0.494072  1
  Sb  Sb10  1  0.718473  1.000000  0.718473  1
  Sb  Sb11  1  0.281527  1.000000  0.281527  1
  Sb  Sb12  1  1.000000  0.281527  0.281527  1
  Sb  Sb13  1  1.000000  0.718473  0.718473  1
  Sb  Sb14  1  0.718473  0.718473  0.000000  1
  Sb  Sb15  1  0.281527  0.281527  0.000000  1
  O  O16  1  0.274995  0.802510  0.802510  1
  O  O17  1  0.527516  0.527516  0.725005  1
  O  O18  1  0.527516  0.725005  0.527516  1
  O  O19  1  0.197490  1.000000  0.472484  1
  O  O20  1  0.197490  0.472484  0.000000  1
  O  O21  1  1.000000  0.197490  0.472484  1
  O  O22  1  1.000000  0.472484  0.197490  1
  O  O23  1  0.472484  0.197490  0.000000  1
  O  O24  1  0.802510  0.802510  0.274995  1
  O  O25  1  0.802510  0.274995  0.802510  1
  O  O26  1  0.472484  1.000000  0.197490  1
  O  O27  1  0.725005  0.527516  0.527516  1
  O  O28  1  0.801908  0.292519  0.292519  1
  O  O29  1  0.490610  0.490610  0.198092  1
  O  O30  1  0.490610  0.198092  0.490610  1
  O  O31  1  0.707481  1.000000  0.509390  1
  O  O32  1  0.198092  0.490610  0.490610  1
  O  O33  1  0.509390  1.000000  0.707481  1
  O  O34  1  0.292519  0.801908  0.292519  1
  O  O35  1  0.292519  0.292519  0.801908  1
  O  O36  1  0.509390  0.707481  0.000000  1
  O  O37  1  1.000000  0.509390  0.707481  1
  O  O38  1  1.000000  0.707481  0.509390  1
  O  O39  1  0.707481  0.509390  0.000000  1
