# generated using pymatgen
data_Cu8O7
_symmetry_space_group_name_H-M   'P 1'
_cell_length_a   5.85003523
_cell_length_b   5.85003523
_cell_length_c   6.40151065
_cell_angle_alpha   64.27413664
_cell_angle_beta   115.72586336
_cell_angle_gamma   90.04250806
_symmetry_Int_Tables_number   1
_chemical_formula_structural   Cu8O7
_chemical_formula_sum   'Cu8 O7'
_cell_volume   172.98212449
_cell_formula_units_Z   1
loop_
 _symmetry_equiv_pos_site_id
 _symmetry_equiv_pos_as_xyz
  1  'x, y, z'
loop_
 _atom_site_type_symbol
 _atom_site_label
 _atom_site_symmetry_multiplicity
 _atom_site_fract_x
 _atom_site_fract_y
 _atom_site_fract_z
 _atom_site_occupancy
  Cu  Cu0  1  0.007809  0.997129  0.258766  1
  Cu  Cu1  1  0.997921  0.506445  0.235459  1
  Cu  Cu2  1  0.510543  0.499532  0.773016  1
  Cu  Cu3  1  0.506445  0.997921  0.764541  1
  Cu  Cu4  1  0.499532  0.510543  0.226984  1
  Cu  Cu5  1  0.499363  0.997035  0.258682  1
  Cu  Cu6  1  0.997035  0.499363  0.741318  1
  Cu  Cu7  1  0.997129  0.007809  0.741234  1
  O  O8  1  0.130761  0.633450  0.991183  1
  O  O9  1  0.129902  0.129902  0.000000  1
  O  O10  1  0.633450  0.130761  0.008817  1
  O  O11  1  0.379386  0.379386  0.500000  1
  O  O12  1  0.384689  0.859916  0.530699  1
  O  O13  1  0.868117  0.868117  0.500000  1
  O  O14  1  0.859916  0.384689  0.469301  1
