# generated using pymatgen
data_Na2RuO3
_symmetry_space_group_name_H-M   'P 1'
_cell_length_a   5.49184996
_cell_length_b   5.49184996
_cell_length_c   5.66968357
_cell_angle_alpha   80.59113102
_cell_angle_beta   99.40886898
_cell_angle_gamma   59.99761350
_symmetry_Int_Tables_number   1
_chemical_formula_structural   Na2RuO3
_chemical_formula_sum   'Na4 Ru2 O6'
_cell_volume   139.94720706
_cell_formula_units_Z   2
loop_
 _symmetry_equiv_pos_site_id
 _symmetry_equiv_pos_as_xyz
  1  'x, y, z'
loop_
 _atom_site_type_symbol
 _atom_site_label
 _atom_site_symmetry_multiplicity
 _atom_site_fract_x
 _atom_site_fract_y
 _atom_site_fract_z
 _atom_site_occupancy
  Na  Na0  1  0.660370  0.660370  0.000000  1
  Na  Na1  1  0.339630  0.339630  0.000000  1
  Na  Na2  1  0.000000  0.000000  0.000000  1
  Na  Na3  1  0.500000  0.500000  0.500000  1
  Ru  Ru4  1  0.166831  0.166831  0.500000  1
  Ru  Ru5  1  0.833169  0.833169  0.500000  1
  O  O6  1  0.938488  0.431057  0.703614  1
  O  O7  1  0.568943  0.061512  0.703614  1
  O  O8  1  0.200996  0.799004  0.706906  1
  O  O9  1  0.061512  0.568943  0.296386  1
  O  O10  1  0.799004  0.200996  0.293094  1
  O  O11  1  0.431057  0.938488  0.296386  1
