# generated using pymatgen
data_Er2Mo2C3
_symmetry_space_group_name_H-M   'P 1'
_cell_length_a   6.05543444
_cell_length_b   6.05543444
_cell_length_c   5.68890421
_cell_angle_alpha   69.04651139
_cell_angle_beta   110.95348861
_cell_angle_gamma   148.09504063
_symmetry_Int_Tables_number   1
_chemical_formula_structural   Er2Mo2C3
_chemical_formula_sum   'Er2 Mo2 C3'
_cell_volume   102.33951425
_cell_formula_units_Z   1
loop_
 _symmetry_equiv_pos_site_id
 _symmetry_equiv_pos_as_xyz
  1  'x, y, z'
loop_
 _atom_site_type_symbol
 _atom_site_label
 _atom_site_symmetry_multiplicity
 _atom_site_fract_x
 _atom_site_fract_y
 _atom_site_fract_z
 _atom_site_occupancy
  Er  Er0  1  0.389409  0.610591  0.173071  1
  Er  Er1  1  0.610591  0.389409  0.826929  1
  Mo  Mo2  1  0.156641  0.843359  0.326586  1
  Mo  Mo3  1  0.843359  0.156641  0.673414  1
  C  C4  1  0.752345  0.247655  0.264520  1
  C  C5  1  0.247655  0.752345  0.735480  1
  C  C6  1  0.000000  0.000000  0.000000  1
