# generated using pymatgen
data_TiZn2
_symmetry_space_group_name_H-M   'P 1'
_cell_length_a   5.08309065
_cell_length_b   5.08309065
_cell_length_c   8.17131072
_cell_angle_alpha   90.00000000
_cell_angle_beta   90.00000000
_cell_angle_gamma   120.00000000
_symmetry_Int_Tables_number   1
_chemical_formula_structural   TiZn2
_chemical_formula_sum   'Ti4 Zn8'
_cell_volume   182.84288537
_cell_formula_units_Z   4
loop_
 _symmetry_equiv_pos_site_id
 _symmetry_equiv_pos_as_xyz
  1  'x, y, z'
loop_
 _atom_site_type_symbol
 _atom_site_label
 _atom_site_symmetry_multiplicity
 _atom_site_fract_x
 _atom_site_fract_y
 _atom_site_fract_z
 _atom_site_occupancy
  Ti  Ti0  1  0.333333  0.666667  0.067085  1
  Ti  Ti1  1  0.666667  0.333333  0.567085  1
  Ti  Ti2  1  0.666667  0.333333  0.932915  1
  Ti  Ti3  1  0.333333  0.666667  0.432915  1
  Zn  Zn4  1  0.000000  0.000000  0.000000  1
  Zn  Zn5  1  0.000000  0.000000  0.500000  1
  Zn  Zn6  1  0.828151  0.656303  0.250000  1
  Zn  Zn7  1  0.171849  0.828151  0.750000  1
  Zn  Zn8  1  0.656303  0.828151  0.750000  1
  Zn  Zn9  1  0.343697  0.171849  0.250000  1
  Zn  Zn10  1  0.828151  0.171849  0.250000  1
  Zn  Zn11  1  0.171849  0.343697  0.750000  1
