# generated using pymatgen
data_LiFeP2O7
_symmetry_space_group_name_H-M   'P 1'
_cell_length_a   5.30090043
_cell_length_b   5.30090043
_cell_length_c   9.07750022
_cell_angle_alpha   81.51834409
_cell_angle_beta   98.48165591
_cell_angle_gamma   76.26730422
_symmetry_Int_Tables_number   1
_chemical_formula_structural   LiFeP2O7
_chemical_formula_sum   'Li2 Fe2 P4 O14'
_cell_volume   240.61002758
_cell_formula_units_Z   2
loop_
 _symmetry_equiv_pos_site_id
 _symmetry_equiv_pos_as_xyz
  1  'x, y, z'
loop_
 _atom_site_type_symbol
 _atom_site_label
 _atom_site_symmetry_multiplicity
 _atom_site_fract_x
 _atom_site_fract_y
 _atom_site_fract_z
 _atom_site_occupancy
  Li  Li0  1  0.298534  0.311289  0.003239  1
  Li  Li1  1  0.688711  0.701466  0.503239  1
  Fe  Fe2  1  0.686338  0.675131  0.997707  1
  Fe  Fe3  1  0.324869  0.313662  0.497707  1
  P  P4  1  0.786239  0.217813  0.297684  1
  P  P5  1  0.209938  0.776522  0.201436  1
  P  P6  1  0.223478  0.790062  0.701436  1
  P  P7  1  0.782187  0.213761  0.797684  1
  O  O8  1  0.373338  0.616832  0.355739  1
  O  O9  1  0.016584  0.020883  0.748058  1
  O  O10  1  0.646042  0.042442  0.892780  1
  O  O11  1  0.608965  0.371799  0.645927  1
  O  O12  1  0.082058  0.628487  0.608734  1
  O  O13  1  0.371513  0.917942  0.108734  1
  O  O14  1  0.381855  0.941143  0.609378  1
  O  O15  1  0.608470  0.096017  0.389319  1
  O  O16  1  0.628201  0.391035  0.145927  1
  O  O17  1  0.979117  0.983416  0.248058  1
  O  O18  1  0.957558  0.353958  0.392780  1
  O  O19  1  0.383168  0.626662  0.855739  1
  O  O20  1  0.903983  0.391530  0.889319  1
  O  O21  1  0.058857  0.618145  0.109378  1
