# generated using pymatgen
data_BaCeO3
_symmetry_space_group_name_H-M   'P 1'
_cell_length_a   6.28692204
_cell_length_b   6.30357075
_cell_length_c   8.88501010
_cell_angle_alpha   90.00000000
_cell_angle_beta   90.00000000
_cell_angle_gamma   90.00000000
_symmetry_Int_Tables_number   1
_chemical_formula_structural   BaCeO3
_chemical_formula_sum   'Ba4 Ce4 O12'
_cell_volume   352.11346452
_cell_formula_units_Z   4
loop_
 _symmetry_equiv_pos_site_id
 _symmetry_equiv_pos_as_xyz
  1  'x, y, z'
loop_
 _atom_site_type_symbol
 _atom_site_label
 _atom_site_symmetry_multiplicity
 _atom_site_fract_x
 _atom_site_fract_y
 _atom_site_fract_z
 _atom_site_occupancy
  Ba  Ba0  1  0.493921  0.976598  0.250000  1
  Ba  Ba1  1  0.006079  0.476598  0.250000  1
  Ba  Ba2  1  0.506079  0.023402  0.750000  1
  Ba  Ba3  1  0.993921  0.523402  0.750000  1
  Ce  Ce4  1  0.500000  0.500000  0.000000  1
  Ce  Ce5  1  0.000000  0.000000  0.500000  1
  Ce  Ce6  1  0.500000  0.500000  0.500000  1
  Ce  Ce7  1  0.000000  0.000000  0.000000  1
  O  O8  1  0.575677  0.517916  0.250000  1
  O  O9  1  0.924323  0.017916  0.250000  1
  O  O10  1  0.424323  0.482084  0.750000  1
  O  O11  1  0.075677  0.982084  0.750000  1
  O  O12  1  0.222261  0.721388  0.040673  1
  O  O13  1  0.277739  0.221388  0.459327  1
  O  O14  1  0.777739  0.278612  0.540673  1
  O  O15  1  0.722261  0.778612  0.959327  1
  O  O16  1  0.777739  0.278612  0.959327  1
  O  O17  1  0.722261  0.778612  0.540673  1
  O  O18  1  0.222261  0.721388  0.459327  1
  O  O19  1  0.277739  0.221388  0.040673  1
