# generated using pymatgen
data_Ag2W2O7
_symmetry_space_group_name_H-M   'P 1'
_cell_length_a   6.21084516
_cell_length_b   7.23679526
_cell_length_c   7.80894531
_cell_angle_alpha   106.89774493
_cell_angle_beta   87.43816828
_cell_angle_gamma   103.06287190
_symmetry_Int_Tables_number   1
_chemical_formula_structural   Ag2W2O7
_chemical_formula_sum   'Ag4 W4 O14'
_cell_volume   327.05838376
_cell_formula_units_Z   2
loop_
 _symmetry_equiv_pos_site_id
 _symmetry_equiv_pos_as_xyz
  1  'x, y, z'
loop_
 _atom_site_type_symbol
 _atom_site_label
 _atom_site_symmetry_multiplicity
 _atom_site_fract_x
 _atom_site_fract_y
 _atom_site_fract_z
 _atom_site_occupancy
  Ag  Ag0  1  0.763654  0.705564  0.059700  1
  Ag  Ag1  1  0.299490  0.730343  0.262678  1
  Ag  Ag2  1  0.700510  0.269657  0.737322  1
  Ag  Ag3  1  0.236346  0.294436  0.940300  1
  W  W4  1  0.725143  0.273418  0.224429  1
  W  W5  1  0.274857  0.726582  0.775571  1
  W  W6  1  0.725758  0.701829  0.558643  1
  W  W7  1  0.274242  0.298171  0.441357  1
  O  O8  1  0.789896  0.601078  0.314943  1
  O  O9  1  0.394226  0.642134  0.502663  1
  O  O10  1  0.824184  0.296569  0.007490  1
  O  O11  1  0.417457  0.297942  0.201807  1
  O  O12  1  0.605774  0.357866  0.497337  1
  O  O13  1  0.210104  0.398922  0.685057  1
  O  O14  1  0.013943  0.324297  0.340871  1
  O  O15  1  0.663509  0.012353  0.193001  1
  O  O16  1  0.175816  0.703431  0.992510  1
  O  O17  1  0.986057  0.675703  0.659129  1
  O  O18  1  0.219849  0.042660  0.416839  1
  O  O19  1  0.336491  0.987647  0.806999  1
  O  O20  1  0.582543  0.702058  0.798193  1
  O  O21  1  0.780151  0.957340  0.583161  1
