# generated using pymatgen
data_Ag2Te
_symmetry_space_group_name_H-M   'P 1'
_cell_length_a   4.55382603
_cell_length_b   4.55382603
_cell_length_c   7.66676011
_cell_angle_alpha   90.00000000
_cell_angle_beta   90.00000000
_cell_angle_gamma   112.20535891
_symmetry_Int_Tables_number   1
_chemical_formula_structural   Ag2Te
_chemical_formula_sum   'Ag4 Te2'
_cell_volume   147.19682858
_cell_formula_units_Z   2
loop_
 _symmetry_equiv_pos_site_id
 _symmetry_equiv_pos_as_xyz
  1  'x, y, z'
loop_
 _atom_site_type_symbol
 _atom_site_label
 _atom_site_symmetry_multiplicity
 _atom_site_fract_x
 _atom_site_fract_y
 _atom_site_fract_z
 _atom_site_occupancy
  Ag  Ag0  1  0.642578  0.357422  0.141993  1
  Ag  Ag1  1  0.857422  0.142578  0.641993  1
  Ag  Ag2  1  0.142578  0.857422  0.358007  1
  Ag  Ag3  1  0.357422  0.642578  0.858007  1
  Te  Te4  1  0.500000  0.500000  0.500000  1
  Te  Te5  1  0.000000  0.000000  0.000000  1
