# generated using pymatgen
data_LiMg9B20
_symmetry_space_group_name_H-M   'P 1'
_cell_length_a   6.13970727
_cell_length_b   7.07529426
_cell_length_c   7.66146830
_cell_angle_alpha   96.39405720
_cell_angle_beta   101.40842337
_cell_angle_gamma   115.67982692
_symmetry_Int_Tables_number   1
_chemical_formula_structural   LiMg9B20
_chemical_formula_sum   'Li1 Mg9 B20'
_cell_volume   286.60761886
_cell_formula_units_Z   1
loop_
 _symmetry_equiv_pos_site_id
 _symmetry_equiv_pos_as_xyz
  1  'x, y, z'
loop_
 _atom_site_type_symbol
 _atom_site_label
 _atom_site_symmetry_multiplicity
 _atom_site_fract_x
 _atom_site_fract_y
 _atom_site_fract_z
 _atom_site_occupancy
  Li  Li0  1  0.000000  0.000000  0.000000  1
  Mg  Mg1  1  0.500000  0.000000  0.000000  1
  Mg  Mg2  1  0.500104  0.800110  0.399742  1
  Mg  Mg3  1  0.999761  0.397023  0.198264  1
  Mg  Mg4  1  0.499896  0.199890  0.600258  1
  Mg  Mg5  1  0.999701  0.800439  0.398467  1
  Mg  Mg6  1  0.503697  0.602936  0.801790  1
  Mg  Mg7  1  0.496303  0.397064  0.198210  1
  Mg  Mg8  1  0.000299  0.199561  0.601533  1
  Mg  Mg9  1  0.000239  0.602977  0.801736  1
  B  B10  1  0.333154  0.233582  0.866672  1
  B  B11  1  0.334231  0.634004  0.066791  1
  B  B12  1  0.165209  0.365442  0.931978  1
  B  B13  1  0.333250  0.033652  0.266362  1
  B  B14  1  0.165075  0.766418  0.133354  1
  B  B15  1  0.834925  0.233582  0.866646  1
  B  B16  1  0.164642  0.164662  0.332295  1
  B  B17  1  0.834791  0.634558  0.068022  1
  B  B18  1  0.334329  0.433721  0.467372  1
  B  B19  1  0.665769  0.365996  0.933209  1
  B  B20  1  0.834958  0.033530  0.266620  1
  B  B21  1  0.666846  0.766418  0.133328  1
  B  B22  1  0.334892  0.834668  0.667478  1
  B  B23  1  0.165267  0.565482  0.533119  1
  B  B24  1  0.665108  0.165332  0.332522  1
  B  B25  1  0.834733  0.434518  0.466881  1
  B  B26  1  0.165042  0.966470  0.733380  1
  B  B27  1  0.835358  0.835338  0.667705  1
  B  B28  1  0.665671  0.566279  0.532628  1
  B  B29  1  0.666750  0.966348  0.733638  1
