# generated using pymatgen
data_Nb2Tl2O7
_symmetry_space_group_name_H-M   'P 1'
_cell_length_a   7.61835415
_cell_length_b   7.61835415
_cell_length_c   7.61835415
_cell_angle_alpha   60.00000000
_cell_angle_beta   60.00000000
_cell_angle_gamma   60.00000000
_symmetry_Int_Tables_number   1
_chemical_formula_structural   Nb2Tl2O7
_chemical_formula_sum   'Nb4 Tl4 O14'
_cell_volume   312.65722982
_cell_formula_units_Z   2
loop_
 _symmetry_equiv_pos_site_id
 _symmetry_equiv_pos_as_xyz
  1  'x, y, z'
loop_
 _atom_site_type_symbol
 _atom_site_label
 _atom_site_symmetry_multiplicity
 _atom_site_fract_x
 _atom_site_fract_y
 _atom_site_fract_z
 _atom_site_occupancy
  Nb  Nb0  1  0.625000  0.125000  0.625000  1
  Nb  Nb1  1  0.125000  0.625000  0.625000  1
  Nb  Nb2  1  0.625000  0.625000  0.625000  1
  Nb  Nb3  1  0.625000  0.625000  0.125000  1
  Tl  Tl4  1  0.125000  0.125000  0.625000  1
  Tl  Tl5  1  0.625000  0.125000  0.125000  1
  Tl  Tl6  1  0.125000  0.125000  0.125000  1
  Tl  Tl7  1  0.125000  0.625000  0.125000  1
  O  O8  1  0.562802  0.562802  0.937198  1
  O  O9  1  0.312802  0.312802  0.687198  1
  O  O10  1  0.687198  0.312802  0.687198  1
  O  O11  1  0.937198  0.562802  0.937198  1
  O  O12  1  0.687198  0.312802  0.312802  1
  O  O13  1  0.312802  0.687198  0.687198  1
  O  O14  1  0.562802  0.937198  0.937198  1
  O  O15  1  0.000000  0.000000  0.000000  1
  O  O16  1  0.687198  0.687198  0.312802  1
  O  O17  1  0.312802  0.687198  0.312802  1
  O  O18  1  0.937198  0.562802  0.562802  1
  O  O19  1  0.250000  0.250000  0.250000  1
  O  O20  1  0.562802  0.937198  0.562802  1
  O  O21  1  0.937198  0.937198  0.562802  1
