# generated using pymatgen
data_ZrGa2
_symmetry_space_group_name_H-M   'P 1'
_cell_length_a   6.81103508
_cell_length_b   6.81103508
_cell_length_c   4.15715518
_cell_angle_alpha   90.00000000
_cell_angle_beta   90.00000000
_cell_angle_gamma   145.70470012
_symmetry_Int_Tables_number   1
_chemical_formula_structural   ZrGa2
_chemical_formula_sum   'Zr2 Ga4'
_cell_volume   108.66363679
_cell_formula_units_Z   2
loop_
 _symmetry_equiv_pos_site_id
 _symmetry_equiv_pos_as_xyz
  1  'x, y, z'
loop_
 _atom_site_type_symbol
 _atom_site_label
 _atom_site_symmetry_multiplicity
 _atom_site_fract_x
 _atom_site_fract_y
 _atom_site_fract_z
 _atom_site_occupancy
  Zr  Zr0  1  0.349944  0.650056  0.000000  1
  Zr  Zr1  1  0.650056  0.349944  1.000000  1
  Ga  Ga2  1  0.000000  0.000000  0.000000  1
  Ga  Ga3  1  0.500000  0.500000  0.500000  1
  Ga  Ga4  1  0.178016  0.821984  0.500000  1
  Ga  Ga5  1  0.821984  0.178016  0.500000  1
