# generated using pymatgen
data_Ba6Mg11F34
_symmetry_space_group_name_H-M   'P 1'
_cell_length_a   7.63137622
_cell_length_b   10.05841577
_cell_length_c   10.19167871
_cell_angle_alpha   81.70740427
_cell_angle_beta   72.48428756
_cell_angle_gamma   71.87365957
_symmetry_Int_Tables_number   1
_chemical_formula_structural   Ba6Mg11F34
_chemical_formula_sum   'Ba6 Mg11 F34'
_cell_volume   707.90724607
_cell_formula_units_Z   1
loop_
 _symmetry_equiv_pos_site_id
 _symmetry_equiv_pos_as_xyz
  1  'x, y, z'
loop_
 _atom_site_type_symbol
 _atom_site_label
 _atom_site_symmetry_multiplicity
 _atom_site_fract_x
 _atom_site_fract_y
 _atom_site_fract_z
 _atom_site_occupancy
  Ba  Ba0  1  0.668180  0.657556  0.968617  1
  Ba  Ba1  1  0.331820  0.342444  0.031383  1
  Ba  Ba2  1  0.637112  0.906468  0.268542  1
  Ba  Ba3  1  0.362888  0.093532  0.731458  1
  Ba  Ba4  1  0.215977  0.636991  0.342919  1
  Ba  Ba5  1  0.784023  0.363009  0.657081  1
  Mg  Mg6  1  0.188811  0.004854  0.185135  1
  Mg  Mg7  1  0.811189  0.995146  0.814865  1
  Mg  Mg8  1  0.106345  0.749444  0.009670  1
  Mg  Mg9  1  0.893655  0.250556  0.990330  1
  Mg  Mg10  1  0.303958  0.751800  0.699103  1
  Mg  Mg11  1  0.696042  0.248200  0.300897  1
  Mg  Mg12  1  0.732426  0.743740  0.607665  1
  Mg  Mg13  1  0.267574  0.256260  0.392335  1
  Mg  Mg14  1  0.818700  0.513103  0.291182  1
  Mg  Mg15  1  0.181300  0.486897  0.708818  1
  Mg  Mg16  1  0.000000  0.000000  0.500000  1
  F  F17  1  0.302037  0.619898  0.576522  1
  F  F18  1  0.697963  0.380102  0.423478  1
  F  F19  1  0.479597  0.861143  0.573267  1
  F  F20  1  0.520403  0.138857  0.426733  1
  F  F21  1  0.761461  0.101898  0.633889  1
  F  F22  1  0.238539  0.898102  0.366111  1
  F  F23  1  0.680566  0.863962  0.765292  1
  F  F24  1  0.319434  0.136038  0.234708  1
  F  F25  1  0.942707  0.136605  0.831168  1
  F  F26  1  0.057293  0.863395  0.168832  1
  F  F27  1  0.947063  0.630078  0.138237  1
  F  F28  1  0.052937  0.369922  0.861763  1
  F  F29  1  0.557968  0.631605  0.727974  1
  F  F30  1  0.442032  0.368395  0.272026  1
  F  F31  1  0.886140  0.853619  0.476146  1
  F  F32  1  0.113860  0.146381  0.523854  1
  F  F33  1  0.842188  0.373304  0.152036  1
  F  F34  1  0.581957  0.640340  0.254244  1
  F  F35  1  0.418043  0.359660  0.745756  1
  F  F36  1  0.443269  0.883529  0.098731  1
  F  F37  1  0.556731  0.116471  0.901269  1
  F  F38  1  0.075884  0.403991  0.314349  1
  F  F39  1  0.924116  0.596009  0.685651  1
  F  F40  1  0.062427  0.894172  0.673588  1
  F  F41  1  0.937573  0.105828  0.326412  1
  F  F42  1  0.858313  0.862828  0.972794  1
  F  F43  1  0.141687  0.137172  0.027206  1
  F  F44  1  0.326725  0.612101  0.066412  1
  F  F45  1  0.673275  0.387899  0.933588  1
  F  F46  1  0.197774  0.371129  0.558353  1
  F  F47  1  0.802226  0.628871  0.441647  1
  F  F48  1  0.734781  0.147977  0.135256  1
  F  F49  1  0.265219  0.852023  0.864744  1
  F  F50  1  0.157812  0.626696  0.847964  1
