# generated using pymatgen
data_NaCN
_symmetry_space_group_name_H-M   'P 1'
_cell_length_a   4.13482760
_cell_length_b   4.13482760
_cell_length_c   4.13482760
_cell_angle_alpha   127.06579384
_cell_angle_beta   108.53092285
_cell_angle_gamma   94.55705932
_symmetry_Int_Tables_number   1
_chemical_formula_structural   NaCN
_chemical_formula_sum   'Na1 C1 N1'
_cell_volume   49.93476915
_cell_formula_units_Z   1
loop_
 _symmetry_equiv_pos_site_id
 _symmetry_equiv_pos_as_xyz
  1  'x, y, z'
loop_
 _atom_site_type_symbol
 _atom_site_label
 _atom_site_symmetry_multiplicity
 _atom_site_fract_x
 _atom_site_fract_y
 _atom_site_fract_z
 _atom_site_occupancy
  Na  Na0  1  0.988582  0.000000  0.988582  1
  C  C1  1  0.383869  0.500000  0.883869  1
  N  N2  1  0.627549  0.500000  0.127549  1
