# generated using pymatgen
data_NdZn2
_symmetry_space_group_name_H-M   'P 1'
_cell_length_a   5.78929332
_cell_length_b   5.78929332
_cell_length_c   5.78929332
_cell_angle_alpha   133.09712914
_cell_angle_beta   99.77598299
_cell_angle_gamma   98.45116497
_symmetry_Int_Tables_number   1
_chemical_formula_structural   NdZn2
_chemical_formula_sum   'Nd2 Zn4'
_cell_volume   129.96730908
_cell_formula_units_Z   2
loop_
 _symmetry_equiv_pos_site_id
 _symmetry_equiv_pos_as_xyz
  1  'x, y, z'
loop_
 _atom_site_type_symbol
 _atom_site_label
 _atom_site_symmetry_multiplicity
 _atom_site_fract_x
 _atom_site_fract_y
 _atom_site_fract_z
 _atom_site_occupancy
  Nd  Nd0  1  0.788924  0.538924  0.750000  1
  Nd  Nd1  1  0.211076  0.461076  0.250000  1
  Zn  Zn2  1  0.389603  0.834612  0.054991  1
  Zn  Zn3  1  0.610397  0.165388  0.945009  1
  Zn  Zn4  1  0.779621  0.834612  0.445009  1
  Zn  Zn5  1  0.220379  0.165388  0.554991  1
