# generated using pymatgen
data_ZrGe2Rh
_symmetry_space_group_name_H-M   'P 1'
_cell_length_a   8.08907032
_cell_length_b   9.41676872
_cell_length_c   10.58548293
_cell_angle_alpha   90.00000000
_cell_angle_beta   90.00000000
_cell_angle_gamma   90.00000000
_symmetry_Int_Tables_number   1
_chemical_formula_structural   ZrGe2Rh
_chemical_formula_sum   'Zr12 Ge24 Rh12'
_cell_volume   806.32697887
_cell_formula_units_Z   12
loop_
 _symmetry_equiv_pos_site_id
 _symmetry_equiv_pos_as_xyz
  1  'x, y, z'
loop_
 _atom_site_type_symbol
 _atom_site_label
 _atom_site_symmetry_multiplicity
 _atom_site_fract_x
 _atom_site_fract_y
 _atom_site_fract_z
 _atom_site_occupancy
  Zr  Zr0  1  0.758576  0.328523  0.048437  1
  Zr  Zr1  1  0.758576  0.828523  0.451563  1
  Zr  Zr2  1  0.758576  0.671477  0.951563  1
  Zr  Zr3  1  0.000000  0.665593  0.679113  1
  Zr  Zr4  1  0.241424  0.828523  0.451563  1
  Zr  Zr5  1  0.241424  0.328523  0.048437  1
  Zr  Zr6  1  0.000000  0.165593  0.820887  1
  Zr  Zr7  1  0.241424  0.671477  0.951563  1
  Zr  Zr8  1  0.241424  0.171477  0.548437  1
  Zr  Zr9  1  0.758576  0.171477  0.548437  1
  Zr  Zr10  1  0.000000  0.834407  0.179113  1
  Zr  Zr11  1  0.000000  0.334407  0.320887  1
  Ge  Ge12  1  0.348185  0.656905  0.682628  1
  Ge  Ge13  1  0.500000  0.947669  0.609564  1
  Ge  Ge14  1  0.000000  0.038144  0.384474  1
  Ge  Ge15  1  0.348185  0.343095  0.317372  1
  Ge  Ge16  1  0.000000  0.538144  0.115526  1
  Ge  Ge17  1  0.000000  0.461856  0.884474  1
  Ge  Ge18  1  0.500000  0.861015  0.900931  1
  Ge  Ge19  1  0.651815  0.343095  0.317372  1
  Ge  Ge20  1  0.651815  0.843095  0.182628  1
  Ge  Ge21  1  0.000000  0.961856  0.615526  1
  Ge  Ge22  1  0.000000  0.628571  0.397147  1
  Ge  Ge23  1  0.500000  0.052331  0.390436  1
  Ge  Ge24  1  0.500000  0.361015  0.599069  1
  Ge  Ge25  1  0.500000  0.138985  0.099069  1
  Ge  Ge26  1  0.500000  0.552331  0.109564  1
  Ge  Ge27  1  0.651815  0.656905  0.682628  1
  Ge  Ge28  1  0.651815  0.156905  0.817372  1
  Ge  Ge29  1  0.348185  0.156905  0.817372  1
  Ge  Ge30  1  0.000000  0.128571  0.102853  1
  Ge  Ge31  1  0.000000  0.871429  0.897147  1
  Ge  Ge32  1  0.500000  0.447669  0.890436  1
  Ge  Ge33  1  0.348185  0.843095  0.182628  1
  Ge  Ge34  1  0.500000  0.638985  0.400931  1
  Ge  Ge35  1  0.000000  0.371429  0.602853  1
  Rh  Rh36  1  0.748414  0.405056  0.755838  1
  Rh  Rh37  1  0.252751  0.000000  0.000000  1
  Rh  Rh38  1  0.748414  0.594944  0.244162  1
  Rh  Rh39  1  0.747249  0.000000  0.000000  1
  Rh  Rh40  1  0.748414  0.905056  0.744162  1
  Rh  Rh41  1  0.748414  0.094944  0.255838  1
  Rh  Rh42  1  0.251586  0.405056  0.755838  1
  Rh  Rh43  1  0.251586  0.594944  0.244162  1
  Rh  Rh44  1  0.252751  0.500000  0.500000  1
  Rh  Rh45  1  0.747249  0.500000  0.500000  1
  Rh  Rh46  1  0.251586  0.905056  0.744162  1
  Rh  Rh47  1  0.251586  0.094944  0.255838  1
