# generated using pymatgen
data_Hf2Si4Ru3
_symmetry_space_group_name_H-M   'P 1'
_cell_length_a   9.87355937
_cell_length_b   9.87355937
_cell_length_c   13.31602948
_cell_angle_alpha   54.05435840
_cell_angle_beta   125.94564160
_cell_angle_gamma   148.51572309
_symmetry_Int_Tables_number   1
_chemical_formula_structural   Hf2Si4Ru3
_chemical_formula_sum   'Hf8 Si16 Ru12'
_cell_volume   537.28307223
_cell_formula_units_Z   4
loop_
 _symmetry_equiv_pos_site_id
 _symmetry_equiv_pos_as_xyz
  1  'x, y, z'
loop_
 _atom_site_type_symbol
 _atom_site_label
 _atom_site_symmetry_multiplicity
 _atom_site_fract_x
 _atom_site_fract_y
 _atom_site_fract_z
 _atom_site_occupancy
  Hf  Hf0  1  0.297989  0.444939  0.351777  1
  Hf  Hf1  1  0.444939  0.297989  0.148223  1
  Hf  Hf2  1  0.702011  0.555061  0.648223  1
  Hf  Hf3  1  0.555061  0.702011  0.851777  1
  Hf  Hf4  1  0.037700  0.705902  0.362152  1
  Hf  Hf5  1  0.705902  0.037700  0.137848  1
  Hf  Hf6  1  0.962300  0.294098  0.637848  1
  Hf  Hf7  1  0.294098  0.962300  0.862152  1
  Si  Si8  1  0.872699  0.872699  0.750000  1
  Si  Si9  1  0.127301  0.127301  0.250000  1
  Si  Si10  1  0.381411  0.381411  0.750000  1
  Si  Si11  1  0.618589  0.618589  0.250000  1
  Si  Si12  1  0.970998  0.744608  0.105732  1
  Si  Si13  1  0.744608  0.970998  0.394268  1
  Si  Si14  1  0.029002  0.255392  0.894268  1
  Si  Si15  1  0.255392  0.029002  0.605732  1
  Si  Si16  1  0.572355  0.913984  0.935592  1
  Si  Si17  1  0.913984  0.572355  0.564408  1
  Si  Si18  1  0.427645  0.086016  0.064408  1
  Si  Si19  1  0.086016  0.427645  0.435592  1
  Si  Si20  1  0.388342  0.857382  0.604501  1
  Si  Si21  1  0.857382  0.388342  0.895499  1
  Si  Si22  1  0.611658  0.142618  0.395499  1
  Si  Si23  1  0.142618  0.611658  0.104501  1
  Ru  Ru24  1  0.650372  0.174345  0.719694  1
  Ru  Ru25  1  0.174345  0.650372  0.780306  1
  Ru  Ru26  1  0.766602  0.521291  0.932595  1
  Ru  Ru27  1  0.825655  0.349628  0.219694  1
  Ru  Ru28  1  0.908239  0.865831  0.415714  1
  Ru  Ru29  1  0.865831  0.908239  0.084286  1
  Ru  Ru30  1  0.091761  0.134169  0.584286  1
  Ru  Ru31  1  0.134169  0.091761  0.915714  1
  Ru  Ru32  1  0.233398  0.478709  0.067405  1
  Ru  Ru33  1  0.478709  0.233398  0.432595  1
  Ru  Ru34  1  0.521291  0.766602  0.567405  1
  Ru  Ru35  1  0.349628  0.825655  0.280306  1
