# generated using pymatgen
data_Nb(NiP4)4
_symmetry_space_group_name_H-M   'P 1'
_cell_length_a   10.28966205
_cell_length_b   10.28966205
_cell_length_c   11.22665814
_cell_angle_alpha   79.76400335
_cell_angle_beta   100.23599665
_cell_angle_gamma   147.69437577
_symmetry_Int_Tables_number   1
_chemical_formula_structural   Nb(NiP4)4
_chemical_formula_sum   'Nb2 Ni8 P32'
_cell_volume   624.28846350
_cell_formula_units_Z   2
loop_
 _symmetry_equiv_pos_site_id
 _symmetry_equiv_pos_as_xyz
  1  'x, y, z'
loop_
 _atom_site_type_symbol
 _atom_site_label
 _atom_site_symmetry_multiplicity
 _atom_site_fract_x
 _atom_site_fract_y
 _atom_site_fract_z
 _atom_site_occupancy
  Nb  Nb0  1  0.394097  0.394097  0.250000  1
  Nb  Nb1  1  0.605903  0.605903  0.750000  1
  Ni  Ni2  1  0.195663  0.694279  0.370866  1
  Ni  Ni3  1  0.694279  0.195663  0.129134  1
  Ni  Ni4  1  0.804337  0.305721  0.629134  1
  Ni  Ni5  1  0.305721  0.804337  0.870866  1
  Ni  Ni6  1  0.987504  0.202088  0.926472  1
  Ni  Ni7  1  0.202088  0.987504  0.573528  1
  Ni  Ni8  1  0.012496  0.797912  0.073528  1
  Ni  Ni9  1  0.797912  0.012496  0.426472  1
  P  P10  1  0.739584  0.747520  0.395073  1
  P  P11  1  0.747521  0.739584  0.104927  1
  P  P12  1  0.260416  0.252479  0.604927  1
  P  P13  1  0.252479  0.260416  0.895073  1
  P  P14  1  0.625877  0.379371  0.339042  1
  P  P15  1  0.379371  0.625877  0.160958  1
  P  P16  1  0.374123  0.620629  0.660958  1
  P  P17  1  0.620629  0.374123  0.839042  1
  P  P18  1  0.011860  0.728007  0.280563  1
  P  P19  1  0.728007  0.011860  0.219437  1
  P  P20  1  0.888086  0.014195  0.631267  1
  P  P21  1  0.014195  0.888086  0.868733  1
  P  P22  1  0.111914  0.985805  0.368733  1
  P  P23  1  0.985805  0.111914  0.131267  1
  P  P24  1  0.658702  0.785632  0.920591  1
  P  P25  1  0.785632  0.658702  0.579409  1
  P  P26  1  0.341298  0.214368  0.079409  1
  P  P27  1  0.214368  0.341298  0.420591  1
  P  P28  1  0.320985  0.605021  0.958365  1
  P  P29  1  0.605021  0.320985  0.541635  1
  P  P30  1  0.679015  0.394979  0.041635  1
  P  P31  1  0.394979  0.679015  0.458365  1
  P  P32  1  0.721398  0.146490  0.946589  1
  P  P33  1  0.146490  0.721398  0.553411  1
  P  P34  1  0.278602  0.853510  0.053411  1
  P  P35  1  0.853510  0.278602  0.446589  1
  P  P36  1  0.440764  0.886028  0.686812  1
  P  P37  1  0.886028  0.440764  0.813188  1
  P  P38  1  0.559236  0.113972  0.313188  1
  P  P39  1  0.113972  0.559236  0.186812  1
  P  P40  1  0.271993  0.988140  0.780563  1
  P  P41  1  0.988140  0.271993  0.719437  1
