# generated using pymatgen
data_Ba4Nd3F17
_symmetry_space_group_name_H-M   'P 1'
_cell_length_a   9.57483358
_cell_length_b   9.59189239
_cell_length_c   9.65578428
_cell_angle_alpha   73.01971263
_cell_angle_beta   72.87304345
_cell_angle_gamma   73.07709036
_symmetry_Int_Tables_number   1
_chemical_formula_structural   Ba4Nd3F17
_chemical_formula_sum   'Ba8 Nd6 F34'
_cell_volume   789.85738515
_cell_formula_units_Z   2
loop_
 _symmetry_equiv_pos_site_id
 _symmetry_equiv_pos_as_xyz
  1  'x, y, z'
loop_
 _atom_site_type_symbol
 _atom_site_label
 _atom_site_symmetry_multiplicity
 _atom_site_fract_x
 _atom_site_fract_y
 _atom_site_fract_z
 _atom_site_occupancy
  Ba  Ba0  1  0.891782  0.046222  0.312023  1
  Ba  Ba1  1  0.267949  0.261939  0.265955  1
  Ba  Ba2  1  0.049508  0.310470  0.893169  1
  Ba  Ba3  1  0.692250  0.102857  0.956502  1
  Ba  Ba4  1  0.309735  0.892392  0.050983  1
  Ba  Ba5  1  0.947671  0.688414  0.112520  1
  Ba  Ba6  1  0.738038  0.731719  0.733856  1
  Ba  Ba7  1  0.110355  0.944404  0.686703  1
  Nd  Nd8  1  0.469047  0.156572  0.611275  1
  Nd  Nd9  1  0.606259  0.473006  0.169675  1
  Nd  Nd10  1  0.843751  0.389043  0.532224  1
  Nd  Nd11  1  0.182292  0.610948  0.463854  1
  Nd  Nd12  1  0.388553  0.532143  0.840468  1
  Nd  Nd13  1  0.525650  0.821197  0.391470  1
  F  F14  1  0.993556  0.001132  0.006053  1
  F  F15  1  0.452360  0.018188  0.177843  1
  F  F16  1  0.137125  0.139640  0.137238  1
  F  F17  1  0.358896  0.041151  0.490878  1
  F  F18  1  0.020106  0.176043  0.452641  1
  F  F19  1  0.257721  0.081482  0.788852  1
  F  F20  1  0.784352  0.261252  0.089719  1
  F  F21  1  0.493478  0.354840  0.042565  1
  F  F22  1  0.177417  0.450349  0.020391  1
  F  F23  1  0.543794  0.260753  0.350231  1
  F  F24  1  0.703616  0.205678  0.582021  1
  F  F25  1  0.262364  0.345200  0.544863  1
  F  F26  1  0.048956  0.488713  0.358701  1
  F  F27  1  0.411781  0.298180  0.793974  1
  F  F28  1  0.916588  0.210655  0.741926  1
  F  F29  1  0.338825  0.547822  0.237825  1
  F  F30  1  0.799113  0.419762  0.296441  1
  F  F31  1  0.199184  0.591459  0.707898  1
  F  F32  1  0.462259  0.571794  0.447357  1
  F  F33  1  0.651677  0.457083  0.736086  1
  F  F34  1  0.084845  0.785545  0.260546  1
  F  F35  1  0.593065  0.719940  0.175561  1
  F  F36  1  0.963838  0.507713  0.642303  1
  F  F37  1  0.744828  0.650467  0.454400  1
  F  F38  1  0.271072  0.834407  0.406504  1
  F  F39  1  0.448629  0.745808  0.658144  1
  F  F40  1  0.822964  0.545449  0.981706  1
  F  F41  1  0.511214  0.642148  0.954629  1
  F  F42  1  0.209884  0.741243  0.918996  1
  F  F43  1  0.737225  0.912200  0.219160  1
  F  F44  1  0.981438  0.818202  0.548760  1
  F  F45  1  0.642925  0.951197  0.511122  1
  F  F46  1  0.863612  0.860019  0.862219  1
  F  F47  1  0.549451  0.980161  0.822774  1
