# generated using pymatgen
data_Sn(SO2)2
_symmetry_space_group_name_H-M   'P 1'
_cell_length_a   7.41964915
_cell_length_b   7.74238899
_cell_length_c   11.23233720
_cell_angle_alpha   90.00000000
_cell_angle_beta   120.03779518
_cell_angle_gamma   90.00000000
_symmetry_Int_Tables_number   1
_chemical_formula_structural   Sn(SO2)2
_chemical_formula_sum   'Sn4 S8 O16'
_cell_volume   558.59056311
_cell_formula_units_Z   4
loop_
 _symmetry_equiv_pos_site_id
 _symmetry_equiv_pos_as_xyz
  1  'x, y, z'
loop_
 _atom_site_type_symbol
 _atom_site_label
 _atom_site_symmetry_multiplicity
 _atom_site_fract_x
 _atom_site_fract_y
 _atom_site_fract_z
 _atom_site_occupancy
  Sn  Sn0  1  0.595196  0.741849  0.416091  1
  Sn  Sn1  1  0.404804  0.241849  0.083909  1
  Sn  Sn2  1  0.404804  0.258151  0.583909  1
  Sn  Sn3  1  0.595196  0.758151  0.916091  1
  S  S4  1  0.121683  0.517274  0.287266  1
  S  S5  1  0.878317  0.017274  0.212734  1
  S  S6  1  0.878317  0.482726  0.712734  1
  S  S7  1  0.121683  0.982726  0.787266  1
  S  S8  1  0.191417  0.680631  0.490796  1
  S  S9  1  0.808583  0.180631  0.009204  1
  S  S10  1  0.808583  0.319369  0.509204  1
  S  S11  1  0.191417  0.819369  0.990796  1
  O  O12  1  0.192289  0.342261  0.359366  1
  O  O13  1  0.807711  0.842261  0.140634  1
  O  O14  1  0.807711  0.657739  0.640634  1
  O  O15  1  0.192289  0.157739  0.859366  1
  O  O16  1  0.271232  0.527676  0.589991  1
  O  O17  1  0.728768  0.027676  0.910009  1
  O  O18  1  0.728768  0.472324  0.410009  1
  O  O19  1  0.271232  0.972324  0.089991  1
  O  O20  1  0.293825  0.601104  0.269959  1
  O  O21  1  0.706175  0.101104  0.230041  1
  O  O22  1  0.706175  0.398896  0.730041  1
  O  O23  1  0.293825  0.898896  0.769959  1
  O  O24  1  0.371406  0.713663  0.998964  1
  O  O25  1  0.628594  0.213663  0.501036  1
  O  O26  1  0.628594  0.286337  0.001036  1
  O  O27  1  0.371406  0.786337  0.498964  1
