# generated using pymatgen
data_BaAl2O4
_symmetry_space_group_name_H-M   'P 1'
_cell_length_a   5.26727965
_cell_length_b   5.26727965
_cell_length_c   8.98096178
_cell_angle_alpha   90.00000000
_cell_angle_beta   90.00000000
_cell_angle_gamma   120.00000000
_symmetry_Int_Tables_number   1
_chemical_formula_structural   BaAl2O4
_chemical_formula_sum   'Ba2 Al4 O8'
_cell_volume   215.78747441
_cell_formula_units_Z   2
loop_
 _symmetry_equiv_pos_site_id
 _symmetry_equiv_pos_as_xyz
  1  'x, y, z'
loop_
 _atom_site_type_symbol
 _atom_site_label
 _atom_site_symmetry_multiplicity
 _atom_site_fract_x
 _atom_site_fract_y
 _atom_site_fract_z
 _atom_site_occupancy
  Ba  Ba0  1  0.000000  0.000000  0.750000  1
  Ba  Ba1  1  0.000000  0.000000  0.250000  1
  Al  Al2  1  0.666667  0.333333  0.554124  1
  Al  Al3  1  0.333333  0.666667  0.054124  1
  Al  Al4  1  0.333333  0.666667  0.445876  1
  Al  Al5  1  0.666667  0.333333  0.945876  1
  O  O6  1  0.333333  0.666667  0.250000  1
  O  O7  1  0.666667  0.333333  0.750000  1
  O  O8  1  0.355693  0.355693  0.500000  1
  O  O9  1  0.644307  0.000000  0.500000  1
  O  O10  1  0.000000  0.644307  0.500000  1
  O  O11  1  0.000000  0.355693  0.000000  1
  O  O12  1  0.644307  0.644307  0.000000  1
  O  O13  1  0.355693  0.000000  0.000000  1
