# generated using pymatgen
data_Hf(TeCl)6
_symmetry_space_group_name_H-M   'P 1'
_cell_length_a   11.38257325
_cell_length_b   11.39676477
_cell_length_c   13.13630962
_cell_angle_alpha   90.00000000
_cell_angle_beta   90.00000000
_cell_angle_gamma   90.00000000
_symmetry_Int_Tables_number   1
_chemical_formula_structural   Hf(TeCl)6
_chemical_formula_sum   'Hf4 Te24 Cl24'
_cell_volume   1704.10132613
_cell_formula_units_Z   4
loop_
 _symmetry_equiv_pos_site_id
 _symmetry_equiv_pos_as_xyz
  1  'x, y, z'
loop_
 _atom_site_type_symbol
 _atom_site_label
 _atom_site_symmetry_multiplicity
 _atom_site_fract_x
 _atom_site_fract_y
 _atom_site_fract_z
 _atom_site_occupancy
  Hf  Hf0  1  0.263304  0.792363  0.750000  1
  Hf  Hf1  1  0.263304  0.707637  0.250000  1
  Hf  Hf2  1  0.736696  0.207637  0.250000  1
  Hf  Hf3  1  0.736696  0.292363  0.750000  1
  Te  Te4  1  0.274166  0.257872  0.250000  1
  Te  Te5  1  0.725834  0.742128  0.750000  1
  Te  Te6  1  0.185085  0.399989  0.903863  1
  Te  Te7  1  0.024342  0.250000  0.500000  1
  Te  Te8  1  0.975658  0.750000  0.000000  1
  Te  Te9  1  0.975658  0.750000  0.500000  1
  Te  Te10  1  0.024342  0.250000  0.000000  1
  Te  Te11  1  0.385797  0.364862  0.468013  1
  Te  Te12  1  0.614203  0.864862  0.031987  1
  Te  Te13  1  0.385797  0.135138  0.531987  1
  Te  Te14  1  0.614203  0.635138  0.968013  1
  Te  Te15  1  0.614203  0.635138  0.531987  1
  Te  Te16  1  0.385797  0.135138  0.968013  1
  Te  Te17  1  0.614203  0.864862  0.468013  1
  Te  Te18  1  0.385797  0.364862  0.031987  1
  Te  Te19  1  0.185085  0.399989  0.596137  1
  Te  Te20  1  0.814915  0.899989  0.903863  1
  Te  Te21  1  0.185085  0.100011  0.403863  1
  Te  Te22  1  0.814915  0.600011  0.096137  1
  Te  Te23  1  0.814915  0.600011  0.403863  1
  Te  Te24  1  0.185085  0.100011  0.096137  1
  Te  Te25  1  0.814915  0.899989  0.596137  1
  Te  Te26  1  0.725834  0.757872  0.250000  1
  Te  Te27  1  0.274166  0.242128  0.750000  1
  Cl  Cl28  1  0.841797  0.091588  0.116811  1
  Cl  Cl29  1  0.158203  0.591588  0.116811  1
  Cl  Cl30  1  0.841797  0.091588  0.383189  1
  Cl  Cl31  1  0.636448  0.326678  0.380447  1
  Cl  Cl32  1  0.363552  0.826678  0.119553  1
  Cl  Cl33  1  0.636448  0.173322  0.619553  1
  Cl  Cl34  1  0.363552  0.673322  0.880447  1
  Cl  Cl35  1  0.363552  0.673322  0.619553  1
  Cl  Cl36  1  0.636448  0.173322  0.880447  1
  Cl  Cl37  1  0.363552  0.826678  0.380447  1
  Cl  Cl38  1  0.636448  0.326678  0.119553  1
  Cl  Cl39  1  0.101141  0.654523  0.750000  1
  Cl  Cl40  1  0.898859  0.154523  0.750000  1
  Cl  Cl41  1  0.101141  0.845477  0.250000  1
  Cl  Cl42  1  0.898859  0.345477  0.250000  1
  Cl  Cl43  1  0.418376  0.941063  0.750000  1
  Cl  Cl44  1  0.581624  0.441063  0.750000  1
  Cl  Cl45  1  0.418376  0.558937  0.250000  1
  Cl  Cl46  1  0.581624  0.058937  0.250000  1
  Cl  Cl47  1  0.158203  0.908412  0.616811  1
  Cl  Cl48  1  0.158203  0.908412  0.883189  1
  Cl  Cl49  1  0.841797  0.408412  0.883189  1
  Cl  Cl50  1  0.158203  0.591588  0.383189  1
  Cl  Cl51  1  0.841797  0.408412  0.616811  1
