# generated using pymatgen
data_Cs3AsO4
_symmetry_space_group_name_H-M   'P 1'
_cell_length_a   6.74091126
_cell_length_b   9.19864401
_cell_length_c   12.73989479
_cell_angle_alpha   90.00000000
_cell_angle_beta   90.00000000
_cell_angle_gamma   90.00000000
_symmetry_Int_Tables_number   1
_chemical_formula_structural   Cs3AsO4
_chemical_formula_sum   'Cs12 As4 O16'
_cell_volume   789.96575183
_cell_formula_units_Z   4
loop_
 _symmetry_equiv_pos_site_id
 _symmetry_equiv_pos_as_xyz
  1  'x, y, z'
loop_
 _atom_site_type_symbol
 _atom_site_label
 _atom_site_symmetry_multiplicity
 _atom_site_fract_x
 _atom_site_fract_y
 _atom_site_fract_z
 _atom_site_occupancy
  Cs  Cs0  1  0.189810  0.992590  0.355120  1
  Cs  Cs1  1  0.856257  0.750000  0.924232  1
  Cs  Cs2  1  0.643743  0.750000  0.424232  1
  Cs  Cs3  1  0.143743  0.250000  0.075768  1
  Cs  Cs4  1  0.356257  0.250000  0.575768  1
  Cs  Cs5  1  0.689810  0.007410  0.144880  1
  Cs  Cs6  1  0.810190  0.492590  0.644880  1
  Cs  Cs7  1  0.310190  0.507410  0.855120  1
  Cs  Cs8  1  0.810190  0.007410  0.644880  1
  Cs  Cs9  1  0.310190  0.992590  0.855120  1
  Cs  Cs10  1  0.189810  0.507410  0.355120  1
  Cs  Cs11  1  0.689810  0.492590  0.144880  1
  As  As12  1  0.273973  0.750000  0.113669  1
  As  As13  1  0.726027  0.250000  0.886331  1
  As  As14  1  0.773973  0.250000  0.386331  1
  As  As15  1  0.226027  0.750000  0.613669  1
  O  O16  1  0.628350  0.405227  0.391878  1
  O  O17  1  0.128350  0.594773  0.108122  1
  O  O18  1  0.371650  0.905227  0.608122  1
  O  O19  1  0.871650  0.094773  0.891878  1
  O  O20  1  0.371650  0.594773  0.608122  1
  O  O21  1  0.871650  0.405227  0.891878  1
  O  O22  1  0.628350  0.094773  0.391878  1
  O  O23  1  0.128350  0.905227  0.108122  1
  O  O24  1  0.059610  0.750000  0.508988  1
  O  O25  1  0.410941  0.750000  0.229549  1
  O  O26  1  0.940390  0.250000  0.491012  1
  O  O27  1  0.440390  0.750000  0.008988  1
  O  O28  1  0.089059  0.750000  0.729549  1
  O  O29  1  0.589059  0.250000  0.770451  1
  O  O30  1  0.910941  0.250000  0.270451  1
  O  O31  1  0.559610  0.250000  0.991012  1
