# generated using pymatgen
data_TlFeS2
_symmetry_space_group_name_H-M   'P 1'
_cell_length_a   6.50470507
_cell_length_b   6.50470507
_cell_length_c   6.84423718
_cell_angle_alpha   64.48877264
_cell_angle_beta   115.51122736
_cell_angle_gamma   133.85381814
_symmetry_Int_Tables_number   1
_chemical_formula_structural   TlFeS2
_chemical_formula_sum   'Tl2 Fe2 S4'
_cell_volume   184.52917699
_cell_formula_units_Z   2
loop_
 _symmetry_equiv_pos_site_id
 _symmetry_equiv_pos_as_xyz
  1  'x, y, z'
loop_
 _atom_site_type_symbol
 _atom_site_label
 _atom_site_symmetry_multiplicity
 _atom_site_fract_x
 _atom_site_fract_y
 _atom_site_fract_z
 _atom_site_occupancy
  Tl  Tl0  1  0.682636  0.317364  0.640795  1
  Tl  Tl1  1  0.317364  0.682636  0.359205  1
  Fe  Fe2  1  0.250557  0.250557  0.000000  1
  Fe  Fe3  1  0.749443  0.749443  0.000000  1
  S  S4  1  0.343384  0.656616  0.933524  1
  S  S5  1  0.656616  0.343384  0.066476  1
  S  S6  1  0.040322  0.959678  0.274793  1
  S  S7  1  0.959678  0.040322  0.725207  1
