# generated using pymatgen
data_Zr5Ir3
_symmetry_space_group_name_H-M   'P 1'
_cell_length_a   7.99020260
_cell_length_b   7.99020260
_cell_length_c   17.22553754
_cell_angle_alpha   90.00000000
_cell_angle_beta   90.00000000
_cell_angle_gamma   120.00000000
_symmetry_Int_Tables_number   1
_chemical_formula_structural   Zr5Ir3
_chemical_formula_sum   'Zr30 Ir18'
_cell_volume   952.39914715
_cell_formula_units_Z   6
loop_
 _symmetry_equiv_pos_site_id
 _symmetry_equiv_pos_as_xyz
  1  'x, y, z'
loop_
 _atom_site_type_symbol
 _atom_site_label
 _atom_site_symmetry_multiplicity
 _atom_site_fract_x
 _atom_site_fract_y
 _atom_site_fract_z
 _atom_site_occupancy
  Zr  Zr0  1  0.237719  0.231003  0.826370  1
  Zr  Zr1  1  0.768997  0.006716  0.159704  1
  Zr  Zr2  1  0.993284  0.762281  0.493037  1
  Zr  Zr3  1  0.006716  0.237719  0.993037  1
  Zr  Zr4  1  0.762281  0.993284  0.840296  1
  Zr  Zr5  1  0.762281  0.768997  0.326370  1
  Zr  Zr6  1  0.231003  0.993284  0.659704  1
  Zr  Zr7  1  0.768997  0.762281  0.006963  1
  Zr  Zr8  1  0.993284  0.231003  0.673630  1
  Zr  Zr9  1  0.006716  0.768997  0.173630  1
  Zr  Zr10  1  0.231003  0.237719  0.506963  1
  Zr  Zr11  1  0.237719  0.006716  0.340296  1
  Zr  Zr12  1  0.346137  0.692274  0.750000  1
  Zr  Zr13  1  0.653863  0.346137  0.916667  1
  Zr  Zr14  1  0.692274  0.346137  0.583333  1
  Zr  Zr15  1  0.307726  0.653863  0.083333  1
  Zr  Zr16  1  0.346137  0.653863  0.416667  1
  Zr  Zr17  1  0.653863  0.307726  0.250000  1
  Zr  Zr18  1  0.248177  0.000000  0.000000  1
  Zr  Zr19  1  0.248177  0.248177  0.166667  1
  Zr  Zr20  1  0.000000  0.751823  0.833333  1
  Zr  Zr21  1  0.000000  0.248177  0.333333  1
  Zr  Zr22  1  0.751823  0.751823  0.666667  1
  Zr  Zr23  1  0.751823  0.000000  0.500000  1
  Zr  Zr24  1  0.374169  0.748338  0.250000  1
  Zr  Zr25  1  0.625831  0.374169  0.416667  1
  Zr  Zr26  1  0.748338  0.374169  0.083333  1
  Zr  Zr27  1  0.251662  0.625831  0.583333  1
  Zr  Zr28  1  0.374169  0.625831  0.916667  1
  Zr  Zr29  1  0.625831  0.251662  0.750000  1
  Ir  Ir30  1  0.413145  0.393931  0.023226  1
  Ir  Ir31  1  0.606069  0.019214  0.356559  1
  Ir  Ir32  1  0.980786  0.586855  0.689892  1
  Ir  Ir33  1  0.019214  0.413145  0.189892  1
  Ir  Ir34  1  0.586855  0.980786  0.643441  1
  Ir  Ir35  1  0.586855  0.606069  0.523226  1
  Ir  Ir36  1  0.393931  0.980786  0.856559  1
  Ir  Ir37  1  0.606069  0.586855  0.810108  1
  Ir  Ir38  1  0.980786  0.393931  0.476774  1
  Ir  Ir39  1  0.019214  0.606069  0.976774  1
  Ir  Ir40  1  0.393931  0.413145  0.310108  1
  Ir  Ir41  1  0.413145  0.019214  0.143441  1
  Ir  Ir42  1  0.385443  0.000000  0.500000  1
  Ir  Ir43  1  0.385443  0.385443  0.666667  1
  Ir  Ir44  1  0.000000  0.614557  0.333333  1
  Ir  Ir45  1  0.000000  0.385443  0.833333  1
  Ir  Ir46  1  0.614557  0.614557  0.166667  1
  Ir  Ir47  1  0.614557  0.000000  0.000000  1
