# generated using pymatgen
data_Ca2MnIrO6
_symmetry_space_group_name_H-M   'P 1'
_cell_length_a   5.46483240
_cell_length_b   5.67188302
_cell_length_c   9.45750954
_cell_angle_alpha   90.00000000
_cell_angle_beta   125.10235482
_cell_angle_gamma   90.00000000
_symmetry_Int_Tables_number   1
_chemical_formula_structural   Ca2MnIrO6
_chemical_formula_sum   'Ca4 Mn2 Ir2 O12'
_cell_volume   239.82869245
_cell_formula_units_Z   2
loop_
 _symmetry_equiv_pos_site_id
 _symmetry_equiv_pos_as_xyz
  1  'x, y, z'
loop_
 _atom_site_type_symbol
 _atom_site_label
 _atom_site_symmetry_multiplicity
 _atom_site_fract_x
 _atom_site_fract_y
 _atom_site_fract_z
 _atom_site_occupancy
  Ca  Ca0  1  0.264210  0.059533  0.250619  1
  Ca  Ca1  1  0.735790  0.559533  0.249381  1
  Ca  Ca2  1  0.264210  0.440467  0.750619  1
  Ca  Ca3  1  0.735790  0.940467  0.749381  1
  Mn  Mn4  1  0.000000  0.500000  0.000000  1
  Mn  Mn5  1  0.000000  0.000000  0.500000  1
  Ir  Ir6  1  0.500000  0.500000  0.500000  1
  Ir  Ir7  1  0.500000  0.000000  0.000000  1
  O  O8  1  0.844411  0.533771  0.743358  1
  O  O9  1  0.258994  0.809095  0.051291  1
  O  O10  1  0.632789  0.791486  0.446702  1
  O  O11  1  0.367211  0.291486  0.053298  1
  O  O12  1  0.741006  0.309095  0.448709  1
  O  O13  1  0.155589  0.033771  0.756642  1
  O  O14  1  0.844411  0.966229  0.243358  1
  O  O15  1  0.258994  0.690905  0.551290  1
  O  O16  1  0.632789  0.708514  0.946702  1
  O  O17  1  0.741006  0.190905  0.948709  1
  O  O18  1  0.367211  0.208514  0.553298  1
  O  O19  1  0.155589  0.466229  0.256642  1
