# generated using pymatgen
data_TiCd
_symmetry_space_group_name_H-M   'P 1'
_cell_length_a   2.91092915
_cell_length_b   2.91092915
_cell_length_c   9.10728148
_cell_angle_alpha   90.00000000
_cell_angle_beta   90.00000000
_cell_angle_gamma   90.00000000
_symmetry_Int_Tables_number   1
_chemical_formula_structural   TiCd
_chemical_formula_sum   'Ti2 Cd2'
_cell_volume   77.17062718
_cell_formula_units_Z   2
loop_
 _symmetry_equiv_pos_site_id
 _symmetry_equiv_pos_as_xyz
  1  'x, y, z'
loop_
 _atom_site_type_symbol
 _atom_site_label
 _atom_site_symmetry_multiplicity
 _atom_site_fract_x
 _atom_site_fract_y
 _atom_site_fract_z
 _atom_site_occupancy
  Ti  Ti0  1  0.000000  0.500000  0.392690  1
  Ti  Ti1  1  0.500000  0.000000  0.607310  1
  Cd  Cd2  1  0.000000  0.500000  0.864127  1
  Cd  Cd3  1  0.500000  0.000000  0.135873  1
