# generated using pymatgen
data_Tl3PbCl5
_symmetry_space_group_name_H-M   'P 1'
_cell_length_a   8.64867672
_cell_length_b   8.64867672
_cell_length_c   15.08472245
_cell_angle_alpha   90.00000000
_cell_angle_beta   90.00000000
_cell_angle_gamma   90.00000000
_symmetry_Int_Tables_number   1
_chemical_formula_structural   Tl3PbCl5
_chemical_formula_sum   'Tl12 Pb4 Cl20'
_cell_volume   1128.33134124
_cell_formula_units_Z   4
loop_
 _symmetry_equiv_pos_site_id
 _symmetry_equiv_pos_as_xyz
  1  'x, y, z'
loop_
 _atom_site_type_symbol
 _atom_site_label
 _atom_site_symmetry_multiplicity
 _atom_site_fract_x
 _atom_site_fract_y
 _atom_site_fract_z
 _atom_site_occupancy
  Tl  Tl0  1  0.992357  0.810443  0.807216  1
  Tl  Tl1  1  0.189557  0.992357  0.057216  1
  Tl  Tl2  1  0.810443  0.007643  0.557216  1
  Tl  Tl3  1  0.007643  0.189557  0.307216  1
  Tl  Tl4  1  0.365056  0.826637  0.322453  1
  Tl  Tl5  1  0.173363  0.365056  0.572453  1
  Tl  Tl6  1  0.826637  0.634944  0.072453  1
  Tl  Tl7  1  0.634944  0.173363  0.822453  1
  Tl  Tl8  1  0.887257  0.678062  0.380718  1
  Tl  Tl9  1  0.321938  0.887257  0.630718  1
  Tl  Tl10  1  0.678062  0.112743  0.130718  1
  Tl  Tl11  1  0.112743  0.321938  0.880718  1
  Pb  Pb12  1  0.489090  0.696947  0.892344  1
  Pb  Pb13  1  0.303053  0.489090  0.142344  1
  Pb  Pb14  1  0.696947  0.510910  0.642344  1
  Pb  Pb15  1  0.510910  0.303053  0.392344  1
  Cl  Cl16  1  0.509075  0.205695  0.606612  1
  Cl  Cl17  1  0.794305  0.509075  0.856612  1
  Cl  Cl18  1  0.205695  0.490925  0.356612  1
  Cl  Cl19  1  0.490925  0.794305  0.106612  1
  Cl  Cl20  1  0.476620  0.355995  0.010235  1
  Cl  Cl21  1  0.644005  0.476620  0.260235  1
  Cl  Cl22  1  0.355995  0.523380  0.760235  1
  Cl  Cl23  1  0.523380  0.644005  0.510235  1
  Cl  Cl24  1  0.968763  0.179143  0.708187  1
  Cl  Cl25  1  0.820857  0.968763  0.958187  1
  Cl  Cl26  1  0.179143  0.031237  0.458187  1
  Cl  Cl27  1  0.031237  0.820857  0.208187  1
  Cl  Cl28  1  0.330163  0.975597  0.853430  1
  Cl  Cl29  1  0.024403  0.330163  0.103430  1
  Cl  Cl30  1  0.975597  0.669837  0.603430  1
  Cl  Cl31  1  0.669837  0.024403  0.353430  1
  Cl  Cl32  1  0.354427  0.179914  0.228805  1
  Cl  Cl33  1  0.820086  0.354427  0.478805  1
  Cl  Cl34  1  0.179914  0.645573  0.978805  1
  Cl  Cl35  1  0.645573  0.820086  0.728805  1
