# generated using pymatgen
data_Ca(Ce2Se3)4
_symmetry_space_group_name_H-M   'P 1'
_cell_length_a   8.91255344
_cell_length_b   8.91255344
_cell_length_c   14.74649902
_cell_angle_alpha   72.41673283
_cell_angle_beta   107.58326717
_cell_angle_gamma   90.05137282
_symmetry_Int_Tables_number   1
_chemical_formula_structural   Ca(Ce2Se3)4
_chemical_formula_sum   'Ca2 Ce16 Se24'
_cell_volume   1059.19378596
_cell_formula_units_Z   2
loop_
 _symmetry_equiv_pos_site_id
 _symmetry_equiv_pos_as_xyz
  1  'x, y, z'
loop_
 _atom_site_type_symbol
 _atom_site_label
 _atom_site_symmetry_multiplicity
 _atom_site_fract_x
 _atom_site_fract_y
 _atom_site_fract_z
 _atom_site_occupancy
  Ca  Ca0  1  0.041569  0.083313  0.833259  1
  Ca  Ca1  1  0.916687  0.958431  0.333259  1
  Ce  Ce2  1  0.249982  0.625278  0.999966  1
  Ce  Ce3  1  0.458193  0.291581  0.916340  1
  Ce  Ce4  1  0.084145  0.541475  0.666684  1
  Ce  Ce5  1  0.374512  0.875043  0.750107  1
  Ce  Ce6  1  0.791526  0.583360  0.833441  1
  Ce  Ce7  1  0.583615  0.291061  0.666924  1
  Ce  Ce8  1  0.791065  0.958606  0.583372  1
  Ce  Ce9  1  0.374722  0.750018  0.499966  1
  Ce  Ce10  1  0.416640  0.208474  0.333441  1
  Ce  Ce11  1  0.708419  0.541807  0.416340  1
  Ce  Ce12  1  0.125173  0.249669  0.500114  1
  Ce  Ce13  1  0.124957  0.625488  0.250107  1
  Ce  Ce14  1  0.708939  0.416385  0.166924  1
  Ce  Ce15  1  0.750331  0.874827  0.000114  1
  Ce  Ce16  1  0.041394  0.208935  0.083372  1
  Ce  Ce17  1  0.458525  0.915855  0.166684  1
  Se  Se18  1  0.765371  0.234587  0.883395  1
  Se  Se19  1  0.402010  0.948825  0.950768  1
  Se  Se20  1  0.284714  0.217554  0.715668  1
  Se  Se21  1  0.550190  0.600474  0.949847  1
  Se  Se22  1  0.433686  0.566680  0.716774  1
  Se  Se23  1  0.115347  0.383305  0.883169  1
  Se  Se24  1  0.714963  0.932094  0.783048  1
  Se  Se25  1  0.066099  0.783363  0.783612  1
  Se  Se26  1  0.099936  0.899447  0.549889  1
  Se  Se27  1  0.732990  0.616398  0.616741  1
  Se  Se28  1  0.884360  0.266429  0.617054  1
  Se  Se29  1  0.616695  0.884653  0.383169  1
  Se  Se30  1  0.765413  0.234629  0.383395  1
  Se  Se31  1  0.449519  0.050419  0.549828  1
  Se  Se32  1  0.051175  0.597990  0.450768  1
  Se  Se33  1  0.399526  0.449810  0.449847  1
  Se  Se34  1  0.433320  0.566314  0.216774  1
  Se  Se35  1  0.067906  0.285037  0.283048  1
  Se  Se36  1  0.216637  0.933901  0.283612  1
  Se  Se37  1  0.949581  0.550481  0.049828  1
  Se  Se38  1  0.100553  0.900064  0.049889  1
  Se  Se39  1  0.383602  0.267010  0.116741  1
  Se  Se40  1  0.782446  0.715286  0.215668  1
  Se  Se41  1  0.733571  0.115640  0.117054  1
