# generated using pymatgen
data_NbSbO4
_symmetry_space_group_name_H-M   'P 1'
_cell_length_a   5.07846548
_cell_length_b   5.69168088
_cell_length_c   11.99438534
_cell_angle_alpha   90.00000000
_cell_angle_beta   90.00000000
_cell_angle_gamma   90.00000000
_symmetry_Int_Tables_number   1
_chemical_formula_structural   NbSbO4
_chemical_formula_sum   'Nb4 Sb4 O16'
_cell_volume   346.69776669
_cell_formula_units_Z   4
loop_
 _symmetry_equiv_pos_site_id
 _symmetry_equiv_pos_as_xyz
  1  'x, y, z'
loop_
 _atom_site_type_symbol
 _atom_site_label
 _atom_site_symmetry_multiplicity
 _atom_site_fract_x
 _atom_site_fract_y
 _atom_site_fract_z
 _atom_site_occupancy
  Nb  Nb0  1  0.750000  0.634865  0.250000  1
  Nb  Nb1  1  0.750000  0.865135  0.750000  1
  Nb  Nb2  1  0.250000  0.365135  0.750000  1
  Nb  Nb3  1  0.250000  0.134865  0.250000  1
  Sb  Sb4  1  0.810419  0.250000  0.000000  1
  Sb  Sb5  1  0.689581  0.250000  0.500000  1
  Sb  Sb6  1  0.189581  0.750000  0.000000  1
  Sb  Sb7  1  0.310419  0.750000  0.500000  1
  O  O8  1  0.508058  0.342681  0.198538  1
  O  O9  1  0.508058  0.157319  0.801462  1
  O  O10  1  0.991942  0.342681  0.301462  1
  O  O11  1  0.991942  0.157319  0.698538  1
  O  O12  1  0.491942  0.657319  0.801462  1
  O  O13  1  0.491942  0.842681  0.198538  1
  O  O14  1  0.008058  0.657319  0.698538  1
  O  O15  1  0.008058  0.842681  0.301462  1
  O  O16  1  0.084095  0.076567  0.094623  1
  O  O17  1  0.084095  0.423433  0.905377  1
  O  O18  1  0.415905  0.076567  0.405377  1
  O  O19  1  0.415905  0.423433  0.594623  1
  O  O20  1  0.915905  0.923433  0.905377  1
  O  O21  1  0.915905  0.576567  0.094623  1
  O  O22  1  0.584095  0.923433  0.594623  1
  O  O23  1  0.584095  0.576567  0.405377  1
