# generated using pymatgen
data_Ca3Ga3Ir2
_symmetry_space_group_name_H-M   'P 1'
_cell_length_a   5.84120467
_cell_length_b   8.11745884
_cell_length_c   14.98651129
_cell_angle_alpha   90.00000000
_cell_angle_beta   90.00000000
_cell_angle_gamma   90.00000000
_symmetry_Int_Tables_number   1
_chemical_formula_structural   Ca3Ga3Ir2
_chemical_formula_sum   'Ca12 Ga12 Ir8'
_cell_volume   710.59650013
_cell_formula_units_Z   4
loop_
 _symmetry_equiv_pos_site_id
 _symmetry_equiv_pos_as_xyz
  1  'x, y, z'
loop_
 _atom_site_type_symbol
 _atom_site_label
 _atom_site_symmetry_multiplicity
 _atom_site_fract_x
 _atom_site_fract_y
 _atom_site_fract_z
 _atom_site_occupancy
  Ca  Ca0  1  0.888113  0.952020  0.107781  1
  Ca  Ca1  1  0.388113  0.547980  0.892219  1
  Ca  Ca2  1  0.611887  0.452020  0.392219  1
  Ca  Ca3  1  0.111887  0.047980  0.607781  1
  Ca  Ca4  1  0.111887  0.047980  0.892219  1
  Ca  Ca5  1  0.611887  0.452020  0.107781  1
  Ca  Ca6  1  0.388113  0.547980  0.607781  1
  Ca  Ca7  1  0.888113  0.952020  0.392219  1
  Ca  Ca8  1  0.378307  0.800310  0.250000  1
  Ca  Ca9  1  0.878307  0.699690  0.750000  1
  Ca  Ca10  1  0.121693  0.300310  0.250000  1
  Ca  Ca11  1  0.621693  0.199690  0.750000  1
  Ga  Ga12  1  0.919991  0.644007  0.250000  1
  Ga  Ga13  1  0.419991  0.855993  0.750000  1
  Ga  Ga14  1  0.580009  0.144007  0.250000  1
  Ga  Ga15  1  0.080009  0.355993  0.750000  1
  Ga  Ga16  1  0.376053  0.821836  0.039307  1
  Ga  Ga17  1  0.876053  0.678164  0.960693  1
  Ga  Ga18  1  0.123947  0.321836  0.460693  1
  Ga  Ga19  1  0.623947  0.178164  0.539307  1
  Ga  Ga20  1  0.623947  0.178164  0.960693  1
  Ga  Ga21  1  0.123947  0.321836  0.039307  1
  Ga  Ga22  1  0.876053  0.678164  0.539307  1
  Ga  Ga23  1  0.376053  0.821836  0.460693  1
  Ir  Ir24  1  0.106268  0.610264  0.099369  1
  Ir  Ir25  1  0.606268  0.889736  0.900631  1
  Ir  Ir26  1  0.393732  0.110264  0.400631  1
  Ir  Ir27  1  0.893732  0.389736  0.599369  1
  Ir  Ir28  1  0.893732  0.389736  0.900631  1
  Ir  Ir29  1  0.393732  0.110264  0.099369  1
  Ir  Ir30  1  0.606268  0.889736  0.599369  1
  Ir  Ir31  1  0.106268  0.610264  0.400631  1
