# generated using pymatgen
data_RbInSe2
_symmetry_space_group_name_H-M   'P 1'
_cell_length_a   8.31518334
_cell_length_b   8.31518334
_cell_length_c   16.57571542
_cell_angle_alpha   82.82389603
_cell_angle_beta   97.17610397
_cell_angle_gamma   90.02441127
_symmetry_Int_Tables_number   1
_chemical_formula_structural   RbInSe2
_chemical_formula_sum   'Rb8 In8 Se16'
_cell_volume   1128.06406062
_cell_formula_units_Z   8
loop_
 _symmetry_equiv_pos_site_id
 _symmetry_equiv_pos_as_xyz
  1  'x, y, z'
loop_
 _atom_site_type_symbol
 _atom_site_label
 _atom_site_symmetry_multiplicity
 _atom_site_fract_x
 _atom_site_fract_y
 _atom_site_fract_z
 _atom_site_occupancy
  Rb  Rb0  1  0.777799  0.847794  0.109998  1
  Rb  Rb1  1  0.653711  0.221462  0.613885  1
  Rb  Rb2  1  0.778538  0.346289  0.113885  1
  Rb  Rb3  1  0.346289  0.778538  0.386115  1
  Rb  Rb4  1  0.152206  0.222201  0.609998  1
  Rb  Rb5  1  0.222201  0.152206  0.890002  1
  Rb  Rb6  1  0.847794  0.777799  0.390002  1
  Rb  Rb7  1  0.221462  0.653711  0.886115  1
  In  In8  1  0.913502  0.709982  0.660231  1
  In  In9  1  0.709982  0.913502  0.839769  1
  In  In10  1  0.086498  0.290018  0.339769  1
  In  In11  1  0.290018  0.086498  0.160231  1
  In  In12  1  0.709846  0.416481  0.839469  1
  In  In13  1  0.416481  0.709846  0.660531  1
  In  In14  1  0.290154  0.583519  0.160531  1
  In  In15  1  0.583519  0.290154  0.339469  1
  Se  Se16  1  0.576183  0.576183  0.250000  1
  Se  Se17  1  0.423817  0.423817  0.750000  1
  Se  Se18  1  0.048951  0.048951  0.250000  1
  Se  Se19  1  0.951049  0.951049  0.750000  1
  Se  Se20  1  0.576080  0.048746  0.249909  1
  Se  Se21  1  0.048746  0.576080  0.250091  1
  Se  Se22  1  0.423920  0.951254  0.750091  1
  Se  Se23  1  0.951254  0.423920  0.749909  1
  Se  Se24  1  0.265092  0.859441  0.061395  1
  Se  Se25  1  0.859441  0.265092  0.438605  1
  Se  Se26  1  0.734908  0.140559  0.938605  1
  Se  Se27  1  0.734755  0.639796  0.939433  1
  Se  Se28  1  0.360204  0.265245  0.439433  1
  Se  Se29  1  0.265245  0.360204  0.060567  1
  Se  Se30  1  0.639796  0.734755  0.560567  1
  Se  Se31  1  0.140559  0.734908  0.561395  1
