# generated using pymatgen
data_AgSbF6
_symmetry_space_group_name_H-M   'P 1'
_cell_length_a   8.65550221
_cell_length_b   8.65550221
_cell_length_c   8.65550221
_cell_angle_alpha   109.47122063
_cell_angle_beta   109.47122063
_cell_angle_gamma   109.47122063
_symmetry_Int_Tables_number   1
_chemical_formula_structural   AgSbF6
_chemical_formula_sum   'Ag4 Sb4 F24'
_cell_volume   499.17741056
_cell_formula_units_Z   4
loop_
 _symmetry_equiv_pos_site_id
 _symmetry_equiv_pos_as_xyz
  1  'x, y, z'
loop_
 _atom_site_type_symbol
 _atom_site_label
 _atom_site_symmetry_multiplicity
 _atom_site_fract_x
 _atom_site_fract_y
 _atom_site_fract_z
 _atom_site_occupancy
  Ag  Ag0  1  0.500000  0.500000  0.500000  1
  Ag  Ag1  1  1.000000  1.000000  0.500000  1
  Ag  Ag2  1  0.500000  1.000000  1.000000  1
  Ag  Ag3  1  1.000000  0.500000  0.000000  1
  Sb  Sb4  1  0.000000  0.000000  0.000000  1
  Sb  Sb5  1  1.000000  0.500000  0.500000  1
  Sb  Sb6  1  0.500000  1.000000  0.500000  1
  Sb  Sb7  1  0.500000  0.500000  0.000000  1
  F  F8  1  0.974617  0.421456  0.678049  1
  F  F9  1  0.243407  0.296569  0.821951  1
  F  F10  1  0.256593  0.078544  0.053161  1
  F  F11  1  0.203431  0.446839  0.525383  1
  F  F12  1  0.446839  0.525383  0.203431  1
  F  F13  1  0.678049  0.974617  0.421456  1
  F  F14  1  0.296569  0.821951  0.243407  1
  F  F15  1  0.053161  0.256593  0.078544  1
  F  F16  1  0.474617  0.796569  0.553161  1
  F  F17  1  0.921456  0.946839  0.743407  1
  F  F18  1  0.178049  0.756593  0.703431  1
  F  F19  1  0.578544  0.321951  0.025383  1
  F  F20  1  0.946839  0.743407  0.921456  1
  F  F21  1  0.703431  0.178049  0.756593  1
  F  F22  1  0.321951  0.025383  0.578544  1
  F  F23  1  0.553161  0.474617  0.796569  1
  F  F24  1  0.796569  0.553161  0.474617  1
  F  F25  1  0.743407  0.921456  0.946839  1
  F  F26  1  0.756593  0.703431  0.178049  1
  F  F27  1  0.025383  0.578544  0.321951  1
  F  F28  1  0.525383  0.203431  0.446839  1
  F  F29  1  0.078544  0.053161  0.256593  1
  F  F30  1  0.821951  0.243407  0.296569  1
  F  F31  1  0.421456  0.678049  0.974617  1
