# generated using pymatgen
data_CdBi3O7
_symmetry_space_group_name_H-M   'P 1'
_cell_length_a   3.78353566
_cell_length_b   3.78353566
_cell_length_c   13.17099744
_cell_angle_alpha   82.89272703
_cell_angle_beta   97.10727297
_cell_angle_gamma   116.75748348
_symmetry_Int_Tables_number   1
_chemical_formula_structural   CdBi3O7
_chemical_formula_sum   'Cd1 Bi3 O7'
_cell_volume   166.56872093
_cell_formula_units_Z   1
loop_
 _symmetry_equiv_pos_site_id
 _symmetry_equiv_pos_as_xyz
  1  'x, y, z'
loop_
 _atom_site_type_symbol
 _atom_site_label
 _atom_site_symmetry_multiplicity
 _atom_site_fract_x
 _atom_site_fract_y
 _atom_site_fract_z
 _atom_site_occupancy
  Cd  Cd0  1  0.268465  0.731535  0.757301  1
  Bi  Bi1  1  0.550837  0.449163  0.504900  1
  Bi  Bi2  1  0.795380  0.204620  0.265261  1
  Bi  Bi3  1  0.970693  0.029307  0.976447  1
  O  O4  1  0.608600  0.391400  0.921907  1
  O  O5  1  0.870820  0.129180  0.441247  1
  O  O6  1  0.932109  0.067891  0.796804  1
  O  O7  1  0.122751  0.877249  0.235551  1
  O  O8  1  0.237772  0.762228  0.584266  1
  O  O9  1  0.487321  0.512679  0.329573  1
  O  O10  1  0.732253  0.267747  0.101742  1
