# generated using pymatgen
data_SmZn12
_symmetry_space_group_name_H-M   'P 1'
_cell_length_a   6.84487375
_cell_length_b   6.84487375
_cell_length_c   6.84487375
_cell_angle_alpha   98.30097424
_cell_angle_beta   98.30097424
_cell_angle_gamma   135.33703168
_symmetry_Int_Tables_number   1
_chemical_formula_structural   SmZn12
_chemical_formula_sum   'Sm1 Zn12'
_cell_volume   208.52293054
_cell_formula_units_Z   1
loop_
 _symmetry_equiv_pos_site_id
 _symmetry_equiv_pos_as_xyz
  1  'x, y, z'
loop_
 _atom_site_type_symbol
 _atom_site_label
 _atom_site_symmetry_multiplicity
 _atom_site_fract_x
 _atom_site_fract_y
 _atom_site_fract_z
 _atom_site_occupancy
  Sm  Sm0  1  0.000000  0.000000  0.000000  1
  Zn  Zn1  1  0.500000  0.717803  0.217803  1
  Zn  Zn2  1  0.000000  0.500000  0.000000  1
  Zn  Zn3  1  0.000000  0.000000  0.500000  1
  Zn  Zn4  1  0.500000  0.500000  0.500000  1
  Zn  Zn5  1  0.500000  0.000000  0.000000  1
  Zn  Zn6  1  1.000000  0.355471  0.355471  1
  Zn  Zn7  1  0.644529  0.000000  0.644529  1
  Zn  Zn8  1  0.355471  0.000000  0.355471  1
  Zn  Zn9  1  1.000000  0.644529  0.644529  1
  Zn  Zn10  1  0.500000  0.282197  0.782197  1
  Zn  Zn11  1  0.717803  0.500000  0.217803  1
  Zn  Zn12  1  0.282197  0.500000  0.782197  1
