# generated using pymatgen
data_Co2CuO4
_symmetry_space_group_name_H-M   'P 1'
_cell_length_a   5.88437087
_cell_length_b   5.88437087
_cell_length_c   5.88437087
_cell_angle_alpha   59.77948557
_cell_angle_beta   59.77948557
_cell_angle_gamma   59.77948557
_symmetry_Int_Tables_number   1
_chemical_formula_structural   Co2CuO4
_chemical_formula_sum   'Co4 Cu2 O8'
_cell_volume   143.35252749
_cell_formula_units_Z   2
loop_
 _symmetry_equiv_pos_site_id
 _symmetry_equiv_pos_as_xyz
  1  'x, y, z'
loop_
 _atom_site_type_symbol
 _atom_site_label
 _atom_site_symmetry_multiplicity
 _atom_site_fract_x
 _atom_site_fract_y
 _atom_site_fract_z
 _atom_site_occupancy
  Co  Co0  1  0.250788  0.250788  0.250788  1
  Co  Co1  1  0.625365  0.123634  0.625365  1
  Co  Co2  1  0.123634  0.625365  0.625365  1
  Co  Co3  1  0.625365  0.625365  0.123634  1
  Cu  Cu4  1  0.999607  0.999607  0.999607  1
  Cu  Cu5  1  0.624522  0.624522  0.624522  1
  O  O6  1  0.381764  0.381764  0.844989  1
  O  O7  1  0.381764  0.844989  0.381764  1
  O  O8  1  0.844989  0.381764  0.381764  1
  O  O9  1  0.388666  0.388666  0.388666  1
  O  O10  1  0.860820  0.860820  0.860820  1
  O  O11  1  0.868246  0.406225  0.868246  1
  O  O12  1  0.406225  0.868246  0.868246  1
  O  O13  1  0.868246  0.868246  0.406225  1
