# generated using pymatgen
data_La5AgSe8
_symmetry_space_group_name_H-M   'P 1'
_cell_length_a   7.86343016
_cell_length_b   7.86343016
_cell_length_c   7.86343016
_cell_angle_alpha   109.83466177
_cell_angle_beta   109.83466177
_cell_angle_gamma   108.74675832
_symmetry_Int_Tables_number   1
_chemical_formula_structural   La5AgSe8
_chemical_formula_sum   'La5 Ag1 Se8'
_cell_volume   374.25034639
_cell_formula_units_Z   1
loop_
 _symmetry_equiv_pos_site_id
 _symmetry_equiv_pos_as_xyz
  1  'x, y, z'
loop_
 _atom_site_type_symbol
 _atom_site_label
 _atom_site_symmetry_multiplicity
 _atom_site_fract_x
 _atom_site_fract_y
 _atom_site_fract_z
 _atom_site_occupancy
  La  La0  1  0.237536  0.620467  0.119613  1
  La  La1  1  0.379533  0.499146  0.617069  1
  La  La2  1  0.500854  0.117923  0.880387  1
  La  La3  1  0.750000  0.250000  0.500000  1
  La  La4  1  0.882077  0.762464  0.382931  1
  Ag  Ag5  1  0.000000  0.000000  0.000000  1
  Se  Se6  1  0.608834  0.867554  0.104203  1
  Se  Se7  1  0.272752  0.022698  0.387306  1
  Se  Se8  1  0.495369  0.391166  0.258720  1
  Se  Se9  1  0.763351  0.504631  0.895797  1
  Se  Se10  1  0.635392  0.885446  0.612694  1
  Se  Se11  1  0.114554  0.727248  0.749945  1
  Se  Se12  1  0.977302  0.364608  0.250055  1
  Se  Se13  1  0.132446  0.236649  0.741280  1
