# generated using pymatgen
data_K3AsS4
_symmetry_space_group_name_H-M   'P 1'
_cell_length_a   9.25380002
_cell_length_b   9.62351332
_cell_length_c   10.72065567
_cell_angle_alpha   90.00000000
_cell_angle_beta   90.00000000
_cell_angle_gamma   90.00000000
_symmetry_Int_Tables_number   1
_chemical_formula_structural   K3AsS4
_chemical_formula_sum   'K12 As4 S16'
_cell_volume   954.71799639
_cell_formula_units_Z   4
loop_
 _symmetry_equiv_pos_site_id
 _symmetry_equiv_pos_as_xyz
  1  'x, y, z'
loop_
 _atom_site_type_symbol
 _atom_site_label
 _atom_site_symmetry_multiplicity
 _atom_site_fract_x
 _atom_site_fract_y
 _atom_site_fract_z
 _atom_site_occupancy
  K  K0  1  0.933674  0.700925  0.955092  1
  K  K1  1  0.364908  0.573820  0.250000  1
  K  K2  1  0.864908  0.926180  0.250000  1
  K  K3  1  0.135092  0.073820  0.750000  1
  K  K4  1  0.933674  0.700925  0.544908  1
  K  K5  1  0.066326  0.299075  0.044908  1
  K  K6  1  0.566326  0.200925  0.044908  1
  K  K7  1  0.433674  0.799075  0.544908  1
  K  K8  1  0.433674  0.799075  0.955092  1
  K  K9  1  0.066326  0.299075  0.455092  1
  K  K10  1  0.566326  0.200925  0.455092  1
  K  K11  1  0.635092  0.426180  0.750000  1
  As  As12  1  0.720954  0.980445  0.750000  1
  As  As13  1  0.279046  0.019555  0.250000  1
  As  As14  1  0.779046  0.480445  0.250000  1
  As  As15  1  0.220954  0.519555  0.750000  1
  S  S16  1  0.842685  0.032240  0.580847  1
  S  S17  1  0.157315  0.967760  0.080847  1
  S  S18  1  0.657315  0.532240  0.080847  1
  S  S19  1  0.342685  0.467760  0.580847  1
  S  S20  1  0.513018  0.092695  0.750000  1
  S  S21  1  0.486982  0.907305  0.250000  1
  S  S22  1  0.986982  0.592695  0.250000  1
  S  S23  1  0.013018  0.407305  0.750000  1
  S  S24  1  0.842685  0.032240  0.919153  1
  S  S25  1  0.157315  0.967760  0.419153  1
  S  S26  1  0.657315  0.532240  0.419153  1
  S  S27  1  0.342685  0.467760  0.919153  1
  S  S28  1  0.679745  0.755522  0.750000  1
  S  S29  1  0.179745  0.744478  0.750000  1
  S  S30  1  0.820255  0.255522  0.250000  1
  S  S31  1  0.320255  0.244478  0.250000  1
