# generated using pymatgen
data_Fe2(PO4)3
_symmetry_space_group_name_H-M   'P 1'
_cell_length_a   8.71382819
_cell_length_b   8.76714115
_cell_length_c   14.88127558
_cell_angle_alpha   90.00000000
_cell_angle_beta   125.36541921
_cell_angle_gamma   90.00000000
_symmetry_Int_Tables_number   1
_chemical_formula_structural   Fe2(PO4)3
_chemical_formula_sum   'Fe8 P12 O48'
_cell_volume   927.08384205
_cell_formula_units_Z   4
loop_
 _symmetry_equiv_pos_site_id
 _symmetry_equiv_pos_as_xyz
  1  'x, y, z'
loop_
 _atom_site_type_symbol
 _atom_site_label
 _atom_site_symmetry_multiplicity
 _atom_site_fract_x
 _atom_site_fract_y
 _atom_site_fract_z
 _atom_site_occupancy
  Fe  Fe0  1  0.367414  0.034553  0.117149  1
  Fe  Fe1  1  0.131455  0.034335  0.380931  1
  Fe  Fe2  1  0.367414  0.465447  0.617149  1
  Fe  Fe3  1  0.632586  0.534553  0.382851  1
  Fe  Fe4  1  0.868545  0.965665  0.619069  1
  Fe  Fe5  1  0.868545  0.534335  0.119069  1
  Fe  Fe6  1  0.131455  0.465665  0.880931  1
  Fe  Fe7  1  0.632586  0.965447  0.882851  1
  P  P8  1  0.247818  0.388434  0.353518  1
  P  P9  1  0.962030  0.249579  0.995990  1
  P  P10  1  0.752182  0.611566  0.646482  1
  P  P11  1  0.037970  0.750421  0.004010  1
  P  P12  1  0.538806  0.109463  0.644656  1
  P  P13  1  0.247818  0.111566  0.853518  1
  P  P14  1  0.752182  0.888434  0.146482  1
  P  P15  1  0.037970  0.749579  0.504010  1
  P  P16  1  0.461194  0.890537  0.355344  1
  P  P17  1  0.538806  0.390537  0.144656  1
  P  P18  1  0.461194  0.609463  0.855344  1
  P  P19  1  0.962030  0.250421  0.495990  1
  O  O20  1  0.583235  0.501318  0.236710  1
  O  O21  1  0.129012  0.141901  0.068515  1
  O  O22  1  0.774174  0.163167  0.936844  1
  O  O23  1  0.515145  0.271532  0.674953  1
  O  O24  1  0.870988  0.858099  0.931485  1
  O  O25  1  0.679144  0.572686  0.527574  1
  O  O26  1  0.225826  0.663167  0.563156  1
  O  O27  1  0.484855  0.771532  0.825047  1
  O  O28  1  0.400491  0.084608  0.833881  1
  O  O29  1  0.024146  0.674814  0.092933  1
  O  O30  1  0.320856  0.427314  0.472426  1
  O  O31  1  0.774174  0.336833  0.436844  1
  O  O32  1  0.965667  0.370334  0.071898  1
  O  O33  1  0.699292  0.108091  0.629143  1
  O  O34  1  0.804538  0.717600  0.170319  1
  O  O35  1  0.870988  0.641901  0.431485  1
  O  O36  1  0.699292  0.391909  0.129143  1
  O  O37  1  0.195462  0.282400  0.829681  1
  O  O38  1  0.034333  0.870334  0.428102  1
  O  O39  1  0.975854  0.325186  0.907067  1
  O  O40  1  0.320856  0.072686  0.972426  1
  O  O41  1  0.975854  0.174814  0.407067  1
  O  O42  1  0.356021  0.057539  0.536421  1
  O  O43  1  0.643979  0.942461  0.463579  1
  O  O44  1  0.300708  0.891909  0.370857  1
  O  O45  1  0.679144  0.927314  0.027574  1
  O  O46  1  0.416765  0.498682  0.763290  1
  O  O47  1  0.599509  0.584608  0.666119  1
  O  O48  1  0.129012  0.358099  0.568515  1
  O  O49  1  0.076767  0.490682  0.275075  1
  O  O50  1  0.356021  0.442461  0.036421  1
  O  O51  1  0.024146  0.825186  0.592933  1
  O  O52  1  0.923233  0.509318  0.724925  1
  O  O53  1  0.583235  0.998682  0.736710  1
  O  O54  1  0.515145  0.228468  0.174953  1
  O  O55  1  0.400491  0.415392  0.333881  1
  O  O56  1  0.034333  0.629666  0.928102  1
  O  O57  1  0.195462  0.217600  0.329681  1
  O  O58  1  0.416765  0.001318  0.263290  1
  O  O59  1  0.599509  0.915392  0.166119  1
  O  O60  1  0.923233  0.990682  0.224925  1
  O  O61  1  0.804538  0.782400  0.670319  1
  O  O62  1  0.300708  0.608091  0.870857  1
  O  O63  1  0.965667  0.129666  0.571898  1
  O  O64  1  0.076767  0.009318  0.775075  1
  O  O65  1  0.484855  0.728468  0.325047  1
  O  O66  1  0.643979  0.557539  0.963579  1
  O  O67  1  0.225826  0.836833  0.063156  1
