# generated using pymatgen
data_Co(ReO4)2
_symmetry_space_group_name_H-M   'P 1'
_cell_length_a   5.77078894
_cell_length_b   5.77078894
_cell_length_c   6.68099706
_cell_angle_alpha   90.00000000
_cell_angle_beta   90.00000000
_cell_angle_gamma   120.00000000
_symmetry_Int_Tables_number   1
_chemical_formula_structural   Co(ReO4)2
_chemical_formula_sum   'Co1 Re2 O8'
_cell_volume   192.68250953
_cell_formula_units_Z   1
loop_
 _symmetry_equiv_pos_site_id
 _symmetry_equiv_pos_as_xyz
  1  'x, y, z'
loop_
 _atom_site_type_symbol
 _atom_site_label
 _atom_site_symmetry_multiplicity
 _atom_site_fract_x
 _atom_site_fract_y
 _atom_site_fract_z
 _atom_site_occupancy
  Co  Co0  1  0.000000  0.000000  0.000000  1
  Re  Re1  1  0.333333  0.666667  0.264316  1
  Re  Re2  1  0.666667  0.333333  0.735684  1
  O  O3  1  0.666667  0.333333  0.475980  1
  O  O4  1  0.333333  0.666667  0.524020  1
  O  O5  1  0.832471  0.167529  0.824303  1
  O  O6  1  0.167529  0.335059  0.175697  1
  O  O7  1  0.664941  0.832471  0.175697  1
  O  O8  1  0.167529  0.832471  0.175697  1
  O  O9  1  0.832471  0.664941  0.824303  1
  O  O10  1  0.335059  0.167529  0.824303  1
