# generated using pymatgen
data_SrAu
_symmetry_space_group_name_H-M   'P 1'
_cell_length_a   6.23321280
_cell_length_b   4.81941638
_cell_length_c   40.42674498
_cell_angle_alpha   90.00000000
_cell_angle_beta   94.21388105
_cell_angle_gamma   90.00000000
_symmetry_Int_Tables_number   1
_chemical_formula_structural   SrAu
_chemical_formula_sum   'Sr20 Au20'
_cell_volume   1211.15454074
_cell_formula_units_Z   20
loop_
 _symmetry_equiv_pos_site_id
 _symmetry_equiv_pos_as_xyz
  1  'x, y, z'
loop_
 _atom_site_type_symbol
 _atom_site_label
 _atom_site_symmetry_multiplicity
 _atom_site_fract_x
 _atom_site_fract_y
 _atom_site_fract_z
 _atom_site_occupancy
  Sr  Sr0  1  0.941845  0.750000  0.913576  1
  Sr  Sr1  1  0.058155  0.250000  0.086424  1
  Sr  Sr2  1  0.659453  0.750000  0.813684  1
  Sr  Sr3  1  0.340547  0.250000  0.186316  1
  Sr  Sr4  1  0.842805  0.750000  0.713437  1
  Sr  Sr5  1  0.157195  0.250000  0.286563  1
  Sr  Sr6  1  0.035730  0.750000  0.613647  1
  Sr  Sr7  1  0.964270  0.250000  0.386353  1
  Sr  Sr8  1  0.762777  0.750000  0.513641  1
  Sr  Sr9  1  0.237223  0.250000  0.486359  1
  Sr  Sr10  1  0.478106  0.750000  0.413915  1
  Sr  Sr11  1  0.521894  0.250000  0.586085  1
  Sr  Sr12  1  0.655012  0.750000  0.313998  1
  Sr  Sr13  1  0.344988  0.250000  0.686002  1
  Sr  Sr14  1  0.853244  0.750000  0.213945  1
  Sr  Sr15  1  0.146756  0.250000  0.786055  1
  Sr  Sr16  1  0.573722  0.750000  0.113923  1
  Sr  Sr17  1  0.426278  0.250000  0.886077  1
  Sr  Sr18  1  0.749243  0.750000  0.013742  1
  Sr  Sr19  1  0.250757  0.250000  0.986258  1
  Au  Au20  1  0.455879  0.750000  0.942041  1
  Au  Au21  1  0.544121  0.250000  0.057959  1
  Au  Au22  1  0.173583  0.750000  0.841775  1
  Au  Au23  1  0.826417  0.250000  0.158225  1
  Au  Au24  1  0.355523  0.750000  0.741830  1
  Au  Au25  1  0.644477  0.250000  0.258170  1
  Au  Au26  1  0.549329  0.750000  0.641752  1
  Au  Au27  1  0.450671  0.250000  0.358248  1
  Au  Au28  1  0.274701  0.750000  0.542079  1
  Au  Au29  1  0.725299  0.250000  0.457921  1
  Au  Au30  1  0.992534  0.750000  0.442173  1
  Au  Au31  1  0.007466  0.250000  0.557827  1
  Au  Au32  1  0.168848  0.750000  0.342449  1
  Au  Au33  1  0.831152  0.250000  0.657551  1
  Au  Au34  1  0.364640  0.750000  0.242404  1
  Au  Au35  1  0.635360  0.250000  0.757596  1
  Au  Au36  1  0.089459  0.750000  0.142352  1
  Au  Au37  1  0.910541  0.250000  0.857648  1
  Au  Au38  1  0.262366  0.750000  0.042122  1
  Au  Au39  1  0.737634  0.250000  0.957878  1
