# generated using pymatgen
data_LiNi2(PO4)3
_symmetry_space_group_name_H-M   'P 1'
_cell_length_a   4.83460133
_cell_length_b   4.83460133
_cell_length_c   19.29912901
_cell_angle_alpha   89.53573788
_cell_angle_beta   90.46426212
_cell_angle_gamma   113.88661893
_symmetry_Int_Tables_number   1
_chemical_formula_structural   LiNi2(PO4)3
_chemical_formula_sum   'Li2 Ni4 P6 O24'
_cell_volume   412.43026449
_cell_formula_units_Z   2
loop_
 _symmetry_equiv_pos_site_id
 _symmetry_equiv_pos_as_xyz
  1  'x, y, z'
loop_
 _atom_site_type_symbol
 _atom_site_label
 _atom_site_symmetry_multiplicity
 _atom_site_fract_x
 _atom_site_fract_y
 _atom_site_fract_z
 _atom_site_occupancy
  Li  Li0  1  0.000297  0.999703  0.833610  1
  Li  Li1  1  0.999703  0.000297  0.166390  1
  Ni  Ni2  1  0.000000  1.000000  0.500000  1
  Ni  Ni3  1  0.998386  0.001614  0.333717  1
  Ni  Ni4  1  0.001614  0.998386  0.666283  1
  Ni  Ni5  1  0.000000  0.000000  0.000000  1
  P  P6  1  0.354196  0.645804  0.583386  1
  P  P7  1  0.356562  0.643438  0.918677  1
  P  P8  1  0.644530  0.355470  0.747962  1
  P  P9  1  0.643438  0.356562  0.081323  1
  P  P10  1  0.645804  0.354196  0.416614  1
  P  P11  1  0.355470  0.644530  0.252038  1
  O  O12  1  0.743615  0.256385  0.816816  1
  O  O13  1  0.703060  0.774131  0.254083  1
  O  O14  1  0.246692  0.753308  0.516488  1
  O  O15  1  0.777352  0.705086  0.416849  1
  O  O16  1  0.704440  0.772208  0.920205  1
  O  O17  1  0.774131  0.703060  0.745917  1
  O  O18  1  0.227792  0.295560  0.920205  1
  O  O19  1  0.705086  0.777352  0.583151  1
  O  O20  1  0.255911  0.744089  0.850248  1
  O  O21  1  0.256385  0.743615  0.183184  1
  O  O22  1  0.250338  0.749662  0.650375  1
  O  O23  1  0.225869  0.296940  0.254083  1
  O  O24  1  0.749662  0.250338  0.349625  1
  O  O25  1  0.294914  0.222648  0.416849  1
  O  O26  1  0.296940  0.225869  0.745917  1
  O  O27  1  0.753004  0.246996  0.015212  1
  O  O28  1  0.295560  0.227792  0.079795  1
  O  O29  1  0.244558  0.755442  0.317716  1
  O  O30  1  0.753308  0.246692  0.483512  1
  O  O31  1  0.772208  0.704440  0.079795  1
  O  O32  1  0.744089  0.255911  0.149752  1
  O  O33  1  0.755442  0.244558  0.682284  1
  O  O34  1  0.222648  0.294914  0.583151  1
  O  O35  1  0.246996  0.753004  0.984788  1
