# generated using pymatgen
data_Mg2Ga
_symmetry_space_group_name_H-M   'P 1'
_cell_length_a   7.77751081
_cell_length_b   7.77751081
_cell_length_c   7.00749865
_cell_angle_alpha   90.00000000
_cell_angle_beta   90.00000000
_cell_angle_gamma   120.00000000
_symmetry_Int_Tables_number   1
_chemical_formula_structural   Mg2Ga
_chemical_formula_sum   'Mg12 Ga6'
_cell_volume   367.09198425
_cell_formula_units_Z   6
loop_
 _symmetry_equiv_pos_site_id
 _symmetry_equiv_pos_as_xyz
  1  'x, y, z'
loop_
 _atom_site_type_symbol
 _atom_site_label
 _atom_site_symmetry_multiplicity
 _atom_site_fract_x
 _atom_site_fract_y
 _atom_site_fract_z
 _atom_site_occupancy
  Mg  Mg0  1  0.278024  0.000000  0.000000  1
  Mg  Mg1  1  0.721976  0.721976  0.500000  1
  Mg  Mg2  1  0.000000  0.278024  0.500000  1
  Mg  Mg3  1  0.000000  0.278024  0.000000  1
  Mg  Mg4  1  0.721976  0.721976  0.000000  1
  Mg  Mg5  1  0.278024  0.000000  0.500000  1
  Mg  Mg6  1  0.628175  0.021615  0.250000  1
  Mg  Mg7  1  0.393441  0.371825  0.250000  1
  Mg  Mg8  1  0.978385  0.606559  0.250000  1
  Mg  Mg9  1  0.606559  0.978385  0.750000  1
  Mg  Mg10  1  0.371825  0.393441  0.750000  1
  Mg  Mg11  1  0.021615  0.628175  0.750000  1
  Ga  Ga12  1  0.000000  0.000000  0.250000  1
  Ga  Ga13  1  0.000000  0.000000  0.750000  1
  Ga  Ga14  1  0.333333  0.666667  0.033536  1
  Ga  Ga15  1  0.333333  0.666667  0.466464  1
  Ga  Ga16  1  0.666667  0.333333  0.966464  1
  Ga  Ga17  1  0.666667  0.333333  0.533536  1
