# generated using pymatgen
data_VP2O7
_symmetry_space_group_name_H-M   'P 1'
_cell_length_a   8.62357430
_cell_length_b   5.17761743
_cell_length_c   13.28519487
_cell_angle_alpha   90.00000000
_cell_angle_beta   116.71710510
_cell_angle_gamma   90.00000000
_symmetry_Int_Tables_number   1
_chemical_formula_structural   VP2O7
_chemical_formula_sum   'V4 P8 O28'
_cell_volume   529.84885720
_cell_formula_units_Z   4
loop_
 _symmetry_equiv_pos_site_id
 _symmetry_equiv_pos_as_xyz
  1  'x, y, z'
loop_
 _atom_site_type_symbol
 _atom_site_label
 _atom_site_symmetry_multiplicity
 _atom_site_fract_x
 _atom_site_fract_y
 _atom_site_fract_z
 _atom_site_occupancy
  V  V0  1  0.271840  0.761046  0.035576  1
  V  V1  1  0.728160  0.261046  0.464424  1
  V  V2  1  0.271840  0.738954  0.535576  1
  V  V3  1  0.728160  0.238954  0.964424  1
  P  P4  1  0.837185  0.756810  0.859264  1
  P  P5  1  0.162815  0.256810  0.640736  1
  P  P6  1  0.688300  0.774416  0.612665  1
  P  P7  1  0.311700  0.225584  0.387335  1
  P  P8  1  0.837185  0.743190  0.359264  1
  P  P9  1  0.162815  0.243190  0.140736  1
  P  P10  1  0.688300  0.725584  0.112665  1
  P  P11  1  0.311700  0.274416  0.887335  1
  O  O12  1  0.763179  0.471804  0.354182  1
  O  O13  1  0.273255  0.085573  0.959800  1
  O  O14  1  0.726745  0.585573  0.540200  1
  O  O15  1  0.515631  0.719090  0.618026  1
  O  O16  1  0.029001  0.735312  0.944969  1
  O  O17  1  0.236821  0.528196  0.645818  1
  O  O18  1  0.763179  0.028196  0.854182  1
  O  O19  1  0.268635  0.459065  0.125292  1
  O  O20  1  0.726745  0.914427  0.040200  1
  O  O21  1  0.731365  0.540935  0.874708  1
  O  O22  1  0.236821  0.971804  0.145818  1
  O  O23  1  0.515631  0.780910  0.118026  1
  O  O24  1  0.699276  0.444899  0.082751  1
  O  O25  1  0.484369  0.280910  0.381974  1
  O  O26  1  0.029001  0.764688  0.444969  1
  O  O27  1  0.838016  0.721731  0.738822  1
  O  O28  1  0.268635  0.040935  0.625292  1
  O  O29  1  0.161984  0.278269  0.261178  1
  O  O30  1  0.161984  0.221731  0.761178  1
  O  O31  1  0.699276  0.055101  0.582751  1
  O  O32  1  0.484369  0.219090  0.881974  1
  O  O33  1  0.970999  0.235312  0.555031  1
  O  O34  1  0.300724  0.944899  0.417249  1
  O  O35  1  0.300724  0.555101  0.917249  1
  O  O36  1  0.970999  0.264688  0.055031  1
  O  O37  1  0.838016  0.778269  0.238822  1
  O  O38  1  0.273255  0.414427  0.459800  1
  O  O39  1  0.731365  0.959065  0.374708  1
