# generated using pymatgen
data_Lu6Ni2Sn
_symmetry_space_group_name_H-M   'P 1'
_cell_length_a   8.22815627
_cell_length_b   8.22815627
_cell_length_c   8.22815627
_cell_angle_alpha   112.62884663
_cell_angle_beta   110.23414487
_cell_angle_gamma   105.62752503
_symmetry_Int_Tables_number   1
_chemical_formula_structural   Lu6Ni2Sn
_chemical_formula_sum   'Lu12 Ni4 Sn2'
_cell_volume   427.19493061
_cell_formula_units_Z   2
loop_
 _symmetry_equiv_pos_site_id
 _symmetry_equiv_pos_as_xyz
  1  'x, y, z'
loop_
 _atom_site_type_symbol
 _atom_site_label
 _atom_site_symmetry_multiplicity
 _atom_site_fract_x
 _atom_site_fract_y
 _atom_site_fract_z
 _atom_site_occupancy
  Lu  Lu0  1  0.325812  0.134093  0.808281  1
  Lu  Lu1  1  0.674188  0.482469  0.808281  1
  Lu  Lu2  1  0.817051  0.208446  0.025497  1
  Lu  Lu3  1  0.182949  0.208446  0.391395  1
  Lu  Lu4  1  0.817051  0.791554  0.608605  1
  Lu  Lu5  1  0.182949  0.791554  0.974503  1
  Lu  Lu6  1  0.325812  0.517531  0.191719  1
  Lu  Lu7  1  0.674188  0.865907  0.191719  1
  Lu  Lu8  1  0.027754  0.734324  0.293430  1
  Lu  Lu9  1  0.972246  0.265676  0.706570  1
  Lu  Lu10  1  0.559107  0.265676  0.293430  1
  Lu  Lu11  1  0.440893  0.734324  0.706570  1
  Ni  Ni12  1  0.349033  0.500000  0.849033  1
  Ni  Ni13  1  0.650967  0.500000  0.150967  1
  Ni  Ni14  1  0.124524  0.124524  0.000000  1
  Ni  Ni15  1  0.875476  0.875476  0.000000  1
  Sn  Sn16  1  1.000000  0.500000  0.500000  1
  Sn  Sn17  1  0.500000  1.000000  0.500000  1
