# generated using pymatgen
data_Zn(FeO2)2
_symmetry_space_group_name_H-M   'P 1'
_cell_length_a   6.06554277
_cell_length_b   6.06554277
_cell_length_c   14.84971807
_cell_angle_alpha   90.00000000
_cell_angle_beta   90.00000000
_cell_angle_gamma   120.00000000
_symmetry_Int_Tables_number   1
_chemical_formula_structural   Zn(FeO2)2
_chemical_formula_sum   'Zn6 Fe12 O24'
_cell_volume   473.13837976
_cell_formula_units_Z   6
loop_
 _symmetry_equiv_pos_site_id
 _symmetry_equiv_pos_as_xyz
  1  'x, y, z'
loop_
 _atom_site_type_symbol
 _atom_site_label
 _atom_site_symmetry_multiplicity
 _atom_site_fract_x
 _atom_site_fract_y
 _atom_site_fract_z
 _atom_site_occupancy
  Zn  Zn0  1  0.666667  0.333333  0.954644  1
  Zn  Zn1  1  0.333333  0.666667  0.998153  1
  Zn  Zn2  1  0.333333  0.666667  0.624599  1
  Zn  Zn3  1  0.000000  0.000000  0.292391  1
  Zn  Zn4  1  0.666667  0.333333  0.710197  1
  Zn  Zn5  1  0.333333  0.666667  0.375065  1
  Fe  Fe6  1  0.168685  0.337371  0.833566  1
  Fe  Fe7  1  0.833510  0.166490  0.500672  1
  Fe  Fe8  1  0.000000  0.000000  0.667781  1
  Fe  Fe9  1  0.662629  0.831315  0.833566  1
  Fe  Fe10  1  0.833510  0.667019  0.500672  1
  Fe  Fe11  1  0.168685  0.831315  0.833566  1
  Fe  Fe12  1  0.666667  0.333333  0.334622  1
  Fe  Fe13  1  0.332981  0.166490  0.500672  1
  Fe  Fe14  1  0.501021  0.002042  0.166918  1
  Fe  Fe15  1  0.997958  0.498979  0.166918  1
  Fe  Fe16  1  0.501021  0.498979  0.166918  1
  Fe  Fe17  1  0.000000  0.000000  0.042942  1
  O  O18  1  0.489054  0.978107  0.908977  1
  O  O19  1  0.021893  0.510946  0.908977  1
  O  O20  1  0.333333  0.666667  0.758933  1
  O  O21  1  0.489054  0.510946  0.908977  1
  O  O22  1  0.152816  0.305632  0.579478  1
  O  O23  1  0.848367  0.151633  0.753574  1
  O  O24  1  0.000000  0.000000  0.911946  1
  O  O25  1  0.303266  0.151633  0.753574  1
  O  O26  1  0.694368  0.847184  0.579478  1
  O  O27  1  0.000000  0.000000  0.426857  1
  O  O28  1  0.152816  0.847184  0.579478  1
  O  O29  1  0.848367  0.696734  0.753574  1
  O  O30  1  0.819090  0.638179  0.246807  1
  O  O31  1  0.513710  0.486290  0.419886  1
  O  O32  1  0.666667  0.333333  0.573283  1
  O  O33  1  0.972580  0.486290  0.419886  1
  O  O34  1  0.666667  0.333333  0.092997  1
  O  O35  1  0.361821  0.180910  0.246807  1
  O  O36  1  0.819090  0.180910  0.246807  1
  O  O37  1  0.513710  0.027420  0.419886  1
  O  O38  1  0.173097  0.826903  0.089253  1
  O  O39  1  0.653807  0.826903  0.089253  1
  O  O40  1  0.333333  0.666667  0.238154  1
  O  O41  1  0.173097  0.346193  0.089253  1
