# generated using pymatgen
data_Li3Fe2(PO4)3
_symmetry_space_group_name_H-M   'P 1'
_cell_length_a   4.89004990
_cell_length_b   4.89004990
_cell_length_c   18.88889784
_cell_angle_alpha   89.75417895
_cell_angle_beta   90.24582105
_cell_angle_gamma   112.89826689
_symmetry_Int_Tables_number   1
_chemical_formula_structural   Li3Fe2(PO4)3
_chemical_formula_sum   'Li6 Fe4 P6 O24'
_cell_volume   416.08306677
_cell_formula_units_Z   2
loop_
 _symmetry_equiv_pos_site_id
 _symmetry_equiv_pos_as_xyz
  1  'x, y, z'
loop_
 _atom_site_type_symbol
 _atom_site_label
 _atom_site_symmetry_multiplicity
 _atom_site_fract_x
 _atom_site_fract_y
 _atom_site_fract_z
 _atom_site_occupancy
  Li  Li0  1  0.326940  0.673060  0.086239  1
  Li  Li1  1  0.327466  0.672534  0.753283  1
  Li  Li2  1  0.999630  0.000370  0.834035  1
  Li  Li3  1  0.673060  0.326940  0.913761  1
  Li  Li4  1  0.000370  0.999630  0.165965  1
  Li  Li5  1  0.672534  0.327466  0.246717  1
  Fe  Fe6  1  0.999062  0.000938  0.668123  1
  Fe  Fe7  1  1.000000  0.000000  0.500000  1
  Fe  Fe8  1  0.000938  0.999062  0.331877  1
  Fe  Fe9  1  0.000000  0.000000  0.000000  1
  P  P10  1  0.648687  0.351313  0.081748  1
  P  P11  1  0.348553  0.651447  0.251631  1
  P  P12  1  0.351313  0.648687  0.918252  1
  P  P13  1  0.651447  0.348553  0.748369  1
  P  P14  1  0.348253  0.651747  0.583444  1
  P  P15  1  0.651747  0.348253  0.416556  1
  O  O16  1  0.237376  0.299750  0.922568  1
  O  O17  1  0.236675  0.301744  0.256812  1
  O  O18  1  0.299750  0.237376  0.077432  1
  O  O19  1  0.233705  0.766295  0.316036  1
  O  O20  1  0.766295  0.233705  0.683964  1
  O  O21  1  0.763325  0.698256  0.743188  1
  O  O22  1  0.763612  0.236388  0.481751  1
  O  O23  1  0.240048  0.759952  0.985031  1
  O  O24  1  0.245514  0.754486  0.652111  1
  O  O25  1  0.762624  0.700250  0.077432  1
  O  O26  1  0.301744  0.236675  0.743188  1
  O  O27  1  0.775583  0.700011  0.417418  1
  O  O28  1  0.224417  0.299989  0.582582  1
  O  O29  1  0.251548  0.748452  0.850639  1
  O  O30  1  0.754486  0.245514  0.347889  1
  O  O31  1  0.700011  0.775583  0.582582  1
  O  O32  1  0.698256  0.763325  0.256812  1
  O  O33  1  0.759952  0.240048  0.014969  1
  O  O34  1  0.299989  0.224417  0.417418  1
  O  O35  1  0.700250  0.762624  0.922568  1
  O  O36  1  0.253912  0.746088  0.182548  1
  O  O37  1  0.748452  0.251548  0.149361  1
  O  O38  1  0.236388  0.763612  0.518249  1
  O  O39  1  0.746088  0.253912  0.817452  1
