# generated using pymatgen
data_HoGa4Ni
_symmetry_space_group_name_H-M   'P 1'
_cell_length_a   7.88753130
_cell_length_b   7.88753130
_cell_length_c   6.61744323
_cell_angle_alpha   90.00000000
_cell_angle_beta   90.00000000
_cell_angle_gamma   149.96985288
_symmetry_Int_Tables_number   1
_chemical_formula_structural   HoGa4Ni
_chemical_formula_sum   'Ho2 Ga8 Ni2'
_cell_volume   206.03356271
_cell_formula_units_Z   2
loop_
 _symmetry_equiv_pos_site_id
 _symmetry_equiv_pos_as_xyz
  1  'x, y, z'
loop_
 _atom_site_type_symbol
 _atom_site_label
 _atom_site_symmetry_multiplicity
 _atom_site_fract_x
 _atom_site_fract_y
 _atom_site_fract_z
 _atom_site_occupancy
  Ho  Ho0  1  0.880069  0.119931  0.250000  1
  Ho  Ho1  1  0.119931  0.880069  0.750000  1
  Ga  Ga2  1  0.314792  0.685208  0.551227  1
  Ga  Ga3  1  0.070205  0.929795  0.250000  1
  Ga  Ga4  1  0.500000  0.500000  0.000000  1
  Ga  Ga5  1  0.685208  0.314792  0.448773  1
  Ga  Ga6  1  0.500000  0.500000  0.500000  1
  Ga  Ga7  1  0.685208  0.314792  0.051227  1
  Ga  Ga8  1  0.314792  0.685208  0.948773  1
  Ga  Ga9  1  0.929795  0.070205  0.750000  1
  Ni  Ni10  1  0.775445  0.224555  0.750000  1
  Ni  Ni11  1  0.224555  0.775445  0.250000  1
