# generated using pymatgen
data_Be17Ru3
_symmetry_space_group_name_H-M   'P 1'
_cell_length_a   9.80586905
_cell_length_b   9.80586905
_cell_length_c   9.80586905
_cell_angle_alpha   109.47122063
_cell_angle_beta   109.47122063
_cell_angle_gamma   109.47122063
_symmetry_Int_Tables_number   1
_chemical_formula_structural   Be17Ru3
_chemical_formula_sum   'Be68 Ru12'
_cell_volume   725.83244410
_cell_formula_units_Z   4
loop_
 _symmetry_equiv_pos_site_id
 _symmetry_equiv_pos_as_xyz
  1  'x, y, z'
loop_
 _atom_site_type_symbol
 _atom_site_label
 _atom_site_symmetry_multiplicity
 _atom_site_fract_x
 _atom_site_fract_y
 _atom_site_fract_z
 _atom_site_occupancy
  Be  Be0  1  0.000000  0.403004  0.403004  1
  Be  Be1  1  0.596996  0.596996  0.000000  1
  Be  Be2  1  0.596996  1.000000  0.596996  1
  Be  Be3  1  0.403004  0.403004  0.000000  1
  Be  Be4  1  0.403004  1.000000  0.403004  1
  Be  Be5  1  0.000000  0.596996  0.596996  1
  Be  Be6  1  0.500000  0.694639  0.194639  1
  Be  Be7  1  0.305361  0.805361  0.500000  1
  Be  Be8  1  0.805361  0.500000  0.305361  1
  Be  Be9  1  0.694639  0.194639  0.500000  1
  Be  Be10  1  0.194639  0.500000  0.694639  1
  Be  Be11  1  0.500000  0.305361  0.805361  1
  Be  Be12  1  0.330141  0.330141  0.330141  1
  Be  Be13  1  0.000000  0.669859  0.000000  1
  Be  Be14  1  0.000000  0.000000  0.669859  1
  Be  Be15  1  0.669859  0.000000  0.000000  1
  Be  Be16  1  0.669859  0.669859  0.669859  1
  Be  Be17  1  0.000000  0.330141  0.000000  1
  Be  Be18  1  1.000000  1.000000  0.330141  1
  Be  Be19  1  0.330141  0.000000  0.000000  1
  Be  Be20  1  0.324821  0.093488  0.231334  1
  Be  Be21  1  0.093488  0.768666  0.862154  1
  Be  Be22  1  0.231334  0.137846  0.906512  1
  Be  Be23  1  0.906512  0.768666  0.675179  1
  Be  Be24  1  0.768666  0.862154  0.093488  1
  Be  Be25  1  0.906512  0.231334  0.137846  1
  Be  Be26  1  0.768666  0.675179  0.906512  1
  Be  Be27  1  0.231334  0.324821  0.093488  1
  Be  Be28  1  0.093488  0.231334  0.324821  1
  Be  Be29  1  0.862154  0.093488  0.768666  1
  Be  Be30  1  0.137846  0.906512  0.231334  1
  Be  Be31  1  0.675179  0.906512  0.768666  1
  Be  Be32  1  0.753747  0.349005  0.404742  1
  Be  Be33  1  0.349005  0.595258  0.944263  1
  Be  Be34  1  0.404742  0.055737  0.650995  1
  Be  Be35  1  0.650995  0.595258  0.246253  1
  Be  Be36  1  0.595258  0.944263  0.349005  1
  Be  Be37  1  0.650995  0.404742  0.055737  1
  Be  Be38  1  0.595258  0.246253  0.650995  1
  Be  Be39  1  0.404742  0.753747  0.349005  1
  Be  Be40  1  0.349005  0.404742  0.753747  1
  Be  Be41  1  0.944263  0.349005  0.595258  1
  Be  Be42  1  0.055737  0.650995  0.404742  1
  Be  Be43  1  0.246253  0.650995  0.595258  1
  Be  Be44  1  0.455528  0.542716  0.314862  1
  Be  Be45  1  0.140665  0.685138  0.227854  1
  Be  Be46  1  0.912812  0.772146  0.457284  1
  Be  Be47  1  0.859335  0.087188  0.544472  1
  Be  Be48  1  0.685138  0.227854  0.140665  1
  Be  Be49  1  0.457284  0.912812  0.772146  1
  Be  Be50  1  0.087188  0.544472  0.859335  1
  Be  Be51  1  0.314862  0.455528  0.542716  1
  Be  Be52  1  0.542716  0.314862  0.455528  1
  Be  Be53  1  0.227854  0.140665  0.685138  1
  Be  Be54  1  0.772146  0.457284  0.912812  1
  Be  Be55  1  0.544472  0.859335  0.087188  1
  Be  Be56  1  0.544472  0.457284  0.685138  1
  Be  Be57  1  0.859335  0.314862  0.772146  1
  Be  Be58  1  0.087188  0.227854  0.542716  1
  Be  Be59  1  0.140665  0.912812  0.455528  1
  Be  Be60  1  0.314862  0.772146  0.859335  1
  Be  Be61  1  0.542716  0.087188  0.227854  1
  Be  Be62  1  0.912812  0.455528  0.140665  1
  Be  Be63  1  0.685138  0.544472  0.457284  1
  Be  Be64  1  0.457284  0.685138  0.544472  1
  Be  Be65  1  0.772146  0.859335  0.314862  1
  Be  Be66  1  0.227854  0.542716  0.087188  1
  Be  Be67  1  0.455528  0.140665  0.912812  1
  Ru  Ru68  1  0.489330  0.301262  0.188068  1
  Ru  Ru69  1  0.301262  0.811932  0.113194  1
  Ru  Ru70  1  0.188068  0.886806  0.698738  1
  Ru  Ru71  1  0.698738  0.811932  0.510670  1
  Ru  Ru72  1  0.811932  0.113194  0.301262  1
  Ru  Ru73  1  0.698738  0.188068  0.886806  1
  Ru  Ru74  1  0.811932  0.510670  0.698738  1
  Ru  Ru75  1  0.188068  0.489330  0.301262  1
  Ru  Ru76  1  0.301262  0.188068  0.489330  1
  Ru  Ru77  1  0.113194  0.301262  0.811932  1
  Ru  Ru78  1  0.886806  0.698738  0.188068  1
  Ru  Ru79  1  0.510670  0.698738  0.811932  1
