# generated using pymatgen
data_Ca4P7Ir8
_symmetry_space_group_name_H-M   'P 1'
_cell_length_a   12.63393531
_cell_length_b   3.98246136
_cell_length_c   13.16998452
_cell_angle_alpha   90.00000000
_cell_angle_beta   98.91707952
_cell_angle_gamma   90.00000000
_symmetry_Int_Tables_number   1
_chemical_formula_structural   Ca4P7Ir8
_chemical_formula_sum   'Ca8 P14 Ir16'
_cell_volume   654.62787398
_cell_formula_units_Z   2
loop_
 _symmetry_equiv_pos_site_id
 _symmetry_equiv_pos_as_xyz
  1  'x, y, z'
loop_
 _atom_site_type_symbol
 _atom_site_label
 _atom_site_symmetry_multiplicity
 _atom_site_fract_x
 _atom_site_fract_y
 _atom_site_fract_z
 _atom_site_occupancy
  Ca  Ca0  1  0.285802  0.750000  0.434210  1
  Ca  Ca1  1  0.714198  0.250000  0.565790  1
  Ca  Ca2  1  0.985357  0.750000  0.291241  1
  Ca  Ca3  1  0.014643  0.250000  0.708759  1
  Ca  Ca4  1  0.216724  0.750000  0.105420  1
  Ca  Ca5  1  0.603781  0.250000  0.207386  1
  Ca  Ca6  1  0.396219  0.750000  0.792614  1
  Ca  Ca7  1  0.783276  0.250000  0.894580  1
  P  P8  1  0.408735  0.250000  0.587594  1
  P  P9  1  0.971432  0.750000  0.871789  1
  P  P10  1  0.028568  0.250000  0.128211  1
  P  P11  1  0.591265  0.750000  0.412406  1
  P  P12  1  0.241472  0.250000  0.920356  1
  P  P13  1  0.758528  0.750000  0.079644  1
  P  P14  1  0.655004  0.750000  0.719237  1
  P  P15  1  0.344996  0.250000  0.280763  1
  P  P16  1  0.556255  0.250000  0.900637  1
  P  P17  1  0.443745  0.750000  0.099363  1
  P  P18  1  0.809732  0.250000  0.311828  1
  P  P19  1  0.190268  0.750000  0.688172  1
  P  P20  1  0.110328  0.250000  0.437692  1
  P  P21  1  0.889672  0.750000  0.562308  1
  Ir  Ir22  1  0.485955  0.250000  0.425026  1
  Ir  Ir23  1  0.514045  0.750000  0.574974  1
  Ir  Ir24  1  0.163037  0.250000  0.272796  1
  Ir  Ir25  1  0.836963  0.750000  0.727204  1
  Ir  Ir26  1  0.054003  0.250000  0.951760  1
  Ir  Ir27  1  0.945997  0.750000  0.048240  1
  Ir  Ir28  1  0.561240  0.250000  0.725989  1
  Ir  Ir29  1  0.438760  0.750000  0.274011  1
  Ir  Ir30  1  0.923304  0.250000  0.472504  1
  Ir  Ir31  1  0.076696  0.750000  0.527496  1
  Ir  Ir32  1  0.416914  0.250000  0.001132  1
  Ir  Ir33  1  0.583086  0.750000  0.998868  1
  Ir  Ir34  1  0.228584  0.250000  0.604238  1
  Ir  Ir35  1  0.771416  0.750000  0.395762  1
  Ir  Ir36  1  0.839334  0.250000  0.141953  1
  Ir  Ir37  1  0.160666  0.750000  0.858047  1
