# generated using pymatgen
data_AlAu2
_symmetry_space_group_name_H-M   'P 1'
_cell_length_a   3.31085602
_cell_length_b   9.01381516
_cell_length_c   17.08346475
_cell_angle_alpha   90.00000000
_cell_angle_beta   90.00000000
_cell_angle_gamma   90.00000000
_symmetry_Int_Tables_number   1
_chemical_formula_structural   AlAu2
_chemical_formula_sum   'Al10 Au20'
_cell_volume   509.82942676
_cell_formula_units_Z   10
loop_
 _symmetry_equiv_pos_site_id
 _symmetry_equiv_pos_as_xyz
  1  'x, y, z'
loop_
 _atom_site_type_symbol
 _atom_site_label
 _atom_site_symmetry_multiplicity
 _atom_site_fract_x
 _atom_site_fract_y
 _atom_site_fract_z
 _atom_site_occupancy
  Al  Al0  1  0.000000  0.000000  0.000000  1
  Al  Al1  1  0.500000  0.500000  0.500000  1
  Al  Al2  1  0.000000  0.976415  0.201466  1
  Al  Al3  1  0.000000  0.023585  0.798534  1
  Al  Al4  1  0.500000  0.476415  0.298534  1
  Al  Al5  1  0.500000  0.523585  0.701466  1
  Al  Al6  1  0.000000  0.026381  0.401147  1
  Al  Al7  1  0.000000  0.973619  0.598853  1
  Al  Al8  1  0.500000  0.526381  0.098853  1
  Al  Al9  1  0.500000  0.473619  0.901147  1
  Au  Au10  1  0.000000  0.344670  0.013397  1
  Au  Au11  1  0.000000  0.655330  0.986603  1
  Au  Au12  1  0.500000  0.844670  0.486603  1
  Au  Au13  1  0.500000  0.155330  0.513397  1
  Au  Au14  1  0.000000  0.358148  0.186892  1
  Au  Au15  1  0.000000  0.641852  0.813108  1
  Au  Au16  1  0.500000  0.858148  0.313108  1
  Au  Au17  1  0.500000  0.141852  0.686892  1
  Au  Au18  1  0.000000  0.324316  0.403647  1
  Au  Au19  1  0.000000  0.675684  0.596353  1
  Au  Au20  1  0.500000  0.824316  0.096353  1
  Au  Au21  1  0.500000  0.175684  0.903647  1
  Au  Au22  1  0.000000  0.366238  0.605279  1
  Au  Au23  1  0.000000  0.633762  0.394721  1
  Au  Au24  1  0.500000  0.866238  0.894721  1
  Au  Au25  1  0.500000  0.133762  0.105279  1
  Au  Au26  1  0.000000  0.334421  0.786521  1
  Au  Au27  1  0.000000  0.665579  0.213479  1
  Au  Au28  1  0.500000  0.834421  0.713479  1
  Au  Au29  1  0.500000  0.165579  0.286521  1
