# generated using pymatgen
data_ErInPt
_symmetry_space_group_name_H-M   'P 1'
_cell_length_a   7.66872198
_cell_length_b   7.66872198
_cell_length_c   3.82930607
_cell_angle_alpha   90.00000000
_cell_angle_beta   90.00000000
_cell_angle_gamma   120.00000000
_symmetry_Int_Tables_number   1
_chemical_formula_structural   ErInPt
_chemical_formula_sum   'Er3 In3 Pt3'
_cell_volume   195.02787932
_cell_formula_units_Z   3
loop_
 _symmetry_equiv_pos_site_id
 _symmetry_equiv_pos_as_xyz
  1  'x, y, z'
loop_
 _atom_site_type_symbol
 _atom_site_label
 _atom_site_symmetry_multiplicity
 _atom_site_fract_x
 _atom_site_fract_y
 _atom_site_fract_z
 _atom_site_occupancy
  Er  Er0  1  0.595179  0.000000  0.500000  1
  Er  Er1  1  0.404821  0.404821  0.500000  1
  Er  Er2  1  0.000000  0.595179  0.500000  1
  In  In3  1  0.737663  0.737663  0.000000  1
  In  In4  1  0.000000  0.262337  0.000000  1
  In  In5  1  0.262337  0.000000  0.000000  1
  Pt  Pt6  1  0.333333  0.666667  0.000000  1
  Pt  Pt7  1  0.666667  0.333333  0.000000  1
  Pt  Pt8  1  0.000000  0.000000  0.500000  1
