# generated using pymatgen
data_AgBiSe2
_symmetry_space_group_name_H-M   'P 1'
_cell_length_a   7.24469532
_cell_length_b   7.24469532
_cell_length_c   7.24469532
_cell_angle_alpha   132.26735363
_cell_angle_beta   132.26735363
_cell_angle_gamma   69.80709726
_symmetry_Int_Tables_number   1
_chemical_formula_structural   AgBiSe2
_chemical_formula_sum   'Ag2 Bi2 Se4'
_cell_volume   204.20037670
_cell_formula_units_Z   2
loop_
 _symmetry_equiv_pos_site_id
 _symmetry_equiv_pos_as_xyz
  1  'x, y, z'
loop_
 _atom_site_type_symbol
 _atom_site_label
 _atom_site_symmetry_multiplicity
 _atom_site_fract_x
 _atom_site_fract_y
 _atom_site_fract_z
 _atom_site_occupancy
  Ag  Ag0  1  0.500000  0.500000  0.000000  1
  Ag  Ag1  1  0.250000  0.750000  0.500000  1
  Bi  Bi2  1  0.000000  0.000000  0.000000  1
  Bi  Bi3  1  0.750000  0.250000  0.500000  1
  Se  Se4  1  0.749641  0.749641  0.000000  1
  Se  Se5  1  0.250359  0.250359  0.000000  1
  Se  Se6  1  0.000359  0.500359  0.500000  1
  Se  Se7  1  0.499641  0.999641  0.500000  1
