# generated using pymatgen
data_ScCd7
_symmetry_space_group_name_H-M   'P 1'
_cell_length_a   6.31296293
_cell_length_b   6.31296293
_cell_length_c   9.43415842
_cell_angle_alpha   90.00000000
_cell_angle_beta   90.00000000
_cell_angle_gamma   107.69718852
_symmetry_Int_Tables_number   1
_chemical_formula_structural   ScCd7
_chemical_formula_sum   'Sc2 Cd14'
_cell_volume   358.19131318
_cell_formula_units_Z   2
loop_
 _symmetry_equiv_pos_site_id
 _symmetry_equiv_pos_as_xyz
  1  'x, y, z'
loop_
 _atom_site_type_symbol
 _atom_site_label
 _atom_site_symmetry_multiplicity
 _atom_site_fract_x
 _atom_site_fract_y
 _atom_site_fract_z
 _atom_site_occupancy
  Sc  Sc0  1  0.478476  0.521524  0.250000  1
  Sc  Sc1  1  0.521524  0.478476  0.750000  1
  Cd  Cd2  1  0.997581  0.596735  0.250000  1
  Cd  Cd3  1  0.002419  0.403265  0.750000  1
  Cd  Cd4  1  0.596735  0.997581  0.750000  1
  Cd  Cd5  1  0.403265  0.002419  0.250000  1
  Cd  Cd6  1  0.709102  0.290898  0.017470  1
  Cd  Cd7  1  0.290898  0.709102  0.517470  1
  Cd  Cd8  1  0.290898  0.709102  0.982530  1
  Cd  Cd9  1  0.709102  0.290898  0.482530  1
  Cd  Cd10  1  0.211848  0.211848  1.000000  1
  Cd  Cd11  1  0.788152  0.788152  0.500000  1
  Cd  Cd12  1  0.788152  0.788152  1.000000  1
  Cd  Cd13  1  0.211848  0.211848  0.500000  1
  Cd  Cd14  1  0.915227  0.084773  0.250000  1
  Cd  Cd15  1  0.084773  0.915227  0.750000  1
