# generated using pymatgen
data_Ca4As7Ir8
_symmetry_space_group_name_H-M   'P 1'
_cell_length_a   13.07853799
_cell_length_b   4.12424183
_cell_length_c   13.63517533
_cell_angle_alpha   90.00000000
_cell_angle_beta   98.14363073
_cell_angle_gamma   90.00000000
_symmetry_Int_Tables_number   1
_chemical_formula_structural   Ca4As7Ir8
_chemical_formula_sum   'Ca8 As14 Ir16'
_cell_volume   728.05204155
_cell_formula_units_Z   2
loop_
 _symmetry_equiv_pos_site_id
 _symmetry_equiv_pos_as_xyz
  1  'x, y, z'
loop_
 _atom_site_type_symbol
 _atom_site_label
 _atom_site_symmetry_multiplicity
 _atom_site_fract_x
 _atom_site_fract_y
 _atom_site_fract_z
 _atom_site_occupancy
  Ca  Ca0  1  0.101148  0.250000  0.201749  1
  Ca  Ca1  1  0.898852  0.750000  0.798251  1
  Ca  Ca2  1  0.288779  0.250000  0.895190  1
  Ca  Ca3  1  0.711221  0.750000  0.104810  1
  Ca  Ca4  1  0.514648  0.250000  0.709557  1
  Ca  Ca5  1  0.485352  0.750000  0.290443  1
  Ca  Ca6  1  0.214121  0.250000  0.567302  1
  Ca  Ca7  1  0.785879  0.750000  0.432698  1
  As  As8  1  0.060097  0.250000  0.898563  1
  As  As9  1  0.939903  0.750000  0.101437  1
  As  As10  1  0.308679  0.250000  0.310803  1
  As  As11  1  0.691321  0.750000  0.689197  1
  As  As12  1  0.608689  0.250000  0.434146  1
  As  As13  1  0.391311  0.750000  0.565854  1
  As  As14  1  0.848856  0.250000  0.278972  1
  As  As15  1  0.151144  0.750000  0.721028  1
  As  As16  1  0.255955  0.750000  0.080472  1
  As  As17  1  0.744045  0.250000  0.919528  1
  As  As18  1  0.096756  0.750000  0.415423  1
  As  As19  1  0.903244  0.250000  0.584577  1
  As  As20  1  0.468981  0.750000  0.871743  1
  As  As21  1  0.531019  0.250000  0.128257  1
  Ir  Ir22  1  0.985844  0.250000  0.427331  1
  Ir  Ir23  1  0.014156  0.750000  0.572669  1
  Ir  Ir24  1  0.665423  0.250000  0.270470  1
  Ir  Ir25  1  0.334577  0.750000  0.729530  1
  Ir  Ir26  1  0.555055  0.250000  0.951991  1
  Ir  Ir27  1  0.444945  0.750000  0.048009  1
  Ir  Ir28  1  0.053318  0.250000  0.719000  1
  Ir  Ir29  1  0.946682  0.750000  0.281000  1
  Ir  Ir30  1  0.424892  0.250000  0.472345  1
  Ir  Ir31  1  0.575108  0.750000  0.527655  1
  Ir  Ir32  1  0.920857  0.250000  0.001867  1
  Ir  Ir33  1  0.079143  0.750000  0.998133  1
  Ir  Ir34  1  0.720382  0.250000  0.599193  1
  Ir  Ir35  1  0.279618  0.750000  0.400807  1
  Ir  Ir36  1  0.342407  0.250000  0.139230  1
  Ir  Ir37  1  0.657593  0.750000  0.860770  1
