# generated using pymatgen
data_Tb2Zn17
_symmetry_space_group_name_H-M   'P 1'
_cell_length_a   8.98808629
_cell_length_b   8.98808629
_cell_length_c   8.79212456
_cell_angle_alpha   90.00000000
_cell_angle_beta   90.00000000
_cell_angle_gamma   120.00000000
_symmetry_Int_Tables_number   1
_chemical_formula_structural   Tb2Zn17
_chemical_formula_sum   'Tb4 Zn34'
_cell_volume   615.11870028
_cell_formula_units_Z   2
loop_
 _symmetry_equiv_pos_site_id
 _symmetry_equiv_pos_as_xyz
  1  'x, y, z'
loop_
 _atom_site_type_symbol
 _atom_site_label
 _atom_site_symmetry_multiplicity
 _atom_site_fract_x
 _atom_site_fract_y
 _atom_site_fract_z
 _atom_site_occupancy
  Tb  Tb0  1  0.666667  0.333333  0.250000  1
  Tb  Tb1  1  0.333333  0.666667  0.750000  1
  Tb  Tb2  1  0.000000  0.000000  0.750000  1
  Tb  Tb3  1  0.000000  0.000000  0.250000  1
  Zn  Zn4  1  0.161644  0.838356  0.520893  1
  Zn  Zn5  1  0.161644  0.323288  0.520893  1
  Zn  Zn6  1  0.676712  0.838356  0.520893  1
  Zn  Zn7  1  0.323288  0.161644  0.020893  1
  Zn  Zn8  1  0.333333  0.666667  0.101422  1
  Zn  Zn9  1  0.666667  0.333333  0.601422  1
  Zn  Zn10  1  0.666667  0.333333  0.898578  1
  Zn  Zn11  1  0.333333  0.666667  0.398578  1
  Zn  Zn12  1  0.500000  0.000000  0.000000  1
  Zn  Zn13  1  0.500000  0.500000  0.500000  1
  Zn  Zn14  1  0.000000  0.500000  0.500000  1
  Zn  Zn15  1  0.000000  0.500000  0.000000  1
  Zn  Zn16  1  0.500000  0.500000  0.000000  1
  Zn  Zn17  1  0.500000  0.000000  0.500000  1
  Zn  Zn18  1  0.328882  0.961472  0.250000  1
  Zn  Zn19  1  0.367411  0.328882  0.750000  1
  Zn  Zn20  1  0.961472  0.632589  0.750000  1
  Zn  Zn21  1  0.038528  0.367411  0.250000  1
  Zn  Zn22  1  0.632589  0.671118  0.250000  1
  Zn  Zn23  1  0.367411  0.038528  0.750000  1
  Zn  Zn24  1  0.671118  0.632589  0.750000  1
  Zn  Zn25  1  0.671118  0.038528  0.750000  1
  Zn  Zn26  1  0.961472  0.328882  0.750000  1
  Zn  Zn27  1  0.038528  0.671118  0.250000  1
  Zn  Zn28  1  0.632589  0.961472  0.250000  1
  Zn  Zn29  1  0.328882  0.367411  0.250000  1
  Zn  Zn30  1  0.161644  0.323288  0.979107  1
  Zn  Zn31  1  0.838356  0.161644  0.479107  1
  Zn  Zn32  1  0.323288  0.161644  0.479107  1
  Zn  Zn33  1  0.676712  0.838356  0.979107  1
  Zn  Zn34  1  0.161644  0.838356  0.979107  1
  Zn  Zn35  1  0.838356  0.676712  0.020893  1
  Zn  Zn36  1  0.838356  0.161644  0.020893  1
  Zn  Zn37  1  0.838356  0.676712  0.479107  1
