# generated using pymatgen
data_Mn4(PO4)3
_symmetry_space_group_name_H-M   'P 1'
_cell_length_a   10.90305043
_cell_length_b   10.90305043
_cell_length_c   10.90305043
_cell_angle_alpha   143.80594304
_cell_angle_beta   143.80594304
_cell_angle_gamma   52.11757419
_symmetry_Int_Tables_number   1
_chemical_formula_structural   Mn4(PO4)3
_chemical_formula_sum   'Mn8 P6 O24'
_cell_volume   449.39206585
_cell_formula_units_Z   2
loop_
 _symmetry_equiv_pos_site_id
 _symmetry_equiv_pos_as_xyz
  1  'x, y, z'
loop_
 _atom_site_type_symbol
 _atom_site_label
 _atom_site_symmetry_multiplicity
 _atom_site_fract_x
 _atom_site_fract_y
 _atom_site_fract_z
 _atom_site_occupancy
  Mn  Mn0  1  0.519303  0.019303  0.500000  1
  Mn  Mn1  1  0.875000  0.873483  0.498483  1
  Mn  Mn2  1  0.623483  0.125000  0.998483  1
  Mn  Mn3  1  0.980697  0.480697  0.500000  1
  Mn  Mn4  1  0.126517  0.625000  0.001517  1
  Mn  Mn5  1  0.230697  0.230697  0.000000  1
  Mn  Mn6  1  0.769303  0.769303  0.000000  1
  Mn  Mn7  1  0.375000  0.376517  0.501517  1
  P  P8  1  0.750000  0.250000  0.500000  1
  P  P9  1  0.000000  0.000000  0.000000  1
  P  P10  1  0.875000  0.469301  0.094301  1
  P  P11  1  0.530699  0.625000  0.405699  1
  P  P12  1  0.375000  0.780699  0.905699  1
  P  P13  1  0.219301  0.125000  0.594301  1
  O  O14  1  0.534876  0.882535  0.210952  1
  O  O15  1  0.885594  0.677703  0.194778  1
  O  O16  1  0.322297  0.517075  0.207891  1
  O  O17  1  0.215124  0.926076  0.847659  1
  O  O18  1  0.309184  0.114406  0.792109  1
  O  O19  1  0.440816  0.732925  0.305222  1
  O  O20  1  0.725938  0.106287  0.249361  1
  O  O21  1  0.024062  0.773423  0.880349  1
  O  O22  1  0.117465  0.328417  0.652341  1
  O  O23  1  0.632535  0.784876  0.710952  1
  O  O24  1  0.893713  0.143074  0.619651  1
  O  O25  1  0.856287  0.975938  0.749361  1
  O  O26  1  0.078417  0.367465  0.152341  1
  O  O27  1  0.267075  0.572297  0.707891  1
  O  O28  1  0.523423  0.274062  0.380349  1
  O  O29  1  0.226577  0.106926  0.250639  1
  O  O30  1  0.676076  0.465124  0.347659  1
  O  O31  1  0.073924  0.921583  0.289048  1
  O  O32  1  0.864406  0.559184  0.292109  1
  O  O33  1  0.671583  0.323924  0.789048  1
  O  O34  1  0.427703  0.135594  0.694778  1
  O  O35  1  0.482925  0.690816  0.805222  1
  O  O36  1  0.856926  0.476577  0.750639  1
  O  O37  1  0.893074  0.143713  0.119651  1
