# generated using pymatgen
data_DyGa
_symmetry_space_group_name_H-M   'P 1'
_cell_length_a   5.88737922
_cell_length_b   5.88737922
_cell_length_c   4.02984453
_cell_angle_alpha   90.00000000
_cell_angle_beta   90.00000000
_cell_angle_gamma   136.14154942
_symmetry_Int_Tables_number   1
_chemical_formula_structural   DyGa
_chemical_formula_sum   'Dy2 Ga2'
_cell_volume   96.78092916
_cell_formula_units_Z   2
loop_
 _symmetry_equiv_pos_site_id
 _symmetry_equiv_pos_as_xyz
  1  'x, y, z'
loop_
 _atom_site_type_symbol
 _atom_site_label
 _atom_site_symmetry_multiplicity
 _atom_site_fract_x
 _atom_site_fract_y
 _atom_site_fract_z
 _atom_site_occupancy
  Dy  Dy0  1  0.639581  0.360419  0.750000  1
  Dy  Dy1  1  0.360419  0.639581  0.250000  1
  Ga  Ga2  1  0.923250  0.076750  0.750000  1
  Ga  Ga3  1  0.076750  0.923250  0.250000  1
