# generated using pymatgen
data_UGeTe
_symmetry_space_group_name_H-M   'P 1'
_cell_length_a   9.23139488
_cell_length_b   9.23139488
_cell_length_c   9.23139488
_cell_angle_alpha   154.26676631
_cell_angle_beta   154.26676631
_cell_angle_gamma   36.71198062
_symmetry_Int_Tables_number   1
_chemical_formula_structural   UGeTe
_chemical_formula_sum   'U2 Ge2 Te2'
_cell_volume   148.09931020
_cell_formula_units_Z   2
loop_
 _symmetry_equiv_pos_site_id
 _symmetry_equiv_pos_as_xyz
  1  'x, y, z'
loop_
 _atom_site_type_symbol
 _atom_site_label
 _atom_site_symmetry_multiplicity
 _atom_site_fract_x
 _atom_site_fract_y
 _atom_site_fract_z
 _atom_site_occupancy
  U  U0  1  0.877403  0.877403  0.000000  1
  U  U1  1  0.122597  0.122597  0.000000  1
  Ge  Ge2  1  0.500000  1.000000  0.500000  1
  Ge  Ge3  1  0.000000  0.500000  0.500000  1
  Te  Te4  1  0.315261  0.315261  0.000000  1
  Te  Te5  1  0.684739  0.684739  0.000000  1
