# generated using pymatgen
data_Th(CoGe)2
_symmetry_space_group_name_H-M   'P 1'
_cell_length_a   5.71540707
_cell_length_b   5.71540707
_cell_length_c   5.71540707
_cell_angle_alpha   137.41694699
_cell_angle_beta   137.41694699
_cell_angle_gamma   61.79715510
_symmetry_Int_Tables_number   1
_chemical_formula_structural   Th(CoGe)2
_chemical_formula_sum   'Th1 Co2 Ge2'
_cell_volume   84.49144353
_cell_formula_units_Z   1
loop_
 _symmetry_equiv_pos_site_id
 _symmetry_equiv_pos_as_xyz
  1  'x, y, z'
loop_
 _atom_site_type_symbol
 _atom_site_label
 _atom_site_symmetry_multiplicity
 _atom_site_fract_x
 _atom_site_fract_y
 _atom_site_fract_z
 _atom_site_occupancy
  Th  Th0  1  0.000000  0.000000  0.000000  1
  Co  Co1  1  0.250000  0.750000  0.500000  1
  Co  Co2  1  0.750000  0.250000  0.500000  1
  Ge  Ge3  1  0.634058  0.634058  0.000000  1
  Ge  Ge4  1  0.365942  0.365942  0.000000  1
