# generated using pymatgen
data_Th7Co3
_symmetry_space_group_name_H-M   'P 1'
_cell_length_a   9.75158132
_cell_length_b   9.75158132
_cell_length_c   6.18422534
_cell_angle_alpha   90.00000000
_cell_angle_beta   90.00000000
_cell_angle_gamma   120.00000000
_symmetry_Int_Tables_number   1
_chemical_formula_structural   Th7Co3
_chemical_formula_sum   'Th14 Co6'
_cell_volume   509.29103474
_cell_formula_units_Z   2
loop_
 _symmetry_equiv_pos_site_id
 _symmetry_equiv_pos_as_xyz
  1  'x, y, z'
loop_
 _atom_site_type_symbol
 _atom_site_label
 _atom_site_symmetry_multiplicity
 _atom_site_fract_x
 _atom_site_fract_y
 _atom_site_fract_z
 _atom_site_occupancy
  Th  Th0  1  0.333333  0.666667  0.049032  1
  Th  Th1  1  0.666667  0.333333  0.549032  1
  Th  Th2  1  0.126196  0.873804  0.244507  1
  Th  Th3  1  0.252393  0.126196  0.744507  1
  Th  Th4  1  0.873804  0.747607  0.744507  1
  Th  Th5  1  0.126196  0.252393  0.244507  1
  Th  Th6  1  0.747607  0.873804  0.244507  1
  Th  Th7  1  0.873804  0.126196  0.744507  1
  Th  Th8  1  0.544145  0.455855  0.049627  1
  Th  Th9  1  0.088289  0.544145  0.549627  1
  Th  Th10  1  0.455855  0.911711  0.549627  1
  Th  Th11  1  0.544145  0.088289  0.049627  1
  Th  Th12  1  0.911711  0.455855  0.049627  1
  Th  Th13  1  0.455855  0.544145  0.549627  1
  Co  Co14  1  0.814746  0.185254  0.299522  1
  Co  Co15  1  0.629493  0.814746  0.799522  1
  Co  Co16  1  0.185254  0.370507  0.799522  1
  Co  Co17  1  0.814746  0.629493  0.299522  1
  Co  Co18  1  0.370507  0.185254  0.299522  1
  Co  Co19  1  0.185254  0.814746  0.799522  1
