# generated using pymatgen
data_Na2S2O5
_symmetry_space_group_name_H-M   'P 1'
_cell_length_a   9.31636935
_cell_length_b   5.52025024
_cell_length_c   23.22801926
_cell_angle_alpha   90.00000000
_cell_angle_beta   107.93106212
_cell_angle_gamma   90.00000000
_symmetry_Int_Tables_number   1
_chemical_formula_structural   Na2S2O5
_chemical_formula_sum   'Na16 S16 O40'
_cell_volume   1136.56270772
_cell_formula_units_Z   8
loop_
 _symmetry_equiv_pos_site_id
 _symmetry_equiv_pos_as_xyz
  1  'x, y, z'
loop_
 _atom_site_type_symbol
 _atom_site_label
 _atom_site_symmetry_multiplicity
 _atom_site_fract_x
 _atom_site_fract_y
 _atom_site_fract_z
 _atom_site_occupancy
  Na  Na0  1  0.653809  0.731135  0.733604  1
  Na  Na1  1  0.346191  0.231135  0.766396  1
  Na  Na2  1  0.346191  0.268865  0.266396  1
  Na  Na3  1  0.653809  0.768865  0.233604  1
  Na  Na4  1  0.082579  0.766539  0.316009  1
  Na  Na5  1  0.917421  0.266539  0.183991  1
  Na  Na6  1  0.917421  0.233461  0.683991  1
  Na  Na7  1  0.082579  0.733461  0.816009  1
  Na  Na8  1  0.579202  0.774535  0.569406  1
  Na  Na9  1  0.420798  0.274535  0.930594  1
  Na  Na10  1  0.420798  0.225465  0.430594  1
  Na  Na11  1  0.579202  0.725465  0.069406  1
  Na  Na12  1  0.155553  0.817522  0.484818  1
  Na  Na13  1  0.844447  0.317522  0.015182  1
  Na  Na14  1  0.844447  0.182478  0.515182  1
  Na  Na15  1  0.155553  0.682478  0.984818  1
  S  S16  1  0.823922  0.261151  0.310462  1
  S  S17  1  0.176078  0.761151  0.189538  1
  S  S18  1  0.176078  0.738849  0.689538  1
  S  S19  1  0.823922  0.238849  0.810462  1
  S  S20  1  0.523665  0.266877  0.649459  1
  S  S21  1  0.476335  0.766877  0.850541  1
  S  S22  1  0.476335  0.733123  0.350541  1
  S  S23  1  0.523665  0.233123  0.149459  1
  S  S24  1  0.320032  0.299085  0.561114  1
  S  S25  1  0.679968  0.799085  0.938886  1
  S  S26  1  0.679968  0.700915  0.438886  1
  S  S27  1  0.320032  0.200915  0.061114  1
  S  S28  1  0.031751  0.277036  0.397191  1
  S  S29  1  0.968249  0.777036  0.102809  1
  S  S30  1  0.968249  0.722964  0.602809  1
  S  S31  1  0.031751  0.222964  0.897191  1
  O  O32  1  0.364950  0.395934  0.024206  1
  O  O33  1  0.635050  0.895934  0.475794  1
  O  O34  1  0.635050  0.604066  0.975794  1
  O  O35  1  0.364950  0.104066  0.524206  1
  O  O36  1  0.559915  0.495753  0.154864  1
  O  O37  1  0.440085  0.995753  0.345136  1
  O  O38  1  0.440085  0.504247  0.845136  1
  O  O39  1  0.559915  0.004247  0.654864  1
  O  O40  1  0.480024  0.138144  0.201565  1
  O  O41  1  0.519976  0.638144  0.298435  1
  O  O42  1  0.519976  0.861856  0.798435  1
  O  O43  1  0.480024  0.361856  0.701565  1
  O  O44  1  0.864384  0.036965  0.774319  1
  O  O45  1  0.135616  0.536965  0.725681  1
  O  O46  1  0.135616  0.963035  0.225681  1
  O  O47  1  0.864384  0.463035  0.274319  1
  O  O48  1  0.150791  0.375699  0.884499  1
  O  O49  1  0.849209  0.875699  0.615501  1
  O  O50  1  0.849209  0.624301  0.115501  1
  O  O51  1  0.150791  0.124301  0.384499  1
  O  O52  1  0.988152  0.324186  0.948679  1
  O  O53  1  0.011848  0.824186  0.551321  1
  O  O54  1  0.011848  0.675814  0.051321  1
  O  O55  1  0.988152  0.175814  0.448679  1
  O  O56  1  0.074169  0.963237  0.905543  1
  O  O57  1  0.925831  0.463237  0.594457  1
  O  O58  1  0.925831  0.036763  0.094457  1
  O  O59  1  0.074169  0.536763  0.405543  1
  O  O60  1  0.854540  0.480658  0.786486  1
  O  O61  1  0.145460  0.980658  0.713514  1
  O  O62  1  0.145460  0.519342  0.213514  1
  O  O63  1  0.854540  0.019342  0.286486  1
  O  O64  1  0.350837  0.954007  0.040331  1
  O  O65  1  0.649163  0.454007  0.459669  1
  O  O66  1  0.649163  0.045993  0.959669  1
  O  O67  1  0.350837  0.545993  0.540331  1
  O  O68  1  0.647867  0.084951  0.139536  1
  O  O69  1  0.352133  0.584951  0.360464  1
  O  O70  1  0.352133  0.915049  0.860464  1
  O  O71  1  0.647867  0.415049  0.639536  1
