# generated using pymatgen
data_Ba4Ni3Ge20
_symmetry_space_group_name_H-M   'P 1'
_cell_length_a   10.75324394
_cell_length_b   10.75324394
_cell_length_c   10.75324394
_cell_angle_alpha   90.00000000
_cell_angle_beta   90.00000000
_cell_angle_gamma   90.00000000
_symmetry_Int_Tables_number   1
_chemical_formula_structural   Ba4Ni3Ge20
_chemical_formula_sum   'Ba8 Ni6 Ge40'
_cell_volume   1243.42184785
_cell_formula_units_Z   2
loop_
 _symmetry_equiv_pos_site_id
 _symmetry_equiv_pos_as_xyz
  1  'x, y, z'
loop_
 _atom_site_type_symbol
 _atom_site_label
 _atom_site_symmetry_multiplicity
 _atom_site_fract_x
 _atom_site_fract_y
 _atom_site_fract_z
 _atom_site_occupancy
  Ba  Ba0  1  0.000000  0.000000  0.000000  1
  Ba  Ba1  1  0.500000  0.500000  0.500000  1
  Ba  Ba2  1  0.250000  0.500000  0.000000  1
  Ba  Ba3  1  0.750000  0.500000  0.000000  1
  Ba  Ba4  1  0.500000  0.000000  0.250000  1
  Ba  Ba5  1  0.500000  0.000000  0.750000  1
  Ba  Ba6  1  0.000000  0.750000  0.500000  1
  Ba  Ba7  1  0.000000  0.250000  0.500000  1
  Ni  Ni8  1  0.250000  0.000000  0.500000  1
  Ni  Ni9  1  0.750000  0.000000  0.500000  1
  Ni  Ni10  1  0.000000  0.500000  0.250000  1
  Ni  Ni11  1  0.000000  0.500000  0.750000  1
  Ni  Ni12  1  0.500000  0.750000  0.000000  1
  Ni  Ni13  1  0.500000  0.250000  0.000000  1
  Ge  Ge14  1  0.183008  0.183008  0.183008  1
  Ge  Ge15  1  0.683008  0.316992  0.683008  1
  Ge  Ge16  1  0.683008  0.683008  0.316992  1
  Ge  Ge17  1  0.316992  0.683008  0.683008  1
  Ge  Ge18  1  0.816992  0.816992  0.183008  1
  Ge  Ge19  1  0.183008  0.816992  0.816992  1
  Ge  Ge20  1  0.816992  0.183008  0.816992  1
  Ge  Ge21  1  0.316992  0.316992  0.316992  1
  Ge  Ge22  1  0.816992  0.816992  0.816992  1
  Ge  Ge23  1  0.316992  0.683008  0.316992  1
  Ge  Ge24  1  0.316992  0.316992  0.683008  1
  Ge  Ge25  1  0.683008  0.316992  0.316992  1
  Ge  Ge26  1  0.183008  0.183008  0.816992  1
  Ge  Ge27  1  0.816992  0.183008  0.183008  1
  Ge  Ge28  1  0.183008  0.816992  0.183008  1
  Ge  Ge29  1  0.683008  0.683008  0.683008  1
  Ge  Ge30  1  0.000000  0.322899  0.124306  1
  Ge  Ge31  1  0.500000  0.375694  0.822899  1
  Ge  Ge32  1  0.500000  0.624306  0.177101  1
  Ge  Ge33  1  0.624306  0.822899  0.500000  1
  Ge  Ge34  1  0.375694  0.822899  0.500000  1
  Ge  Ge35  1  0.177101  0.500000  0.624306  1
  Ge  Ge36  1  0.822899  0.500000  0.624306  1
  Ge  Ge37  1  0.124306  0.000000  0.322899  1
  Ge  Ge38  1  0.322899  0.124306  0.000000  1
  Ge  Ge39  1  0.677101  0.875694  0.000000  1
  Ge  Ge40  1  0.124306  0.000000  0.677101  1
  Ge  Ge41  1  0.677101  0.124306  0.000000  1
  Ge  Ge42  1  0.875694  0.000000  0.322899  1
  Ge  Ge43  1  0.875694  0.000000  0.677101  1
  Ge  Ge44  1  0.322899  0.875694  0.000000  1
  Ge  Ge45  1  0.000000  0.677101  0.875694  1
  Ge  Ge46  1  0.000000  0.322899  0.875694  1
  Ge  Ge47  1  0.000000  0.677101  0.124306  1
  Ge  Ge48  1  0.822899  0.500000  0.375694  1
  Ge  Ge49  1  0.177101  0.500000  0.375694  1
  Ge  Ge50  1  0.624306  0.177101  0.500000  1
  Ge  Ge51  1  0.375694  0.177101  0.500000  1
  Ge  Ge52  1  0.500000  0.624306  0.822899  1
  Ge  Ge53  1  0.500000  0.375694  0.177101  1
