# generated using pymatgen
data_K2(SO2)3
_symmetry_space_group_name_H-M   'P 1'
_cell_length_a   5.81556279
_cell_length_b   9.95427510
_cell_length_c   14.30669368
_cell_angle_alpha   90.00000000
_cell_angle_beta   90.00000000
_cell_angle_gamma   90.00000000
_symmetry_Int_Tables_number   1
_chemical_formula_structural   K2(SO2)3
_chemical_formula_sum   'K8 S12 O24'
_cell_volume   828.21037499
_cell_formula_units_Z   4
loop_
 _symmetry_equiv_pos_site_id
 _symmetry_equiv_pos_as_xyz
  1  'x, y, z'
loop_
 _atom_site_type_symbol
 _atom_site_label
 _atom_site_symmetry_multiplicity
 _atom_site_fract_x
 _atom_site_fract_y
 _atom_site_fract_z
 _atom_site_occupancy
  K  K0  1  0.250000  0.817384  0.264718  1
  K  K1  1  0.750000  0.182616  0.735282  1
  K  K2  1  0.250000  0.317384  0.235282  1
  K  K3  1  0.750000  0.682616  0.764718  1
  K  K4  1  0.250000  0.865098  0.589202  1
  K  K5  1  0.750000  0.134902  0.410798  1
  K  K6  1  0.250000  0.365098  0.910798  1
  K  K7  1  0.750000  0.634902  0.089202  1
  S  S8  1  0.250000  0.702367  0.967460  1
  S  S9  1  0.750000  0.297633  0.032540  1
  S  S10  1  0.250000  0.202367  0.532540  1
  S  S11  1  0.750000  0.797633  0.467460  1
  S  S12  1  0.250000  0.913698  0.958686  1
  S  S13  1  0.750000  0.086302  0.041314  1
  S  S14  1  0.250000  0.413698  0.541314  1
  S  S15  1  0.750000  0.586302  0.458686  1
  S  S16  1  0.250000  0.970780  0.815251  1
  S  S17  1  0.750000  0.029220  0.184749  1
  S  S18  1  0.250000  0.470780  0.684749  1
  S  S19  1  0.750000  0.529220  0.315251  1
  O  O20  1  0.960472  0.351293  0.075504  1
  O  O21  1  0.460472  0.648707  0.924496  1
  O  O22  1  0.539528  0.851293  0.424496  1
  O  O23  1  0.039528  0.148707  0.575504  1
  O  O24  1  0.039528  0.648707  0.924496  1
  O  O25  1  0.539528  0.351293  0.075504  1
  O  O26  1  0.460472  0.148707  0.575504  1
  O  O27  1  0.960472  0.851293  0.424496  1
  O  O28  1  0.960643  0.080258  0.228854  1
  O  O29  1  0.460643  0.919742  0.771146  1
  O  O30  1  0.539357  0.580258  0.271146  1
  O  O31  1  0.039357  0.419742  0.728854  1
  O  O32  1  0.039357  0.919742  0.771146  1
  O  O33  1  0.539357  0.080258  0.228854  1
  O  O34  1  0.460643  0.419742  0.728854  1
  O  O35  1  0.960643  0.580258  0.271146  1
  O  O36  1  0.250000  0.691591  0.070334  1
  O  O37  1  0.750000  0.308409  0.929666  1
  O  O38  1  0.250000  0.191591  0.429666  1
  O  O39  1  0.750000  0.808409  0.570334  1
  O  O40  1  0.750000  0.382740  0.328328  1
  O  O41  1  0.250000  0.617260  0.671672  1
  O  O42  1  0.750000  0.882740  0.171672  1
  O  O43  1  0.250000  0.117260  0.828328  1
