# generated using pymatgen
data_Cs2PdCl4
_symmetry_space_group_name_H-M   'P 1'
_cell_length_a   7.63552114
_cell_length_b   7.63552114
_cell_length_c   9.48393620
_cell_angle_alpha   90.00000000
_cell_angle_beta   90.00000000
_cell_angle_gamma   90.02734409
_symmetry_Int_Tables_number   1
_chemical_formula_structural   Cs2PdCl4
_chemical_formula_sum   'Cs4 Pd2 Cl8'
_cell_volume   552.92463783
_cell_formula_units_Z   2
loop_
 _symmetry_equiv_pos_site_id
 _symmetry_equiv_pos_as_xyz
  1  'x, y, z'
loop_
 _atom_site_type_symbol
 _atom_site_label
 _atom_site_symmetry_multiplicity
 _atom_site_fract_x
 _atom_site_fract_y
 _atom_site_fract_z
 _atom_site_occupancy
  Cs  Cs0  1  0.496799  0.005915  0.250000  1
  Cs  Cs1  1  0.503201  0.994085  0.750000  1
  Cs  Cs2  1  0.005915  0.496799  0.250000  1
  Cs  Cs3  1  0.994085  0.503201  0.750000  1
  Pd  Pd4  1  0.000000  0.000000  0.000000  1
  Pd  Pd5  1  0.000000  0.000000  0.500000  1
  Cl  Cl6  1  0.783677  0.783677  0.493726  1
  Cl  Cl7  1  0.216323  0.216323  0.993726  1
  Cl  Cl8  1  0.783677  0.783677  0.006274  1
  Cl  Cl9  1  0.216323  0.216323  0.506274  1
  Cl  Cl10  1  0.783719  0.216281  1.000000  1
  Cl  Cl11  1  0.216281  0.783719  0.500000  1
  Cl  Cl12  1  0.783719  0.216281  0.500000  1
  Cl  Cl13  1  0.216281  0.783719  1.000000  1
