# generated using pymatgen
data_La2Te3
_symmetry_space_group_name_H-M   'P 1'
_cell_length_a   16.07346972
_cell_length_b   16.07346972
_cell_length_c   16.07346972
_cell_angle_alpha   144.97407448
_cell_angle_beta   144.97407448
_cell_angle_gamma   50.37316099
_symmetry_Int_Tables_number   1
_chemical_formula_structural   La2Te3
_chemical_formula_sum   'La16 Te24'
_cell_volume   1361.15927471
_cell_formula_units_Z   8
loop_
 _symmetry_equiv_pos_site_id
 _symmetry_equiv_pos_as_xyz
  1  'x, y, z'
loop_
 _atom_site_type_symbol
 _atom_site_label
 _atom_site_symmetry_multiplicity
 _atom_site_fract_x
 _atom_site_fract_y
 _atom_site_fract_z
 _atom_site_occupancy
  La  La0  1  0.910433  0.784959  0.614007  1
  La  La1  1  0.582321  0.082321  0.500000  1
  La  La2  1  0.375000  0.745070  0.870070  1
  La  La3  1  0.839567  0.953574  0.374526  1
  La  La4  1  0.167679  0.167679  0.000000  1
  La  La5  1  0.579048  0.465041  0.625474  1
  La  La6  1  0.875000  0.504930  0.129930  1
  La  La7  1  0.046426  0.420952  0.885993  1
  La  La8  1  0.495070  0.625000  0.370070  1
  La  La9  1  0.832321  0.832321  0.000000  1
  La  La10  1  0.254930  0.125000  0.629930  1
  La  La11  1  0.534959  0.160433  0.114007  1
  La  La12  1  0.917679  0.417679  0.500000  1
  La  La13  1  0.703574  0.089567  0.874526  1
  La  La14  1  0.170952  0.296426  0.385993  1
  La  La15  1  0.215041  0.829048  0.125474  1
  Te  Te16  1  0.894670  0.142543  0.902301  1
  Te  Te17  1  0.526823  0.424496  0.747324  1
  Te  Te18  1  0.240242  0.992369  0.097699  1
  Te  Te19  1  0.509758  0.107457  0.252127  1
  Te  Te20  1  0.855330  0.257631  0.747873  1
  Te  Te21  1  0.677172  0.779499  0.252676  1
  Te  Te22  1  0.560559  0.814331  0.906316  1
  Te  Te23  1  0.072828  0.825504  0.602327  1
  Te  Te24  1  0.185669  0.091985  0.746228  1
  Te  Te25  1  0.908015  0.654243  0.093684  1
  Te  Te26  1  0.223177  0.470501  0.397673  1
  Te  Te27  1  0.174496  0.776823  0.247324  1
  Te  Te28  1  0.529499  0.927172  0.752676  1
  Te  Te29  1  0.345757  0.439441  0.253772  1
  Te  Te30  1  0.220501  0.473177  0.897673  1
  Te  Te31  1  0.742369  0.490242  0.597699  1
  Te  Te32  1  0.857457  0.759758  0.752127  1
  Te  Te33  1  0.575504  0.322828  0.102327  1
  Te  Te34  1  0.892543  0.144670  0.402301  1
  Te  Te35  1  0.841985  0.435669  0.246228  1
  Te  Te36  1  0.189441  0.595757  0.753772  1
  Te  Te37  1  0.007631  0.105330  0.247873  1
  Te  Te38  1  0.404243  0.158015  0.593684  1
  Te  Te39  1  0.564331  0.810559  0.406316  1
