# generated using pymatgen
data_Sr9Cd4Bi9
_symmetry_space_group_name_H-M   'P 1'
_cell_length_a   4.96999826
_cell_length_b   13.42614755
_cell_length_c   23.69169309
_cell_angle_alpha   90.00000000
_cell_angle_beta   90.00000000
_cell_angle_gamma   90.00000000
_symmetry_Int_Tables_number   1
_chemical_formula_structural   Sr9Cd4Bi9
_chemical_formula_sum   'Sr18 Cd8 Bi18'
_cell_volume   1580.89763719
_cell_formula_units_Z   2
loop_
 _symmetry_equiv_pos_site_id
 _symmetry_equiv_pos_as_xyz
  1  'x, y, z'
loop_
 _atom_site_type_symbol
 _atom_site_label
 _atom_site_symmetry_multiplicity
 _atom_site_fract_x
 _atom_site_fract_y
 _atom_site_fract_z
 _atom_site_occupancy
  Sr  Sr0  1  0.000000  0.367512  0.635598  1
  Sr  Sr1  1  0.000000  0.565280  0.910952  1
  Sr  Sr2  1  0.000000  0.632488  0.364402  1
  Sr  Sr3  1  0.000000  0.434720  0.089048  1
  Sr  Sr4  1  0.000000  0.132488  0.135598  1
  Sr  Sr5  1  0.000000  0.867512  0.864402  1
  Sr  Sr6  1  0.500000  0.500000  0.500000  1
  Sr  Sr7  1  0.500000  0.000000  0.000000  1
  Sr  Sr8  1  0.500000  0.709353  0.102464  1
  Sr  Sr9  1  0.500000  0.290647  0.897536  1
  Sr  Sr10  1  0.500000  0.209353  0.397536  1
  Sr  Sr11  1  0.500000  0.790647  0.602464  1
  Sr  Sr12  1  0.000000  0.875396  0.235464  1
  Sr  Sr13  1  0.000000  0.124604  0.764536  1
  Sr  Sr14  1  0.000000  0.375396  0.264536  1
  Sr  Sr15  1  0.000000  0.624604  0.735464  1
  Sr  Sr16  1  0.000000  0.934720  0.410952  1
  Sr  Sr17  1  0.000000  0.065279  0.589048  1
  Cd  Cd18  1  0.500000  0.729288  0.954182  1
  Cd  Cd19  1  0.500000  0.270712  0.045818  1
  Cd  Cd20  1  0.500000  0.229288  0.545818  1
  Cd  Cd21  1  0.500000  0.770712  0.454182  1
  Cd  Cd22  1  0.500000  0.613632  0.261145  1
  Cd  Cd23  1  0.500000  0.113632  0.238855  1
  Cd  Cd24  1  0.500000  0.386368  0.738855  1
  Cd  Cd25  1  0.500000  0.886368  0.761145  1
  Bi  Bi26  1  0.500000  0.811612  0.330845  1
  Bi  Bi27  1  0.500000  0.188388  0.669155  1
  Bi  Bi28  1  0.500000  0.311612  0.169155  1
  Bi  Bi29  1  0.500000  0.688388  0.830845  1
  Bi  Bi30  1  0.500000  0.956593  0.145776  1
  Bi  Bi31  1  0.500000  0.043407  0.854224  1
  Bi  Bi32  1  0.500000  0.456593  0.354224  1
  Bi  Bi33  1  0.500000  0.543407  0.645776  1
  Bi  Bi34  1  0.000000  0.617985  0.192052  1
  Bi  Bi35  1  0.000000  0.382015  0.807948  1
  Bi  Bi36  1  0.000000  0.117985  0.307948  1
  Bi  Bi37  1  0.000000  0.882015  0.692052  1
  Bi  Bi38  1  0.000000  0.811459  0.010364  1
  Bi  Bi39  1  0.000000  0.188541  0.989636  1
  Bi  Bi40  1  0.000000  0.311459  0.489636  1
  Bi  Bi41  1  0.000000  0.688541  0.510364  1
  Bi  Bi42  1  0.500000  0.000000  0.500000  1
  Bi  Bi43  1  0.500000  0.500000  0.000000  1
