# generated using pymatgen
data_Li2CO3
_symmetry_space_group_name_H-M   'P 1'
_cell_length_a   4.90692325
_cell_length_b   4.90692325
_cell_length_c   6.34779180
_cell_angle_alpha   69.38285144
_cell_angle_beta   110.61714856
_cell_angle_gamma   118.13824735
_symmetry_Int_Tables_number   1
_chemical_formula_structural   Li2CO3
_chemical_formula_sum   'Li4 C2 O6'
_cell_volume   122.89828720
_cell_formula_units_Z   2
loop_
 _symmetry_equiv_pos_site_id
 _symmetry_equiv_pos_as_xyz
  1  'x, y, z'
loop_
 _atom_site_type_symbol
 _atom_site_label
 _atom_site_symmetry_multiplicity
 _atom_site_fract_x
 _atom_site_fract_y
 _atom_site_fract_z
 _atom_site_occupancy
  Li  Li0  1  0.749758  0.352055  0.838956  1
  Li  Li1  1  0.352055  0.749758  0.661044  1
  Li  Li2  1  0.250242  0.647945  0.161044  1
  Li  Li3  1  0.647945  0.250242  0.338956  1
  C  C4  1  0.934963  0.934963  0.250000  1
  C  C5  1  0.065037  0.065037  0.750000  1
  O  O6  1  0.680146  0.680146  0.250000  1
  O  O7  1  0.319854  0.319854  0.750000  1
  O  O8  1  0.211667  0.917918  0.314747  1
  O  O9  1  0.917918  0.211668  0.185253  1
  O  O10  1  0.788332  0.082082  0.685253  1
  O  O11  1  0.082082  0.788333  0.814747  1
