# generated using pymatgen
data_Th2MnN3
_symmetry_space_group_name_H-M   'P 1'
_cell_length_a   6.87387073
_cell_length_b   6.87387073
_cell_length_c   6.87387073
_cell_angle_alpha   150.09145614
_cell_angle_beta   147.40699818
_cell_angle_gamma   44.81870977
_symmetry_Int_Tables_number   1
_chemical_formula_structural   Th2MnN3
_chemical_formula_sum   'Th2 Mn1 N3'
_cell_volume   86.96893574
_cell_formula_units_Z   1
loop_
 _symmetry_equiv_pos_site_id
 _symmetry_equiv_pos_as_xyz
  1  'x, y, z'
loop_
 _atom_site_type_symbol
 _atom_site_label
 _atom_site_symmetry_multiplicity
 _atom_site_fract_x
 _atom_site_fract_y
 _atom_site_fract_z
 _atom_site_occupancy
  Th  Th0  1  0.644312  0.644312  0.000000  1
  Th  Th1  1  0.355688  0.355688  0.000000  1
  Mn  Mn2  1  0.000000  0.000000  0.000000  1
  N  N3  1  0.837316  0.837316  0.000000  1
  N  N4  1  0.162684  0.162684  0.000000  1
  N  N5  1  0.500000  0.000000  0.500000  1
