# generated using pymatgen
data_Tl3PdBr5
_symmetry_space_group_name_H-M   'P 1'
_cell_length_a   8.14595991
_cell_length_b   17.33608800
_cell_length_c   17.45799567
_cell_angle_alpha   90.00000000
_cell_angle_beta   90.00000000
_cell_angle_gamma   90.00000000
_symmetry_Int_Tables_number   1
_chemical_formula_structural   Tl3PdBr5
_chemical_formula_sum   'Tl24 Pd8 Br40'
_cell_volume   2465.40204953
_cell_formula_units_Z   8
loop_
 _symmetry_equiv_pos_site_id
 _symmetry_equiv_pos_as_xyz
  1  'x, y, z'
loop_
 _atom_site_type_symbol
 _atom_site_label
 _atom_site_symmetry_multiplicity
 _atom_site_fract_x
 _atom_site_fract_y
 _atom_site_fract_z
 _atom_site_occupancy
  Tl  Tl0  1  0.117316  0.065267  0.303673  1
  Tl  Tl1  1  0.617316  0.434733  0.696327  1
  Tl  Tl2  1  0.882684  0.565267  0.196327  1
  Tl  Tl3  1  0.382684  0.934733  0.803673  1
  Tl  Tl4  1  0.882684  0.934733  0.696327  1
  Tl  Tl5  1  0.382684  0.565267  0.303673  1
  Tl  Tl6  1  0.117316  0.434733  0.803673  1
  Tl  Tl7  1  0.617316  0.065267  0.196327  1
  Tl  Tl8  1  0.919133  0.200282  0.647053  1
  Tl  Tl9  1  0.419133  0.299718  0.352947  1
  Tl  Tl10  1  0.080867  0.700282  0.852947  1
  Tl  Tl11  1  0.580867  0.799718  0.147053  1
  Tl  Tl12  1  0.080867  0.799718  0.352947  1
  Tl  Tl13  1  0.580867  0.700282  0.647053  1
  Tl  Tl14  1  0.919133  0.299718  0.147053  1
  Tl  Tl15  1  0.419133  0.200282  0.852947  1
  Tl  Tl16  1  0.395261  0.094019  0.587244  1
  Tl  Tl17  1  0.895261  0.405981  0.412756  1
  Tl  Tl18  1  0.604739  0.594019  0.912756  1
  Tl  Tl19  1  0.104739  0.905981  0.087244  1
  Tl  Tl20  1  0.604739  0.905981  0.412756  1
  Tl  Tl21  1  0.104739  0.594019  0.587244  1
  Tl  Tl22  1  0.395261  0.405981  0.087244  1
  Tl  Tl23  1  0.895261  0.094019  0.912756  1
  Pd  Pd24  1  0.808613  0.143498  0.427565  1
  Pd  Pd25  1  0.308613  0.356502  0.572435  1
  Pd  Pd26  1  0.191387  0.643498  0.072435  1
  Pd  Pd27  1  0.691387  0.856502  0.927565  1
  Pd  Pd28  1  0.191387  0.856502  0.572435  1
  Pd  Pd29  1  0.691387  0.643498  0.427565  1
  Pd  Pd30  1  0.808613  0.356502  0.927565  1
  Pd  Pd31  1  0.308613  0.143498  0.072435  1
  Br  Br32  1  0.072221  0.197967  0.473692  1
  Br  Br33  1  0.572221  0.302033  0.526308  1
  Br  Br34  1  0.927779  0.697967  0.026308  1
  Br  Br35  1  0.427779  0.802033  0.973692  1
  Br  Br36  1  0.927779  0.802033  0.526308  1
  Br  Br37  1  0.427779  0.697967  0.473692  1
  Br  Br38  1  0.072221  0.302033  0.973692  1
  Br  Br39  1  0.572221  0.197967  0.026308  1
  Br  Br40  1  0.791906  0.054716  0.538128  1
  Br  Br41  1  0.291906  0.445284  0.461872  1
  Br  Br42  1  0.208094  0.554716  0.961872  1
  Br  Br43  1  0.708094  0.945284  0.038128  1
  Br  Br44  1  0.208094  0.945284  0.461872  1
  Br  Br45  1  0.708094  0.554716  0.538128  1
  Br  Br46  1  0.791906  0.445284  0.038128  1
  Br  Br47  1  0.291906  0.054716  0.961872  1
  Br  Br48  1  0.816338  0.230553  0.316309  1
  Br  Br49  1  0.316338  0.269447  0.683691  1
  Br  Br50  1  0.183662  0.730553  0.183691  1
  Br  Br51  1  0.683662  0.769447  0.816309  1
  Br  Br52  1  0.183662  0.769447  0.683691  1
  Br  Br53  1  0.683662  0.730553  0.316309  1
  Br  Br54  1  0.816338  0.269447  0.816309  1
  Br  Br55  1  0.316338  0.230553  0.183691  1
  Br  Br56  1  0.538544  0.094960  0.382833  1
  Br  Br57  1  0.038544  0.405040  0.617167  1
  Br  Br58  1  0.461456  0.594960  0.117167  1
  Br  Br59  1  0.961456  0.905040  0.882833  1
  Br  Br60  1  0.461456  0.905040  0.617167  1
  Br  Br61  1  0.961456  0.594960  0.382833  1
  Br  Br62  1  0.538544  0.405040  0.882833  1
  Br  Br63  1  0.038544  0.094960  0.117167  1
  Br  Br64  1  0.868630  0.931997  0.262581  1
  Br  Br65  1  0.368630  0.568003  0.737419  1
  Br  Br66  1  0.131370  0.431997  0.237419  1
  Br  Br67  1  0.631370  0.068003  0.762581  1
  Br  Br68  1  0.131370  0.068003  0.737419  1
  Br  Br69  1  0.631370  0.431997  0.262581  1
  Br  Br70  1  0.868630  0.568003  0.762581  1
  Br  Br71  1  0.368630  0.931997  0.237419  1
