# generated using pymatgen
data_LiMn2P5O16
_symmetry_space_group_name_H-M   'P 1'
_cell_length_a   5.10453179
_cell_length_b   6.82419127
_cell_length_c   18.30522227
_cell_angle_alpha   90.00000000
_cell_angle_beta   90.85134386
_cell_angle_gamma   90.00000000
_symmetry_Int_Tables_number   1
_chemical_formula_structural   LiMn2P5O16
_chemical_formula_sum   'Li2 Mn4 P10 O32'
_cell_volume   637.57923745
_cell_formula_units_Z   2
loop_
 _symmetry_equiv_pos_site_id
 _symmetry_equiv_pos_as_xyz
  1  'x, y, z'
loop_
 _atom_site_type_symbol
 _atom_site_label
 _atom_site_symmetry_multiplicity
 _atom_site_fract_x
 _atom_site_fract_y
 _atom_site_fract_z
 _atom_site_occupancy
  Li  Li0  1  0.741577  0.858339  0.466479  1
  Li  Li1  1  0.741577  0.141661  0.966479  1
  Mn  Mn2  1  0.263447  0.673537  0.593417  1
  Mn  Mn3  1  0.744198  0.326874  0.408560  1
  Mn  Mn4  1  0.263447  0.326463  0.093417  1
  Mn  Mn5  1  0.744198  0.673126  0.908560  1
  P  P6  1  0.002602  0.753275  0.750766  1
  P  P7  1  0.254766  0.969744  0.872642  1
  P  P8  1  0.226093  0.377660  0.917621  1
  P  P9  1  0.783681  0.620707  0.081276  1
  P  P10  1  0.783681  0.379293  0.581276  1
  P  P11  1  0.254766  0.030256  0.372642  1
  P  P12  1  0.736982  0.038540  0.126726  1
  P  P13  1  0.736982  0.961460  0.626726  1
  P  P14  1  0.226093  0.622340  0.417621  1
  P  P15  1  0.002602  0.246725  0.250766  1
  O  O16  1  0.046388  0.104345  0.422639  1
  O  O17  1  0.072862  0.436929  0.571537  1
  O  O18  1  0.151318  0.633365  0.696952  1
  O  O19  1  0.664287  0.298519  0.509206  1
  O  O20  1  0.809596  0.901212  0.709340  1
  O  O21  1  0.809596  0.098788  0.209340  1
  O  O22  1  0.046388  0.895655  0.922639  1
  O  O23  1  0.841720  0.355037  0.306334  1
  O  O24  1  0.617391  0.470637  0.118694  1
  O  O25  1  0.786561  0.189635  0.635509  1
  O  O26  1  0.444926  0.075831  0.115058  1
  O  O27  1  0.375667  0.458373  0.382538  1
  O  O28  1  0.444926  0.924169  0.615058  1
  O  O29  1  0.072862  0.563071  0.071537  1
  O  O30  1  0.208628  0.104057  0.290224  1
  O  O31  1  0.913532  0.869858  0.570984  1
  O  O32  1  0.786561  0.810365  0.135509  1
  O  O33  1  0.222909  0.198964  0.858188  1
  O  O34  1  0.361140  0.290029  0.986626  1
  O  O35  1  0.930895  0.416005  0.929534  1
  O  O36  1  0.841720  0.644963  0.806334  1
  O  O37  1  0.541472  0.937250  0.893208  1
  O  O38  1  0.361140  0.709971  0.486626  1
  O  O39  1  0.617391  0.529363  0.618694  1
  O  O40  1  0.151318  0.366635  0.196952  1
  O  O41  1  0.541472  0.062750  0.393208  1
  O  O42  1  0.664287  0.701481  0.009206  1
  O  O43  1  0.208628  0.895943  0.790224  1
  O  O44  1  0.222909  0.801036  0.358188  1
  O  O45  1  0.930895  0.583995  0.429534  1
  O  O46  1  0.375667  0.541627  0.882538  1
  O  O47  1  0.913532  0.130142  0.070984  1
