# generated using pymatgen
data_LiV(PO3)4
_symmetry_space_group_name_H-M   'P 1'
_cell_length_a   10.41939156
_cell_length_b   10.41939156
_cell_length_c   5.24603730
_cell_angle_alpha   81.60291303
_cell_angle_beta   98.39708697
_cell_angle_gamma   108.99471818
_symmetry_Int_Tables_number   1
_chemical_formula_structural   LiV(PO3)4
_chemical_formula_sum   'Li2 V2 P8 O24'
_cell_volume   529.78263751
_cell_formula_units_Z   2
loop_
 _symmetry_equiv_pos_site_id
 _symmetry_equiv_pos_as_xyz
  1  'x, y, z'
loop_
 _atom_site_type_symbol
 _atom_site_label
 _atom_site_symmetry_multiplicity
 _atom_site_fract_x
 _atom_site_fract_y
 _atom_site_fract_z
 _atom_site_occupancy
  Li  Li0  1  0.429180  0.570820  0.402450  1
  Li  Li1  1  0.570820  0.429180  0.597550  1
  V  V2  1  0.000000  0.500000  0.000000  1
  V  V3  1  0.500000  0.000000  0.000000  1
  P  P4  1  0.303530  0.939149  0.469959  1
  P  P5  1  0.784761  0.633422  0.178027  1
  P  P6  1  0.696470  0.060851  0.530041  1
  P  P7  1  0.939149  0.303530  0.530041  1
  P  P8  1  0.060851  0.696470  0.469959  1
  P  P9  1  0.366578  0.215239  0.178027  1
  P  P10  1  0.633422  0.784761  0.821973  1
  P  P11  1  0.215239  0.366578  0.821973  1
  O  O12  1  0.668965  0.077650  0.238916  1
  O  O13  1  0.910978  0.706982  0.379967  1
  O  O14  1  0.231845  0.231845  0.000000  1
  O  O15  1  0.331035  0.922350  0.761084  1
  O  O16  1  0.077650  0.668965  0.761084  1
  O  O17  1  0.903061  0.395354  0.684438  1
  O  O18  1  0.922350  0.331035  0.238916  1
  O  O19  1  0.293018  0.089022  0.379967  1
  O  O20  1  0.089022  0.293018  0.620033  1
  O  O21  1  0.167615  0.446047  0.989476  1
  O  O22  1  0.853081  0.146919  0.607741  1
  O  O23  1  0.096939  0.604646  0.315562  1
  O  O24  1  0.832385  0.553953  0.010524  1
  O  O25  1  0.561770  0.662701  0.682523  1
  O  O26  1  0.446047  0.167615  0.010524  1
  O  O27  1  0.706982  0.910978  0.620033  1
  O  O28  1  0.553953  0.832385  0.989476  1
  O  O29  1  0.768155  0.768155  0.000000  1
  O  O30  1  0.395354  0.903061  0.315562  1
  O  O31  1  0.438230  0.337299  0.317477  1
  O  O32  1  0.604646  0.096939  0.684438  1
  O  O33  1  0.337299  0.438230  0.682523  1
  O  O34  1  0.662701  0.561770  0.317477  1
  O  O35  1  0.146919  0.853081  0.392259  1
