# generated using pymatgen
data_Li2Mn3(P2O7)2
_symmetry_space_group_name_H-M   'P 1'
_cell_length_a   5.36070819
_cell_length_b   6.64308329
_cell_length_c   16.22331471
_cell_angle_alpha   81.75310646
_cell_angle_beta   82.83565123
_cell_angle_gamma   71.85734181
_symmetry_Int_Tables_number   1
_chemical_formula_structural   Li2Mn3(P2O7)2
_chemical_formula_sum   'Li4 Mn6 P8 O28'
_cell_volume   541.36673747
_cell_formula_units_Z   2
loop_
 _symmetry_equiv_pos_site_id
 _symmetry_equiv_pos_as_xyz
  1  'x, y, z'
loop_
 _atom_site_type_symbol
 _atom_site_label
 _atom_site_symmetry_multiplicity
 _atom_site_fract_x
 _atom_site_fract_y
 _atom_site_fract_z
 _atom_site_occupancy
  Li  Li0  1  0.925985  0.783260  0.004507  1
  Li  Li1  1  0.355052  0.690717  0.116578  1
  Li  Li2  1  0.074015  0.216740  0.995493  1
  Li  Li3  1  0.644948  0.309283  0.883422  1
  Mn  Mn4  1  0.255436  0.970928  0.331798  1
  Mn  Mn5  1  0.744564  0.029072  0.668202  1
  Mn  Mn6  1  0.963997  0.381393  0.186751  1
  Mn  Mn7  1  0.036003  0.618607  0.813249  1
  Mn  Mn8  1  0.837298  0.708804  0.424058  1
  Mn  Mn9  1  0.162702  0.291196  0.575942  1
  P  P10  1  0.167204  0.092334  0.790644  1
  P  P11  1  0.563720  0.243245  0.073301  1
  P  P12  1  0.370696  0.443012  0.317945  1
  P  P13  1  0.717996  0.217190  0.461118  1
  P  P14  1  0.436280  0.756755  0.926699  1
  P  P15  1  0.629304  0.556988  0.682055  1
  P  P16  1  0.832796  0.907666  0.209356  1
  P  P17  1  0.282004  0.782810  0.538882  1
  O  O18  1  0.326638  0.139654  0.709538  1
  O  O19  1  0.577884  0.158743  0.545920  1
  O  O20  1  0.599349  0.468848  0.257749  1
  O  O21  1  0.605204  0.053660  0.150201  1
  O  O22  1  0.891744  0.023227  0.418710  1
  O  O23  1  0.865410  0.379217  0.465073  1
  O  O24  1  0.978673  0.713980  0.160296  1
  O  O25  1  0.283273  0.859656  0.004809  1
  O  O26  1  0.219474  0.304322  0.290339  1
  O  O27  1  0.737443  0.678180  0.928230  1
  O  O28  1  0.467819  0.322697  0.407022  1
  O  O29  1  0.977585  0.964564  0.782706  1
  O  O30  1  0.673362  0.860346  0.290462  1
  O  O31  1  0.716727  0.140344  0.995191  1
  O  O32  1  0.780526  0.695678  0.709661  1
  O  O33  1  0.394796  0.946340  0.849799  1
  O  O34  1  0.400651  0.531152  0.742251  1
  O  O35  1  0.182908  0.659634  0.339142  1
  O  O36  1  0.134590  0.620783  0.534927  1
  O  O37  1  0.322209  0.584440  0.907806  1
  O  O38  1  0.677791  0.415560  0.092194  1
  O  O39  1  0.021327  0.286020  0.839704  1
  O  O40  1  0.022415  0.035436  0.217294  1
  O  O41  1  0.817092  0.340366  0.660858  1
  O  O42  1  0.422116  0.841257  0.454080  1
  O  O43  1  0.532181  0.677303  0.592978  1
  O  O44  1  0.108256  0.976773  0.581290  1
  O  O45  1  0.262557  0.321820  0.071770  1
