# generated using pymatgen
data_Ag3AuSe2
_symmetry_space_group_name_H-M   'P 1'
_cell_length_a   8.78084554
_cell_length_b   8.78084554
_cell_length_c   8.78084554
_cell_angle_alpha   109.47122063
_cell_angle_beta   109.47122063
_cell_angle_gamma   109.47122063
_symmetry_Int_Tables_number   1
_chemical_formula_structural   Ag3AuSe2
_chemical_formula_sum   'Ag12 Au4 Se8'
_cell_volume   521.17925649
_cell_formula_units_Z   4
loop_
 _symmetry_equiv_pos_site_id
 _symmetry_equiv_pos_as_xyz
  1  'x, y, z'
loop_
 _atom_site_type_symbol
 _atom_site_label
 _atom_site_symmetry_multiplicity
 _atom_site_fract_x
 _atom_site_fract_y
 _atom_site_fract_z
 _atom_site_occupancy
  Ag  Ag0  1  0.128097  0.750000  0.878097  1
  Ag  Ag1  1  0.621903  0.371903  0.250000  1
  Ag  Ag2  1  0.750000  0.878097  0.128097  1
  Ag  Ag3  1  0.250000  0.128097  0.878097  1
  Ag  Ag4  1  0.250000  0.621903  0.371903  1
  Ag  Ag5  1  0.750000  0.371903  0.621903  1
  Ag  Ag6  1  0.371903  0.621903  0.750000  1
  Ag  Ag7  1  0.128097  0.878097  0.250000  1
  Ag  Ag8  1  0.878097  0.250000  0.128097  1
  Ag  Ag9  1  0.621903  0.750000  0.371903  1
  Ag  Ag10  1  0.371903  0.250000  0.621903  1
  Ag  Ag11  1  0.878097  0.128097  0.750000  1
  Au  Au12  1  0.500000  1.000000  0.250000  1
  Au  Au13  1  1.000000  0.250000  0.500000  1
  Au  Au14  1  0.250000  0.500000  1.000000  1
  Au  Au15  1  0.250000  0.250000  0.250000  1
  Se  Se16  1  0.964890  0.964890  0.964890  1
  Se  Se17  1  0.535110  0.500000  0.000000  1
  Se  Se18  1  0.535110  0.535110  0.535110  1
  Se  Se19  1  1.000000  0.964890  0.500000  1
  Se  Se20  1  0.500000  1.000000  0.964890  1
  Se  Se21  1  0.964890  0.500000  0.000000  1
  Se  Se22  1  0.500000  1.000000  0.535110  1
  Se  Se23  1  1.000000  0.535110  0.500000  1
