# generated using pymatgen
data_Zr9Ni11
_symmetry_space_group_name_H-M   'P 1'
_cell_length_a   7.77259744
_cell_length_b   7.77259744
_cell_length_c   7.77259744
_cell_angle_alpha   99.99162457
_cell_angle_beta   99.99162457
_cell_angle_gamma   130.76753461
_symmetry_Int_Tables_number   1
_chemical_formula_structural   Zr9Ni11
_chemical_formula_sum   'Zr9 Ni11'
_cell_volume   323.31375447
_cell_formula_units_Z   1
loop_
 _symmetry_equiv_pos_site_id
 _symmetry_equiv_pos_as_xyz
  1  'x, y, z'
loop_
 _atom_site_type_symbol
 _atom_site_label
 _atom_site_symmetry_multiplicity
 _atom_site_fract_x
 _atom_site_fract_y
 _atom_site_fract_z
 _atom_site_occupancy
  Zr  Zr0  1  0.000000  0.000000  0.000000  1
  Zr  Zr1  1  0.752441  0.415179  0.167620  1
  Zr  Zr2  1  0.584821  0.752441  0.337261  1
  Zr  Zr3  1  0.415179  0.247559  0.662739  1
  Zr  Zr4  1  0.247559  0.584821  0.832380  1
  Zr  Zr5  1  0.688676  0.090599  0.779275  1
  Zr  Zr6  1  0.909401  0.688676  0.598077  1
  Zr  Zr7  1  0.090599  0.311324  0.401923  1
  Zr  Zr8  1  0.311324  0.909401  0.220725  1
  Ni  Ni9  1  0.500000  0.500000  0.000000  1
  Ni  Ni10  1  0.750000  0.250000  0.500000  1
  Ni  Ni11  1  0.250000  0.750000  0.500000  1
  Ni  Ni12  1  0.086788  0.429429  0.104870  1
  Ni  Ni13  1  0.981918  0.086788  0.657359  1
  Ni  Ni14  1  0.429429  0.324559  0.342641  1
  Ni  Ni15  1  0.324559  0.981918  0.895130  1
  Ni  Ni16  1  0.913212  0.570571  0.895130  1
  Ni  Ni17  1  0.018082  0.913212  0.342641  1
  Ni  Ni18  1  0.570571  0.675441  0.657359  1
  Ni  Ni19  1  0.675441  0.018082  0.104870  1
