# generated using pymatgen
data_Mn(PO3)4
_symmetry_space_group_name_H-M   'P 1'
_cell_length_a   5.08681181
_cell_length_b   13.54778579
_cell_length_c   7.18245064
_cell_angle_alpha   90.00000000
_cell_angle_beta   99.07622100
_cell_angle_gamma   90.00000000
_symmetry_Int_Tables_number   1
_chemical_formula_structural   Mn(PO3)4
_chemical_formula_sum   'Mn2 P8 O24'
_cell_volume   488.78139820
_cell_formula_units_Z   2
loop_
 _symmetry_equiv_pos_site_id
 _symmetry_equiv_pos_as_xyz
  1  'x, y, z'
loop_
 _atom_site_type_symbol
 _atom_site_label
 _atom_site_symmetry_multiplicity
 _atom_site_fract_x
 _atom_site_fract_y
 _atom_site_fract_z
 _atom_site_occupancy
  Mn  Mn0  1  0.491641  0.736018  0.491426  1
  Mn  Mn1  1  0.508359  0.236018  0.508574  1
  P  P2  1  0.854298  0.170628  0.907482  1
  P  P3  1  0.226218  0.324292  0.114130  1
  P  P4  1  0.145702  0.670628  0.092518  1
  P  P5  1  0.003267  0.874441  0.547011  1
  P  P6  1  0.996733  0.374441  0.452989  1
  P  P7  1  0.018885  0.097263  0.556836  1
  P  P8  1  0.981115  0.597263  0.443164  1
  P  P9  1  0.773782  0.824292  0.885870  1
  O  O10  1  0.194602  0.663822  0.548384  1
  O  O11  1  0.802983  0.115705  0.073149  1
  O  O12  1  0.974423  0.603500  0.223144  1
  O  O13  1  0.781223  0.814645  0.432245  1
  O  O14  1  0.387888  0.711281  0.227014  1
  O  O15  1  0.949222  0.763843  0.051391  1
  O  O16  1  0.025577  0.103500  0.776856  1
  O  O17  1  0.276455  0.858091  0.490899  1
  O  O18  1  0.723545  0.358091  0.509101  1
  O  O19  1  0.197017  0.615705  0.926851  1
  O  O20  1  0.072537  0.487197  0.498132  1
  O  O21  1  0.707344  0.612636  0.497170  1
  O  O22  1  0.050778  0.263843  0.948609  1
  O  O23  1  0.611582  0.748130  0.755755  1
  O  O24  1  0.292656  0.112636  0.502830  1
  O  O25  1  0.218777  0.314645  0.567755  1
  O  O26  1  0.805398  0.163822  0.451616  1
  O  O27  1  0.612112  0.211281  0.772986  1
  O  O28  1  0.010671  0.861588  0.765112  1
  O  O29  1  0.388418  0.248130  0.244245  1
  O  O30  1  0.989329  0.361588  0.234888  1
  O  O31  1  0.927463  0.987197  0.501868  1
  O  O32  1  0.362504  0.406684  0.038506  1
  O  O33  1  0.637496  0.906684  0.961494  1
