# generated using pymatgen
data_Y(AgCl2)3
_symmetry_space_group_name_H-M   'P 1'
_cell_length_a   7.38330885
_cell_length_b   7.38330885
_cell_length_c   7.38330885
_cell_angle_alpha   56.56392281
_cell_angle_beta   56.56392281
_cell_angle_gamma   56.56392281
_symmetry_Int_Tables_number   1
_chemical_formula_structural   Y(AgCl2)3
_chemical_formula_sum   'Y1 Ag3 Cl6'
_cell_volume   262.00586188
_cell_formula_units_Z   1
loop_
 _symmetry_equiv_pos_site_id
 _symmetry_equiv_pos_as_xyz
  1  'x, y, z'
loop_
 _atom_site_type_symbol
 _atom_site_label
 _atom_site_symmetry_multiplicity
 _atom_site_fract_x
 _atom_site_fract_y
 _atom_site_fract_z
 _atom_site_occupancy
  Y  Y0  1  0.000000  0.000000  0.000000  1
  Ag  Ag1  1  0.792504  0.792504  0.792504  1
  Ag  Ag2  1  0.500000  0.500000  0.500000  1
  Ag  Ag3  1  0.207496  0.207496  0.207496  1
  Cl  Cl4  1  0.617340  0.229839  0.896989  1
  Cl  Cl5  1  0.229839  0.896989  0.617340  1
  Cl  Cl6  1  0.896989  0.617340  0.229839  1
  Cl  Cl7  1  0.103011  0.382660  0.770161  1
  Cl  Cl8  1  0.770161  0.103011  0.382660  1
  Cl  Cl9  1  0.382660  0.770161  0.103011  1
