# generated using pymatgen
data_Sm5CuSe8
_symmetry_space_group_name_H-M   'P 1'
_cell_length_a   7.63009361
_cell_length_b   7.63009361
_cell_length_c   7.63009361
_cell_angle_alpha   110.26834615
_cell_angle_beta   110.26834615
_cell_angle_gamma   107.88846918
_symmetry_Int_Tables_number   1
_chemical_formula_structural   Sm5CuSe8
_chemical_formula_sum   'Sm5 Cu1 Se8'
_cell_volume   341.75897097
_cell_formula_units_Z   1
loop_
 _symmetry_equiv_pos_site_id
 _symmetry_equiv_pos_as_xyz
  1  'x, y, z'
loop_
 _atom_site_type_symbol
 _atom_site_label
 _atom_site_symmetry_multiplicity
 _atom_site_fract_x
 _atom_site_fract_y
 _atom_site_fract_z
 _atom_site_occupancy
  Sm  Sm0  1  0.238972  0.621448  0.122232  1
  Sm  Sm1  1  0.378552  0.500784  0.617524  1
  Sm  Sm2  1  0.499216  0.116740  0.877768  1
  Sm  Sm3  1  0.750000  0.250000  0.500000  1
  Sm  Sm4  1  0.883260  0.761028  0.382476  1
  Cu  Cu5  1  0.000000  0.000000  0.000000  1
  Se  Se6  1  0.648302  0.888527  0.628833  1
  Se  Se7  1  0.259694  0.019469  0.371167  1
  Se  Se8  1  0.499465  0.392470  0.258569  1
  Se  Se9  1  0.759104  0.500535  0.893004  1
  Se  Se10  1  0.607530  0.866100  0.106996  1
  Se  Se11  1  0.111473  0.740306  0.759775  1
  Se  Se12  1  0.980531  0.351698  0.240225  1
  Se  Se13  1  0.133900  0.240896  0.741431  1
