# generated using pymatgen
data_SrSnAu
_symmetry_space_group_name_H-M   'P 1'
_cell_length_a   4.89710038
_cell_length_b   8.39972732
_cell_length_c   23.74859681
_cell_angle_alpha   90.00000000
_cell_angle_beta   90.00000000
_cell_angle_gamma   90.00000000
_symmetry_Int_Tables_number   1
_chemical_formula_structural   SrSnAu
_chemical_formula_sum   'Sr12 Sn12 Au12'
_cell_volume   976.88209220
_cell_formula_units_Z   12
loop_
 _symmetry_equiv_pos_site_id
 _symmetry_equiv_pos_as_xyz
  1  'x, y, z'
loop_
 _atom_site_type_symbol
 _atom_site_label
 _atom_site_symmetry_multiplicity
 _atom_site_fract_x
 _atom_site_fract_y
 _atom_site_fract_z
 _atom_site_occupancy
  Sr  Sr0  1  0.750000  0.211892  0.497856  1
  Sr  Sr1  1  0.250000  0.791195  0.166076  1
  Sr  Sr2  1  0.250000  0.788108  0.502144  1
  Sr  Sr3  1  0.250000  0.792819  0.833210  1
  Sr  Sr4  1  0.250000  0.707181  0.333210  1
  Sr  Sr5  1  0.750000  0.208805  0.833924  1
  Sr  Sr6  1  0.750000  0.288108  0.997856  1
  Sr  Sr7  1  0.750000  0.292819  0.666790  1
  Sr  Sr8  1  0.750000  0.291195  0.333924  1
  Sr  Sr9  1  0.250000  0.708805  0.666076  1
  Sr  Sr10  1  0.250000  0.711892  0.002144  1
  Sr  Sr11  1  0.750000  0.207181  0.166790  1
  Sn  Sn12  1  0.250000  0.414110  0.565950  1
  Sn  Sn13  1  0.250000  0.083690  0.398192  1
  Sn  Sn14  1  0.250000  0.085890  0.065950  1
  Sn  Sn15  1  0.250000  0.416310  0.898192  1
  Sn  Sn16  1  0.750000  0.583690  0.101808  1
  Sn  Sn17  1  0.250000  0.417788  0.768980  1
  Sn  Sn18  1  0.750000  0.582212  0.231020  1
  Sn  Sn19  1  0.750000  0.585890  0.434050  1
  Sn  Sn20  1  0.750000  0.914110  0.934050  1
  Sn  Sn21  1  0.250000  0.082212  0.268980  1
  Sn  Sn22  1  0.750000  0.916310  0.601808  1
  Sn  Sn23  1  0.750000  0.917788  0.731020  1
  Au  Au24  1  0.250000  0.086878  0.593785  1
  Au  Au25  1  0.250000  0.086904  0.738798  1
  Au  Au26  1  0.750000  0.586878  0.906215  1
  Au  Au27  1  0.750000  0.913122  0.406215  1
  Au  Au28  1  0.750000  0.584094  0.566983  1
  Au  Au29  1  0.750000  0.586904  0.761202  1
  Au  Au30  1  0.250000  0.415906  0.433017  1
  Au  Au31  1  0.250000  0.413096  0.238798  1
  Au  Au32  1  0.750000  0.915906  0.066983  1
  Au  Au33  1  0.250000  0.413122  0.093785  1
  Au  Au34  1  0.250000  0.084094  0.933017  1
  Au  Au35  1  0.750000  0.913096  0.261202  1
