# generated using pymatgen
data_NdZn11
_symmetry_space_group_name_H-M   'P 1'
_cell_length_a   8.28118097
_cell_length_b   8.28118097
_cell_length_c   8.28118097
_cell_angle_alpha   99.84115220
_cell_angle_beta   99.84115220
_cell_angle_gamma   131.16011820
_symmetry_Int_Tables_number   1
_chemical_formula_structural   NdZn11
_chemical_formula_sum   'Nd2 Zn22'
_cell_volume   389.31185030
_cell_formula_units_Z   2
loop_
 _symmetry_equiv_pos_site_id
 _symmetry_equiv_pos_as_xyz
  1  'x, y, z'
loop_
 _atom_site_type_symbol
 _atom_site_label
 _atom_site_symmetry_multiplicity
 _atom_site_fract_x
 _atom_site_fract_y
 _atom_site_fract_z
 _atom_site_occupancy
  Nd  Nd0  1  0.500000  0.500000  0.000000  1
  Nd  Nd1  1  0.750000  0.250000  0.500000  1
  Zn  Zn2  1  0.846728  0.430495  0.173002  1
  Zn  Zn3  1  0.257494  0.673727  0.826998  1
  Zn  Zn4  1  0.250000  0.750000  0.500000  1
  Zn  Zn5  1  0.000000  0.000000  0.000000  1
  Zn  Zn6  1  0.125000  0.875000  0.250000  1
  Zn  Zn7  1  0.125000  0.875000  0.750000  1
  Zn  Zn8  1  0.125000  0.375000  0.250000  1
  Zn  Zn9  1  0.625000  0.875000  0.750000  1
  Zn  Zn10  1  0.846728  0.673727  0.416233  1
  Zn  Zn11  1  0.680495  0.596728  0.673002  1
  Zn  Zn12  1  0.923727  0.007494  0.326998  1
  Zn  Zn13  1  0.257494  0.430495  0.583767  1
  Zn  Zn14  1  0.569505  0.742506  0.416233  1
  Zn  Zn15  1  0.326273  0.153272  0.583767  1
  Zn  Zn16  1  0.992506  0.076273  0.673002  1
  Zn  Zn17  1  0.403272  0.319505  0.326998  1
  Zn  Zn18  1  0.403272  0.076273  0.083767  1
  Zn  Zn19  1  0.569505  0.153272  0.826998  1
  Zn  Zn20  1  0.326273  0.742506  0.173002  1
  Zn  Zn21  1  0.992506  0.319505  0.916233  1
  Zn  Zn22  1  0.680495  0.007494  0.083767  1
  Zn  Zn23  1  0.923727  0.596728  0.916233  1
