# generated using pymatgen
data_Na10Mn4O9
_symmetry_space_group_name_H-M   'P 1'
_cell_length_a   8.87587459
_cell_length_b   8.87587459
_cell_length_c   8.90709334
_cell_angle_alpha   77.81298823
_cell_angle_beta   102.18701177
_cell_angle_gamma   101.06108089
_symmetry_Int_Tables_number   1
_chemical_formula_structural   Na10Mn4O9
_chemical_formula_sum   'Na20 Mn8 O18'
_cell_volume   662.42500346
_cell_formula_units_Z   2
loop_
 _symmetry_equiv_pos_site_id
 _symmetry_equiv_pos_as_xyz
  1  'x, y, z'
loop_
 _atom_site_type_symbol
 _atom_site_label
 _atom_site_symmetry_multiplicity
 _atom_site_fract_x
 _atom_site_fract_y
 _atom_site_fract_z
 _atom_site_occupancy
  Na  Na0  1  0.731074  0.737550  0.019859  1
  Na  Na1  1  0.877078  0.438002  0.111247  1
  Na  Na2  1  0.561998  0.122922  0.111247  1
  Na  Na3  1  0.009057  0.730463  0.269083  1
  Na  Na4  1  0.269537  0.990943  0.269083  1
  Na  Na5  1  0.201361  0.540142  0.186799  1
  Na  Na6  1  0.459858  0.798639  0.186799  1
  Na  Na7  1  0.860967  0.139033  0.446245  1
  Na  Na8  1  0.780775  0.836610  0.388694  1
  Na  Na9  1  0.163390  0.219225  0.388694  1
  Na  Na10  1  0.500677  0.499323  0.500559  1
  Na  Na11  1  0.739256  0.995733  0.735154  1
  Na  Na12  1  0.300501  0.144941  0.746763  1
  Na  Na13  1  0.855059  0.699499  0.746763  1
  Na  Na14  1  0.116070  0.883930  0.564292  1
  Na  Na15  1  0.718201  0.281799  0.847476  1
  Na  Na16  1  0.004267  0.260744  0.735154  1
  Na  Na17  1  0.449759  0.877817  0.864761  1
  Na  Na18  1  0.122183  0.550241  0.864761  1
  Na  Na19  1  0.262450  0.268926  0.019859  1
  Mn  Mn20  1  0.912429  0.087571  0.092474  1
  Mn  Mn21  1  0.531775  0.468225  0.174320  1
  Mn  Mn22  1  0.832931  0.474215  0.465812  1
  Mn  Mn23  1  0.525785  0.167069  0.465812  1
  Mn  Mn24  1  0.171663  0.534124  0.530738  1
  Mn  Mn25  1  0.465876  0.828337  0.530738  1
  Mn  Mn26  1  0.469897  0.530103  0.839518  1
  Mn  Mn27  1  0.099555  0.900445  0.928679  1
  O  O28  1  0.307816  0.012319  0.012577  1
  O  O29  1  0.987681  0.692184  0.012577  1
  O  O30  1  0.384615  0.615385  0.007776  1
  O  O31  1  0.384994  0.302894  0.295969  1
  O  O32  1  0.697106  0.615006  0.295969  1
  O  O33  1  0.598243  0.993108  0.377533  1
  O  O34  1  0.006892  0.401757  0.377533  1
  O  O35  1  0.302900  0.697100  0.384074  1
  O  O36  1  0.998560  0.001440  0.710544  1
  O  O37  1  0.009303  0.990697  0.306952  1
  O  O38  1  0.723199  0.276801  0.593132  1
  O  O39  1  0.997161  0.624529  0.596509  1
  O  O40  1  0.375471  0.002839  0.596509  1
  O  O41  1  0.601710  0.717139  0.720246  1
  O  O42  1  0.282861  0.398290  0.720246  1
  O  O43  1  0.611662  0.388338  0.006576  1
  O  O44  1  0.700288  0.999493  0.984749  1
  O  O45  1  0.000507  0.299712  0.984749  1
