# generated using pymatgen
data_Ca(CeS2)2
_symmetry_space_group_name_H-M   'P 1'
_cell_length_a   7.41282243
_cell_length_b   7.41282243
_cell_length_c   7.41282243
_cell_angle_alpha   109.73848980
_cell_angle_beta   109.73848980
_cell_angle_gamma   108.93799459
_symmetry_Int_Tables_number   1
_chemical_formula_structural   Ca(CeS2)2
_chemical_formula_sum   'Ca2 Ce4 S8'
_cell_volume   313.54560676
_cell_formula_units_Z   2
loop_
 _symmetry_equiv_pos_site_id
 _symmetry_equiv_pos_as_xyz
  1  'x, y, z'
loop_
 _atom_site_type_symbol
 _atom_site_label
 _atom_site_symmetry_multiplicity
 _atom_site_fract_x
 _atom_site_fract_y
 _atom_site_fract_z
 _atom_site_occupancy
  Ca  Ca0  1  0.750000  0.250000  0.500000  1
  Ca  Ca1  1  1.000000  1.000000  0.000000  1
  Ce  Ce2  1  0.246804  0.625000  0.121804  1
  Ce  Ce3  1  0.375000  0.496804  0.621804  1
  Ce  Ce4  1  0.503196  0.125000  0.878196  1
  Ce  Ce5  1  0.875000  0.753196  0.378196  1
  S  S6  1  0.127829  0.731945  0.752291  1
  S  S7  1  0.125538  0.229654  0.747709  1
  S  S8  1  0.268055  0.020346  0.395884  1
  S  S9  1  0.481945  0.377829  0.252291  1
  S  S10  1  0.770346  0.518055  0.895884  1
  S  S11  1  0.622171  0.874462  0.104116  1
  S  S12  1  0.624462  0.872171  0.604116  1
  S  S13  1  0.979654  0.375538  0.247709  1
