# generated using pymatgen
data_RbAuF4
_symmetry_space_group_name_H-M   'P 1'
_cell_length_a   7.51701967
_cell_length_b   7.51701967
_cell_length_c   7.51701967
_cell_angle_alpha   129.55367837
_cell_angle_beta   129.55367837
_cell_angle_gamma   74.12129824
_symmetry_Int_Tables_number   1
_chemical_formula_structural   RbAuF4
_chemical_formula_sum   'Rb2 Au2 F8'
_cell_volume   246.21454068
_cell_formula_units_Z   2
loop_
 _symmetry_equiv_pos_site_id
 _symmetry_equiv_pos_as_xyz
  1  'x, y, z'
loop_
 _atom_site_type_symbol
 _atom_site_label
 _atom_site_symmetry_multiplicity
 _atom_site_fract_x
 _atom_site_fract_y
 _atom_site_fract_z
 _atom_site_occupancy
  Rb  Rb0  1  0.250000  0.250000  0.000000  1
  Rb  Rb1  1  0.750000  0.750000  0.000000  1
  Au  Au2  1  0.500000  0.000000  0.500000  1
  Au  Au3  1  0.000000  0.500000  0.500000  1
  F  F4  1  0.460507  0.960507  0.190787  1
  F  F5  1  0.230279  0.730279  0.190787  1
  F  F6  1  0.539493  0.039493  0.809213  1
  F  F7  1  0.039493  0.230279  0.500000  1
  F  F8  1  0.769721  0.269721  0.809213  1
  F  F9  1  0.269721  0.460507  0.500000  1
  F  F10  1  0.960507  0.769721  0.500000  1
  F  F11  1  0.730279  0.539493  0.500000  1
