# generated using pymatgen
data_Tb(IO3)3
_symmetry_space_group_name_H-M   'P 1'
_cell_length_a   7.23748382
_cell_length_b   8.62532992
_cell_length_c   13.58456321
_cell_angle_alpha   90.00000000
_cell_angle_beta   100.31798516
_cell_angle_gamma   90.00000000
_symmetry_Int_Tables_number   1
_chemical_formula_structural   Tb(IO3)3
_chemical_formula_sum   'Tb4 I12 O36'
_cell_volume   834.31213475
_cell_formula_units_Z   4
loop_
 _symmetry_equiv_pos_site_id
 _symmetry_equiv_pos_as_xyz
  1  'x, y, z'
loop_
 _atom_site_type_symbol
 _atom_site_label
 _atom_site_symmetry_multiplicity
 _atom_site_fract_x
 _atom_site_fract_y
 _atom_site_fract_z
 _atom_site_occupancy
  Tb  Tb0  1  0.827701  0.754781  0.353533  1
  Tb  Tb1  1  0.172299  0.254781  0.146467  1
  Tb  Tb2  1  0.172299  0.245219  0.646467  1
  Tb  Tb3  1  0.827701  0.745219  0.853533  1
  I  I4  1  0.833669  0.294908  0.390390  1
  I  I5  1  0.166331  0.794908  0.109610  1
  I  I6  1  0.166331  0.705092  0.609610  1
  I  I7  1  0.833669  0.205092  0.890390  1
  I  I8  1  0.734536  0.520355  0.109842  1
  I  I9  1  0.265464  0.020355  0.390158  1
  I  I10  1  0.265464  0.479645  0.890158  1
  I  I11  1  0.734536  0.979645  0.609842  1
  I  I12  1  0.666999  0.044159  0.143414  1
  I  I13  1  0.333001  0.544159  0.356586  1
  I  I14  1  0.333001  0.955841  0.856586  1
  I  I15  1  0.666999  0.455841  0.643414  1
  O  O16  1  0.842132  0.474295  0.318885  1
  O  O17  1  0.157868  0.974295  0.181115  1
  O  O18  1  0.157868  0.525705  0.681115  1
  O  O19  1  0.842132  0.025705  0.818885  1
  O  O20  1  0.637954  0.335801  0.454867  1
  O  O21  1  0.362046  0.835801  0.045133  1
  O  O22  1  0.362046  0.664199  0.545133  1
  O  O23  1  0.637954  0.164199  0.954867  1
  O  O24  1  0.033920  0.330910  0.490363  1
  O  O25  1  0.966080  0.830910  0.009637  1
  O  O26  1  0.966080  0.669090  0.509637  1
  O  O27  1  0.033920  0.169090  0.990363  1
  O  O28  1  0.772585  0.708218  0.175746  1
  O  O29  1  0.227415  0.208218  0.324254  1
  O  O30  1  0.227415  0.291782  0.824254  1
  O  O31  1  0.772585  0.791782  0.675746  1
  O  O32  1  0.851250  0.308480  0.677033  1
  O  O33  1  0.148750  0.808480  0.822967  1
  O  O34  1  0.148750  0.691520  0.322967  1
  O  O35  1  0.851250  0.191520  0.177033  1
  O  O36  1  0.469301  0.325118  0.638140  1
  O  O37  1  0.530699  0.825118  0.861860  1
  O  O38  1  0.530699  0.674882  0.361860  1
  O  O39  1  0.469301  0.174882  0.138140  1
  O  O40  1  0.660854  0.533013  0.768544  1
  O  O41  1  0.339146  0.033013  0.731456  1
  O  O42  1  0.339146  0.466987  0.231456  1
  O  O43  1  0.660854  0.966987  0.268544  1
  O  O44  1  0.680139  0.922000  0.479038  1
  O  O45  1  0.319861  0.422000  0.020962  1
  O  O46  1  0.319861  0.078000  0.520962  1
  O  O47  1  0.680139  0.578000  0.979038  1
  O  O48  1  0.981780  0.028334  0.614049  1
  O  O49  1  0.018220  0.528334  0.885951  1
  O  O50  1  0.018220  0.971666  0.385951  1
  O  O51  1  0.981780  0.471666  0.114049  1
