# generated using pymatgen
data_BaCeO3
_symmetry_space_group_name_H-M   'P 1'
_cell_length_a   6.27870147
_cell_length_b   6.27870147
_cell_length_c   6.27870147
_cell_angle_alpha   120.05421386
_cell_angle_beta   119.53398477
_cell_angle_gamma   90.35758873
_symmetry_Int_Tables_number   1
_chemical_formula_structural   BaCeO3
_chemical_formula_sum   'Ba2 Ce2 O6'
_cell_volume   175.55926269
_cell_formula_units_Z   2
loop_
 _symmetry_equiv_pos_site_id
 _symmetry_equiv_pos_as_xyz
  1  'x, y, z'
loop_
 _atom_site_type_symbol
 _atom_site_label
 _atom_site_symmetry_multiplicity
 _atom_site_fract_x
 _atom_site_fract_y
 _atom_site_fract_z
 _atom_site_occupancy
  Ba  Ba0  1  0.239759  0.750000  0.989759  1
  Ba  Ba1  1  0.760241  0.250000  0.010241  1
  Ce  Ce2  1  0.500000  0.500000  0.500000  1
  Ce  Ce3  1  0.000000  0.000000  0.500000  1
  O  O4  1  0.795756  0.295756  0.500000  1
  O  O5  1  0.204244  0.204244  0.000000  1
  O  O6  1  0.204244  0.704244  0.500000  1
  O  O7  1  0.795756  0.795756  0.000000  1
  O  O8  1  0.331052  0.250000  0.581052  1
  O  O9  1  0.668948  0.750000  0.418948  1
