# generated using pymatgen
data_Sm2TmS4
_symmetry_space_group_name_H-M   'P 1'
_cell_length_a   7.28648669
_cell_length_b   7.28648669
_cell_length_c   7.28648669
_cell_angle_alpha   110.08167808
_cell_angle_beta   110.08167808
_cell_angle_gamma   108.25708550
_symmetry_Int_Tables_number   1
_chemical_formula_structural   Sm2TmS4
_chemical_formula_sum   'Sm4 Tm2 S8'
_cell_volume   297.70541021
_cell_formula_units_Z   2
loop_
 _symmetry_equiv_pos_site_id
 _symmetry_equiv_pos_as_xyz
  1  'x, y, z'
loop_
 _atom_site_type_symbol
 _atom_site_label
 _atom_site_symmetry_multiplicity
 _atom_site_fract_x
 _atom_site_fract_y
 _atom_site_fract_z
 _atom_site_occupancy
  Sm  Sm0  1  0.492036  0.125000  0.867036  1
  Sm  Sm1  1  0.257964  0.625000  0.132964  1
  Sm  Sm2  1  0.375000  0.507964  0.632964  1
  Sm  Sm3  1  0.875000  0.742036  0.367036  1
  Tm  Tm4  1  0.000000  0.000000  0.000000  1
  Tm  Tm5  1  0.750000  0.250000  0.500000  1
  S  S6  1  0.628329  0.884946  0.113287  1
  S  S7  1  0.634946  0.878329  0.613287  1
  S  S8  1  0.265042  0.021659  0.386713  1
  S  S9  1  0.115054  0.228341  0.743384  1
  S  S10  1  0.771659  0.515042  0.886713  1
  S  S11  1  0.978341  0.365054  0.243384  1
  S  S12  1  0.484958  0.371671  0.256616  1
  S  S13  1  0.121671  0.734958  0.756616  1
