# generated using pymatgen
data_Ti(CoO2)2
_symmetry_space_group_name_H-M   'P 1'
_cell_length_a   6.05082670
_cell_length_b   6.05082670
_cell_length_c   6.05082670
_cell_angle_alpha   120.49192592
_cell_angle_beta   120.36993802
_cell_angle_gamma   89.25524343
_symmetry_Int_Tables_number   1
_chemical_formula_structural   Ti(CoO2)2
_chemical_formula_sum   'Ti2 Co4 O8'
_cell_volume   155.61472944
_cell_formula_units_Z   2
loop_
 _symmetry_equiv_pos_site_id
 _symmetry_equiv_pos_as_xyz
  1  'x, y, z'
loop_
 _atom_site_type_symbol
 _atom_site_label
 _atom_site_symmetry_multiplicity
 _atom_site_fract_x
 _atom_site_fract_y
 _atom_site_fract_z
 _atom_site_occupancy
  Ti  Ti0  1  0.500000  0.000000  0.500000  1
  Ti  Ti1  1  0.000000  0.000000  0.000000  1
  Co  Co2  1  0.615530  0.365530  0.250000  1
  Co  Co3  1  0.384470  0.634470  0.750000  1
  Co  Co4  1  0.000000  0.500000  1.000000  1
  Co  Co5  1  0.000000  0.000000  0.500000  1
  O  O6  1  0.252589  0.780839  0.028251  1
  O  O7  1  0.258178  0.771787  0.486391  1
  O  O8  1  0.252589  0.224338  0.471749  1
  O  O9  1  0.785395  0.771787  0.013609  1
  O  O10  1  0.214605  0.228213  0.986391  1
  O  O11  1  0.741822  0.228213  0.513609  1
  O  O12  1  0.747411  0.775662  0.528251  1
  O  O13  1  0.747411  0.219161  0.971749  1
