# generated using pymatgen
data_Li2Mn(PO3)4
_symmetry_space_group_name_H-M   'P 1'
_cell_length_a   8.55198719
_cell_length_b   8.55198719
_cell_length_c   7.44261669
_cell_angle_alpha   86.13221523
_cell_angle_beta   93.86778477
_cell_angle_gamma   65.77027319
_symmetry_Int_Tables_number   1
_chemical_formula_structural   Li2Mn(PO3)4
_chemical_formula_sum   'Li4 Mn2 P8 O24'
_cell_volume   492.53008868
_cell_formula_units_Z   2
loop_
 _symmetry_equiv_pos_site_id
 _symmetry_equiv_pos_as_xyz
  1  'x, y, z'
loop_
 _atom_site_type_symbol
 _atom_site_label
 _atom_site_symmetry_multiplicity
 _atom_site_fract_x
 _atom_site_fract_y
 _atom_site_fract_z
 _atom_site_occupancy
  Li  Li0  1  0.808805  0.487906  0.703408  1
  Li  Li1  1  0.512094  0.191195  0.203408  1
  Li  Li2  1  0.191195  0.512094  0.296592  1
  Li  Li3  1  0.487906  0.808805  0.796592  1
  Mn  Mn4  1  0.136432  0.136432  0.750000  1
  Mn  Mn5  1  0.863568  0.863568  0.250000  1
  P  P6  1  0.232721  0.446230  0.881473  1
  P  P7  1  0.446230  0.232721  0.618527  1
  P  P8  1  0.553770  0.767279  0.381473  1
  P  P9  1  0.767279  0.553770  0.118527  1
  P  P10  1  0.933924  0.211718  0.330851  1
  P  P11  1  0.211718  0.933924  0.169149  1
  P  P12  1  0.066076  0.788282  0.669149  1
  P  P13  1  0.788282  0.066076  0.830851  1
  O  O14  1  0.702253  0.036682  0.992065  1
  O  O15  1  0.312741  0.398609  0.074313  1
  O  O16  1  0.883424  0.883424  0.750000  1
  O  O17  1  0.649240  0.168603  0.659419  1
  O  O18  1  0.687259  0.601391  0.925687  1
  O  O19  1  0.840677  0.097329  0.349817  1
  O  O20  1  0.831397  0.350760  0.159419  1
  O  O21  1  0.092532  0.391115  0.820421  1
  O  O22  1  0.097329  0.840677  0.150183  1
  O  O23  1  0.159323  0.902671  0.650183  1
  O  O24  1  0.391115  0.092532  0.679579  1
  O  O25  1  0.350760  0.831397  0.340581  1
  O  O26  1  0.608885  0.907468  0.320421  1
  O  O27  1  0.398609  0.312741  0.425687  1
  O  O28  1  0.601391  0.687259  0.574313  1
  O  O29  1  0.116576  0.116576  0.250000  1
  O  O30  1  0.384707  0.384707  0.750000  1
  O  O31  1  0.963318  0.297747  0.492065  1
  O  O32  1  0.902671  0.159323  0.849817  1
  O  O33  1  0.036682  0.702253  0.507935  1
  O  O34  1  0.907468  0.608885  0.179579  1
  O  O35  1  0.615293  0.615293  0.250000  1
  O  O36  1  0.297747  0.963318  0.007935  1
  O  O37  1  0.168603  0.649240  0.840581  1
