# generated using pymatgen
data_Li2CoP2O7
_symmetry_space_group_name_H-M   'P 1'
_cell_length_a   6.53104632
_cell_length_b   9.21860523
_cell_length_c   10.40544246
_cell_angle_alpha   113.84539989
_cell_angle_beta   87.76000993
_cell_angle_gamma   106.60050089
_symmetry_Int_Tables_number   1
_chemical_formula_structural   Li2CoP2O7
_chemical_formula_sum   'Li8 Co4 P8 O28'
_cell_volume   547.03169598
_cell_formula_units_Z   4
loop_
 _symmetry_equiv_pos_site_id
 _symmetry_equiv_pos_as_xyz
  1  'x, y, z'
loop_
 _atom_site_type_symbol
 _atom_site_label
 _atom_site_symmetry_multiplicity
 _atom_site_fract_x
 _atom_site_fract_y
 _atom_site_fract_z
 _atom_site_occupancy
  Li  Li0  1  0.354137  0.926016  0.379105  1
  Li  Li1  1  0.047500  0.205825  0.511876  1
  Li  Li2  1  0.166640  0.484925  0.035330  1
  Li  Li3  1  0.592058  0.509508  0.970412  1
  Li  Li4  1  0.172622  0.112507  0.132768  1
  Li  Li5  1  0.640879  0.074616  0.620619  1
  Li  Li6  1  0.935454  0.826781  0.503086  1
  Li  Li7  1  0.870343  0.892471  0.894226  1
  Co  Co8  1  0.625896  0.488887  0.251204  1
  Co  Co9  1  0.363488  0.503740  0.739184  1
  Co  Co10  1  0.286861  0.894651  0.778874  1
  Co  Co11  1  0.719624  0.097633  0.216447  1
  P  P12  1  0.874130  0.545020  0.697811  1
  P  P13  1  0.312831  0.802007  0.052465  1
  P  P14  1  0.561555  0.290788  0.461917  1
  P  P15  1  0.080429  0.180193  0.794222  1
  P  P16  1  0.693945  0.189211  0.945905  1
  P  P17  1  0.923993  0.808476  0.199566  1
  P  P18  1  0.433206  0.705041  0.532067  1
  P  P19  1  0.114621  0.442175  0.298068  1
  O  O20  1  0.693260  0.528574  0.794546  1
  O  O21  1  0.613419  0.332397  0.039564  1
  O  O22  1  0.284019  0.322266  0.819006  1
  O  O23  1  0.024061  0.263006  0.287263  1
  O  O24  1  0.448920  0.910091  0.193480  1
  O  O25  1  0.084767  0.709240  0.096320  1
  O  O26  1  0.962103  0.091510  0.645442  1
  O  O27  1  0.738312  0.080362  0.013939  1
  O  O28  1  0.907313  0.932031  0.138611  1
  O  O29  1  0.974895  0.727333  0.721331  1
  O  O30  1  0.237845  0.541018  0.454978  1
  O  O31  1  0.544312  0.275221  0.307735  1
  O  O32  1  0.360586  0.310005  0.537921  1
  O  O33  1  0.561614  0.082207  0.803468  1
  O  O34  1  0.106470  0.056793  0.851649  1
  O  O35  1  0.384454  0.652038  0.958782  1
  O  O36  1  0.927377  0.280030  0.905071  1
  O  O37  1  0.755093  0.456764  0.538198  1
  O  O38  1  0.369266  0.856899  0.538524  1
  O  O39  1  0.287325  0.451548  0.193610  1
  O  O40  1  0.715463  0.670729  0.173578  1
  O  O41  1  0.950321  0.526104  0.291072  1
  O  O42  1  0.632715  0.685348  0.454277  1
  O  O43  1  0.035858  0.897237  0.349507  1
  O  O44  1  0.446734  0.713847  0.684142  1
  O  O45  1  0.268719  0.908859  0.983017  1
  O  O46  1  0.034245  0.451802  0.694224  1
  O  O47  1  0.629177  0.142075  0.460353  1
