# generated using pymatgen
data_Ca4Al51Cr7
_symmetry_space_group_name_H-M   'P 1'
_cell_length_a   10.22451236
_cell_length_b   10.22451236
_cell_length_c   11.47739874
_cell_angle_alpha   90.00000000
_cell_angle_beta   90.00000000
_cell_angle_gamma   120.00000000
_symmetry_Int_Tables_number   1
_chemical_formula_structural   Ca4Al51Cr7
_chemical_formula_sum   'Ca4 Al51 Cr7'
_cell_volume   1039.10470198
_cell_formula_units_Z   1
loop_
 _symmetry_equiv_pos_site_id
 _symmetry_equiv_pos_as_xyz
  1  'x, y, z'
loop_
 _atom_site_type_symbol
 _atom_site_label
 _atom_site_symmetry_multiplicity
 _atom_site_fract_x
 _atom_site_fract_y
 _atom_site_fract_z
 _atom_site_occupancy
  Ca  Ca0  1  0.333333  0.666667  0.584792  1
  Ca  Ca1  1  0.333333  0.666667  0.903478  1
  Ca  Ca2  1  0.666667  0.333333  0.415208  1
  Ca  Ca3  1  0.666667  0.333333  0.096522  1
  Al  Al4  1  0.577875  0.422125  0.652494  1
  Al  Al5  1  0.577875  0.155750  0.652494  1
  Al  Al6  1  0.844250  0.422125  0.652494  1
  Al  Al7  1  0.091109  0.908891  0.170876  1
  Al  Al8  1  0.091109  0.182218  0.170876  1
  Al  Al9  1  0.817782  0.908891  0.170876  1
  Al  Al10  1  0.845648  0.154352  0.043770  1
  Al  Al11  1  0.845648  0.691297  0.043770  1
  Al  Al12  1  0.308703  0.154352  0.043770  1
  Al  Al13  1  0.242630  0.757370  0.143725  1
  Al  Al14  1  0.242630  0.485259  0.143725  1
  Al  Al15  1  0.514741  0.757370  0.143725  1
  Al  Al16  1  0.091798  0.908202  0.604762  1
  Al  Al17  1  0.091798  0.183595  0.604762  1
  Al  Al18  1  0.816405  0.908202  0.604762  1
  Al  Al19  1  0.154352  0.845648  0.956230  1
  Al  Al20  1  0.154352  0.308703  0.956230  1
  Al  Al21  1  0.691297  0.845648  0.956230  1
  Al  Al22  1  0.757370  0.242630  0.856275  1
  Al  Al23  1  0.757370  0.514741  0.856275  1
  Al  Al24  1  0.485259  0.242630  0.856275  1
  Al  Al25  1  0.422125  0.577875  0.347506  1
  Al  Al26  1  0.422125  0.844250  0.347506  1
  Al  Al27  1  0.155750  0.577875  0.347506  1
  Al  Al28  1  0.500000  0.500000  0.000000  1
  Al  Al29  1  0.500000  0.000000  0.000000  1
  Al  Al30  1  0.000000  0.500000  0.000000  1
  Al  Al31  1  0.908891  0.091109  0.829124  1
  Al  Al32  1  0.908891  0.817782  0.829124  1
  Al  Al33  1  0.182218  0.091109  0.829124  1
  Al  Al34  1  0.908202  0.091798  0.395238  1
  Al  Al35  1  0.908202  0.816405  0.395238  1
  Al  Al36  1  0.183595  0.091798  0.395238  1
  Al  Al37  1  0.640887  0.000000  0.500000  1
  Al  Al38  1  0.000000  0.640887  0.500000  1
  Al  Al39  1  0.359113  0.359113  0.500000  1
  Al  Al40  1  0.359113  0.000000  0.500000  1
  Al  Al41  1  0.640887  0.640887  0.500000  1
  Al  Al42  1  0.000000  0.359113  0.500000  1
  Al  Al43  1  0.330033  0.397794  0.753950  1
  Al  Al44  1  0.602206  0.932239  0.753950  1
  Al  Al45  1  0.067761  0.669967  0.753950  1
  Al  Al46  1  0.067761  0.397794  0.753950  1
  Al  Al47  1  0.330033  0.932239  0.753950  1
  Al  Al48  1  0.602206  0.669967  0.753950  1
  Al  Al49  1  0.932239  0.330033  0.246050  1
  Al  Al50  1  0.669967  0.602206  0.246050  1
  Al  Al51  1  0.397794  0.067761  0.246050  1
  Al  Al52  1  0.397794  0.330033  0.246050  1
  Al  Al53  1  0.932239  0.602206  0.246050  1
  Al  Al54  1  0.669967  0.067761  0.246050  1
  Cr  Cr55  1  0.000000  0.000000  0.000000  1
  Cr  Cr56  1  0.169010  0.830990  0.343280  1
  Cr  Cr57  1  0.169010  0.338021  0.343280  1
  Cr  Cr58  1  0.661979  0.830990  0.343280  1
  Cr  Cr59  1  0.830990  0.169010  0.656720  1
  Cr  Cr60  1  0.830990  0.661979  0.656720  1
  Cr  Cr61  1  0.338021  0.169010  0.656720  1
