# generated using pymatgen
data_Sc3(ReSi2)2
_symmetry_space_group_name_H-M   'P 1'
_cell_length_a   10.18690958
_cell_length_b   10.18690958
_cell_length_c   13.74616295
_cell_angle_alpha   55.95885187
_cell_angle_beta   124.04114813
_cell_angle_gamma   149.46041592
_symmetry_Int_Tables_number   1
_chemical_formula_structural   Sc3(ReSi2)2
_chemical_formula_sum   'Sc12 Re8 Si16'
_cell_volume   590.32802823
_cell_formula_units_Z   4
loop_
 _symmetry_equiv_pos_site_id
 _symmetry_equiv_pos_as_xyz
  1  'x, y, z'
loop_
 _atom_site_type_symbol
 _atom_site_label
 _atom_site_symmetry_multiplicity
 _atom_site_fract_x
 _atom_site_fract_y
 _atom_site_fract_z
 _atom_site_occupancy
  Sc  Sc0  1  0.752453  0.519116  0.953587  1
  Sc  Sc1  1  0.533981  0.697647  0.842166  1
  Sc  Sc2  1  0.519116  0.752453  0.546413  1
  Sc  Sc3  1  0.466019  0.302353  0.157834  1
  Sc  Sc4  1  0.292557  0.964060  0.861014  1
  Sc  Sc5  1  0.964060  0.292557  0.638986  1
  Sc  Sc6  1  0.707443  0.035940  0.138986  1
  Sc  Sc7  1  0.035940  0.707443  0.361014  1
  Sc  Sc8  1  0.247547  0.480884  0.046413  1
  Sc  Sc9  1  0.480884  0.247547  0.453587  1
  Sc  Sc10  1  0.302353  0.466019  0.342166  1
  Sc  Sc11  1  0.697647  0.533981  0.657834  1
  Re  Re12  1  0.645063  0.173178  0.717210  1
  Re  Re13  1  0.826822  0.354937  0.217210  1
  Re  Re14  1  0.354937  0.826822  0.282790  1
  Re  Re15  1  0.173178  0.645063  0.782790  1
  Re  Re16  1  0.138450  0.087606  0.923164  1
  Re  Re17  1  0.087606  0.138450  0.576836  1
  Re  Re18  1  0.861550  0.912394  0.076836  1
  Re  Re19  1  0.912394  0.861550  0.423164  1
  Si  Si20  1  0.888115  0.888115  0.750000  1
  Si  Si21  1  0.111885  0.111885  0.250000  1
  Si  Si22  1  0.360556  0.360556  0.750000  1
  Si  Si23  1  0.639444  0.639444  0.250000  1
  Si  Si24  1  0.001369  0.770195  0.124998  1
  Si  Si25  1  0.770195  0.001369  0.375002  1
  Si  Si26  1  0.998631  0.229805  0.875002  1
  Si  Si27  1  0.229805  0.998631  0.624998  1
  Si  Si28  1  0.602154  0.951254  0.927997  1
  Si  Si29  1  0.951254  0.602154  0.572003  1
  Si  Si30  1  0.397846  0.048746  0.072003  1
  Si  Si31  1  0.048746  0.397846  0.427997  1
  Si  Si32  1  0.393085  0.847867  0.610256  1
  Si  Si33  1  0.847867  0.393085  0.889744  1
  Si  Si34  1  0.606915  0.152133  0.389744  1
  Si  Si35  1  0.152133  0.606915  0.110256  1
