# generated using pymatgen
data_AgSbS2
_symmetry_space_group_name_H-M   'P 1'
_cell_length_a   6.90924779
_cell_length_b   6.90924779
_cell_length_c   6.90924779
_cell_angle_alpha   133.15687463
_cell_angle_beta   133.15687463
_cell_angle_gamma   68.40789299
_symmetry_Int_Tables_number   1
_chemical_formula_structural   AgSbS2
_chemical_formula_sum   'Ag2 Sb2 S4'
_cell_volume   172.40081029
_cell_formula_units_Z   2
loop_
 _symmetry_equiv_pos_site_id
 _symmetry_equiv_pos_as_xyz
  1  'x, y, z'
loop_
 _atom_site_type_symbol
 _atom_site_label
 _atom_site_symmetry_multiplicity
 _atom_site_fract_x
 _atom_site_fract_y
 _atom_site_fract_z
 _atom_site_occupancy
  Ag  Ag0  1  0.500000  0.500000  0.000000  1
  Ag  Ag1  1  0.250000  0.750000  0.500000  1
  Sb  Sb2  1  0.000000  0.000000  0.000000  1
  Sb  Sb3  1  0.750000  0.250000  0.500000  1
  S  S4  1  0.757805  0.757805  0.000000  1
  S  S5  1  0.242195  0.242195  0.000000  1
  S  S6  1  0.992195  0.492195  0.500000  1
  S  S7  1  0.507805  0.007805  0.500000  1
