# generated using pymatgen
data_Tb3(CuSi)4
_symmetry_space_group_name_H-M   'P 1'
_cell_length_a   7.90366638
_cell_length_b   7.90366638
_cell_length_c   7.90366638
_cell_angle_alpha   149.49242014
_cell_angle_beta   130.97711664
_cell_angle_gamma   58.84737584
_symmetry_Int_Tables_number   1
_chemical_formula_structural   Tb3(CuSi)4
_chemical_formula_sum   'Tb3 Cu4 Si4'
_cell_volume   187.75831587
_cell_formula_units_Z   1
loop_
 _symmetry_equiv_pos_site_id
 _symmetry_equiv_pos_as_xyz
  1  'x, y, z'
loop_
 _atom_site_type_symbol
 _atom_site_label
 _atom_site_symmetry_multiplicity
 _atom_site_fract_x
 _atom_site_fract_y
 _atom_site_fract_z
 _atom_site_occupancy
  Tb  Tb0  1  0.869899  0.869899  0.000000  1
  Tb  Tb1  1  0.130101  0.130101  0.000000  1
  Tb  Tb2  1  0.500000  0.000000  0.500000  1
  Cu  Cu3  1  0.521949  0.331842  0.190107  1
  Cu  Cu4  1  0.858265  0.668158  0.190107  1
  Cu  Cu5  1  0.141735  0.331842  0.809893  1
  Cu  Cu6  1  0.478051  0.668158  0.809893  1
  Si  Si7  1  0.815897  0.500000  0.315897  1
  Si  Si8  1  0.184103  0.500000  0.684103  1
  Si  Si9  1  0.283964  0.783964  0.500000  1
  Si  Si10  1  0.716036  0.216036  0.500000  1
