# generated using pymatgen
data_CsAs4F13
_symmetry_space_group_name_H-M   'P 1'
_cell_length_a   7.72389630
_cell_length_b   7.72389630
_cell_length_c   7.72389630
_cell_angle_alpha   101.35502195
_cell_angle_beta   101.35502195
_cell_angle_gamma   127.31700727
_symmetry_Int_Tables_number   1
_chemical_formula_structural   CsAs4F13
_chemical_formula_sum   'Cs1 As4 F13'
_cell_volume   328.41644709
_cell_formula_units_Z   1
loop_
 _symmetry_equiv_pos_site_id
 _symmetry_equiv_pos_as_xyz
  1  'x, y, z'
loop_
 _atom_site_type_symbol
 _atom_site_label
 _atom_site_symmetry_multiplicity
 _atom_site_fract_x
 _atom_site_fract_y
 _atom_site_fract_z
 _atom_site_occupancy
  Cs  Cs0  1  0.000000  0.000000  0.000000  1
  As  As1  1  0.535248  0.211707  0.710723  1
  As  As2  1  0.175474  0.464752  0.676459  1
  As  As3  1  0.788293  0.499015  0.323541  1
  As  As4  1  0.500985  0.824526  0.289277  1
  F  F5  1  0.571577  0.007345  0.730333  1
  F  F6  1  0.158757  0.428423  0.435768  1
  F  F7  1  0.992655  0.722989  0.564232  1
  F  F8  1  0.277011  0.841243  0.269667  1
  F  F9  1  0.831368  0.474325  0.874315  1
  F  F10  1  0.750000  0.250000  0.500000  1
  F  F11  1  0.286101  0.531534  0.090700  1
  F  F12  1  0.804599  0.713899  0.245434  1
  F  F13  1  0.468466  0.559166  0.754566  1
  F  F14  1  0.440834  0.195401  0.909300  1
  F  F15  1  0.600010  0.957053  0.125685  1
  F  F16  1  0.525675  0.399990  0.357043  1
  F  F17  1  0.042947  0.168632  0.642957  1
