# generated using pymatgen
data_H2CN2
_symmetry_space_group_name_H-M   'P 1'
_cell_length_a   3.91292571
_cell_length_b   12.60482249
_cell_length_c   9.12784496
_cell_angle_alpha   90.00000000
_cell_angle_beta   91.37367961
_cell_angle_gamma   90.00000000
_symmetry_Int_Tables_number   1
_chemical_formula_structural   H2CN2
_chemical_formula_sum   'H16 C8 N16'
_cell_volume   450.07175660
_cell_formula_units_Z   8
loop_
 _symmetry_equiv_pos_site_id
 _symmetry_equiv_pos_as_xyz
  1  'x, y, z'
loop_
 _atom_site_type_symbol
 _atom_site_label
 _atom_site_symmetry_multiplicity
 _atom_site_fract_x
 _atom_site_fract_y
 _atom_site_fract_z
 _atom_site_occupancy
  H  H0  1  0.144472  0.685161  0.133274  1
  H  H1  1  0.855528  0.185161  0.366726  1
  H  H2  1  0.855528  0.314839  0.866726  1
  H  H3  1  0.144472  0.814839  0.633274  1
  H  H4  1  0.833705  0.448694  0.860621  1
  H  H5  1  0.833705  0.051306  0.360621  1
  H  H6  1  0.166295  0.551306  0.139379  1
  H  H7  1  0.852141  0.889548  0.537377  1
  H  H8  1  0.845851  0.615766  0.225845  1
  H  H9  1  0.154149  0.115766  0.274155  1
  H  H10  1  0.154149  0.384234  0.774155  1
  H  H11  1  0.166295  0.948694  0.639379  1
  H  H12  1  0.852141  0.610452  0.037377  1
  H  H13  1  0.147859  0.389548  0.962623  1
  H  H14  1  0.147859  0.110452  0.462623  1
  H  H15  1  0.845851  0.884234  0.725845  1
  C  C16  1  0.507332  0.872829  0.251107  1
  C  C17  1  0.492668  0.372829  0.248893  1
  C  C18  1  0.492668  0.127171  0.748893  1
  C  C19  1  0.498518  0.858509  0.000746  1
  C  C20  1  0.507332  0.627171  0.751107  1
  C  C21  1  0.501482  0.141491  0.999254  1
  C  C22  1  0.498518  0.641491  0.500746  1
  C  C23  1  0.501482  0.358509  0.499254  1
  N  N24  1  0.002422  0.884180  0.633514  1
  N  N25  1  0.997578  0.115820  0.366486  1
  N  N26  1  0.997578  0.384180  0.866486  1
  N  N27  1  0.002422  0.615820  0.133514  1
  N  N28  1  0.586870  0.908228  0.366979  1
  N  N29  1  0.413130  0.408228  0.133021  1
  N  N30  1  0.413130  0.091772  0.633021  1
  N  N31  1  0.586870  0.591772  0.866979  1
  N  N32  1  0.402090  0.827902  0.130088  1
  N  N33  1  0.597910  0.327902  0.369912  1
  N  N34  1  0.597910  0.172098  0.869912  1
  N  N35  1  0.402090  0.672098  0.630088  1
  N  N36  1  0.568163  0.878571  0.878978  1
  N  N37  1  0.431837  0.378571  0.621022  1
  N  N38  1  0.431837  0.121429  0.121022  1
  N  N39  1  0.568163  0.621429  0.378978  1
