# generated using pymatgen
data_Li5SiAs3
_symmetry_space_group_name_H-M   'P 1'
_cell_length_a   7.32757671
_cell_length_b   7.32757671
_cell_length_c   8.54600924
_cell_angle_alpha   73.24727131
_cell_angle_beta   106.75272869
_cell_angle_gamma   131.57676536
_symmetry_Int_Tables_number   1
_chemical_formula_structural   Li5SiAs3
_chemical_formula_sum   'Li10 Si2 As6'
_cell_volume   325.66746046
_cell_formula_units_Z   2
loop_
 _symmetry_equiv_pos_site_id
 _symmetry_equiv_pos_as_xyz
  1  'x, y, z'
loop_
 _atom_site_type_symbol
 _atom_site_label
 _atom_site_symmetry_multiplicity
 _atom_site_fract_x
 _atom_site_fract_y
 _atom_site_fract_z
 _atom_site_occupancy
  Li  Li0  1  0.751084  0.751084  0.250000  1
  Li  Li1  1  0.089275  0.414479  0.428170  1
  Li  Li2  1  0.420766  0.087710  0.588078  1
  Li  Li3  1  0.910725  0.585521  0.571830  1
  Li  Li4  1  0.087710  0.420766  0.911922  1
  Li  Li5  1  0.248916  0.248916  0.750000  1
  Li  Li6  1  0.585521  0.910725  0.928170  1
  Li  Li7  1  0.414479  0.089275  0.071830  1
  Li  Li8  1  0.912290  0.579234  0.088078  1
  Li  Li9  1  0.579234  0.912290  0.411922  1
  Si  Si10  1  0.262454  0.262454  0.250000  1
  Si  Si11  1  0.737546  0.737546  0.750000  1
  As  As12  1  0.000000  0.000000  0.500000  1
  As  As13  1  0.685678  0.371474  0.823855  1
  As  As14  1  0.000000  0.000000  0.000000  1
  As  As15  1  0.314322  0.628526  0.176145  1
  As  As16  1  0.628526  0.314322  0.323855  1
  As  As17  1  0.371474  0.685678  0.676145  1
