# generated using pymatgen
data_As2Kr3F16
_symmetry_space_group_name_H-M   'P 1'
_cell_length_a   6.43383747
_cell_length_b   25.49037257
_cell_length_c   9.13013402
_cell_angle_alpha   90.00000000
_cell_angle_beta   91.01249604
_cell_angle_gamma   90.00000000
_symmetry_Int_Tables_number   1
_chemical_formula_structural   As2Kr3F16
_chemical_formula_sum   'As8 Kr12 F64'
_cell_volume   1497.11653698
_cell_formula_units_Z   4
loop_
 _symmetry_equiv_pos_site_id
 _symmetry_equiv_pos_as_xyz
  1  'x, y, z'
loop_
 _atom_site_type_symbol
 _atom_site_label
 _atom_site_symmetry_multiplicity
 _atom_site_fract_x
 _atom_site_fract_y
 _atom_site_fract_z
 _atom_site_occupancy
  As  As0  1  0.735824  0.528642  0.221975  1
  As  As1  1  0.264176  0.028642  0.278025  1
  As  As2  1  0.264176  0.471358  0.778025  1
  As  As3  1  0.735824  0.971358  0.721975  1
  As  As4  1  0.767020  0.320520  0.486824  1
  As  As5  1  0.232980  0.820520  0.013176  1
  As  As6  1  0.232980  0.679480  0.513176  1
  As  As7  1  0.767020  0.179480  0.986824  1
  Kr  Kr8  1  0.296958  0.221258  0.296780  1
  Kr  Kr9  1  0.703042  0.721258  0.203220  1
  Kr  Kr10  1  0.703042  0.778742  0.703220  1
  Kr  Kr11  1  0.296958  0.278742  0.796780  1
  Kr  Kr12  1  0.739912  0.568906  0.600401  1
  Kr  Kr13  1  0.260088  0.068906  0.899599  1
  Kr  Kr14  1  0.260088  0.431094  0.399599  1
  Kr  Kr15  1  0.739912  0.931094  0.100401  1
  Kr  Kr16  1  0.691592  0.364212  0.982304  1
  Kr  Kr17  1  0.308408  0.864212  0.517696  1
  Kr  Kr18  1  0.308408  0.635788  0.017696  1
  Kr  Kr19  1  0.691592  0.135788  0.482304  1
  F  F20  1  0.751032  0.249259  0.983814  1
  F  F21  1  0.248968  0.749259  0.516186  1
  F  F22  1  0.248968  0.750741  0.016186  1
  F  F23  1  0.751032  0.250741  0.483814  1
  F  F24  1  0.956814  0.111102  0.522535  1
  F  F25  1  0.043186  0.611102  0.977465  1
  F  F26  1  0.043186  0.888898  0.477465  1
  F  F27  1  0.956814  0.388898  0.022535  1
  F  F28  1  0.997866  0.988232  0.706165  1
  F  F29  1  0.002134  0.488232  0.793835  1
  F  F30  1  0.002134  0.011768  0.293835  1
  F  F31  1  0.997866  0.511768  0.206165  1
  F  F32  1  0.728889  0.178744  0.793981  1
  F  F33  1  0.271111  0.678744  0.706019  1
  F  F34  1  0.271111  0.821256  0.206019  1
  F  F35  1  0.728889  0.321256  0.293981  1
  F  F36  1  0.709872  0.885022  0.255679  1
  F  F37  1  0.290128  0.385022  0.244321  1
  F  F38  1  0.290128  0.114978  0.744321  1
  F  F39  1  0.709872  0.614978  0.755679  1
  F  F40  1  0.776638  0.512915  0.435898  1
  F  F41  1  0.223362  0.012915  0.064102  1
  F  F42  1  0.223362  0.487085  0.564102  1
  F  F43  1  0.776638  0.987085  0.935898  1
  F  F44  1  0.801697  0.318570  0.680864  1
  F  F45  1  0.198303  0.818570  0.819136  1
  F  F46  1  0.198303  0.681430  0.319136  1
  F  F47  1  0.801697  0.181430  0.180864  1
  F  F48  1  0.808267  0.592925  0.269058  1
  F  F49  1  0.191733  0.092925  0.230942  1
  F  F50  1  0.191733  0.407075  0.730942  1
  F  F51  1  0.808267  0.907075  0.769058  1
  F  F52  1  0.203500  0.227323  0.669008  1
  F  F53  1  0.796500  0.727323  0.830992  1
  F  F54  1  0.796500  0.772677  0.330992  1
  F  F55  1  0.203500  0.272677  0.169008  1
  F  F56  1  0.669531  0.461936  0.211288  1
  F  F57  1  0.330469  0.961936  0.288712  1
  F  F58  1  0.330469  0.538064  0.788712  1
  F  F59  1  0.669531  0.038064  0.711288  1
  F  F60  1  0.492926  0.323365  0.510239  1
  F  F61  1  0.507074  0.823365  0.989761  1
  F  F62  1  0.507074  0.676635  0.489761  1
  F  F63  1  0.492926  0.176635  0.010239  1
  F  F64  1  0.040066  0.316616  0.466073  1
  F  F65  1  0.959934  0.816616  0.033927  1
  F  F66  1  0.959934  0.683384  0.533927  1
  F  F67  1  0.040066  0.183384  0.966073  1
  F  F68  1  0.780276  0.389800  0.489154  1
  F  F69  1  0.219724  0.889800  0.010846  1
  F  F70  1  0.219724  0.610200  0.510846  1
  F  F71  1  0.780276  0.110200  0.989154  1
  F  F72  1  0.478350  0.543328  0.268172  1
  F  F73  1  0.521650  0.043328  0.231828  1
  F  F74  1  0.521650  0.456672  0.731828  1
  F  F75  1  0.478350  0.956672  0.768172  1
  F  F76  1  0.695940  0.541489  0.036911  1
  F  F77  1  0.304060  0.041489  0.463089  1
  F  F78  1  0.304060  0.458511  0.963089  1
  F  F79  1  0.695940  0.958511  0.536911  1
  F  F80  1  0.387409  0.337518  0.944718  1
  F  F81  1  0.612591  0.837518  0.555282  1
  F  F82  1  0.612591  0.662482  0.055282  1
  F  F83  1  0.387409  0.162482  0.444718  1
