# generated using pymatgen
data_CaCu
_symmetry_space_group_name_H-M   'P 1'
_cell_length_a   5.81806447
_cell_length_b   4.23316715
_cell_length_c   19.31077083
_cell_angle_alpha   90.00000000
_cell_angle_beta   94.34790896
_cell_angle_gamma   90.00000000
_symmetry_Int_Tables_number   1
_chemical_formula_structural   CaCu
_chemical_formula_sum   'Ca10 Cu10'
_cell_volume   474.23313421
_cell_formula_units_Z   10
loop_
 _symmetry_equiv_pos_site_id
 _symmetry_equiv_pos_as_xyz
  1  'x, y, z'
loop_
 _atom_site_type_symbol
 _atom_site_label
 _atom_site_symmetry_multiplicity
 _atom_site_fract_x
 _atom_site_fract_y
 _atom_site_fract_z
 _atom_site_occupancy
  Ca  Ca0  1  0.343710  0.250000  0.871553  1
  Ca  Ca1  1  0.656290  0.750000  0.128447  1
  Ca  Ca2  1  0.539757  0.250000  0.671632  1
  Ca  Ca3  1  0.460243  0.750000  0.328368  1
  Ca  Ca4  1  0.241810  0.250000  0.471825  1
  Ca  Ca5  1  0.758190  0.750000  0.528175  1
  Ca  Ca6  1  0.946034  0.250000  0.271648  1
  Ca  Ca7  1  0.053966  0.750000  0.728352  1
  Ca  Ca8  1  0.144697  0.250000  0.071815  1
  Ca  Ca9  1  0.855303  0.750000  0.928185  1
  Cu  Cu10  1  0.809027  0.250000  0.812257  1
  Cu  Cu11  1  0.190973  0.750000  0.187743  1
  Cu  Cu12  1  0.044334  0.250000  0.612274  1
  Cu  Cu13  1  0.955666  0.750000  0.387726  1
  Cu  Cu14  1  0.746582  0.250000  0.412206  1
  Cu  Cu15  1  0.253418  0.750000  0.587794  1
  Cu  Cu16  1  0.412454  0.250000  0.212241  1
  Cu  Cu17  1  0.587546  0.750000  0.787759  1
  Cu  Cu18  1  0.610322  0.250000  0.012286  1
  Cu  Cu19  1  0.389678  0.750000  0.987714  1
