# generated using pymatgen
data_Mg(TiS2)4
_symmetry_space_group_name_H-M   'P 1'
_cell_length_a   7.01380946
_cell_length_b   7.01380946
_cell_length_c   7.01380946
_cell_angle_alpha   60.40714333
_cell_angle_beta   60.40714333
_cell_angle_gamma   60.40714333
_symmetry_Int_Tables_number   1
_chemical_formula_structural   Mg(TiS2)4
_chemical_formula_sum   'Mg1 Ti4 S8'
_cell_volume   246.22215524
_cell_formula_units_Z   1
loop_
 _symmetry_equiv_pos_site_id
 _symmetry_equiv_pos_as_xyz
  1  'x, y, z'
loop_
 _atom_site_type_symbol
 _atom_site_label
 _atom_site_symmetry_multiplicity
 _atom_site_fract_x
 _atom_site_fract_y
 _atom_site_fract_z
 _atom_site_occupancy
  Mg  Mg0  1  0.000000  0.000000  0.000000  1
  Ti  Ti1  1  0.500000  0.500000  0.000000  1
  Ti  Ti2  1  0.500000  0.000000  0.500000  1
  Ti  Ti3  1  0.000000  0.500000  0.500000  1
  Ti  Ti4  1  0.500000  0.500000  0.500000  1
  S  S5  1  0.254315  0.254315  0.254315  1
  S  S6  1  0.258390  0.745560  0.745560  1
  S  S7  1  0.745560  0.745560  0.258390  1
  S  S8  1  0.745560  0.258390  0.745560  1
  S  S9  1  0.745685  0.745685  0.745685  1
  S  S10  1  0.741610  0.254440  0.254440  1
  S  S11  1  0.254440  0.741610  0.254440  1
  S  S12  1  0.254440  0.254440  0.741610  1
