# generated using pymatgen
data_Bi(IO3)3
_symmetry_space_group_name_H-M   'P 1'
_cell_length_a   8.97515769
_cell_length_b   6.11417760
_cell_length_c   17.01939845
_cell_angle_alpha   90.00000000
_cell_angle_beta   114.97998620
_cell_angle_gamma   90.00000000
_symmetry_Int_Tables_number   1
_chemical_formula_structural   Bi(IO3)3
_chemical_formula_sum   'Bi4 I12 O36'
_cell_volume   846.58537637
_cell_formula_units_Z   4
loop_
 _symmetry_equiv_pos_site_id
 _symmetry_equiv_pos_as_xyz
  1  'x, y, z'
loop_
 _atom_site_type_symbol
 _atom_site_label
 _atom_site_symmetry_multiplicity
 _atom_site_fract_x
 _atom_site_fract_y
 _atom_site_fract_z
 _atom_site_occupancy
  Bi  Bi0  1  0.152258  0.217856  0.105355  1
  Bi  Bi1  1  0.847742  0.717856  0.394645  1
  Bi  Bi2  1  0.847742  0.782144  0.894645  1
  Bi  Bi3  1  0.152258  0.282144  0.605355  1
  I  I4  1  0.584997  0.403482  0.198646  1
  I  I5  1  0.415003  0.903482  0.301354  1
  I  I6  1  0.415003  0.596518  0.801354  1
  I  I7  1  0.584997  0.096518  0.698646  1
  I  I8  1  0.356602  0.862916  0.020745  1
  I  I9  1  0.643398  0.362916  0.479255  1
  I  I10  1  0.643398  0.137084  0.979255  1
  I  I11  1  0.356602  0.637084  0.520745  1
  I  I12  1  0.067611  0.315932  0.854107  1
  I  I13  1  0.932389  0.815932  0.645893  1
  I  I14  1  0.932389  0.684068  0.145893  1
  I  I15  1  0.067611  0.184068  0.354107  1
  O  O16  1  0.654857  0.678282  0.245060  1
  O  O17  1  0.345143  0.178282  0.254940  1
  O  O18  1  0.345143  0.321718  0.754940  1
  O  O19  1  0.654857  0.821718  0.745060  1
  O  O20  1  0.665382  0.413442  0.116280  1
  O  O21  1  0.334618  0.913442  0.383720  1
  O  O22  1  0.334618  0.586558  0.883720  1
  O  O23  1  0.665382  0.086558  0.616280  1
  O  O24  1  0.369988  0.493214  0.133919  1
  O  O25  1  0.630012  0.993214  0.366081  1
  O  O26  1  0.630012  0.506786  0.866081  1
  O  O27  1  0.369988  0.006786  0.633919  1
  O  O28  1  0.403467  0.028594  0.119790  1
  O  O29  1  0.596533  0.528594  0.380210  1
  O  O30  1  0.596533  0.971406  0.880210  1
  O  O31  1  0.403467  0.471406  0.619790  1
  O  O32  1  0.104105  0.100504  0.463709  1
  O  O33  1  0.895895  0.600504  0.036291  1
  O  O34  1  0.895895  0.899496  0.536291  1
  O  O35  1  0.104105  0.399496  0.963709  1
  O  O36  1  0.937090  0.946006  0.301421  1
  O  O37  1  0.062910  0.446006  0.198579  1
  O  O38  1  0.062910  0.053994  0.698579  1
  O  O39  1  0.937090  0.553994  0.801421  1
  O  O40  1  0.898461  0.386699  0.328681  1
  O  O41  1  0.101539  0.886699  0.171319  1
  O  O42  1  0.101539  0.613301  0.671319  1
  O  O43  1  0.898461  0.113301  0.828681  1
  O  O44  1  0.133649  0.603003  0.490302  1
  O  O45  1  0.866351  0.103003  0.009698  1
  O  O46  1  0.866351  0.396997  0.509698  1
  O  O47  1  0.133649  0.896997  0.990302  1
  O  O48  1  0.357620  0.417767  0.444975  1
  O  O49  1  0.642380  0.917767  0.055025  1
  O  O50  1  0.642380  0.582233  0.555025  1
  O  O51  1  0.357620  0.082233  0.944975  1
