# generated using pymatgen
data_Mn2FeO4
_symmetry_space_group_name_H-M   'P 1'
_cell_length_a   6.08749371
_cell_length_b   6.08749371
_cell_length_c   6.08749371
_cell_angle_alpha   119.13588561
_cell_angle_beta   118.19668268
_cell_angle_gamma   92.32786396
_symmetry_Int_Tables_number   1
_chemical_formula_structural   Mn2FeO4
_chemical_formula_sum   'Mn4 Fe2 O8'
_cell_volume   162.57215232
_cell_formula_units_Z   2
loop_
 _symmetry_equiv_pos_site_id
 _symmetry_equiv_pos_as_xyz
  1  'x, y, z'
loop_
 _atom_site_type_symbol
 _atom_site_label
 _atom_site_symmetry_multiplicity
 _atom_site_fract_x
 _atom_site_fract_y
 _atom_site_fract_z
 _atom_site_occupancy
  Mn  Mn0  1  0.879652  0.629652  0.750000  1
  Mn  Mn1  1  0.120348  0.370348  0.250000  1
  Mn  Mn2  1  0.000000  0.000000  0.500000  1
  Mn  Mn3  1  0.500000  1.000000  0.000000  1
  Fe  Fe4  1  0.500000  0.500000  0.000000  1
  Fe  Fe5  1  0.500000  0.000000  0.500000  1
  O  O6  1  0.262614  0.244603  0.981989  1
  O  O7  1  0.262614  0.780625  0.518011  1
  O  O8  1  0.258514  0.233338  0.525175  1
  O  O9  1  0.291837  0.766662  0.025175  1
  O  O10  1  0.708163  0.233338  0.974825  1
  O  O11  1  0.741486  0.766662  0.474825  1
  O  O12  1  0.737386  0.219375  0.481989  1
  O  O13  1  0.737386  0.755397  0.018011  1
