# generated using pymatgen
data_UMo13P9
_symmetry_space_group_name_H-M   'P 1'
_cell_length_a   10.88371730
_cell_length_b   10.88371730
_cell_length_c   3.31508680
_cell_angle_alpha   90.00000000
_cell_angle_beta   90.00000000
_cell_angle_gamma   120.00000000
_symmetry_Int_Tables_number   1
_chemical_formula_structural   UMo13P9
_chemical_formula_sum   'U1 Mo13 P9'
_cell_volume   340.07917715
_cell_formula_units_Z   1
loop_
 _symmetry_equiv_pos_site_id
 _symmetry_equiv_pos_as_xyz
  1  'x, y, z'
loop_
 _atom_site_type_symbol
 _atom_site_label
 _atom_site_symmetry_multiplicity
 _atom_site_fract_x
 _atom_site_fract_y
 _atom_site_fract_z
 _atom_site_occupancy
  U  U0  1  0.666667  0.333333  0.000000  1
  Mo  Mo1  1  0.240900  0.481799  0.500000  1
  Mo  Mo2  1  0.240900  0.759100  0.500000  1
  Mo  Mo3  1  0.526327  0.052655  0.500000  1
  Mo  Mo4  1  0.526327  0.473673  0.500000  1
  Mo  Mo5  1  0.947345  0.473673  0.500000  1
  Mo  Mo6  1  0.994845  0.279221  0.000000  1
  Mo  Mo7  1  0.720779  0.715624  0.000000  1
  Mo  Mo8  1  0.720779  0.005155  0.000000  1
  Mo  Mo9  1  0.994845  0.715624  0.000000  1
  Mo  Mo10  1  0.284376  0.279221  0.000000  1
  Mo  Mo11  1  0.000000  0.000000  0.000000  1
  Mo  Mo12  1  0.518201  0.759100  0.500000  1
  Mo  Mo13  1  0.284376  0.005155  0.000000  1
  P  P14  1  0.412325  0.206162  0.500000  1
  P  P15  1  0.132293  0.566147  0.000000  1
  P  P16  1  0.433853  0.566147  0.000000  1
  P  P17  1  0.433853  0.867707  0.000000  1
  P  P18  1  0.806310  0.903155  0.500000  1
  P  P19  1  0.096845  0.903155  0.500000  1
  P  P20  1  0.096845  0.193690  0.500000  1
  P  P21  1  0.793838  0.206162  0.500000  1
  P  P22  1  0.793838  0.587675  0.500000  1
