# generated using pymatgen
data_Y3Se4
_symmetry_space_group_name_H-M   'P 1'
_cell_length_a   8.13818969
_cell_length_b   8.13818969
_cell_length_c   13.98974409
_cell_angle_alpha   73.59336035
_cell_angle_beta   106.40663965
_cell_angle_gamma   119.52272066
_symmetry_Int_Tables_number   1
_chemical_formula_structural   Y3Se4
_chemical_formula_sum   'Y12 Se16'
_cell_volume   761.93453302
_cell_formula_units_Z   4
loop_
 _symmetry_equiv_pos_site_id
 _symmetry_equiv_pos_as_xyz
  1  'x, y, z'
loop_
 _atom_site_type_symbol
 _atom_site_label
 _atom_site_symmetry_multiplicity
 _atom_site_fract_x
 _atom_site_fract_y
 _atom_site_fract_z
 _atom_site_occupancy
  Y  Y0  1  0.742682  0.739393  0.254182  1
  Y  Y1  1  0.260607  0.257318  0.254182  1
  Y  Y2  1  0.000000  0.000000  0.500000  1
  Y  Y3  1  0.254950  0.745050  0.254414  1
  Y  Y4  1  0.000000  0.500000  0.500000  1
  Y  Y5  1  0.739393  0.742682  0.745818  1
  Y  Y6  1  0.500000  0.000000  0.500000  1
  Y  Y7  1  0.257318  0.260607  0.745818  1
  Y  Y8  1  0.000000  0.000000  0.000000  1
  Y  Y9  1  0.745050  0.254950  0.745586  1
  Y  Y10  1  0.500000  0.000000  0.000000  1
  Y  Y11  1  0.000000  0.500000  0.000000  1
  Se  Se12  1  0.122736  0.372403  0.374467  1
  Se  Se13  1  0.627597  0.877264  0.374467  1
  Se  Se14  1  0.372474  0.627526  0.624477  1
  Se  Se15  1  0.875446  0.124554  0.625655  1
  Se  Se16  1  0.630106  0.882469  0.874513  1
  Se  Se17  1  0.124554  0.875446  0.374345  1
  Se  Se18  1  0.372403  0.122736  0.625533  1
  Se  Se19  1  0.874846  0.125154  0.127764  1
  Se  Se20  1  0.117531  0.369894  0.874513  1
  Se  Se21  1  0.627526  0.372474  0.375523  1
  Se  Se22  1  0.377141  0.622859  0.122349  1
  Se  Se23  1  0.877264  0.627597  0.625533  1
  Se  Se24  1  0.622859  0.377141  0.877651  1
  Se  Se25  1  0.882469  0.630106  0.125487  1
  Se  Se26  1  0.125154  0.874846  0.872236  1
  Se  Se27  1  0.369894  0.117531  0.125487  1
