# generated using pymatgen
data_Tl2Cr2O7
_symmetry_space_group_name_H-M   'P 1'
_cell_length_a   7.53523794
_cell_length_b   7.74458509
_cell_length_c   7.92364110
_cell_angle_alpha   108.10319753
_cell_angle_beta   91.47692696
_cell_angle_gamma   111.17845646
_symmetry_Int_Tables_number   1
_chemical_formula_structural   Tl2Cr2O7
_chemical_formula_sum   'Tl4 Cr4 O14'
_cell_volume   404.82706649
_cell_formula_units_Z   2
loop_
 _symmetry_equiv_pos_site_id
 _symmetry_equiv_pos_as_xyz
  1  'x, y, z'
loop_
 _atom_site_type_symbol
 _atom_site_label
 _atom_site_symmetry_multiplicity
 _atom_site_fract_x
 _atom_site_fract_y
 _atom_site_fract_z
 _atom_site_occupancy
  Tl  Tl0  1  0.309217  0.576442  0.731243  1
  Tl  Tl1  1  0.690783  0.423558  0.268757  1
  Tl  Tl2  1  0.871239  0.991105  0.745525  1
  Tl  Tl3  1  0.128761  0.008895  0.254475  1
  Cr  Cr4  1  0.804101  0.484805  0.755948  1
  Cr  Cr5  1  0.195899  0.515195  0.244052  1
  Cr  Cr6  1  0.415752  0.120566  0.780510  1
  Cr  Cr7  1  0.584248  0.879434  0.219490  1
  O  O8  1  0.472181  0.933797  0.674586  1
  O  O9  1  0.527819  0.066203  0.325414  1
  O  O10  1  0.320947  0.086071  0.955878  1
  O  O11  1  0.679053  0.913929  0.044122  1
  O  O12  1  0.905145  0.350470  0.625338  1
  O  O13  1  0.094855  0.649530  0.374662  1
  O  O14  1  0.630771  0.342690  0.861961  1
  O  O15  1  0.369229  0.657310  0.138039  1
  O  O16  1  0.303181  0.429922  0.364205  1
  O  O17  1  0.696819  0.570078  0.635795  1
  O  O18  1  0.739188  0.855858  0.351761  1
  O  O19  1  0.260812  0.144142  0.648239  1
  O  O20  1  0.028543  0.329832  0.090504  1
  O  O21  1  0.971457  0.670168  0.909496  1
