# generated using pymatgen
data_Al4Mo
_symmetry_space_group_name_H-M   'P 1'
_cell_length_a   9.30282312
_cell_length_b   9.30282312
_cell_length_c   5.23831334
_cell_angle_alpha   87.18352211
_cell_angle_beta   92.81647789
_cell_angle_gamma   32.95174161
_symmetry_Int_Tables_number   1
_chemical_formula_structural   Al4Mo
_chemical_formula_sum   'Al12 Mo3'
_cell_volume   242.85552970
_cell_formula_units_Z   3
loop_
 _symmetry_equiv_pos_site_id
 _symmetry_equiv_pos_as_xyz
  1  'x, y, z'
loop_
 _atom_site_type_symbol
 _atom_site_label
 _atom_site_symmetry_multiplicity
 _atom_site_fract_x
 _atom_site_fract_y
 _atom_site_fract_z
 _atom_site_occupancy
  Al  Al0  1  0.162393  0.837607  0.520090  1
  Al  Al1  1  0.517460  0.482540  0.158848  1
  Al  Al2  1  0.601010  0.245201  0.696182  1
  Al  Al3  1  0.754799  0.398990  0.696182  1
  Al  Al4  1  0.716209  0.048247  0.225772  1
  Al  Al5  1  0.951753  0.283791  0.225772  1
  Al  Al6  1  0.078697  0.675497  0.821955  1
  Al  Al7  1  0.324503  0.921303  0.821955  1
  Al  Al8  1  0.469954  0.059714  0.594788  1
  Al  Al9  1  0.940286  0.530046  0.594788  1
  Al  Al10  1  0.291802  0.208616  0.085291  1
  Al  Al11  1  0.791384  0.708198  0.085291  1
  Mo  Mo12  1  0.006487  0.993513  0.002504  1
  Mo  Mo13  1  0.211313  0.513849  0.343592  1
  Mo  Mo14  1  0.486151  0.788687  0.343592  1
