# generated using pymatgen
data_Ca4Nb2O9
_symmetry_space_group_name_H-M   'P 1'
_cell_length_a   9.94388842
_cell_length_b   5.58739744
_cell_length_c   17.26754345
_cell_angle_alpha   90.00000000
_cell_angle_beta   124.02195804
_cell_angle_gamma   90.00000000
_symmetry_Int_Tables_number   1
_chemical_formula_structural   Ca4Nb2O9
_chemical_formula_sum   'Ca16 Nb8 O36'
_cell_volume   795.16685103
_cell_formula_units_Z   4
loop_
 _symmetry_equiv_pos_site_id
 _symmetry_equiv_pos_as_xyz
  1  'x, y, z'
loop_
 _atom_site_type_symbol
 _atom_site_label
 _atom_site_symmetry_multiplicity
 _atom_site_fract_x
 _atom_site_fract_y
 _atom_site_fract_z
 _atom_site_occupancy
  Ca  Ca0  1  0.500000  0.000000  0.500000  1
  Ca  Ca1  1  0.044754  0.479998  0.890710  1
  Ca  Ca2  1  0.955246  0.979998  0.609290  1
  Ca  Ca3  1  0.955246  0.520002  0.109290  1
  Ca  Ca4  1  0.044754  0.020002  0.390710  1
  Ca  Ca5  1  0.713643  0.001901  0.729892  1
  Ca  Ca6  1  0.286357  0.501901  0.770108  1
  Ca  Ca7  1  0.286357  0.998099  0.270108  1
  Ca  Ca8  1  0.000000  0.000000  0.000000  1
  Ca  Ca9  1  0.713643  0.498099  0.229892  1
  Ca  Ca10  1  0.000000  0.500000  0.500000  1
  Ca  Ca11  1  0.500000  0.500000  0.000000  1
  Ca  Ca12  1  0.621260  0.515314  0.425072  1
  Ca  Ca13  1  0.378740  0.015314  0.074928  1
  Ca  Ca14  1  0.378740  0.484686  0.574928  1
  Ca  Ca15  1  0.621260  0.984686  0.925072  1
  Nb  Nb16  1  0.670794  0.493350  0.838546  1
  Nb  Nb17  1  0.822776  0.011103  0.162329  1
  Nb  Nb18  1  0.177224  0.511103  0.337671  1
  Nb  Nb19  1  0.177224  0.988897  0.837671  1
  Nb  Nb20  1  0.822776  0.488897  0.662329  1
  Nb  Nb21  1  0.670794  0.006650  0.338546  1
  Nb  Nb22  1  0.329206  0.506650  0.161454  1
  Nb  Nb23  1  0.329206  0.993350  0.661454  1
  O  O24  1  0.444596  0.619635  0.106810  1
  O  O25  1  0.555404  0.380365  0.893190  1
  O  O26  1  0.444596  0.880365  0.606810  1
  O  O27  1  0.555404  0.119635  0.393190  1
  O  O28  1  0.124992  0.881784  0.925367  1
  O  O29  1  0.875008  0.381784  0.574633  1
  O  O30  1  0.875008  0.118216  0.074633  1
  O  O31  1  0.124992  0.618216  0.425367  1
  O  O32  1  0.222468  0.094347  0.733745  1
  O  O33  1  0.777532  0.594347  0.766255  1
  O  O34  1  0.777532  0.905653  0.266255  1
  O  O35  1  0.222468  0.405653  0.233745  1
  O  O36  1  0.263450  0.208822  0.403205  1
  O  O37  1  0.736550  0.708822  0.096795  1
  O  O38  1  0.736550  0.791178  0.596795  1
  O  O39  1  0.829246  0.670435  0.949828  1
  O  O40  1  0.521832  0.712752  0.283023  1
  O  O41  1  0.478168  0.212752  0.216977  1
  O  O42  1  0.478168  0.287248  0.716977  1
  O  O43  1  0.521832  0.787248  0.783023  1
  O  O44  1  0.048113  0.800528  0.250284  1
  O  O45  1  0.951887  0.300528  0.249716  1
  O  O46  1  0.951887  0.199472  0.749716  1
  O  O47  1  0.048113  0.699472  0.750284  1
  O  O48  1  0.800914  0.299255  0.370692  1
  O  O49  1  0.199086  0.799255  0.129308  1
  O  O50  1  0.199086  0.700745  0.629308  1
  O  O51  1  0.800914  0.200745  0.870692  1
  O  O52  1  0.381305  0.677894  0.399188  1
  O  O53  1  0.618695  0.177894  0.100812  1
  O  O54  1  0.618695  0.322106  0.600812  1
  O  O55  1  0.381305  0.822106  0.899188  1
  O  O56  1  0.829246  0.829565  0.449828  1
  O  O57  1  0.170754  0.329565  0.050172  1
  O  O58  1  0.170754  0.170435  0.550172  1
  O  O59  1  0.263450  0.291178  0.903205  1
