# generated using pymatgen
data_Mn4Al19
_symmetry_space_group_name_H-M   'P 1'
_cell_length_a   12.71267601
_cell_length_b   12.71267601
_cell_length_c   12.71267601
_cell_angle_alpha   90.00000000
_cell_angle_beta   90.00000000
_cell_angle_gamma   90.00000000
_symmetry_Int_Tables_number   1
_chemical_formula_structural   Mn4Al19
_chemical_formula_sum   'Mn24 Al114'
_cell_volume   2054.52266495
_cell_formula_units_Z   6
loop_
 _symmetry_equiv_pos_site_id
 _symmetry_equiv_pos_as_xyz
  1  'x, y, z'
loop_
 _atom_site_type_symbol
 _atom_site_label
 _atom_site_symmetry_multiplicity
 _atom_site_fract_x
 _atom_site_fract_y
 _atom_site_fract_z
 _atom_site_occupancy
  Mn  Mn0  1  0.327709  0.202787  0.000000  1
  Mn  Mn1  1  0.000000  0.327709  0.202787  1
  Mn  Mn2  1  0.202787  0.000000  0.327709  1
  Mn  Mn3  1  0.797213  0.000000  0.327709  1
  Mn  Mn4  1  0.000000  0.672291  0.797213  1
  Mn  Mn5  1  0.797213  0.000000  0.672291  1
  Mn  Mn6  1  0.000000  0.672291  0.202787  1
  Mn  Mn7  1  0.000000  0.327709  0.797213  1
  Mn  Mn8  1  0.202787  0.000000  0.672291  1
  Mn  Mn9  1  0.327709  0.797213  0.000000  1
  Mn  Mn10  1  0.672291  0.202787  0.000000  1
  Mn  Mn11  1  0.672291  0.797213  0.000000  1
  Mn  Mn12  1  0.175124  0.296991  0.500000  1
  Mn  Mn13  1  0.500000  0.175124  0.296991  1
  Mn  Mn14  1  0.296991  0.500000  0.175124  1
  Mn  Mn15  1  0.703009  0.500000  0.175124  1
  Mn  Mn16  1  0.500000  0.824876  0.703009  1
  Mn  Mn17  1  0.703009  0.500000  0.824876  1
  Mn  Mn18  1  0.500000  0.824876  0.296991  1
  Mn  Mn19  1  0.500000  0.175124  0.703009  1
  Mn  Mn20  1  0.296991  0.500000  0.824876  1
  Mn  Mn21  1  0.175124  0.703009  0.500000  1
  Mn  Mn22  1  0.824876  0.296991  0.500000  1
  Mn  Mn23  1  0.824876  0.703009  0.500000  1
  Al  Al24  1  0.362522  0.000000  0.000000  1
  Al  Al25  1  0.000000  0.362522  0.000000  1
  Al  Al26  1  0.000000  0.000000  0.362522  1
  Al  Al27  1  0.000000  0.637478  0.000000  1
  Al  Al28  1  0.000000  0.000000  0.637478  1
  Al  Al29  1  0.637478  0.000000  0.000000  1
  Al  Al30  1  0.118546  0.500000  0.500000  1
  Al  Al31  1  0.500000  0.118546  0.500000  1
  Al  Al32  1  0.500000  0.500000  0.118546  1
  Al  Al33  1  0.500000  0.881454  0.500000  1
  Al  Al34  1  0.500000  0.500000  0.881454  1
  Al  Al35  1  0.881454  0.500000  0.500000  1
  Al  Al36  1  0.301180  0.000000  0.500000  1
  Al  Al37  1  0.500000  0.301180  0.000000  1
  Al  Al38  1  0.000000  0.500000  0.301180  1
  Al  Al39  1  0.500000  0.698820  0.000000  1
  Al  Al40  1  0.000000  0.500000  0.698820  1
  Al  Al41  1  0.698820  0.000000  0.500000  1
  Al  Al42  1  0.168763  0.105027  0.000000  1
  Al  Al43  1  0.000000  0.168763  0.105027  1
  Al  Al44  1  0.105027  0.000000  0.168763  1
  Al  Al45  1  0.894973  0.000000  0.168763  1
  Al  Al46  1  0.000000  0.831237  0.894973  1
  Al  Al47  1  0.894973  0.000000  0.831237  1
  Al  Al48  1  0.000000  0.831237  0.105027  1
  Al  Al49  1  0.000000  0.168763  0.894973  1
  Al  Al50  1  0.105027  0.000000  0.831237  1
  Al  Al51  1  0.168763  0.894973  0.000000  1
  Al  Al52  1  0.831237  0.105027  0.000000  1
  Al  Al53  1  0.831237  0.894973  0.000000  1
  Al  Al54  1  0.329076  0.395690  0.500000  1
  Al  Al55  1  0.500000  0.329076  0.395690  1
  Al  Al56  1  0.395690  0.500000  0.329076  1
  Al  Al57  1  0.604310  0.500000  0.329076  1
  Al  Al58  1  0.500000  0.670924  0.604310  1
  Al  Al59  1  0.604310  0.500000  0.670924  1
  Al  Al60  1  0.500000  0.670924  0.395690  1
  Al  Al61  1  0.500000  0.329076  0.604310  1
  Al  Al62  1  0.395690  0.500000  0.670924  1
  Al  Al63  1  0.329076  0.604310  0.500000  1
  Al  Al64  1  0.670924  0.395690  0.500000  1
  Al  Al65  1  0.670924  0.604310  0.500000  1
  Al  Al66  1  0.321630  0.403185  0.000000  1
  Al  Al67  1  0.000000  0.321630  0.403185  1
  Al  Al68  1  0.403185  0.000000  0.321630  1
  Al  Al69  1  0.596815  0.000000  0.321630  1
  Al  Al70  1  0.000000  0.678370  0.596815  1
  Al  Al71  1  0.596815  0.000000  0.678370  1
  Al  Al72  1  0.000000  0.678370  0.403185  1
  Al  Al73  1  0.000000  0.321630  0.596815  1
  Al  Al74  1  0.403185  0.000000  0.678370  1
  Al  Al75  1  0.321630  0.596815  0.000000  1
  Al  Al76  1  0.678370  0.403185  0.000000  1
  Al  Al77  1  0.678370  0.596815  0.000000  1
  Al  Al78  1  0.126206  0.110119  0.500000  1
  Al  Al79  1  0.500000  0.126206  0.110119  1
  Al  Al80  1  0.110119  0.500000  0.126206  1
  Al  Al81  1  0.889881  0.500000  0.126206  1
  Al  Al82  1  0.500000  0.873794  0.889881  1
  Al  Al83  1  0.889881  0.500000  0.873794  1
  Al  Al84  1  0.500000  0.873794  0.110119  1
  Al  Al85  1  0.500000  0.126206  0.889881  1
  Al  Al86  1  0.110119  0.500000  0.873794  1
  Al  Al87  1  0.126206  0.889881  0.500000  1
  Al  Al88  1  0.873794  0.110119  0.500000  1
  Al  Al89  1  0.873794  0.889881  0.500000  1
  Al  Al90  1  0.118838  0.185841  0.300390  1
  Al  Al91  1  0.300390  0.118838  0.185841  1
  Al  Al92  1  0.185841  0.300390  0.118838  1
  Al  Al93  1  0.814159  0.699610  0.118838  1
  Al  Al94  1  0.300390  0.881162  0.814159  1
  Al  Al95  1  0.814159  0.300390  0.881162  1
  Al  Al96  1  0.699610  0.881162  0.185841  1
  Al  Al97  1  0.699610  0.118838  0.814159  1
  Al  Al98  1  0.185841  0.699610  0.881162  1
  Al  Al99  1  0.118838  0.814159  0.699610  1
  Al  Al100  1  0.881162  0.185841  0.699610  1
  Al  Al101  1  0.881162  0.814159  0.300390  1
  Al  Al102  1  0.881162  0.814159  0.699610  1
  Al  Al103  1  0.699610  0.881162  0.814159  1
  Al  Al104  1  0.814159  0.699610  0.881162  1
  Al  Al105  1  0.185841  0.300390  0.881162  1
  Al  Al106  1  0.699610  0.118838  0.185841  1
  Al  Al107  1  0.185841  0.699610  0.118838  1
  Al  Al108  1  0.300390  0.118838  0.814159  1
  Al  Al109  1  0.300390  0.881162  0.185841  1
  Al  Al110  1  0.814159  0.300390  0.118838  1
  Al  Al111  1  0.881162  0.185841  0.300390  1
  Al  Al112  1  0.118838  0.814159  0.300390  1
  Al  Al113  1  0.118838  0.185841  0.699610  1
  Al  Al114  1  0.388148  0.315004  0.194276  1
  Al  Al115  1  0.194276  0.388148  0.315004  1
  Al  Al116  1  0.315004  0.194276  0.388148  1
  Al  Al117  1  0.684996  0.805724  0.388148  1
  Al  Al118  1  0.194276  0.611852  0.684996  1
  Al  Al119  1  0.684996  0.194276  0.611852  1
  Al  Al120  1  0.805724  0.611852  0.315004  1
  Al  Al121  1  0.805724  0.388148  0.684996  1
  Al  Al122  1  0.315004  0.805724  0.611852  1
  Al  Al123  1  0.388148  0.684996  0.805724  1
  Al  Al124  1  0.611852  0.315004  0.805724  1
  Al  Al125  1  0.611852  0.684996  0.194276  1
  Al  Al126  1  0.611852  0.684996  0.805724  1
  Al  Al127  1  0.805724  0.611852  0.684996  1
  Al  Al128  1  0.684996  0.805724  0.611852  1
  Al  Al129  1  0.315004  0.194276  0.611852  1
  Al  Al130  1  0.805724  0.388148  0.315004  1
  Al  Al131  1  0.315004  0.805724  0.388148  1
  Al  Al132  1  0.194276  0.388148  0.684996  1
  Al  Al133  1  0.194276  0.611852  0.315004  1
  Al  Al134  1  0.684996  0.194276  0.388148  1
  Al  Al135  1  0.611852  0.315004  0.194276  1
  Al  Al136  1  0.388148  0.684996  0.194276  1
  Al  Al137  1  0.388148  0.315004  0.805724  1
