# generated using pymatgen
data_Sc3FeC4
_symmetry_space_group_name_H-M   'P 1'
_cell_length_a   6.65642683
_cell_length_b   6.65642683
_cell_length_c   6.65642683
_cell_angle_alpha   150.46309176
_cell_angle_beta   141.79976931
_cell_angle_gamma   49.01262504
_symmetry_Int_Tables_number   1
_chemical_formula_structural   Sc3FeC4
_chemical_formula_sum   'Sc3 Fe1 C4'
_cell_volume   89.53994659
_cell_formula_units_Z   1
loop_
 _symmetry_equiv_pos_site_id
 _symmetry_equiv_pos_as_xyz
  1  'x, y, z'
loop_
 _atom_site_type_symbol
 _atom_site_label
 _atom_site_symmetry_multiplicity
 _atom_site_fract_x
 _atom_site_fract_y
 _atom_site_fract_z
 _atom_site_occupancy
  Sc  Sc0  1  0.500000  0.000000  0.500000  1
  Sc  Sc1  1  0.188500  0.188500  0.000000  1
  Sc  Sc2  1  0.811500  0.811500  0.000000  1
  Fe  Fe3  1  0.000000  0.500000  0.500000  1
  C  C4  1  0.210283  0.376084  0.834199  1
  C  C5  1  0.789717  0.623916  0.165801  1
  C  C6  1  0.458115  0.623916  0.834199  1
  C  C7  1  0.541885  0.376084  0.165801  1
