# generated using pymatgen
data_KFeS2
_symmetry_space_group_name_H-M   'P 1'
_cell_length_a   6.64715620
_cell_length_b   6.64715620
_cell_length_c   5.37102017
_cell_angle_alpha   78.46385182
_cell_angle_beta   101.53614818
_cell_angle_gamma   63.76597991
_symmetry_Int_Tables_number   1
_chemical_formula_structural   KFeS2
_chemical_formula_sum   'K2 Fe2 S4'
_cell_volume   197.02369828
_cell_formula_units_Z   2
loop_
 _symmetry_equiv_pos_site_id
 _symmetry_equiv_pos_as_xyz
  1  'x, y, z'
loop_
 _atom_site_type_symbol
 _atom_site_label
 _atom_site_symmetry_multiplicity
 _atom_site_fract_x
 _atom_site_fract_y
 _atom_site_fract_z
 _atom_site_occupancy
  K  K0  1  0.641882  0.641882  0.250000  1
  K  K1  1  0.358118  0.358118  0.750000  1
  Fe  Fe2  1  0.997920  0.997920  0.750000  1
  Fe  Fe3  1  0.002080  0.002080  0.250000  1
  S  S4  1  0.296671  0.915566  0.597242  1
  S  S5  1  0.915566  0.296671  0.902758  1
  S  S6  1  0.084434  0.703329  0.097242  1
  S  S7  1  0.703329  0.084434  0.402758  1
