# generated using pymatgen
data_Rb2Bi8Se13
_symmetry_space_group_name_H-M   'P 1'
_cell_length_a   13.89366320
_cell_length_b   4.22101778
_cell_length_c   25.28277362
_cell_angle_alpha   90.00000000
_cell_angle_beta   96.63142020
_cell_angle_gamma   90.00000000
_symmetry_Int_Tables_number   1
_chemical_formula_structural   Rb2Bi8Se13
_chemical_formula_sum   'Rb4 Bi16 Se26'
_cell_volume   1472.79835755
_cell_formula_units_Z   2
loop_
 _symmetry_equiv_pos_site_id
 _symmetry_equiv_pos_as_xyz
  1  'x, y, z'
loop_
 _atom_site_type_symbol
 _atom_site_label
 _atom_site_symmetry_multiplicity
 _atom_site_fract_x
 _atom_site_fract_y
 _atom_site_fract_z
 _atom_site_occupancy
  Rb  Rb0  1  0.418673  0.750000  0.880992  1
  Rb  Rb1  1  0.581327  0.250000  0.119008  1
  Rb  Rb2  1  0.277193  0.250000  0.638278  1
  Rb  Rb3  1  0.722807  0.750000  0.361722  1
  Bi  Bi4  1  0.571609  0.250000  0.563689  1
  Bi  Bi5  1  0.428391  0.750000  0.436311  1
  Bi  Bi6  1  0.809136  0.250000  0.830671  1
  Bi  Bi7  1  0.190864  0.750000  0.169329  1
  Bi  Bi8  1  0.046349  0.750000  0.929984  1
  Bi  Bi9  1  0.953651  0.250000  0.070016  1
  Bi  Bi10  1  0.883387  0.750000  0.692402  1
  Bi  Bi11  1  0.116613  0.250000  0.307598  1
  Bi  Bi12  1  0.563600  0.750000  0.732470  1
  Bi  Bi13  1  0.436400  0.250000  0.267530  1
  Bi  Bi14  1  0.722780  0.750000  0.967911  1
  Bi  Bi15  1  0.277220  0.250000  0.032089  1
  Bi  Bi16  1  0.124998  0.250000  0.787598  1
  Bi  Bi17  1  0.875002  0.750000  0.212402  1
  Bi  Bi18  1  0.950065  0.250000  0.559524  1
  Bi  Bi19  1  0.049935  0.750000  0.440476  1
  Se  Se20  1  0.387810  0.250000  0.512201  1
  Se  Se21  1  0.612190  0.750000  0.487799  1
  Se  Se22  1  0.483609  0.750000  0.627372  1
  Se  Se23  1  0.516391  0.250000  0.372628  1
  Se  Se24  1  0.446499  0.250000  0.761150  1
  Se  Se25  1  0.553501  0.750000  0.238850  1
  Se  Se26  1  0.741058  0.250000  0.720327  1
  Se  Se27  1  0.258942  0.750000  0.279673  1
  Se  Se28  1  0.676532  0.750000  0.854037  1
  Se  Se29  1  0.323468  0.250000  0.145963  1
  Se  Se30  1  0.593244  0.250000  0.978759  1
  Se  Se31  1  0.406756  0.750000  0.021241  1
  Se  Se32  1  0.896505  0.250000  0.951581  1
  Se  Se33  1  0.103495  0.750000  0.048419  1
  Se  Se34  1  0.185220  0.250000  0.912194  1
  Se  Se35  1  0.814780  0.750000  0.087806  1
  Se  Se36  1  0.246402  0.750000  0.764862  1
  Se  Se37  1  0.753598  0.250000  0.235138  1
  Se  Se38  1  0.963301  0.750000  0.817543  1
  Se  Se39  1  0.036699  0.250000  0.182457  1
  Se  Se40  1  0.900755  0.250000  0.449054  1
  Se  Se41  1  0.099245  0.750000  0.550946  1
  Se  Se42  1  0.190209  0.250000  0.414434  1
  Se  Se43  1  0.809791  0.750000  0.585566  1
  Se  Se44  1  0.973471  0.750000  0.319253  1
  Se  Se45  1  0.026529  0.250000  0.680747  1
