# generated using pymatgen
data_BaLaI4
_symmetry_space_group_name_H-M   'P 1'
_cell_length_a   9.28414788
_cell_length_b   9.28414788
_cell_length_c   7.56438584
_cell_angle_alpha   72.10839112
_cell_angle_beta   107.89160888
_cell_angle_gamma   68.98578633
_symmetry_Int_Tables_number   1
_chemical_formula_structural   BaLaI4
_chemical_formula_sum   'Ba2 La2 I8'
_cell_volume   511.30242120
_cell_formula_units_Z   2
loop_
 _symmetry_equiv_pos_site_id
 _symmetry_equiv_pos_as_xyz
  1  'x, y, z'
loop_
 _atom_site_type_symbol
 _atom_site_label
 _atom_site_symmetry_multiplicity
 _atom_site_fract_x
 _atom_site_fract_y
 _atom_site_fract_z
 _atom_site_occupancy
  Ba  Ba0  1  0.634307  0.634307  0.250000  1
  Ba  Ba1  1  0.365693  0.365693  0.750000  1
  La  La2  1  0.000704  0.000704  0.750000  1
  La  La3  1  0.999296  0.999296  0.250000  1
  I  I4  1  0.641734  0.232306  0.279820  1
  I  I5  1  0.232306  0.641734  0.220180  1
  I  I6  1  0.358266  0.767694  0.720180  1
  I  I7  1  0.767694  0.358266  0.779820  1
  I  I8  1  0.710917  0.942565  0.915084  1
  I  I9  1  0.942565  0.710917  0.584916  1
  I  I10  1  0.289083  0.057435  0.084916  1
  I  I11  1  0.057435  0.289083  0.415084  1
