# generated using pymatgen
data_Li3Co(PO4)2
_symmetry_space_group_name_H-M   'P 1'
_cell_length_a   8.17499483
_cell_length_b   10.40029797
_cell_length_c   8.27508198
_cell_angle_alpha   90.00000000
_cell_angle_beta   104.60050780
_cell_angle_gamma   90.00000000
_symmetry_Int_Tables_number   1
_chemical_formula_structural   Li3Co(PO4)2
_chemical_formula_sum   'Li12 Co4 P8 O32'
_cell_volume   680.84684220
_cell_formula_units_Z   4
loop_
 _symmetry_equiv_pos_site_id
 _symmetry_equiv_pos_as_xyz
  1  'x, y, z'
loop_
 _atom_site_type_symbol
 _atom_site_label
 _atom_site_symmetry_multiplicity
 _atom_site_fract_x
 _atom_site_fract_y
 _atom_site_fract_z
 _atom_site_occupancy
  Li  Li0  1  0.639918  0.652792  0.915768  1
  Li  Li1  1  0.647825  0.841501  0.405103  1
  Li  Li2  1  0.831551  0.351727  0.093219  1
  Li  Li3  1  0.602420  0.334356  0.341165  1
  Li  Li4  1  0.352175  0.341501  0.594897  1
  Li  Li5  1  0.391428  0.661377  0.151949  1
  Li  Li6  1  0.608572  0.161377  0.848051  1
  Li  Li7  1  0.548538  0.079057  0.534913  1
  Li  Li8  1  0.451462  0.579057  0.465087  1
  Li  Li9  1  0.360082  0.152792  0.084232  1
  Li  Li10  1  0.168449  0.851727  0.906781  1
  Li  Li11  1  0.397580  0.834356  0.658835  1
  Co  Co12  1  0.094258  0.339360  0.837706  1
  Co  Co13  1  0.905742  0.839360  0.162294  1
  Co  Co14  1  0.907799  0.659799  0.660459  1
  Co  Co15  1  0.092201  0.159799  0.339541  1
  P  P16  1  0.277992  0.913292  0.280095  1
  P  P17  1  0.763237  0.898361  0.786490  1
  P  P18  1  0.290114  0.590795  0.780787  1
  P  P19  1  0.709886  0.090795  0.219213  1
  P  P20  1  0.233831  0.095602  0.707452  1
  P  P21  1  0.766169  0.595602  0.292548  1
  P  P22  1  0.236763  0.398361  0.213510  1
  P  P23  1  0.722008  0.413292  0.719905  1
  O  O24  1  0.725963  0.038320  0.738611  1
  O  O25  1  0.383449  0.324317  0.176134  1
  O  O26  1  0.236763  0.444642  0.745764  1
  O  O27  1  0.111439  0.857242  0.316540  1
  O  O28  1  0.316391  0.845284  0.131190  1
  O  O29  1  0.873659  0.166490  0.199514  1
  O  O30  1  0.187941  0.171791  0.856339  1
  O  O31  1  0.254506  0.954141  0.753257  1
  O  O32  1  0.349063  0.643869  0.633342  1
  O  O33  1  0.616551  0.824317  0.823866  1
  O  O34  1  0.922732  0.882261  0.944511  1
  O  O35  1  0.577104  0.103496  0.054597  1
  O  O36  1  0.180120  0.330038  0.363459  1
  O  O37  1  0.390093  0.158511  0.666037  1
  O  O38  1  0.237315  0.061242  0.238974  1
  O  O39  1  0.574971  0.404401  0.560791  1
  O  O40  1  0.126341  0.666490  0.800486  1
  O  O41  1  0.888561  0.357242  0.683460  1
  O  O42  1  0.819880  0.830038  0.636541  1
  O  O43  1  0.745494  0.454141  0.246743  1
  O  O44  1  0.763237  0.944642  0.254236  1
  O  O45  1  0.650937  0.143869  0.366658  1
  O  O46  1  0.079918  0.118600  0.551669  1
  O  O47  1  0.425029  0.904401  0.439209  1
  O  O48  1  0.609907  0.658511  0.333963  1
  O  O49  1  0.762685  0.561242  0.761026  1
  O  O50  1  0.920082  0.618600  0.448331  1
  O  O51  1  0.683609  0.345284  0.868810  1
  O  O52  1  0.812059  0.671791  0.143661  1
  O  O53  1  0.077268  0.382261  0.055489  1
  O  O54  1  0.422896  0.603496  0.945403  1
  O  O55  1  0.274037  0.538320  0.261389  1
