# generated using pymatgen
data_Mg32Al36Ag13
_symmetry_space_group_name_H-M   'P 1'
_cell_length_a   12.58802287
_cell_length_b   12.58802287
_cell_length_c   12.58802287
_cell_angle_alpha   109.47122063
_cell_angle_beta   109.47122063
_cell_angle_gamma   109.47122063
_symmetry_Int_Tables_number   1
_chemical_formula_structural   Mg32Al36Ag13
_chemical_formula_sum   'Mg32 Al36 Ag13'
_cell_volume   1535.50303429
_cell_formula_units_Z   1
loop_
 _symmetry_equiv_pos_site_id
 _symmetry_equiv_pos_as_xyz
  1  'x, y, z'
loop_
 _atom_site_type_symbol
 _atom_site_label
 _atom_site_symmetry_multiplicity
 _atom_site_fract_x
 _atom_site_fract_y
 _atom_site_fract_z
 _atom_site_occupancy
  Mg  Mg0  1  0.624179  0.000000  0.000000  1
  Mg  Mg1  1  0.500000  0.902827  0.402827  1
  Mg  Mg2  1  0.097173  0.597173  0.500000  1
  Mg  Mg3  1  0.597173  0.500000  0.097173  1
  Mg  Mg4  1  0.902827  0.402827  0.500000  1
  Mg  Mg5  1  0.402827  0.500000  0.902827  1
  Mg  Mg6  1  0.500000  0.097173  0.597173  1
  Mg  Mg7  1  0.500000  0.697332  0.197332  1
  Mg  Mg8  1  0.302668  0.802668  0.500000  1
  Mg  Mg9  1  0.802668  0.500000  0.302668  1
  Mg  Mg10  1  0.697332  0.197332  0.500000  1
  Mg  Mg11  1  0.197332  0.500000  0.697332  1
  Mg  Mg12  1  0.500000  0.302668  0.802668  1
  Mg  Mg13  1  0.375821  0.375821  0.375821  1
  Mg  Mg14  1  1.000000  0.624179  0.000000  1
  Mg  Mg15  1  1.000000  0.000000  0.624179  1
  Mg  Mg16  1  0.578494  0.883599  0.694895  1
  Mg  Mg17  1  0.624179  0.624179  0.624179  1
  Mg  Mg18  1  0.000000  0.375821  0.000000  1
  Mg  Mg19  1  1.000000  0.000000  0.375821  1
  Mg  Mg20  1  0.375821  0.000000  0.000000  1
  Mg  Mg21  1  0.188705  0.883599  0.305105  1
  Mg  Mg22  1  0.811295  0.116401  0.694895  1
  Mg  Mg23  1  0.116401  0.305105  0.421506  1
  Mg  Mg24  1  0.305105  0.421506  0.116401  1
  Mg  Mg25  1  0.694895  0.578494  0.883599  1
  Mg  Mg26  1  0.883599  0.305105  0.188705  1
  Mg  Mg27  1  0.694895  0.811295  0.116401  1
  Mg  Mg28  1  0.883599  0.694895  0.578494  1
  Mg  Mg29  1  0.305105  0.188705  0.883599  1
  Mg  Mg30  1  0.116401  0.694895  0.811295  1
  Mg  Mg31  1  0.421506  0.116401  0.305105  1
  Al  Al32  1  0.593868  0.243629  0.029448  1
  Al  Al33  1  0.214181  0.564421  0.970552  1
  Al  Al34  1  0.785819  0.756371  0.350240  1
  Al  Al35  1  0.435579  0.649760  0.406132  1
  Al  Al36  1  0.649760  0.406132  0.435579  1
  Al  Al37  1  0.029448  0.593868  0.243629  1
  Al  Al38  1  0.564421  0.970552  0.214181  1
  Al  Al39  1  0.350240  0.785819  0.756371  1
  Al  Al40  1  0.243629  0.029448  0.593868  1
  Al  Al41  1  0.970552  0.214181  0.564421  1
  Al  Al42  1  0.756371  0.350240  0.785819  1
  Al  Al43  1  0.406132  0.435579  0.649760  1
  Al  Al44  1  0.406132  0.756371  0.970552  1
  Al  Al45  1  0.940621  0.842119  0.098502  1
  Al  Al46  1  0.059379  0.157881  0.901498  1
  Al  Al47  1  0.157881  0.098502  0.256383  1
  Al  Al48  1  0.098502  0.256383  0.157881  1
  Al  Al49  1  0.901498  0.743617  0.842119  1
  Al  Al50  1  0.842119  0.098502  0.940621  1
  Al  Al51  1  0.901498  0.059379  0.157881  1
  Al  Al52  1  0.842119  0.901498  0.743617  1
  Al  Al53  1  0.098502  0.940621  0.842119  1
  Al  Al54  1  0.157881  0.901498  0.059379  1
  Al  Al55  1  0.256383  0.157881  0.098502  1
  Al  Al56  1  0.743617  0.842119  0.901498  1
  Al  Al57  1  0.593868  0.564421  0.350240  1
  Al  Al58  1  0.243629  0.649760  0.214181  1
  Al  Al59  1  0.029448  0.785819  0.435579  1
  Al  Al60  1  0.785819  0.435579  0.029448  1
  Al  Al61  1  0.649760  0.214181  0.243629  1
  Al  Al62  1  0.435579  0.029448  0.785819  1
  Al  Al63  1  0.970552  0.406132  0.756371  1
  Al  Al64  1  0.350240  0.593868  0.564421  1
  Al  Al65  1  0.564421  0.350240  0.593868  1
  Al  Al66  1  0.214181  0.243629  0.649760  1
  Al  Al67  1  0.756371  0.970552  0.406132  1
  Ag  Ag68  1  0.509013  0.685266  0.823747  1
  Ag  Ag69  1  0.861518  0.685266  0.176253  1
  Ag  Ag70  1  0.138482  0.314734  0.823747  1
  Ag  Ag71  1  0.314734  0.176253  0.490987  1
  Ag  Ag72  1  0.176253  0.490987  0.314734  1
  Ag  Ag73  1  0.823747  0.509013  0.685266  1
  Ag  Ag74  1  0.685266  0.176253  0.861518  1
  Ag  Ag75  1  0.823747  0.138482  0.314734  1
  Ag  Ag76  1  0.685266  0.823747  0.509013  1
  Ag  Ag77  1  0.176253  0.861518  0.685266  1
  Ag  Ag78  1  0.314734  0.823747  0.138482  1
  Ag  Ag79  1  0.490987  0.314734  0.176253  1
  Ag  Ag80  1  1.000000  1.000000  0.000000  1
