# generated using pymatgen
data_BaLaTiCrO6
_symmetry_space_group_name_H-M   'P 1'
_cell_length_a   3.98400865
_cell_length_b   5.65729575
_cell_length_c   22.44184727
_cell_angle_alpha   90.00000000
_cell_angle_beta   90.00000000
_cell_angle_gamma   90.00000000
_symmetry_Int_Tables_number   1
_chemical_formula_structural   BaLaTiCrO6
_chemical_formula_sum   'Ba4 La4 Ti4 Cr4 O24'
_cell_volume   505.81040426
_cell_formula_units_Z   4
loop_
 _symmetry_equiv_pos_site_id
 _symmetry_equiv_pos_as_xyz
  1  'x, y, z'
loop_
 _atom_site_type_symbol
 _atom_site_label
 _atom_site_symmetry_multiplicity
 _atom_site_fract_x
 _atom_site_fract_y
 _atom_site_fract_z
 _atom_site_occupancy
  Ba  Ba0  1  0.000000  0.750000  0.808097  1
  Ba  Ba1  1  0.000000  0.250000  0.935977  1
  Ba  Ba2  1  0.000000  0.750000  0.064023  1
  Ba  Ba3  1  0.000000  0.250000  0.191903  1
  La  La4  1  0.000000  0.750000  0.319467  1
  La  La5  1  0.000000  0.750000  0.563350  1
  La  La6  1  0.000000  0.250000  0.436650  1
  La  La7  1  0.000000  0.250000  0.680533  1
  Ti  Ti8  1  0.500000  0.750000  0.935949  1
  Ti  Ti9  1  0.500000  0.750000  0.192933  1
  Ti  Ti10  1  0.500000  0.250000  0.064051  1
  Ti  Ti11  1  0.500000  0.250000  0.807067  1
  Cr  Cr12  1  0.500000  0.750000  0.439132  1
  Cr  Cr13  1  0.500000  0.250000  0.315792  1
  Cr  Cr14  1  0.500000  0.250000  0.560868  1
  Cr  Cr15  1  0.500000  0.750000  0.684208  1
  O  O16  1  0.500000  0.500652  0.871936  1
  O  O17  1  0.500000  0.000000  0.000000  1
  O  O18  1  0.500000  0.499348  0.128064  1
  O  O19  1  0.500000  0.500368  0.377254  1
  O  O20  1  0.500000  0.985711  0.256203  1
  O  O21  1  0.500000  0.000000  0.500000  1
  O  O22  1  0.500000  0.499632  0.622746  1
  O  O23  1  0.500000  0.014289  0.743797  1
  O  O24  1  0.500000  0.999348  0.871936  1
  O  O25  1  0.500000  0.500000  0.000000  1
  O  O26  1  0.500000  0.000652  0.128064  1
  O  O27  1  0.500000  0.514289  0.256203  1
  O  O28  1  0.500000  0.999632  0.377254  1
  O  O29  1  0.500000  0.000368  0.622746  1
  O  O30  1  0.500000  0.500000  0.500000  1
  O  O31  1  0.500000  0.485711  0.743797  1
  O  O32  1  0.000000  0.750000  0.936281  1
  O  O33  1  0.000000  0.250000  0.063719  1
  O  O34  1  0.000000  0.750000  0.195214  1
  O  O35  1  0.000000  0.250000  0.323347  1
  O  O36  1  0.000000  0.750000  0.435914  1
  O  O37  1  0.000000  0.250000  0.564086  1
  O  O38  1  0.000000  0.750000  0.676653  1
  O  O39  1  0.000000  0.250000  0.804786  1
