# generated using pymatgen
data_K4Ge9O20
_symmetry_space_group_name_H-M   'P 1'
_cell_length_a   11.92853459
_cell_length_b   11.92853459
_cell_length_c   11.92853459
_cell_angle_alpha   95.88611239
_cell_angle_beta   95.88611239
_cell_angle_gamma   142.64554073
_symmetry_Int_Tables_number   1
_chemical_formula_structural   K4Ge9O20
_chemical_formula_sum   'K8 Ge18 O40'
_cell_volume   975.59982490
_cell_formula_units_Z   2
loop_
 _symmetry_equiv_pos_site_id
 _symmetry_equiv_pos_as_xyz
  1  'x, y, z'
loop_
 _atom_site_type_symbol
 _atom_site_label
 _atom_site_symmetry_multiplicity
 _atom_site_fract_x
 _atom_site_fract_y
 _atom_site_fract_z
 _atom_site_occupancy
  K  K0  1  0.410326  0.803581  0.779219  1
  K  K1  1  0.881107  0.160326  0.106745  1
  K  K2  1  0.053581  0.774361  0.893255  1
  K  K3  1  0.024361  0.631107  0.220781  1
  K  K4  1  0.839674  0.946419  0.720781  1
  K  K5  1  0.368893  0.589674  0.393255  1
  K  K6  1  0.196419  0.975639  0.606745  1
  K  K7  1  0.225639  0.118893  0.279219  1
  Ge  Ge8  1  0.666978  0.501014  0.551732  1
  Ge  Ge9  1  0.583022  0.248986  0.948268  1
  Ge  Ge10  1  0.300717  0.634754  0.051732  1
  Ge  Ge11  1  0.884754  0.333022  0.834037  1
  Ge  Ge12  1  0.751014  0.699283  0.334037  1
  Ge  Ge13  1  0.498986  0.050717  0.165963  1
  Ge  Ge14  1  0.949283  0.115246  0.448268  1
  Ge  Ge15  1  0.365246  0.416978  0.665963  1
  Ge  Ge16  1  0.524507  0.140315  0.431633  1
  Ge  Ge17  1  0.342874  0.274507  0.884192  1
  Ge  Ge18  1  0.390315  0.458682  0.115808  1
  Ge  Ge19  1  0.708682  0.092874  0.568367  1
  Ge  Ge20  1  0.725493  0.609685  0.068367  1
  Ge  Ge21  1  0.907126  0.475493  0.615808  1
  Ge  Ge22  1  0.859685  0.291318  0.384192  1
  Ge  Ge23  1  0.541318  0.657126  0.931633  1
  Ge  Ge24  1  0.250000  0.750000  0.500000  1
  Ge  Ge25  1  0.000000  0.000000  0.000000  1
  O  O26  1  0.326620  0.796432  0.122746  1
  O  O27  1  0.673686  0.203874  0.877254  1
  O  O28  1  0.923380  0.953568  0.377254  1
  O  O29  1  0.796126  0.673380  0.469812  1
  O  O30  1  0.203568  0.326314  0.530188  1
  O  O31  1  0.576314  0.546126  0.622746  1
  O  O32  1  0.472073  0.250959  0.475848  1
  O  O33  1  0.246225  0.222073  0.721114  1
  O  O34  1  0.418289  0.073906  0.268704  1
  O  O35  1  0.399586  0.168289  0.844384  1
  O  O36  1  0.323906  0.555202  0.155616  1
  O  O37  1  0.805202  0.149586  0.731296  1
  O  O38  1  0.831711  0.676094  0.231296  1
  O  O39  1  0.850414  0.581711  0.655616  1
  O  O40  1  0.926094  0.194798  0.344384  1
  O  O41  1  0.444798  0.600414  0.768704  1
  O  O42  1  0.151668  0.212464  0.117813  1
  O  O43  1  0.453874  0.076620  0.030188  1
  O  O44  1  0.787536  0.905350  0.939205  1
  O  O45  1  0.098332  0.537536  0.382187  1
  O  O46  1  0.155350  0.716145  0.617813  1
  O  O47  1  0.966145  0.848332  0.060795  1
  O  O48  1  0.462464  0.844650  0.560795  1
  O  O49  1  0.500959  0.525112  0.278886  1
  O  O50  1  0.094650  0.033855  0.882187  1
  O  O51  1  0.283855  0.901668  0.439205  1
  O  O52  1  0.302006  0.401993  0.942432  1
  O  O53  1  0.609574  0.052006  0.400013  1
  O  O54  1  0.651993  0.209561  0.599987  1
  O  O55  1  0.459561  0.359574  0.057568  1
  O  O56  1  0.947994  0.348007  0.557568  1
  O  O57  1  0.640426  0.697994  0.099987  1
  O  O58  1  0.598007  0.540439  0.900013  1
  O  O59  1  0.790439  0.390426  0.442432  1
  O  O60  1  0.474888  0.753775  0.975848  1
  O  O61  1  0.749041  0.224888  0.221114  1
  O  O62  1  0.003775  0.527927  0.778886  1
  O  O63  1  0.777927  0.499041  0.024152  1
  O  O64  1  0.775112  0.996225  0.524152  1
  O  O65  1  0.046432  0.423686  0.969812  1
