# generated using pymatgen
data_PuBe13
_symmetry_space_group_name_H-M   'P 1'
_cell_length_a   7.21700885
_cell_length_b   7.21700885
_cell_length_c   7.21700885
_cell_angle_alpha   60.00000000
_cell_angle_beta   60.00000000
_cell_angle_gamma   60.00000000
_symmetry_Int_Tables_number   1
_chemical_formula_structural   PuBe13
_chemical_formula_sum   'Pu2 Be26'
_cell_volume   265.80106466
_cell_formula_units_Z   2
loop_
 _symmetry_equiv_pos_site_id
 _symmetry_equiv_pos_as_xyz
  1  'x, y, z'
loop_
 _atom_site_type_symbol
 _atom_site_label
 _atom_site_symmetry_multiplicity
 _atom_site_fract_x
 _atom_site_fract_y
 _atom_site_fract_z
 _atom_site_occupancy
  Pu  Pu0  1  0.750000  0.750000  0.750000  1
  Pu  Pu1  1  0.250000  0.250000  0.250000  1
  Be  Be2  1  0.000000  0.000000  0.000000  1
  Be  Be3  1  0.500000  0.500000  0.500000  1
  Be  Be4  1  0.061444  0.290706  0.709294  1
  Be  Be5  1  0.561444  0.790706  0.438556  1
  Be  Be6  1  0.790706  0.561444  0.209294  1
  Be  Be7  1  0.209294  0.561444  0.438556  1
  Be  Be8  1  0.790706  0.438556  0.561444  1
  Be  Be9  1  0.209294  0.790706  0.561444  1
  Be  Be10  1  0.561444  0.438556  0.209294  1
  Be  Be11  1  0.709294  0.290706  0.938556  1
  Be  Be12  1  0.938556  0.290706  0.061444  1
  Be  Be13  1  0.709294  0.061444  0.290706  1
  Be  Be14  1  0.290706  0.709294  0.061444  1
  Be  Be15  1  0.061444  0.938556  0.290706  1
  Be  Be16  1  0.061444  0.709294  0.938556  1
  Be  Be17  1  0.938556  0.061444  0.709294  1
  Be  Be18  1  0.290706  0.938556  0.709294  1
  Be  Be19  1  0.438556  0.790706  0.209294  1
  Be  Be20  1  0.209294  0.438556  0.790706  1
  Be  Be21  1  0.438556  0.561444  0.790706  1
  Be  Be22  1  0.790706  0.209294  0.438556  1
  Be  Be23  1  0.438556  0.209294  0.561444  1
  Be  Be24  1  0.561444  0.209294  0.790706  1
  Be  Be25  1  0.290706  0.061444  0.938556  1
  Be  Be26  1  0.938556  0.709294  0.290706  1
  Be  Be27  1  0.709294  0.938556  0.061444  1
