# generated using pymatgen
data_In10Sb9Te
_symmetry_space_group_name_H-M   'P 1'
_cell_length_a   7.47403903
_cell_length_b   8.69916207
_cell_length_c   9.77023580
_cell_angle_alpha   101.87747585
_cell_angle_beta   96.82771993
_cell_angle_gamma   107.01606133
_symmetry_Int_Tables_number   1
_chemical_formula_structural   In10Sb9Te
_chemical_formula_sum   'In10 Sb9 Te1'
_cell_volume   583.43456490
_cell_formula_units_Z   1
loop_
 _symmetry_equiv_pos_site_id
 _symmetry_equiv_pos_as_xyz
  1  'x, y, z'
loop_
 _atom_site_type_symbol
 _atom_site_label
 _atom_site_symmetry_multiplicity
 _atom_site_fract_x
 _atom_site_fract_y
 _atom_site_fract_z
 _atom_site_occupancy
  In  In0  1  0.900183  0.549437  0.800285  1
  In  In1  1  0.699477  0.151784  0.399534  1
  In  In2  1  0.500393  0.750233  0.999955  1
  In  In3  1  0.696005  0.647119  0.399078  1
  In  In4  1  0.303995  0.352881  0.600922  1
  In  In5  1  0.102901  0.949570  0.197220  1
  In  In6  1  0.499607  0.249767  0.000045  1
  In  In7  1  0.300523  0.848216  0.600466  1
  In  In8  1  0.099817  0.450563  0.199715  1
  In  In9  1  0.897099  0.050430  0.802780  1
  Sb  Sb10  1  0.801446  0.602163  0.103401  1
  Sb  Sb11  1  0.599393  0.199231  0.698360  1
  Sb  Sb12  1  0.400607  0.800769  0.301640  1
  Sb  Sb13  1  0.799447  0.099643  0.103854  1
  Sb  Sb14  1  0.198554  0.397837  0.896599  1
  Sb  Sb15  1  0.606113  0.703262  0.700061  1
  Sb  Sb16  1  0.393887  0.296738  0.299939  1
  Sb  Sb17  1  0.200553  0.900357  0.896146  1
  Sb  Sb18  1  0.000000  0.500000  0.500000  1
  Te  Te19  1  0.000000  0.000000  0.500000  1
