# generated using pymatgen
data_Li2Fe3(P2O7)2
_symmetry_space_group_name_H-M   'P 1'
_cell_length_a   7.40709153
_cell_length_b   7.93307859
_cell_length_c   9.68414241
_cell_angle_alpha   90.00000000
_cell_angle_beta   110.21270603
_cell_angle_gamma   90.00000000
_symmetry_Int_Tables_number   1
_chemical_formula_structural   Li2Fe3(P2O7)2
_chemical_formula_sum   'Li4 Fe6 P8 O28'
_cell_volume   534.00612247
_cell_formula_units_Z   2
loop_
 _symmetry_equiv_pos_site_id
 _symmetry_equiv_pos_as_xyz
  1  'x, y, z'
loop_
 _atom_site_type_symbol
 _atom_site_label
 _atom_site_symmetry_multiplicity
 _atom_site_fract_x
 _atom_site_fract_y
 _atom_site_fract_z
 _atom_site_occupancy
  Li  Li0  1  0.295621  0.917980  0.360910  1
  Li  Li1  1  0.704379  0.082020  0.639090  1
  Li  Li2  1  0.295621  0.582020  0.860910  1
  Li  Li3  1  0.704379  0.417980  0.139090  1
  Fe  Fe4  1  0.193322  0.876909  0.021629  1
  Fe  Fe5  1  0.806678  0.123091  0.978371  1
  Fe  Fe6  1  0.193322  0.623091  0.521629  1
  Fe  Fe7  1  0.806678  0.376909  0.478371  1
  Fe  Fe8  1  0.000000  0.000000  0.500000  1
  Fe  Fe9  1  0.000000  0.500000  0.000000  1
  P  P10  1  0.596926  0.449859  0.717805  1
  P  P11  1  0.119264  0.205914  0.805927  1
  P  P12  1  0.403074  0.550141  0.282195  1
  P  P13  1  0.119264  0.294086  0.305927  1
  P  P14  1  0.880736  0.794086  0.194073  1
  P  P15  1  0.403074  0.949859  0.782195  1
  P  P16  1  0.596926  0.050141  0.217805  1
  P  P17  1  0.880736  0.705914  0.694073  1
  O  O18  1  0.008267  0.790192  0.358952  1
  O  O19  1  0.388401  0.495362  0.700245  1
  O  O20  1  0.843193  0.876833  0.618585  1
  O  O21  1  0.611599  0.995362  0.799755  1
  O  O22  1  0.156807  0.376833  0.881415  1
  O  O23  1  0.717406  0.391589  0.875184  1
  O  O24  1  0.282594  0.608411  0.124816  1
  O  O25  1  0.156807  0.123167  0.381415  1
  O  O26  1  0.677954  0.866241  0.191082  1
  O  O27  1  0.322046  0.133759  0.808918  1
  O  O28  1  0.282594  0.891589  0.624816  1
  O  O29  1  0.964432  0.581452  0.609965  1
  O  O30  1  0.991733  0.209808  0.641048  1
  O  O31  1  0.991733  0.290192  0.141048  1
  O  O32  1  0.611599  0.504638  0.299755  1
  O  O33  1  0.381703  0.671530  0.398042  1
  O  O34  1  0.381703  0.828470  0.898042  1
  O  O35  1  0.035568  0.418548  0.390035  1
  O  O36  1  0.008267  0.709808  0.858952  1
  O  O37  1  0.322046  0.366241  0.308918  1
  O  O38  1  0.677954  0.633759  0.691082  1
  O  O39  1  0.964432  0.918548  0.109965  1
  O  O40  1  0.843193  0.623167  0.118585  1
  O  O41  1  0.035568  0.081452  0.890035  1
  O  O42  1  0.388401  0.004638  0.200245  1
  O  O43  1  0.618297  0.171530  0.101958  1
  O  O44  1  0.618297  0.328470  0.601958  1
  O  O45  1  0.717406  0.108411  0.375184  1
