# generated using pymatgen
data_Y2Sn5Rh3
_symmetry_space_group_name_H-M   'P 1'
_cell_length_a   13.49043771
_cell_length_b   13.49043771
_cell_length_c   7.24563408
_cell_angle_alpha   90.00000000
_cell_angle_beta   90.00000000
_cell_angle_gamma   160.95953568
_symmetry_Int_Tables_number   1
_chemical_formula_structural   Y2Sn5Rh3
_chemical_formula_sum   'Y4 Sn10 Rh6'
_cell_volume   430.18983003
_cell_formula_units_Z   2
loop_
 _symmetry_equiv_pos_site_id
 _symmetry_equiv_pos_as_xyz
  1  'x, y, z'
loop_
 _atom_site_type_symbol
 _atom_site_label
 _atom_site_symmetry_multiplicity
 _atom_site_fract_x
 _atom_site_fract_y
 _atom_site_fract_z
 _atom_site_occupancy
  Y  Y0  1  0.523544  0.476456  0.762387  1
  Y  Y1  1  0.828157  0.171843  0.742974  1
  Y  Y2  1  0.476456  0.523544  0.262387  1
  Y  Y3  1  0.171843  0.828157  0.242974  1
  Sn  Sn4  1  0.294997  0.705003  0.450970  1
  Sn  Sn5  1  0.403345  0.596655  0.890586  1
  Sn  Sn6  1  0.952422  0.047578  0.597862  1
  Sn  Sn7  1  0.047578  0.952422  0.097862  1
  Sn  Sn8  1  0.290185  0.709815  0.022607  1
  Sn  Sn9  1  0.709815  0.290185  0.522607  1
  Sn  Sn10  1  0.705003  0.294997  0.950970  1
  Sn  Sn11  1  0.120257  0.879743  0.766164  1
  Sn  Sn12  1  0.879743  0.120257  0.266164  1
  Sn  Sn13  1  0.596655  0.403345  0.390586  1
  Rh  Rh14  1  0.605958  0.394042  0.017440  1
  Rh  Rh15  1  0.222763  0.777237  0.734778  1
  Rh  Rh16  1  0.777237  0.222763  0.234778  1
  Rh  Rh17  1  0.949851  0.050149  0.982332  1
  Rh  Rh18  1  0.394042  0.605958  0.517440  1
  Rh  Rh19  1  0.050149  0.949851  0.482332  1
