# generated using pymatgen
data_Ba2Cr7O14
_symmetry_space_group_name_H-M   'P 1'
_cell_length_a   9.95558506
_cell_length_b   9.95558506
_cell_length_c   9.95558506
_cell_angle_alpha   34.39628488
_cell_angle_beta   34.39628488
_cell_angle_gamma   34.39628488
_symmetry_Int_Tables_number   1
_chemical_formula_structural   Ba2Cr7O14
_chemical_formula_sum   'Ba2 Cr7 O14'
_cell_volume   280.87508445
_cell_formula_units_Z   1
loop_
 _symmetry_equiv_pos_site_id
 _symmetry_equiv_pos_as_xyz
  1  'x, y, z'
loop_
 _atom_site_type_symbol
 _atom_site_label
 _atom_site_symmetry_multiplicity
 _atom_site_fract_x
 _atom_site_fract_y
 _atom_site_fract_z
 _atom_site_occupancy
  Ba  Ba0  1  0.289052  0.289052  0.289052  1
  Ba  Ba1  1  0.710948  0.710948  0.710948  1
  Cr  Cr2  1  0.062126  0.062126  0.062126  1
  Cr  Cr3  1  0.937874  0.937874  0.937874  1
  Cr  Cr4  1  0.427444  0.427444  0.427444  1
  Cr  Cr5  1  0.572556  0.572556  0.572556  1
  Cr  Cr6  1  0.500000  0.000000  0.000000  1
  Cr  Cr7  1  0.000000  0.000000  0.500000  1
  Cr  Cr8  1  0.000000  0.500000  0.000000  1
  O  O9  1  0.129251  0.129251  0.129251  1
  O  O10  1  0.870749  0.870749  0.870749  1
  O  O11  1  0.635547  0.113112  0.635547  1
  O  O12  1  0.113112  0.635547  0.635547  1
  O  O13  1  0.635547  0.635547  0.113112  1
  O  O14  1  0.364453  0.364453  0.886888  1
  O  O15  1  0.364453  0.886888  0.364453  1
  O  O16  1  0.886888  0.364453  0.364453  1
  O  O17  1  0.780812  0.293239  0.780812  1
  O  O18  1  0.706761  0.219188  0.219188  1
  O  O19  1  0.219188  0.706761  0.219188  1
  O  O20  1  0.219188  0.219188  0.706761  1
  O  O21  1  0.780812  0.780812  0.293239  1
  O  O22  1  0.293239  0.780812  0.780812  1
