# generated using pymatgen
data_Yb3Al5O12
_symmetry_space_group_name_H-M   'P 1'
_cell_length_a   10.48665651
_cell_length_b   10.48665651
_cell_length_c   10.48665651
_cell_angle_alpha   109.47122063
_cell_angle_beta   109.47122063
_cell_angle_gamma   109.47122063
_symmetry_Int_Tables_number   1
_chemical_formula_structural   Yb3Al5O12
_chemical_formula_sum   'Yb12 Al20 O48'
_cell_volume   887.74705065
_cell_formula_units_Z   4
loop_
 _symmetry_equiv_pos_site_id
 _symmetry_equiv_pos_as_xyz
  1  'x, y, z'
loop_
 _atom_site_type_symbol
 _atom_site_label
 _atom_site_symmetry_multiplicity
 _atom_site_fract_x
 _atom_site_fract_y
 _atom_site_fract_z
 _atom_site_occupancy
  Yb  Yb0  1  0.250000  0.875000  0.625000  1
  Yb  Yb1  1  0.875000  0.625000  0.250000  1
  Yb  Yb2  1  0.625000  0.875000  0.750000  1
  Yb  Yb3  1  0.875000  0.750000  0.625000  1
  Yb  Yb4  1  0.625000  0.250000  0.875000  1
  Yb  Yb5  1  0.750000  0.625000  0.875000  1
  Yb  Yb6  1  0.750000  0.125000  0.375000  1
  Yb  Yb7  1  0.125000  0.375000  0.750000  1
  Yb  Yb8  1  0.375000  0.125000  0.250000  1
  Yb  Yb9  1  0.125000  0.250000  0.375000  1
  Yb  Yb10  1  0.375000  0.750000  0.125000  1
  Yb  Yb11  1  0.250000  0.375000  0.125000  1
  Al  Al12  1  0.250000  0.125000  0.875000  1
  Al  Al13  1  0.750000  0.875000  0.125000  1
  Al  Al14  1  0.375000  0.250000  0.625000  1
  Al  Al15  1  0.625000  0.375000  0.250000  1
  Al  Al16  1  0.125000  0.750000  0.875000  1
  Al  Al17  1  0.875000  0.125000  0.750000  1
  Al  Al18  1  0.750000  0.375000  0.625000  1
  Al  Al19  1  0.375000  0.625000  0.750000  1
  Al  Al20  1  0.125000  0.875000  0.250000  1
  Al  Al21  1  0.875000  0.250000  0.125000  1
  Al  Al22  1  0.625000  0.750000  0.375000  1
  Al  Al23  1  0.250000  0.625000  0.375000  1
  Al  Al24  1  0.500000  0.500000  0.500000  1
  Al  Al25  1  0.500000  0.500000  0.000000  1
  Al  Al26  1  0.500000  1.000000  0.500000  1
  Al  Al27  1  0.000000  0.500000  0.500000  1
  Al  Al28  1  0.500000  0.000000  0.000000  1
  Al  Al29  1  0.000000  0.000000  0.500000  1
  Al  Al30  1  0.000000  0.500000  0.000000  1
  Al  Al31  1  0.000000  0.000000  0.000000  1
  O  O32  1  0.696591  0.679989  0.082197  1
  O  O33  1  0.820011  0.516602  0.402208  1
  O  O34  1  0.417803  0.097792  0.614394  1
  O  O35  1  0.803409  0.885606  0.983398  1
  O  O36  1  0.803409  0.417803  0.820011  1
  O  O37  1  0.885606  0.983398  0.803409  1
  O  O38  1  0.097792  0.983398  0.679989  1
  O  O39  1  0.983398  0.803409  0.885606  1
  O  O40  1  0.402208  0.082197  0.885606  1
  O  O41  1  0.516602  0.614394  0.696591  1
  O  O42  1  0.614394  0.696591  0.516602  1
  O  O43  1  0.820011  0.803409  0.417803  1
  O  O44  1  0.983398  0.679989  0.097792  1
  O  O45  1  0.885606  0.402208  0.082197  1
  O  O46  1  0.417803  0.820011  0.803409  1
  O  O47  1  0.679989  0.097792  0.983398  1
  O  O48  1  0.082197  0.885606  0.402208  1
  O  O49  1  0.402208  0.820011  0.516602  1
  O  O50  1  0.097792  0.614394  0.417803  1
  O  O51  1  0.597792  0.917803  0.114394  1
  O  O52  1  0.614394  0.417803  0.097792  1
  O  O53  1  0.082197  0.696591  0.679989  1
  O  O54  1  0.516602  0.402208  0.820011  1
  O  O55  1  0.696591  0.516602  0.614394  1
  O  O56  1  0.303409  0.320011  0.917803  1
  O  O57  1  0.179989  0.483398  0.597792  1
  O  O58  1  0.582197  0.902208  0.385606  1
  O  O59  1  0.196591  0.114394  0.016602  1
  O  O60  1  0.196591  0.582197  0.179989  1
  O  O61  1  0.114394  0.016602  0.196591  1
  O  O62  1  0.902208  0.016602  0.320011  1
  O  O63  1  0.016602  0.196591  0.114394  1
  O  O64  1  0.303409  0.483398  0.385606  1
  O  O65  1  0.483398  0.597792  0.179989  1
  O  O66  1  0.917803  0.303409  0.320011  1
  O  O67  1  0.320011  0.917803  0.303409  1
  O  O68  1  0.385606  0.582197  0.902208  1
  O  O69  1  0.902208  0.385606  0.582197  1
  O  O70  1  0.597792  0.179989  0.483398  1
  O  O71  1  0.917803  0.114394  0.597792  1
  O  O72  1  0.320011  0.902208  0.016602  1
  O  O73  1  0.582197  0.179989  0.196591  1
  O  O74  1  0.114394  0.597792  0.917803  1
  O  O75  1  0.016602  0.320011  0.902208  1
  O  O76  1  0.179989  0.196591  0.582197  1
  O  O77  1  0.385606  0.303409  0.483398  1
  O  O78  1  0.483398  0.385606  0.303409  1
  O  O79  1  0.679989  0.082197  0.696591  1
