# generated using pymatgen
data_Sr7Pt3
_symmetry_space_group_name_H-M   'P 1'
_cell_length_a   7.19186896
_cell_length_b   8.00746232
_cell_length_c   24.54257750
_cell_angle_alpha   90.00000000
_cell_angle_beta   90.00000000
_cell_angle_gamma   90.00000000
_symmetry_Int_Tables_number   1
_chemical_formula_structural   Sr7Pt3
_chemical_formula_sum   'Sr28 Pt12'
_cell_volume   1413.37316229
_cell_formula_units_Z   4
loop_
 _symmetry_equiv_pos_site_id
 _symmetry_equiv_pos_as_xyz
  1  'x, y, z'
loop_
 _atom_site_type_symbol
 _atom_site_label
 _atom_site_symmetry_multiplicity
 _atom_site_fract_x
 _atom_site_fract_y
 _atom_site_fract_z
 _atom_site_occupancy
  Sr  Sr0  1  0.654371  0.457200  0.382286  1
  Sr  Sr1  1  0.154371  0.042800  0.617714  1
  Sr  Sr2  1  0.845629  0.957200  0.117714  1
  Sr  Sr3  1  0.345629  0.542800  0.882286  1
  Sr  Sr4  1  0.345629  0.542800  0.617714  1
  Sr  Sr5  1  0.845629  0.957200  0.382286  1
  Sr  Sr6  1  0.154371  0.042800  0.882286  1
  Sr  Sr7  1  0.654371  0.457200  0.117714  1
  Sr  Sr8  1  0.176952  0.331987  0.477436  1
  Sr  Sr9  1  0.676952  0.168013  0.522564  1
  Sr  Sr10  1  0.323048  0.831987  0.022564  1
  Sr  Sr11  1  0.823048  0.668013  0.977436  1
  Sr  Sr12  1  0.647623  0.176678  0.250000  1
  Sr  Sr13  1  0.147623  0.323322  0.750000  1
  Sr  Sr14  1  0.852377  0.676678  0.250000  1
  Sr  Sr15  1  0.352377  0.823322  0.750000  1
  Sr  Sr16  1  0.184308  0.320317  0.174317  1
  Sr  Sr17  1  0.684308  0.179683  0.825683  1
  Sr  Sr18  1  0.315692  0.820317  0.325683  1
  Sr  Sr19  1  0.815692  0.679683  0.674317  1
  Sr  Sr20  1  0.815692  0.679683  0.825683  1
  Sr  Sr21  1  0.315692  0.820317  0.174317  1
  Sr  Sr22  1  0.684308  0.179683  0.674317  1
  Sr  Sr23  1  0.184308  0.320317  0.325683  1
  Sr  Sr24  1  0.176952  0.331987  0.022564  1
  Sr  Sr25  1  0.676952  0.168013  0.977436  1
  Sr  Sr26  1  0.323048  0.831987  0.477436  1
  Sr  Sr27  1  0.823048  0.668013  0.522564  1
  Pt  Pt28  1  0.462993  0.121559  0.405164  1
  Pt  Pt29  1  0.962993  0.378441  0.594836  1
  Pt  Pt30  1  0.037007  0.621559  0.094836  1
  Pt  Pt31  1  0.537007  0.878441  0.905164  1
  Pt  Pt32  1  0.537007  0.878441  0.594836  1
  Pt  Pt33  1  0.037007  0.621559  0.405164  1
  Pt  Pt34  1  0.962993  0.378441  0.905164  1
  Pt  Pt35  1  0.462993  0.121559  0.094836  1
  Pt  Pt36  1  0.965193  0.978350  0.750000  1
  Pt  Pt37  1  0.465193  0.521650  0.250000  1
  Pt  Pt38  1  0.534807  0.478350  0.750000  1
  Pt  Pt39  1  0.034807  0.021650  0.250000  1
