# generated using pymatgen
data_K3PbAu5
_symmetry_space_group_name_H-M   'P 1'
_cell_length_a   11.28352481
_cell_length_b   11.28352481
_cell_length_c   11.28352481
_cell_angle_alpha   150.36472753
_cell_angle_beta   135.03451654
_cell_angle_gamma   54.77959331
_symmetry_Int_Tables_number   1
_chemical_formula_structural   K3PbAu5
_chemical_formula_sum   'K6 Pb2 Au10'
_cell_volume   498.98231417
_cell_formula_units_Z   2
loop_
 _symmetry_equiv_pos_site_id
 _symmetry_equiv_pos_as_xyz
  1  'x, y, z'
loop_
 _atom_site_type_symbol
 _atom_site_label
 _atom_site_symmetry_multiplicity
 _atom_site_fract_x
 _atom_site_fract_y
 _atom_site_fract_z
 _atom_site_occupancy
  K  K0  1  0.375526  0.250000  0.625526  1
  K  K1  1  0.624474  0.750000  0.374474  1
  K  K2  1  0.709161  0.585690  0.623471  1
  K  K3  1  0.962220  0.085690  0.376529  1
  K  K4  1  0.290839  0.414310  0.376529  1
  K  K5  1  0.037780  0.914310  0.623471  1
  Pb  Pb6  1  0.917583  0.250000  0.167583  1
  Pb  Pb7  1  0.082417  0.750000  0.832417  1
  Au  Au8  1  0.606430  0.143938  0.962492  1
  Au  Au9  1  0.393570  0.856062  0.037508  1
  Au  Au10  1  0.500000  1.000000  1.000000  1
  Au  Au11  1  0.181445  0.643938  0.037508  1
  Au  Au12  1  0.684795  0.684795  0.000000  1
  Au  Au13  1  0.818555  0.356062  0.962492  1
  Au  Au14  1  0.315205  0.315205  0.000000  1
  Au  Au15  1  0.684795  0.184795  0.500000  1
  Au  Au16  1  0.000000  0.500000  0.000000  1
  Au  Au17  1  0.315205  0.815205  0.500000  1
