# generated using pymatgen
data_Dy2Pd2Pb
_symmetry_space_group_name_H-M   'P 1'
_cell_length_a   7.96612343
_cell_length_b   7.96612343
_cell_length_c   3.59085188
_cell_angle_alpha   90.00000000
_cell_angle_beta   90.00000000
_cell_angle_gamma   90.00000000
_symmetry_Int_Tables_number   1
_chemical_formula_structural   Dy2Pd2Pb
_chemical_formula_sum   'Dy4 Pd4 Pb2'
_cell_volume   227.87230934
_cell_formula_units_Z   2
loop_
 _symmetry_equiv_pos_site_id
 _symmetry_equiv_pos_as_xyz
  1  'x, y, z'
loop_
 _atom_site_type_symbol
 _atom_site_label
 _atom_site_symmetry_multiplicity
 _atom_site_fract_x
 _atom_site_fract_y
 _atom_site_fract_z
 _atom_site_occupancy
  Dy  Dy0  1  0.670811  0.170811  0.500000  1
  Dy  Dy1  1  0.170811  0.329189  0.500000  1
  Dy  Dy2  1  0.829189  0.670811  0.500000  1
  Dy  Dy3  1  0.329189  0.829189  0.500000  1
  Pd  Pd4  1  0.374615  0.125385  0.000000  1
  Pd  Pd5  1  0.125385  0.625385  0.000000  1
  Pd  Pd6  1  0.625385  0.874615  0.000000  1
  Pd  Pd7  1  0.874615  0.374615  0.000000  1
  Pb  Pb8  1  0.000000  0.000000  0.000000  1
  Pb  Pb9  1  0.500000  0.500000  0.000000  1
