# generated using pymatgen
data_Ce(AlGa)2
_symmetry_space_group_name_H-M   'P 1'
_cell_length_a   6.35270359
_cell_length_b   6.35270359
_cell_length_c   6.35270359
_cell_angle_alpha   141.50384784
_cell_angle_beta   141.50384784
_cell_angle_gamma   55.57687889
_symmetry_Int_Tables_number   1
_chemical_formula_structural   Ce(AlGa)2
_chemical_formula_sum   'Ce1 Al2 Ga2'
_cell_volume   98.59372564
_cell_formula_units_Z   1
loop_
 _symmetry_equiv_pos_site_id
 _symmetry_equiv_pos_as_xyz
  1  'x, y, z'
loop_
 _atom_site_type_symbol
 _atom_site_label
 _atom_site_symmetry_multiplicity
 _atom_site_fract_x
 _atom_site_fract_y
 _atom_site_fract_z
 _atom_site_occupancy
  Ce  Ce0  1  0.000000  0.000000  0.000000  1
  Al  Al1  1  0.750000  0.250000  0.500000  1
  Al  Al2  1  0.250000  0.750000  0.500000  1
  Ga  Ga3  1  0.611281  0.611281  0.000000  1
  Ga  Ga4  1  0.388719  0.388719  0.000000  1
