# generated using pymatgen
data_Ba8Ga7
_symmetry_space_group_name_H-M   'P 1'
_cell_length_a   13.08646460
_cell_length_b   13.08646460
_cell_length_c   13.08646460
_cell_angle_alpha   90.00000000
_cell_angle_beta   90.00000000
_cell_angle_gamma   90.00000000
_symmetry_Int_Tables_number   1
_chemical_formula_structural   Ba8Ga7
_chemical_formula_sum   'Ba32 Ga28'
_cell_volume   2241.12976758
_cell_formula_units_Z   4
loop_
 _symmetry_equiv_pos_site_id
 _symmetry_equiv_pos_as_xyz
  1  'x, y, z'
loop_
 _atom_site_type_symbol
 _atom_site_label
 _atom_site_symmetry_multiplicity
 _atom_site_fract_x
 _atom_site_fract_y
 _atom_site_fract_z
 _atom_site_occupancy
  Ba  Ba0  1  0.813226  0.813226  0.813226  1
  Ba  Ba1  1  0.686774  0.186774  0.313226  1
  Ba  Ba2  1  0.313226  0.686774  0.186774  1
  Ba  Ba3  1  0.186774  0.313226  0.686774  1
  Ba  Ba4  1  0.187615  0.187615  0.187615  1
  Ba  Ba5  1  0.312385  0.812385  0.687615  1
  Ba  Ba6  1  0.687615  0.312385  0.812385  1
  Ba  Ba7  1  0.812385  0.687615  0.312385  1
  Ba  Ba8  1  0.797980  0.557237  0.001022  1
  Ba  Ba9  1  0.001022  0.797980  0.557237  1
  Ba  Ba10  1  0.557237  0.001022  0.797980  1
  Ba  Ba11  1  0.942763  0.998978  0.297980  1
  Ba  Ba12  1  0.501022  0.702020  0.442763  1
  Ba  Ba13  1  0.442763  0.501022  0.702020  1
  Ba  Ba14  1  0.498978  0.202020  0.057237  1
  Ba  Ba15  1  0.998978  0.297980  0.942763  1
  Ba  Ba16  1  0.057237  0.498978  0.202020  1
  Ba  Ba17  1  0.297980  0.942763  0.998978  1
  Ba  Ba18  1  0.202020  0.057237  0.498978  1
  Ba  Ba19  1  0.702020  0.442763  0.501022  1
  Ba  Ba20  1  0.519615  0.703077  0.938486  1
  Ba  Ba21  1  0.938486  0.519615  0.703077  1
  Ba  Ba22  1  0.703077  0.938486  0.519615  1
  Ba  Ba23  1  0.796923  0.061514  0.019615  1
  Ba  Ba24  1  0.438486  0.980385  0.296923  1
  Ba  Ba25  1  0.296923  0.438486  0.980385  1
  Ba  Ba26  1  0.561514  0.480385  0.203077  1
  Ba  Ba27  1  0.061514  0.019615  0.796923  1
  Ba  Ba28  1  0.203077  0.561514  0.480385  1
  Ba  Ba29  1  0.019615  0.796923  0.061514  1
  Ba  Ba30  1  0.480385  0.203077  0.561514  1
  Ba  Ba31  1  0.980385  0.296923  0.438486  1
  Ga  Ga32  1  0.432024  0.432024  0.432024  1
  Ga  Ga33  1  0.067976  0.567976  0.932024  1
  Ga  Ga34  1  0.932024  0.067976  0.567976  1
  Ga  Ga35  1  0.567976  0.932024  0.067976  1
  Ga  Ga36  1  0.760094  0.193710  0.575599  1
  Ga  Ga37  1  0.575599  0.760094  0.193710  1
  Ga  Ga38  1  0.193710  0.575599  0.760094  1
  Ga  Ga39  1  0.306290  0.424401  0.260094  1
  Ga  Ga40  1  0.075599  0.739906  0.806290  1
  Ga  Ga41  1  0.806290  0.075599  0.739906  1
  Ga  Ga42  1  0.924401  0.239906  0.693710  1
  Ga  Ga43  1  0.424401  0.260094  0.306290  1
  Ga  Ga44  1  0.693710  0.924401  0.239906  1
  Ga  Ga45  1  0.260094  0.306290  0.424401  1
  Ga  Ga46  1  0.239906  0.693710  0.924401  1
  Ga  Ga47  1  0.739906  0.806290  0.075599  1
  Ga  Ga48  1  0.746573  0.687406  0.582307  1
  Ga  Ga49  1  0.582307  0.746573  0.687406  1
  Ga  Ga50  1  0.687406  0.582307  0.746573  1
  Ga  Ga51  1  0.812594  0.417693  0.246573  1
  Ga  Ga52  1  0.082307  0.753427  0.312594  1
  Ga  Ga53  1  0.312594  0.082307  0.753427  1
  Ga  Ga54  1  0.917693  0.253427  0.187406  1
  Ga  Ga55  1  0.417693  0.246573  0.812594  1
  Ga  Ga56  1  0.187406  0.917693  0.253427  1
  Ga  Ga57  1  0.246573  0.812594  0.417693  1
  Ga  Ga58  1  0.253427  0.187406  0.917693  1
  Ga  Ga59  1  0.753427  0.312594  0.082307  1
