# generated using pymatgen
data_V(PO3)4
_symmetry_space_group_name_H-M   'P 1'
_cell_length_a   7.40318508
_cell_length_b   7.40318508
_cell_length_c   9.94436447
_cell_angle_alpha   67.87654581
_cell_angle_beta   112.12345419
_cell_angle_gamma   113.01242050
_symmetry_Int_Tables_number   1
_chemical_formula_structural   V(PO3)4
_chemical_formula_sum   'V2 P8 O24'
_cell_volume   447.58387545
_cell_formula_units_Z   2
loop_
 _symmetry_equiv_pos_site_id
 _symmetry_equiv_pos_as_xyz
  1  'x, y, z'
loop_
 _atom_site_type_symbol
 _atom_site_label
 _atom_site_symmetry_multiplicity
 _atom_site_fract_x
 _atom_site_fract_y
 _atom_site_fract_z
 _atom_site_occupancy
  V  V0  1  0.500000  0.000000  0.000000  1
  V  V1  1  0.000000  0.500000  0.500000  1
  P  P2  1  0.752695  0.741696  0.532863  1
  P  P3  1  0.741696  0.752696  0.967137  1
  P  P4  1  0.694937  0.337957  0.188513  1
  P  P5  1  0.258304  0.247304  0.032863  1
  P  P6  1  0.247304  0.258304  0.467137  1
  P  P7  1  0.337957  0.694937  0.311487  1
  P  P8  1  0.662043  0.305063  0.688513  1
  P  P9  1  0.305063  0.662043  0.811487  1
  O  O10  1  0.660719  0.532650  0.655062  1
  O  O11  1  0.194927  0.656249  0.650719  1
  O  O12  1  0.805073  0.343751  0.349281  1
  O  O13  1  0.825656  0.663788  0.442635  1
  O  O14  1  0.336212  0.174344  0.942635  1
  O  O15  1  0.467350  0.339281  0.155062  1
  O  O16  1  0.310116  0.842608  0.851204  1
  O  O17  1  0.203928  0.455565  0.920909  1
  O  O18  1  0.544435  0.796072  0.420909  1
  O  O19  1  0.096418  0.113953  0.104294  1
  O  O20  1  0.339281  0.467350  0.344938  1
  O  O21  1  0.343751  0.805073  0.150719  1
  O  O22  1  0.842608  0.310116  0.648796  1
  O  O23  1  0.113952  0.096418  0.395706  1
  O  O24  1  0.886048  0.903582  0.604294  1
  O  O25  1  0.663788  0.825656  0.057365  1
  O  O26  1  0.656249  0.194927  0.849281  1
  O  O27  1  0.174344  0.336212  0.557365  1
  O  O28  1  0.903582  0.886048  0.895706  1
  O  O29  1  0.455565  0.203928  0.579091  1
  O  O30  1  0.796072  0.544435  0.079091  1
  O  O31  1  0.689884  0.157392  0.148796  1
  O  O32  1  0.532650  0.660719  0.844938  1
  O  O33  1  0.157392  0.689884  0.351204  1
