# generated using pymatgen
data_Ga3Pd7
_symmetry_space_group_name_H-M   'P 1'
_cell_length_a   7.18704244
_cell_length_b   7.18704244
_cell_length_c   5.53947628
_cell_angle_alpha   75.61489990
_cell_angle_beta   104.38510010
_cell_angle_gamma   146.70320062
_symmetry_Int_Tables_number   1
_chemical_formula_structural   Ga3Pd7
_chemical_formula_sum   'Ga3 Pd7'
_cell_volume   151.70762166
_cell_formula_units_Z   1
loop_
 _symmetry_equiv_pos_site_id
 _symmetry_equiv_pos_as_xyz
  1  'x, y, z'
loop_
 _atom_site_type_symbol
 _atom_site_label
 _atom_site_symmetry_multiplicity
 _atom_site_fract_x
 _atom_site_fract_y
 _atom_site_fract_z
 _atom_site_occupancy
  Ga  Ga0  1  0.000000  0.000000  0.000000  1
  Ga  Ga1  1  0.808991  0.191009  0.337722  1
  Ga  Ga2  1  0.191009  0.808991  0.662278  1
  Pd  Pd3  1  1.000000  0.000000  0.500000  1
  Pd  Pd4  1  0.793888  0.206112  0.861546  1
  Pd  Pd5  1  0.206112  0.793888  0.138454  1
  Pd  Pd6  1  0.625615  0.374385  0.385085  1
  Pd  Pd7  1  0.374385  0.625615  0.614915  1
  Pd  Pd8  1  0.582173  0.417827  0.855447  1
  Pd  Pd9  1  0.417827  0.582173  0.144553  1
