# generated using pymatgen
data_Hf4N3
_symmetry_space_group_name_H-M   'P 1'
_cell_length_a   5.57282545
_cell_length_b   5.57282545
_cell_length_c   5.57282545
_cell_angle_alpha   132.01717662
_cell_angle_beta   132.01717662
_cell_angle_gamma   70.20189964
_symmetry_Int_Tables_number   1
_chemical_formula_structural   Hf4N3
_chemical_formula_sum   'Hf4 N3'
_cell_volume   93.63714237
_cell_formula_units_Z   1
loop_
 _symmetry_equiv_pos_site_id
 _symmetry_equiv_pos_as_xyz
  1  'x, y, z'
loop_
 _atom_site_type_symbol
 _atom_site_label
 _atom_site_symmetry_multiplicity
 _atom_site_fract_x
 _atom_site_fract_y
 _atom_site_fract_z
 _atom_site_occupancy
  Hf  Hf0  1  0.760844  0.760844  0.000000  1
  Hf  Hf1  1  0.000000  0.500000  0.500000  1
  Hf  Hf2  1  0.500000  0.000000  0.500000  1
  Hf  Hf3  1  0.239156  0.239156  0.000000  1
  N  N4  1  0.250000  0.750000  0.500000  1
  N  N5  1  0.750000  0.250000  0.500000  1
  N  N6  1  0.000000  0.000000  0.000000  1
