# generated using pymatgen
data_Ca3(BO3)2
_symmetry_space_group_name_H-M   'P 1'
_cell_length_a   6.42706807
_cell_length_b   6.42706807
_cell_length_c   6.42706807
_cell_angle_alpha   85.10738727
_cell_angle_beta   85.10738727
_cell_angle_gamma   85.10738727
_symmetry_Int_Tables_number   1
_chemical_formula_structural   Ca3(BO3)2
_chemical_formula_sum   'Ca6 B4 O12'
_cell_volume   262.73796680
_cell_formula_units_Z   2
loop_
 _symmetry_equiv_pos_site_id
 _symmetry_equiv_pos_as_xyz
  1  'x, y, z'
loop_
 _atom_site_type_symbol
 _atom_site_label
 _atom_site_symmetry_multiplicity
 _atom_site_fract_x
 _atom_site_fract_y
 _atom_site_fract_z
 _atom_site_occupancy
  Ca  Ca0  1  0.606502  0.893498  0.250000  1
  Ca  Ca1  1  0.893498  0.250000  0.606502  1
  Ca  Ca2  1  0.250000  0.606502  0.893498  1
  Ca  Ca3  1  0.393498  0.106502  0.750000  1
  Ca  Ca4  1  0.106502  0.750000  0.393498  1
  Ca  Ca5  1  0.750000  0.393498  0.106502  1
  B  B6  1  0.617646  0.617646  0.617646  1
  B  B7  1  0.382354  0.382354  0.382354  1
  B  B8  1  0.117646  0.117646  0.117646  1
  B  B9  1  0.882354  0.882354  0.882354  1
  O  O10  1  0.961709  0.103581  0.281312  1
  O  O11  1  0.103581  0.281312  0.961709  1
  O  O12  1  0.281312  0.961709  0.103581  1
  O  O13  1  0.538291  0.218688  0.396419  1
  O  O14  1  0.396419  0.538291  0.218688  1
  O  O15  1  0.218688  0.396419  0.538291  1
  O  O16  1  0.896419  0.718688  0.038291  1
  O  O17  1  0.038291  0.896419  0.718688  1
  O  O18  1  0.718688  0.038291  0.896419  1
  O  O19  1  0.603581  0.461709  0.781312  1
  O  O20  1  0.781312  0.603581  0.461709  1
  O  O21  1  0.461709  0.781312  0.603581  1
