# generated using pymatgen
data_Rb3Os2Br9
_symmetry_space_group_name_H-M   'P 1'
_cell_length_a   7.64117384
_cell_length_b   7.64117384
_cell_length_c   18.54922404
_cell_angle_alpha   90.00000000
_cell_angle_beta   90.00000000
_cell_angle_gamma   120.00000000
_symmetry_Int_Tables_number   1
_chemical_formula_structural   Rb3Os2Br9
_chemical_formula_sum   'Rb6 Os4 Br18'
_cell_volume   937.94319917
_cell_formula_units_Z   2
loop_
 _symmetry_equiv_pos_site_id
 _symmetry_equiv_pos_as_xyz
  1  'x, y, z'
loop_
 _atom_site_type_symbol
 _atom_site_label
 _atom_site_symmetry_multiplicity
 _atom_site_fract_x
 _atom_site_fract_y
 _atom_site_fract_z
 _atom_site_occupancy
  Rb  Rb0  1  0.333333  0.666667  0.563280  1
  Rb  Rb1  1  0.666667  0.333333  0.063280  1
  Rb  Rb2  1  0.666667  0.333333  0.436720  1
  Rb  Rb3  1  0.333333  0.666667  0.936720  1
  Rb  Rb4  1  0.000000  0.000000  0.250000  1
  Rb  Rb5  1  0.000000  0.000000  0.750000  1
  Os  Os6  1  0.666667  0.333333  0.823527  1
  Os  Os7  1  0.333333  0.666667  0.323527  1
  Os  Os8  1  0.333333  0.666667  0.176473  1
  Os  Os9  1  0.666667  0.333333  0.676473  1
  Br  Br10  1  0.495745  0.991491  0.250000  1
  Br  Br11  1  0.504255  0.495745  0.750000  1
  Br  Br12  1  0.991491  0.495745  0.750000  1
  Br  Br13  1  0.008509  0.504255  0.250000  1
  Br  Br14  1  0.495745  0.504255  0.250000  1
  Br  Br15  1  0.504255  0.008509  0.750000  1
  Br  Br16  1  0.821376  0.178624  0.903196  1
  Br  Br17  1  0.821376  0.642753  0.903196  1
  Br  Br18  1  0.357247  0.178624  0.903196  1
  Br  Br19  1  0.642753  0.821376  0.403196  1
  Br  Br20  1  0.821376  0.642753  0.596804  1
  Br  Br21  1  0.178624  0.821376  0.096804  1
  Br  Br22  1  0.642753  0.821376  0.096804  1
  Br  Br23  1  0.357247  0.178624  0.596804  1
  Br  Br24  1  0.821376  0.178624  0.596804  1
  Br  Br25  1  0.178624  0.357247  0.403196  1
  Br  Br26  1  0.178624  0.821376  0.403196  1
  Br  Br27  1  0.178624  0.357247  0.096804  1
