# generated using pymatgen
data_SbPO4
_symmetry_space_group_name_H-M   'P 1'
_cell_length_a   4.87339245
_cell_length_b   6.88489953
_cell_length_c   5.28824505
_cell_angle_alpha   90.00000000
_cell_angle_beta   96.61444538
_cell_angle_gamma   90.00000000
_symmetry_Int_Tables_number   1
_chemical_formula_structural   SbPO4
_chemical_formula_sum   'Sb2 P2 O8'
_cell_volume   176.25446651
_cell_formula_units_Z   2
loop_
 _symmetry_equiv_pos_site_id
 _symmetry_equiv_pos_as_xyz
  1  'x, y, z'
loop_
 _atom_site_type_symbol
 _atom_site_label
 _atom_site_symmetry_multiplicity
 _atom_site_fract_x
 _atom_site_fract_y
 _atom_site_fract_z
 _atom_site_occupancy
  Sb  Sb0  1  0.191252  0.750000  0.191677  1
  Sb  Sb1  1  0.808748  0.250000  0.808323  1
  P  P2  1  0.724493  0.750000  0.612002  1
  P  P3  1  0.275507  0.250000  0.387998  1
  O  O4  1  0.175523  0.429133  0.230399  1
  O  O5  1  0.824477  0.929133  0.769601  1
  O  O6  1  0.824477  0.570867  0.769601  1
  O  O7  1  0.175523  0.070867  0.230399  1
  O  O8  1  0.174547  0.250000  0.660412  1
  O  O9  1  0.825453  0.750000  0.339588  1
  O  O10  1  0.598291  0.250000  0.445219  1
  O  O11  1  0.401709  0.750000  0.554781  1
