# generated using pymatgen
data_KBO2
_symmetry_space_group_name_H-M   'P 1'
_cell_length_a   7.85257534
_cell_length_b   7.85257534
_cell_length_c   7.85257534
_cell_angle_alpha   110.30337944
_cell_angle_beta   110.30337944
_cell_angle_gamma   110.30337944
_symmetry_Int_Tables_number   1
_chemical_formula_structural   KBO2
_chemical_formula_sum   'K6 B6 O12'
_cell_volume   360.80666235
_cell_formula_units_Z   6
loop_
 _symmetry_equiv_pos_site_id
 _symmetry_equiv_pos_as_xyz
  1  'x, y, z'
loop_
 _atom_site_type_symbol
 _atom_site_label
 _atom_site_symmetry_multiplicity
 _atom_site_fract_x
 _atom_site_fract_y
 _atom_site_fract_z
 _atom_site_occupancy
  K  K0  1  0.750000  0.190049  0.309951  1
  K  K1  1  0.309951  0.750000  0.190049  1
  K  K2  1  0.190049  0.309951  0.750000  1
  K  K3  1  0.250000  0.809951  0.690049  1
  K  K4  1  0.690049  0.250000  0.809951  1
  K  K5  1  0.809951  0.690049  0.250000  1
  B  B6  1  0.250000  0.137061  0.362939  1
  B  B7  1  0.750000  0.862939  0.637061  1
  B  B8  1  0.637061  0.750000  0.862939  1
  B  B9  1  0.862939  0.637061  0.750000  1
  B  B10  1  0.362939  0.250000  0.137061  1
  B  B11  1  0.137061  0.362939  0.250000  1
  O  O12  1  0.358125  0.141875  0.250000  1
  O  O13  1  0.141875  0.250000  0.358125  1
  O  O14  1  0.750000  0.641875  0.858125  1
  O  O15  1  0.250000  0.358125  0.141875  1
  O  O16  1  0.641875  0.858125  0.750000  1
  O  O17  1  0.858125  0.750000  0.641875  1
  O  O18  1  0.034317  0.465683  0.250000  1
  O  O19  1  0.465683  0.250000  0.034317  1
  O  O20  1  0.250000  0.034317  0.465683  1
  O  O21  1  0.965683  0.534317  0.750000  1
  O  O22  1  0.534317  0.750000  0.965683  1
  O  O23  1  0.750000  0.965683  0.534317  1
