# generated using pymatgen
data_Zr3Co
_symmetry_space_group_name_H-M   'P 1'
_cell_length_a   5.64053155
_cell_length_b   5.64053155
_cell_length_c   9.05434460
_cell_angle_alpha   90.00000000
_cell_angle_beta   90.00000000
_cell_angle_gamma   146.32260859
_symmetry_Int_Tables_number   1
_chemical_formula_structural   Zr3Co
_chemical_formula_sum   'Zr6 Co2'
_cell_volume   159.73910421
_cell_formula_units_Z   2
loop_
 _symmetry_equiv_pos_site_id
 _symmetry_equiv_pos_as_xyz
  1  'x, y, z'
loop_
 _atom_site_type_symbol
 _atom_site_label
 _atom_site_symmetry_multiplicity
 _atom_site_fract_x
 _atom_site_fract_y
 _atom_site_fract_z
 _atom_site_occupancy
  Zr  Zr0  1  0.583398  0.416602  0.750000  1
  Zr  Zr1  1  0.416602  0.583398  0.250000  1
  Zr  Zr2  1  0.865260  0.134740  0.944481  1
  Zr  Zr3  1  0.134740  0.865260  0.055519  1
  Zr  Zr4  1  0.134740  0.865260  0.444481  1
  Zr  Zr5  1  0.865260  0.134740  0.555519  1
  Co  Co6  1  0.275712  0.724288  0.750000  1
  Co  Co7  1  0.724288  0.275712  0.250000  1
