# generated using pymatgen
data_Ca(BS2)2
_symmetry_space_group_name_H-M   'P 1'
_cell_length_a   11.24944962
_cell_length_b   11.24944962
_cell_length_c   11.24944962
_cell_angle_alpha   90.00000000
_cell_angle_beta   90.00000000
_cell_angle_gamma   90.00000000
_symmetry_Int_Tables_number   1
_chemical_formula_structural   Ca(BS2)2
_chemical_formula_sum   'Ca12 B24 S48'
_cell_volume   1423.61916282
_cell_formula_units_Z   12
loop_
 _symmetry_equiv_pos_site_id
 _symmetry_equiv_pos_as_xyz
  1  'x, y, z'
loop_
 _atom_site_type_symbol
 _atom_site_label
 _atom_site_symmetry_multiplicity
 _atom_site_fract_x
 _atom_site_fract_y
 _atom_site_fract_z
 _atom_site_occupancy
  Ca  Ca0  1  0.873595  0.626405  0.373595  1
  Ca  Ca1  1  0.626405  0.373595  0.873595  1
  Ca  Ca2  1  0.373595  0.873595  0.626405  1
  Ca  Ca3  1  0.126405  0.126405  0.126405  1
  Ca  Ca4  1  0.126405  0.373595  0.626405  1
  Ca  Ca5  1  0.373595  0.626405  0.126405  1
  Ca  Ca6  1  0.626405  0.126405  0.373595  1
  Ca  Ca7  1  0.873595  0.873595  0.873595  1
  Ca  Ca8  1  0.500000  0.000000  0.000000  1
  Ca  Ca9  1  0.000000  0.000000  0.500000  1
  Ca  Ca10  1  0.000000  0.500000  0.000000  1
  Ca  Ca11  1  0.500000  0.500000  0.500000  1
  B  B12  1  0.129382  0.693436  0.645989  1
  B  B13  1  0.629382  0.806564  0.354011  1
  B  B14  1  0.870618  0.193436  0.854011  1
  B  B15  1  0.806564  0.354011  0.629382  1
  B  B16  1  0.854011  0.870618  0.193436  1
  B  B17  1  0.354011  0.629382  0.806564  1
  B  B18  1  0.693436  0.645989  0.129382  1
  B  B19  1  0.645989  0.129382  0.693436  1
  B  B20  1  0.193436  0.854011  0.870618  1
  B  B21  1  0.306564  0.145989  0.370618  1
  B  B22  1  0.145989  0.370618  0.306564  1
  B  B23  1  0.370618  0.306564  0.145989  1
  B  B24  1  0.870618  0.306564  0.354011  1
  B  B25  1  0.370618  0.193436  0.645989  1
  B  B26  1  0.129382  0.806564  0.145989  1
  B  B27  1  0.193436  0.645989  0.370618  1
  B  B28  1  0.145989  0.129382  0.806564  1
  B  B29  1  0.645989  0.370618  0.193436  1
  B  B30  1  0.306564  0.354011  0.870618  1
  B  B31  1  0.354011  0.870618  0.306564  1
  B  B32  1  0.806564  0.145989  0.129382  1
  B  B33  1  0.693436  0.854011  0.629382  1
  B  B34  1  0.854011  0.629382  0.693436  1
  B  B35  1  0.629382  0.693436  0.854011  1
  S  S36  1  0.084939  0.777303  0.979573  1
  S  S37  1  0.584939  0.722697  0.020427  1
  S  S38  1  0.915061  0.277303  0.520427  1
  S  S39  1  0.722697  0.020427  0.584939  1
  S  S40  1  0.520427  0.915061  0.277303  1
  S  S41  1  0.020427  0.584939  0.722697  1
  S  S42  1  0.777303  0.979573  0.084939  1
  S  S43  1  0.979573  0.084939  0.777303  1
  S  S44  1  0.277303  0.520427  0.915061  1
  S  S45  1  0.222697  0.479573  0.415061  1
  S  S46  1  0.479573  0.415061  0.222697  1
  S  S47  1  0.415061  0.222697  0.479573  1
  S  S48  1  0.915061  0.222697  0.020427  1
  S  S49  1  0.415061  0.277303  0.979573  1
  S  S50  1  0.084939  0.722697  0.479573  1
  S  S51  1  0.277303  0.979573  0.415061  1
  S  S52  1  0.479573  0.084939  0.722697  1
  S  S53  1  0.979573  0.415061  0.277303  1
  S  S54  1  0.222697  0.020427  0.915061  1
  S  S55  1  0.020427  0.915061  0.222697  1
  S  S56  1  0.722697  0.479573  0.084939  1
  S  S57  1  0.777303  0.520427  0.584939  1
  S  S58  1  0.520427  0.584939  0.777303  1
  S  S59  1  0.584939  0.777303  0.520427  1
  S  S60  1  0.350940  0.788142  0.871737  1
  S  S61  1  0.850940  0.711858  0.128263  1
  S  S62  1  0.649060  0.288142  0.628263  1
  S  S63  1  0.711858  0.128263  0.850940  1
  S  S64  1  0.628263  0.649060  0.288142  1
  S  S65  1  0.128263  0.850940  0.711858  1
  S  S66  1  0.788142  0.871737  0.350940  1
  S  S67  1  0.871737  0.350940  0.788142  1
  S  S68  1  0.288142  0.628263  0.649060  1
  S  S69  1  0.211858  0.371737  0.149060  1
  S  S70  1  0.371737  0.149060  0.211858  1
  S  S71  1  0.149060  0.211858  0.371737  1
  S  S72  1  0.649060  0.211858  0.128263  1
  S  S73  1  0.149060  0.288142  0.871737  1
  S  S74  1  0.350940  0.711858  0.371737  1
  S  S75  1  0.288142  0.871737  0.149060  1
  S  S76  1  0.371737  0.350940  0.711858  1
  S  S77  1  0.871737  0.149060  0.288142  1
  S  S78  1  0.211858  0.128263  0.649060  1
  S  S79  1  0.128263  0.649060  0.211858  1
  S  S80  1  0.711858  0.371737  0.350940  1
  S  S81  1  0.788142  0.628263  0.850940  1
  S  S82  1  0.628263  0.850940  0.788142  1
  S  S83  1  0.850940  0.788142  0.628263  1
