# generated using pymatgen
data_Tb5Bi3
_symmetry_space_group_name_H-M   'P 1'
_cell_length_a   8.30224470
_cell_length_b   9.58712262
_cell_length_c   12.11178189
_cell_angle_alpha   90.00000000
_cell_angle_beta   90.00000000
_cell_angle_gamma   90.00000000
_symmetry_Int_Tables_number   1
_chemical_formula_structural   Tb5Bi3
_chemical_formula_sum   'Tb20 Bi12'
_cell_volume   964.03289459
_cell_formula_units_Z   4
loop_
 _symmetry_equiv_pos_site_id
 _symmetry_equiv_pos_as_xyz
  1  'x, y, z'
loop_
 _atom_site_type_symbol
 _atom_site_label
 _atom_site_symmetry_multiplicity
 _atom_site_fract_x
 _atom_site_fract_y
 _atom_site_fract_z
 _atom_site_occupancy
  Tb  Tb0  1  0.352577  0.750000  0.214462  1
  Tb  Tb1  1  0.852577  0.750000  0.285538  1
  Tb  Tb2  1  0.647423  0.250000  0.785538  1
  Tb  Tb3  1  0.147423  0.250000  0.714462  1
  Tb  Tb4  1  0.693559  0.562669  0.057970  1
  Tb  Tb5  1  0.193559  0.937331  0.442030  1
  Tb  Tb6  1  0.306441  0.062669  0.942030  1
  Tb  Tb7  1  0.806441  0.437331  0.557970  1
  Tb  Tb8  1  0.306441  0.437331  0.942030  1
  Tb  Tb9  1  0.806441  0.062669  0.557970  1
  Tb  Tb10  1  0.693559  0.937331  0.057970  1
  Tb  Tb11  1  0.193559  0.562669  0.442030  1
  Tb  Tb12  1  0.475428  0.250000  0.488269  1
  Tb  Tb13  1  0.975428  0.250000  0.011731  1
  Tb  Tb14  1  0.524572  0.750000  0.511731  1
  Tb  Tb15  1  0.024572  0.750000  0.988269  1
  Tb  Tb16  1  0.313170  0.250000  0.219530  1
  Tb  Tb17  1  0.813170  0.250000  0.280470  1
  Tb  Tb18  1  0.686830  0.750000  0.780470  1
  Tb  Tb19  1  0.186830  0.750000  0.719530  1
  Bi  Bi20  1  0.408599  0.750000  0.956943  1
  Bi  Bi21  1  0.908599  0.750000  0.543057  1
  Bi  Bi22  1  0.591401  0.250000  0.043057  1
  Bi  Bi23  1  0.091401  0.250000  0.456943  1
  Bi  Bi24  1  0.564759  0.995502  0.325282  1
  Bi  Bi25  1  0.064759  0.504498  0.174718  1
  Bi  Bi26  1  0.435241  0.495502  0.674718  1
  Bi  Bi27  1  0.935241  0.004498  0.825282  1
  Bi  Bi28  1  0.435241  0.004498  0.674718  1
  Bi  Bi29  1  0.935241  0.495502  0.825282  1
  Bi  Bi30  1  0.564759  0.504498  0.325282  1
  Bi  Bi31  1  0.064759  0.995502  0.174718  1
