# generated using pymatgen
data_Be2SiO4
_symmetry_space_group_name_H-M   'P 1'
_cell_length_a   7.76980038
_cell_length_b   7.76980038
_cell_length_c   7.76980038
_cell_angle_alpha   108.01475706
_cell_angle_beta   108.01475706
_cell_angle_gamma   108.01475706
_symmetry_Int_Tables_number   1
_chemical_formula_structural   Be2SiO4
_chemical_formula_sum   'Be12 Si6 O24'
_cell_volume   379.30608291
_cell_formula_units_Z   6
loop_
 _symmetry_equiv_pos_site_id
 _symmetry_equiv_pos_as_xyz
  1  'x, y, z'
loop_
 _atom_site_type_symbol
 _atom_site_label
 _atom_site_symmetry_multiplicity
 _atom_site_fract_x
 _atom_site_fract_y
 _atom_site_fract_z
 _atom_site_occupancy
  Be  Be0  1  0.721230  0.898516  0.127074  1
  Be  Be1  1  0.127074  0.721230  0.898516  1
  Be  Be2  1  0.898516  0.127074  0.721230  1
  Be  Be3  1  0.278770  0.101484  0.872926  1
  Be  Be4  1  0.872926  0.278770  0.101484  1
  Be  Be5  1  0.101484  0.872926  0.278770  1
  Be  Be6  1  0.431127  0.205808  0.609927  1
  Be  Be7  1  0.205808  0.609927  0.431127  1
  Be  Be8  1  0.609927  0.431127  0.205808  1
  Be  Be9  1  0.568873  0.794192  0.390073  1
  Be  Be10  1  0.794192  0.390073  0.568873  1
  Be  Be11  1  0.390073  0.568873  0.794192  1
  Si  Si12  1  0.054431  0.234334  0.461379  1
  Si  Si13  1  0.461379  0.054431  0.234334  1
  Si  Si14  1  0.234334  0.461379  0.054431  1
  Si  Si15  1  0.945569  0.765666  0.538621  1
  Si  Si16  1  0.538621  0.945569  0.765666  1
  Si  Si17  1  0.765666  0.538621  0.945569  1
  O  O18  1  0.670925  0.376052  0.706425  1
  O  O19  1  0.376052  0.706425  0.670925  1
  O  O20  1  0.706425  0.670925  0.376052  1
  O  O21  1  0.329075  0.623948  0.293575  1
  O  O22  1  0.623948  0.293575  0.329075  1
  O  O23  1  0.293575  0.329075  0.623948  1
  O  O24  1  0.628649  0.662789  0.959494  1
  O  O25  1  0.662789  0.959494  0.628649  1
  O  O26  1  0.959494  0.628649  0.662789  1
  O  O27  1  0.371351  0.337211  0.040506  1
  O  O28  1  0.337211  0.040506  0.371351  1
  O  O29  1  0.040506  0.371351  0.337211  1
  O  O30  1  0.749412  0.416436  0.083811  1
  O  O31  1  0.416436  0.083811  0.749412  1
  O  O32  1  0.083811  0.749412  0.416436  1
  O  O33  1  0.250588  0.583564  0.916189  1
  O  O34  1  0.583564  0.916189  0.250588  1
  O  O35  1  0.916189  0.250588  0.583564  1
  O  O36  1  0.003009  0.705954  0.037615  1
  O  O37  1  0.705954  0.037615  0.003009  1
  O  O38  1  0.037615  0.003009  0.705954  1
  O  O39  1  0.996991  0.294046  0.962385  1
  O  O40  1  0.294046  0.962385  0.996991  1
  O  O41  1  0.962385  0.996991  0.294046  1
