# generated using pymatgen
data_Rb(TeO3)2
_symmetry_space_group_name_H-M   'P 1'
_cell_length_a   7.43585274
_cell_length_b   7.43585274
_cell_length_c   7.43585274
_cell_angle_alpha   60.00000000
_cell_angle_beta   60.00000000
_cell_angle_gamma   60.00000000
_symmetry_Int_Tables_number   1
_chemical_formula_structural   Rb(TeO3)2
_chemical_formula_sum   'Rb2 Te4 O12'
_cell_volume   290.72162853
_cell_formula_units_Z   2
loop_
 _symmetry_equiv_pos_site_id
 _symmetry_equiv_pos_as_xyz
  1  'x, y, z'
loop_
 _atom_site_type_symbol
 _atom_site_label
 _atom_site_symmetry_multiplicity
 _atom_site_fract_x
 _atom_site_fract_y
 _atom_site_fract_z
 _atom_site_occupancy
  Rb  Rb0  1  0.000000  1.000000  1.000000  1
  Rb  Rb1  1  0.250000  0.250000  0.250000  1
  Te  Te2  1  0.625000  0.125000  0.625000  1
  Te  Te3  1  0.125000  0.625000  0.625000  1
  Te  Te4  1  0.625000  0.625000  0.625000  1
  Te  Te5  1  0.625000  0.625000  0.125000  1
  O  O6  1  0.305201  0.305201  0.694799  1
  O  O7  1  0.694799  0.305201  0.694799  1
  O  O8  1  0.555201  0.555201  0.944799  1
  O  O9  1  0.944799  0.555201  0.944799  1
  O  O10  1  0.694799  0.305201  0.305201  1
  O  O11  1  0.305201  0.694799  0.694799  1
  O  O12  1  0.555201  0.944799  0.944799  1
  O  O13  1  0.305201  0.694799  0.305201  1
  O  O14  1  0.694799  0.694799  0.305201  1
  O  O15  1  0.944799  0.555201  0.555201  1
  O  O16  1  0.944799  0.944799  0.555201  1
  O  O17  1  0.555201  0.944799  0.555201  1
