# generated using pymatgen
data_Al2O3
_symmetry_space_group_name_H-M   'P 1'
_cell_length_a   5.63864582
_cell_length_b   5.63864582
_cell_length_c   27.54087107
_cell_angle_alpha   89.44901817
_cell_angle_beta   90.55098183
_cell_angle_gamma   119.55261511
_symmetry_Int_Tables_number   1
_chemical_formula_structural   Al2O3
_chemical_formula_sum   'Al32 O48'
_cell_volume   761.67780746
_cell_formula_units_Z   16
loop_
 _symmetry_equiv_pos_site_id
 _symmetry_equiv_pos_as_xyz
  1  'x, y, z'
loop_
 _atom_site_type_symbol
 _atom_site_label
 _atom_site_symmetry_multiplicity
 _atom_site_fract_x
 _atom_site_fract_y
 _atom_site_fract_z
 _atom_site_occupancy
  Al  Al0  1  0.664584  0.335416  0.083299  1
  Al  Al1  1  0.500030  0.499970  0.006585  1
  Al  Al2  1  0.495304  0.504696  0.190692  1
  Al  Al3  1  0.663798  0.824250  0.082770  1
  Al  Al4  1  0.847436  0.152564  0.170971  1
  Al  Al5  1  0.825279  0.174721  0.353542  1
  Al  Al6  1  0.175750  0.336202  0.082770  1
  Al  Al7  1  0.999136  0.500351  0.250397  1
  Al  Al8  1  0.335149  0.664851  0.419552  1
  Al  Al9  1  0.153011  0.846989  0.330386  1
  Al  Al10  1  0.499649  0.000864  0.250397  1
  Al  Al11  1  0.174349  0.825651  0.146210  1
  Al  Al12  1  0.165615  0.834385  0.523167  1
  Al  Al13  1  0.335991  0.174949  0.419720  1
  Al  Al14  1  0.664942  0.335058  0.579691  1
  Al  Al15  1  0.825051  0.664009  0.419720  1
  Al  Al16  1  0.503441  0.496559  0.311540  1
  Al  Al17  1  0.494985  0.505015  0.687303  1
  Al  Al18  1  0.664067  0.825349  0.579392  1
  Al  Al19  1  0.846701  0.153299  0.668589  1
  Al  Al20  1  0.499361  0.000918  0.748129  1
  Al  Al21  1  0.174651  0.335933  0.579392  1
  Al  Al22  1  0.826414  0.173586  0.849443  1
  Al  Al23  1  0.834266  0.165734  0.475618  1
  Al  Al24  1  0.999082  0.500639  0.748129  1
  Al  Al25  1  0.153428  0.846572  0.828427  1
  Al  Al26  1  0.174465  0.825535  0.645558  1
  Al  Al27  1  0.330865  0.162334  0.917978  1
  Al  Al28  1  0.837666  0.669135  0.917978  1
  Al  Al29  1  0.503360  0.496640  0.810693  1
  Al  Al30  1  0.329282  0.670718  0.917379  1
  Al  Al31  1  0.835269  0.164731  0.981896  1
  O  O32  1  0.351381  0.200027  0.045971  1
  O  O33  1  0.502428  0.497572  0.125194  1
  O  O34  1  0.799973  0.648619  0.045971  1
  O  O35  1  0.349900  0.650100  0.045738  1
  O  O36  1  0.655998  0.848932  0.208428  1
  O  O37  1  0.993604  0.006396  0.124774  1
  O  O38  1  0.529324  0.011285  0.123843  1
  O  O39  1  0.151068  0.344002  0.208428  1
  O  O40  1  0.821006  0.178994  0.290301  1
  O  O41  1  0.835197  0.164803  0.046251  1
  O  O42  1  0.675803  0.324197  0.209898  1
  O  O43  1  0.988715  0.470676  0.123843  1
  O  O44  1  0.012139  0.530288  0.377768  1
  O  O45  1  0.323276  0.676724  0.292320  1
  O  O46  1  0.846972  0.655747  0.293978  1
  O  O47  1  0.178708  0.821292  0.210602  1
  O  O48  1  0.469712  0.987861  0.377768  1
  O  O49  1  0.165141  0.834859  0.456561  1
  O  O50  1  0.006657  0.993343  0.376668  1
  O  O51  1  0.344253  0.153028  0.293978  1
  O  O52  1  0.334621  0.168166  0.547007  1
  O  O53  1  0.664716  0.335284  0.453166  1
  O  O54  1  0.497527  0.502473  0.379410  1
  O  O55  1  0.170066  0.335379  0.453264  1
  O  O56  1  0.831834  0.665379  0.547007  1
  O  O57  1  0.502159  0.497841  0.620257  1
  O  O58  1  0.334226  0.665774  0.547072  1
  O  O59  1  0.664621  0.829934  0.453264  1
  O  O60  1  0.654016  0.847620  0.705784  1
  O  O61  1  0.993382  0.006618  0.623496  1
  O  O62  1  0.834869  0.165131  0.543311  1
  O  O63  1  0.152380  0.345984  0.705784  1
  O  O64  1  0.530948  0.012576  0.622447  1
  O  O65  1  0.821687  0.178313  0.786405  1
  O  O66  1  0.674363  0.325637  0.707377  1
  O  O67  1  0.987424  0.469052  0.622447  1
  O  O68  1  0.007924  0.518232  0.875120  1
  O  O69  1  0.323565  0.676435  0.790805  1
  O  O70  1  0.177443  0.822557  0.709613  1
  O  O71  1  0.165503  0.834497  0.947570  1
  O  O72  1  0.846115  0.654365  0.792603  1
  O  O73  1  0.481768  0.992076  0.875120  1
  O  O74  1  0.003295  0.996705  0.873831  1
  O  O75  1  0.345635  0.153885  0.792603  1
  O  O76  1  0.658442  0.341558  0.956505  1
  O  O77  1  0.185005  0.342381  0.956389  1
  O  O78  1  0.498467  0.501533  0.879528  1
  O  O79  1  0.657619  0.814995  0.956389  1
