# generated using pymatgen
data_Ce7Ru3
_symmetry_space_group_name_H-M   'P 1'
_cell_length_a   9.62669613
_cell_length_b   9.62669613
_cell_length_c   6.17445556
_cell_angle_alpha   90.00000000
_cell_angle_beta   90.00000000
_cell_angle_gamma   120.00000000
_symmetry_Int_Tables_number   1
_chemical_formula_structural   Ce7Ru3
_chemical_formula_sum   'Ce14 Ru6'
_cell_volume   495.54583169
_cell_formula_units_Z   2
loop_
 _symmetry_equiv_pos_site_id
 _symmetry_equiv_pos_as_xyz
  1  'x, y, z'
loop_
 _atom_site_type_symbol
 _atom_site_label
 _atom_site_symmetry_multiplicity
 _atom_site_fract_x
 _atom_site_fract_y
 _atom_site_fract_z
 _atom_site_occupancy
  Ce  Ce0  1  0.925796  0.462898  0.035885  1
  Ce  Ce1  1  0.462898  0.537102  0.535885  1
  Ce  Ce2  1  0.125864  0.874136  0.257142  1
  Ce  Ce3  1  0.251729  0.125864  0.757142  1
  Ce  Ce4  1  0.874136  0.748271  0.757142  1
  Ce  Ce5  1  0.125864  0.251729  0.257142  1
  Ce  Ce6  1  0.748271  0.874136  0.257142  1
  Ce  Ce7  1  0.874136  0.125864  0.757142  1
  Ce  Ce8  1  0.537102  0.074204  0.035885  1
  Ce  Ce9  1  0.462898  0.925796  0.535885  1
  Ce  Ce10  1  0.074204  0.537102  0.535885  1
  Ce  Ce11  1  0.537102  0.462898  0.035885  1
  Ce  Ce12  1  0.666667  0.333333  0.538432  1
  Ce  Ce13  1  0.333333  0.666667  0.038432  1
  Ru  Ru14  1  0.181796  0.818204  0.787163  1
  Ru  Ru15  1  0.363591  0.181796  0.287163  1
  Ru  Ru16  1  0.818204  0.636409  0.287163  1
  Ru  Ru17  1  0.181796  0.363591  0.787163  1
  Ru  Ru18  1  0.636409  0.818204  0.787163  1
  Ru  Ru19  1  0.818204  0.181796  0.287163  1
