# generated using pymatgen
data_Na5TlSn3
_symmetry_space_group_name_H-M   'P 1'
_cell_length_a   7.28445005
_cell_length_b   13.78342045
_cell_length_c   11.50870690
_cell_angle_alpha   90.00000000
_cell_angle_beta   105.10044661
_cell_angle_gamma   90.00000000
_symmetry_Int_Tables_number   1
_chemical_formula_structural   Na5TlSn3
_chemical_formula_sum   'Na20 Tl4 Sn12'
_cell_volume   1115.62787413
_cell_formula_units_Z   4
loop_
 _symmetry_equiv_pos_site_id
 _symmetry_equiv_pos_as_xyz
  1  'x, y, z'
loop_
 _atom_site_type_symbol
 _atom_site_label
 _atom_site_symmetry_multiplicity
 _atom_site_fract_x
 _atom_site_fract_y
 _atom_site_fract_z
 _atom_site_occupancy
  Na  Na0  1  0.632532  0.892046  0.974653  1
  Na  Na1  1  0.367468  0.392046  0.525347  1
  Na  Na2  1  0.367468  0.107954  0.025347  1
  Na  Na3  1  0.632532  0.607954  0.474653  1
  Na  Na4  1  0.554036  0.813874  0.629203  1
  Na  Na5  1  0.445964  0.313874  0.870797  1
  Na  Na6  1  0.445964  0.186126  0.370797  1
  Na  Na7  1  0.554036  0.686126  0.129203  1
  Na  Na8  1  0.344718  0.053421  0.663465  1
  Na  Na9  1  0.655282  0.553421  0.836535  1
  Na  Na10  1  0.655282  0.946579  0.336535  1
  Na  Na11  1  0.344718  0.446579  0.163465  1
  Na  Na12  1  0.056893  0.812857  0.534952  1
  Na  Na13  1  0.943107  0.312857  0.965048  1
  Na  Na14  1  0.943107  0.187143  0.465048  1
  Na  Na15  1  0.056893  0.687143  0.034952  1
  Na  Na16  1  0.040014  0.588549  0.345368  1
  Na  Na17  1  0.959986  0.088549  0.154632  1
  Na  Na18  1  0.959986  0.411451  0.654632  1
  Na  Na19  1  0.040014  0.911451  0.845368  1
  Tl  Tl20  1  0.220690  0.522107  0.888501  1
  Tl  Tl21  1  0.779310  0.022107  0.611499  1
  Tl  Tl22  1  0.779310  0.477893  0.111499  1
  Tl  Tl23  1  0.220690  0.977893  0.388501  1
  Sn  Sn24  1  0.340471  0.735114  0.831507  1
  Sn  Sn25  1  0.659529  0.235114  0.668493  1
  Sn  Sn26  1  0.659529  0.264886  0.168493  1
  Sn  Sn27  1  0.340471  0.764886  0.331507  1
  Sn  Sn28  1  0.262407  0.593747  0.630806  1
  Sn  Sn29  1  0.737593  0.093747  0.869194  1
  Sn  Sn30  1  0.737593  0.406253  0.369194  1
  Sn  Sn31  1  0.262407  0.906253  0.130806  1
  Sn  Sn32  1  0.061995  0.171974  0.777500  1
  Sn  Sn33  1  0.938005  0.671974  0.722500  1
  Sn  Sn34  1  0.938005  0.828026  0.222500  1
  Sn  Sn35  1  0.061995  0.328026  0.277500  1
