# generated using pymatgen
data_U4N7
_symmetry_space_group_name_H-M   'P 1'
_cell_length_a   9.20417418
_cell_length_b   9.20417418
_cell_length_c   9.20417418
_cell_angle_alpha   109.43999659
_cell_angle_beta   109.43999659
_cell_angle_gamma   109.53368679
_symmetry_Int_Tables_number   1
_chemical_formula_structural   U4N7
_chemical_formula_sum   'U16 N28'
_cell_volume   600.25005465
_cell_formula_units_Z   4
loop_
 _symmetry_equiv_pos_site_id
 _symmetry_equiv_pos_as_xyz
  1  'x, y, z'
loop_
 _atom_site_type_symbol
 _atom_site_label
 _atom_site_symmetry_multiplicity
 _atom_site_fract_x
 _atom_site_fract_y
 _atom_site_fract_z
 _atom_site_occupancy
  U  U0  1  0.766451  0.022067  0.772880  1
  U  U1  1  0.007488  0.507488  0.024627  1
  U  U2  1  0.493571  0.749187  0.227120  1
  U  U3  1  0.229529  0.729529  0.500000  1
  U  U4  1  0.482861  0.982861  0.975373  1
  U  U5  1  0.729529  0.229529  0.500000  1
  U  U6  1  0.249187  0.993571  0.227120  1
  U  U7  1  0.993571  0.766451  0.744384  1
  U  U8  1  0.749187  0.522067  0.255616  1
  U  U9  1  0.254950  0.254950  0.000000  1
  U  U10  1  0.507488  0.482861  0.500000  1
  U  U11  1  0.754950  0.754950  0.000000  1
  U  U12  1  0.522067  0.266451  0.772880  1
  U  U13  1  0.982861  0.007488  0.500000  1
  U  U14  1  0.266451  0.493571  0.744384  1
  U  U15  1  0.022067  0.249187  0.255616  1
  N  N16  1  0.758329  0.028303  0.026086  1
  N  N17  1  0.255051  0.755051  0.274202  1
  N  N18  1  0.496473  0.744142  0.977844  1
  N  N19  1  0.480849  0.980849  0.725798  1
  N  N20  1  0.507262  0.007262  0.229574  1
  N  N21  1  0.232243  0.502217  0.973914  1
  N  N22  1  0.211975  0.711975  0.729153  1
  N  N23  1  0.980849  0.255051  0.500000  1
  N  N24  1  0.982822  0.482822  0.270847  1
  N  N25  1  0.258329  0.232243  0.730026  1
  N  N26  1  0.007262  0.777689  0.500000  1
  N  N27  1  0.482822  0.211975  0.500000  1
  N  N28  1  0.244142  0.996473  0.977844  1
  N  N29  1  0.755051  0.480849  0.500000  1
  N  N30  1  0.528303  0.258329  0.026086  1
  N  N31  1  0.002217  0.732243  0.973914  1
  N  N32  1  0.996473  0.018630  0.752332  1
  N  N33  1  0.777689  0.277689  0.770426  1
  N  N34  1  0.028303  0.002217  0.269974  1
  N  N35  1  0.018630  0.266298  0.022156  1
  N  N36  1  0.732243  0.758329  0.730026  1
  N  N37  1  0.766298  0.518630  0.022156  1
  N  N38  1  0.711975  0.982822  0.500000  1
  N  N39  1  0.502217  0.528303  0.269974  1
  N  N40  1  0.266298  0.244142  0.247668  1
  N  N41  1  0.518630  0.496473  0.752332  1
  N  N42  1  0.744142  0.766298  0.247668  1
  N  N43  1  0.277689  0.507262  0.500000  1
