# generated using pymatgen
data_Ti2Pd3
_symmetry_space_group_name_H-M   'P 1'
_cell_length_a   7.55898903
_cell_length_b   7.55898903
_cell_length_c   4.62987984
_cell_angle_alpha   90.00000000
_cell_angle_beta   90.00000000
_cell_angle_gamma   143.40239904
_symmetry_Int_Tables_number   1
_chemical_formula_structural   Ti2Pd3
_chemical_formula_sum   'Ti4 Pd6'
_cell_volume   157.71854222
_cell_formula_units_Z   2
loop_
 _symmetry_equiv_pos_site_id
 _symmetry_equiv_pos_as_xyz
  1  'x, y, z'
loop_
 _atom_site_type_symbol
 _atom_site_label
 _atom_site_symmetry_multiplicity
 _atom_site_fract_x
 _atom_site_fract_y
 _atom_site_fract_z
 _atom_site_occupancy
  Ti  Ti0  1  0.119226  0.334887  0.250000  1
  Ti  Ti1  1  0.880774  0.665113  0.750000  1
  Ti  Ti2  1  0.334887  0.119226  0.250000  1
  Ti  Ti3  1  0.665113  0.880774  0.750000  1
  Pd  Pd4  1  0.480922  0.091298  0.750000  1
  Pd  Pd5  1  0.519078  0.908702  0.250000  1
  Pd  Pd6  1  0.908702  0.519078  0.250000  1
  Pd  Pd7  1  0.091298  0.480922  0.750000  1
  Pd  Pd8  1  0.702939  0.702939  0.250000  1
  Pd  Pd9  1  0.297061  0.297061  0.750000  1
