# generated using pymatgen
data_Nd3NbO7
_symmetry_space_group_name_H-M   'P 1'
_cell_length_a   6.68183694
_cell_length_b   6.68183694
_cell_length_c   7.74611059
_cell_angle_alpha   90.00000000
_cell_angle_beta   90.00000000
_cell_angle_gamma   111.04629696
_symmetry_Int_Tables_number   1
_chemical_formula_structural   Nd3NbO7
_chemical_formula_sum   'Nd6 Nb2 O14'
_cell_volume   322.76936403
_cell_formula_units_Z   2
loop_
 _symmetry_equiv_pos_site_id
 _symmetry_equiv_pos_as_xyz
  1  'x, y, z'
loop_
 _atom_site_type_symbol
 _atom_site_label
 _atom_site_symmetry_multiplicity
 _atom_site_fract_x
 _atom_site_fract_y
 _atom_site_fract_z
 _atom_site_occupancy
  Nd  Nd0  1  0.931186  0.478947  0.750000  1
  Nd  Nd1  1  0.068814  0.521053  0.250000  1
  Nd  Nd2  1  0.000000  0.000000  0.500000  1
  Nd  Nd3  1  0.000000  0.000000  0.000000  1
  Nd  Nd4  1  0.521053  0.068814  0.250000  1
  Nd  Nd5  1  0.478947  0.931186  0.750000  1
  Nb  Nb6  1  0.500000  0.500000  1.000000  1
  Nb  Nb7  1  0.500000  0.500000  0.500000  1
  O  O8  1  0.571262  0.571262  0.750000  1
  O  O9  1  0.428738  0.428738  0.250000  1
  O  O10  1  0.846201  0.108797  0.750000  1
  O  O11  1  0.153799  0.891203  0.250000  1
  O  O12  1  0.108797  0.846201  0.750000  1
  O  O13  1  0.891203  0.153799  0.250000  1
  O  O14  1  0.438307  0.184306  0.965179  1
  O  O15  1  0.561693  0.815694  0.465179  1
  O  O16  1  0.184306  0.438307  0.965179  1
  O  O17  1  0.815694  0.561693  0.465179  1
  O  O18  1  0.438307  0.184306  0.534821  1
  O  O19  1  0.561693  0.815694  0.034821  1
  O  O20  1  0.815694  0.561693  0.034821  1
  O  O21  1  0.184306  0.438307  0.534821  1
