# generated using pymatgen
data_Sr4Lu3F17
_symmetry_space_group_name_H-M   'P 1'
_cell_length_a   8.96774363
_cell_length_b   8.98430728
_cell_length_c   9.01718761
_cell_angle_alpha   72.80858022
_cell_angle_beta   73.06843415
_cell_angle_gamma   73.02493232
_symmetry_Int_Tables_number   1
_chemical_formula_structural   Sr4Lu3F17
_chemical_formula_sum   'Sr8 Lu6 F34'
_cell_volume   646.89599513
_cell_formula_units_Z   2
loop_
 _symmetry_equiv_pos_site_id
 _symmetry_equiv_pos_as_xyz
  1  'x, y, z'
loop_
 _atom_site_type_symbol
 _atom_site_label
 _atom_site_symmetry_multiplicity
 _atom_site_fract_x
 _atom_site_fract_y
 _atom_site_fract_z
 _atom_site_occupancy
  Sr  Sr0  1  0.104593  0.691314  0.956361  1
  Sr  Sr1  1  0.733016  0.738119  0.736108  1
  Sr  Sr2  1  0.944937  0.110258  0.688576  1
  Sr  Sr3  1  0.309241  0.048169  0.894407  1
  Sr  Sr4  1  0.689590  0.946799  0.111661  1
  Sr  Sr5  1  0.047665  0.890079  0.311827  1
  Sr  Sr6  1  0.260720  0.267169  0.265355  1
  Sr  Sr7  1  0.891750  0.308926  0.053174  1
  Lu  Lu8  1  0.533393  0.388615  0.840145  1
  Lu  Lu9  1  0.388229  0.841024  0.533782  1
  Lu  Lu10  1  0.157837  0.467059  0.611441  1
  Lu  Lu11  1  0.815732  0.529783  0.390969  1
  Lu  Lu12  1  0.609893  0.179521  0.463170  1
  Lu  Lu13  1  0.471466  0.605912  0.175643  1
  F  F14  1  0.001991  0.994818  0.004150  1
  F  F15  1  0.544728  0.826952  0.981806  1
  F  F16  1  0.861936  0.863835  0.862806  1
  F  F17  1  0.642562  0.513532  0.955574  1
  F  F18  1  0.982386  0.547380  0.825633  1
  F  F19  1  0.741818  0.212793  0.919489  1
  F  F20  1  0.822389  0.982179  0.548645  1
  F  F21  1  0.213316  0.915720  0.742351  1
  F  F22  1  0.510261  0.962261  0.643813  1
  F  F23  1  0.457339  0.650587  0.737057  1
  F  F24  1  0.305493  0.404047  0.789145  1
  F  F25  1  0.743339  0.451594  0.655235  1
  F  F26  1  0.953034  0.644692  0.516081  1
  F  F27  1  0.600080  0.204919  0.699284  1
  F  F28  1  0.081778  0.257682  0.786810  1
  F  F29  1  0.649770  0.747725  0.454040  1
  F  F30  1  0.209473  0.696532  0.589982  1
  F  F31  1  0.556328  0.482523  0.446208  1
  F  F32  1  0.821989  0.283406  0.394439  1
  F  F33  1  0.346506  0.261324  0.542988  1
  F  F34  1  0.914097  0.737267  0.221449  1
  F  F35  1  0.408525  0.799152  0.300789  1
  F  F36  1  0.039270  0.358058  0.488828  1
  F  F37  1  0.258242  0.542717  0.350446  1
  F  F38  1  0.715195  0.603942  0.176316  1
  F  F39  1  0.547939  0.339819  0.240903  1
  F  F40  1  0.484512  0.046920  0.357349  1
  F  F41  1  0.783412  0.081204  0.260914  1
  F  F42  1  0.172859  0.018980  0.454489  1
  F  F43  1  0.261418  0.780906  0.089379  1
  F  F44  1  0.018893  0.453060  0.173595  1
  F  F45  1  0.353750  0.488727  0.042104  1
  F  F46  1  0.138535  0.135909  0.137712  1
  F  F47  1  0.451774  0.175088  0.018573  1
