# generated using pymatgen
data_Ba3Si23
_symmetry_space_group_name_H-M   'P 1'
_cell_length_a   10.31063945
_cell_length_b   10.31063945
_cell_length_c   10.31063945
_cell_angle_alpha   90.00000000
_cell_angle_beta   90.00000000
_cell_angle_gamma   90.00000000
_symmetry_Int_Tables_number   1
_chemical_formula_structural   Ba3Si23
_chemical_formula_sum   'Ba6 Si46'
_cell_volume   1096.11671677
_cell_formula_units_Z   2
loop_
 _symmetry_equiv_pos_site_id
 _symmetry_equiv_pos_as_xyz
  1  'x, y, z'
loop_
 _atom_site_type_symbol
 _atom_site_label
 _atom_site_symmetry_multiplicity
 _atom_site_fract_x
 _atom_site_fract_y
 _atom_site_fract_z
 _atom_site_occupancy
  Ba  Ba0  1  0.250000  0.500000  0.000000  1
  Ba  Ba1  1  0.750000  0.500000  0.000000  1
  Ba  Ba2  1  0.500000  0.000000  0.250000  1
  Ba  Ba3  1  0.500000  0.000000  0.750000  1
  Ba  Ba4  1  0.000000  0.750000  0.500000  1
  Ba  Ba5  1  0.000000  0.250000  0.500000  1
  Si  Si6  1  0.250000  0.000000  0.500000  1
  Si  Si7  1  0.750000  0.000000  0.500000  1
  Si  Si8  1  0.000000  0.500000  0.250000  1
  Si  Si9  1  0.000000  0.500000  0.750000  1
  Si  Si10  1  0.500000  0.750000  0.000000  1
  Si  Si11  1  0.500000  0.250000  0.000000  1
  Si  Si12  1  0.184250  0.184250  0.184250  1
  Si  Si13  1  0.684250  0.315750  0.684250  1
  Si  Si14  1  0.684250  0.684250  0.315750  1
  Si  Si15  1  0.315750  0.684250  0.684250  1
  Si  Si16  1  0.815750  0.815750  0.184250  1
  Si  Si17  1  0.184250  0.815750  0.815750  1
  Si  Si18  1  0.815750  0.184250  0.815750  1
  Si  Si19  1  0.315750  0.315750  0.315750  1
  Si  Si20  1  0.815750  0.815750  0.815750  1
  Si  Si21  1  0.315750  0.684250  0.315750  1
  Si  Si22  1  0.315750  0.315750  0.684250  1
  Si  Si23  1  0.684250  0.315750  0.315750  1
  Si  Si24  1  0.184250  0.184250  0.815750  1
  Si  Si25  1  0.815750  0.184250  0.184250  1
  Si  Si26  1  0.184250  0.815750  0.184250  1
  Si  Si27  1  0.684250  0.684250  0.684250  1
  Si  Si28  1  0.000000  0.304430  0.120552  1
  Si  Si29  1  0.500000  0.379448  0.804430  1
  Si  Si30  1  0.500000  0.620552  0.195570  1
  Si  Si31  1  0.620552  0.804430  0.500000  1
  Si  Si32  1  0.379448  0.804430  0.500000  1
  Si  Si33  1  0.195570  0.500000  0.620552  1
  Si  Si34  1  0.804430  0.500000  0.620552  1
  Si  Si35  1  0.120552  0.000000  0.304430  1
  Si  Si36  1  0.304430  0.120552  0.000000  1
  Si  Si37  1  0.695570  0.879448  0.000000  1
  Si  Si38  1  0.120552  0.000000  0.695570  1
  Si  Si39  1  0.695570  0.120552  0.000000  1
  Si  Si40  1  0.879448  0.000000  0.304430  1
  Si  Si41  1  0.879448  0.000000  0.695570  1
  Si  Si42  1  0.304430  0.879448  0.000000  1
  Si  Si43  1  0.000000  0.695570  0.879448  1
  Si  Si44  1  0.000000  0.304430  0.879448  1
  Si  Si45  1  0.000000  0.695570  0.120552  1
  Si  Si46  1  0.804430  0.500000  0.379448  1
  Si  Si47  1  0.195570  0.500000  0.379448  1
  Si  Si48  1  0.620552  0.195570  0.500000  1
  Si  Si49  1  0.379448  0.195570  0.500000  1
  Si  Si50  1  0.500000  0.620552  0.804430  1
  Si  Si51  1  0.500000  0.379448  0.195570  1
