# generated using pymatgen
data_Ho3(CuSi)4
_symmetry_space_group_name_H-M   'P 1'
_cell_length_a   7.84556151
_cell_length_b   7.84556151
_cell_length_c   7.84556151
_cell_angle_alpha   149.51236351
_cell_angle_beta   130.81015689
_cell_angle_gamma   58.98292865
_symmetry_Int_Tables_number   1
_chemical_formula_structural   Ho3(CuSi)4
_chemical_formula_sum   'Ho3 Cu4 Si4'
_cell_volume   183.99377492
_cell_formula_units_Z   1
loop_
 _symmetry_equiv_pos_site_id
 _symmetry_equiv_pos_as_xyz
  1  'x, y, z'
loop_
 _atom_site_type_symbol
 _atom_site_label
 _atom_site_symmetry_multiplicity
 _atom_site_fract_x
 _atom_site_fract_y
 _atom_site_fract_z
 _atom_site_occupancy
  Ho  Ho0  1  0.870570  0.370570  0.500000  1
  Ho  Ho1  1  0.129430  0.629430  0.500000  1
  Ho  Ho2  1  0.500000  0.500000  0.000000  1
  Cu  Cu3  1  0.521980  0.831169  0.690811  1
  Cu  Cu4  1  0.859642  0.168831  0.690811  1
  Cu  Cu5  1  0.140358  0.831169  0.309189  1
  Cu  Cu6  1  0.478020  0.168831  0.309189  1
  Si  Si7  1  0.815298  0.000000  0.815298  1
  Si  Si8  1  0.184702  0.000000  0.184702  1
  Si  Si9  1  0.283792  0.283792  0.000000  1
  Si  Si10  1  0.716208  0.716208  0.000000  1
