# generated using pymatgen
data_Li3Fe2P5O16
_symmetry_space_group_name_H-M   'P 1'
_cell_length_a   5.07543843
_cell_length_b   6.98596965
_cell_length_c   18.25207319
_cell_angle_alpha   90.00000000
_cell_angle_beta   91.98840784
_cell_angle_gamma   90.00000000
_symmetry_Int_Tables_number   1
_chemical_formula_structural   Li3Fe2P5O16
_chemical_formula_sum   'Li6 Fe4 P10 O32'
_cell_volume   646.77150613
_cell_formula_units_Z   2
loop_
 _symmetry_equiv_pos_site_id
 _symmetry_equiv_pos_as_xyz
  1  'x, y, z'
loop_
 _atom_site_type_symbol
 _atom_site_label
 _atom_site_symmetry_multiplicity
 _atom_site_fract_x
 _atom_site_fract_y
 _atom_site_fract_z
 _atom_site_occupancy
  Li  Li0  1  0.000000  0.022196  0.750000  1
  Li  Li1  1  0.241399  0.342811  0.464614  1
  Li  Li2  1  0.758601  0.657189  0.535386  1
  Li  Li3  1  0.758601  0.342811  0.035386  1
  Li  Li4  1  0.241399  0.657189  0.964614  1
  Li  Li5  1  0.000000  0.977804  0.250000  1
  Fe  Fe6  1  0.772893  0.828873  0.088369  1
  Fe  Fe7  1  0.772893  0.171127  0.588369  1
  Fe  Fe8  1  0.227107  0.828873  0.411631  1
  Fe  Fe9  1  0.227107  0.171127  0.911631  1
  P  P10  1  0.723735  0.129335  0.412743  1
  P  P11  1  0.723735  0.870665  0.912743  1
  P  P12  1  0.753580  0.472306  0.874902  1
  P  P13  1  0.500000  0.244279  0.750000  1
  P  P14  1  0.753580  0.527694  0.374902  1
  P  P15  1  0.276265  0.129335  0.087257  1
  P  P16  1  0.246420  0.472306  0.625098  1
  P  P17  1  0.276265  0.870665  0.587257  1
  P  P18  1  0.500000  0.755721  0.250000  1
  P  P19  1  0.246420  0.527694  0.125098  1
  O  O20  1  0.699455  0.309398  0.353810  1
  O  O21  1  0.119386  0.211137  0.020716  1
  O  O22  1  0.679569  0.133472  0.701547  1
  O  O23  1  0.689148  0.386356  0.794941  1
  O  O24  1  0.564361  0.088454  0.070590  1
  O  O25  1  0.119386  0.788863  0.520716  1
  O  O26  1  0.435639  0.088454  0.429410  1
  O  O27  1  0.954645  0.447183  0.607341  1
  O  O28  1  0.679569  0.866528  0.201547  1
  O  O29  1  0.300545  0.309398  0.146190  1
  O  O30  1  0.954645  0.552817  0.107341  1
  O  O31  1  0.699455  0.690602  0.853810  1
  O  O32  1  0.128530  0.976735  0.129103  1
  O  O33  1  0.431067  0.395179  0.568755  1
  O  O34  1  0.310852  0.386356  0.705059  1
  O  O35  1  0.045355  0.447183  0.892659  1
  O  O36  1  0.689148  0.613644  0.294941  1
  O  O37  1  0.320431  0.133472  0.798453  1
  O  O38  1  0.310852  0.613644  0.205059  1
  O  O39  1  0.300545  0.690602  0.646190  1
  O  O40  1  0.871470  0.976735  0.370897  1
  O  O41  1  0.045355  0.552817  0.392659  1
  O  O42  1  0.880614  0.211137  0.479284  1
  O  O43  1  0.568933  0.604821  0.431245  1
  O  O44  1  0.568933  0.395179  0.931245  1
  O  O45  1  0.435639  0.911546  0.929410  1
  O  O46  1  0.871470  0.023265  0.870897  1
  O  O47  1  0.431067  0.604821  0.068755  1
  O  O48  1  0.880614  0.788863  0.979284  1
  O  O49  1  0.564361  0.911546  0.570590  1
  O  O50  1  0.320431  0.866528  0.298453  1
  O  O51  1  0.128530  0.023265  0.629103  1
