# generated using pymatgen
data_Gd2B4O9
_symmetry_space_group_name_H-M   'P 1'
_cell_length_a   6.26296033
_cell_length_b   6.54632728
_cell_length_c   7.56489369
_cell_angle_alpha   102.05182299
_cell_angle_beta   96.96202874
_cell_angle_gamma   102.41425297
_symmetry_Int_Tables_number   1
_chemical_formula_structural   Gd2B4O9
_chemical_formula_sum   'Gd4 B8 O18'
_cell_volume   291.71399395
_cell_formula_units_Z   2
loop_
 _symmetry_equiv_pos_site_id
 _symmetry_equiv_pos_as_xyz
  1  'x, y, z'
loop_
 _atom_site_type_symbol
 _atom_site_label
 _atom_site_symmetry_multiplicity
 _atom_site_fract_x
 _atom_site_fract_y
 _atom_site_fract_z
 _atom_site_occupancy
  Gd  Gd0  1  0.451583  0.908821  0.714804  1
  Gd  Gd1  1  0.548417  0.091179  0.285196  1
  Gd  Gd2  1  0.113747  0.322699  0.641169  1
  Gd  Gd3  1  0.886253  0.677301  0.358831  1
  B  B4  1  0.994251  0.148465  0.187522  1
  B  B5  1  0.005749  0.851535  0.812478  1
  B  B6  1  0.372428  0.642817  0.346610  1
  B  B7  1  0.627572  0.357183  0.653390  1
  B  B8  1  0.271348  0.665619  0.018189  1
  B  B9  1  0.728652  0.334381  0.981811  1
  B  B10  1  0.338301  0.322039  0.074893  1
  B  B11  1  0.661699  0.677961  0.925107  1
  O  O12  1  0.575122  0.814356  0.441537  1
  O  O13  1  0.238915  0.735129  0.208503  1
  O  O14  1  0.779709  0.404824  0.524858  1
  O  O15  1  0.220291  0.595176  0.475142  1
  O  O16  1  0.761085  0.264871  0.791497  1
  O  O17  1  0.859025  0.280291  0.139555  1
  O  O18  1  0.543157  0.536372  0.747980  1
  O  O19  1  0.456843  0.463628  0.252020  1
  O  O20  1  0.771293  0.568179  0.039772  1
  O  O21  1  0.228707  0.431821  0.960228  1
  O  O22  1  0.813538  0.862280  0.879676  1
  O  O23  1  0.186462  0.137720  0.120324  1
  O  O24  1  0.067313  0.953012  0.677934  1
  O  O25  1  0.932687  0.046988  0.322066  1
  O  O26  1  0.495097  0.214699  0.983972  1
  O  O27  1  0.504903  0.785301  0.016028  1
  O  O28  1  0.140975  0.719709  0.860445  1
  O  O29  1  0.424878  0.185644  0.558463  1
