# generated using pymatgen
data_NbBi3O7
_symmetry_space_group_name_H-M   'P 1'
_cell_length_a   3.84864549
_cell_length_b   3.84849385
_cell_length_c   12.85538829
_cell_angle_alpha   82.09902780
_cell_angle_beta   81.79275308
_cell_angle_gamma   62.30288174
_symmetry_Int_Tables_number   1
_chemical_formula_structural   NbBi3O7
_chemical_formula_sum   'Nb1 Bi3 O7'
_cell_volume   166.31307644
_cell_formula_units_Z   1
loop_
 _symmetry_equiv_pos_site_id
 _symmetry_equiv_pos_as_xyz
  1  'x, y, z'
loop_
 _atom_site_type_symbol
 _atom_site_label
 _atom_site_symmetry_multiplicity
 _atom_site_fract_x
 _atom_site_fract_y
 _atom_site_fract_z
 _atom_site_occupancy
  Nb  Nb0  1  0.534656  0.448483  0.494410  1
  Bi  Bi1  1  0.949058  0.025309  0.002657  1
  Bi  Bi2  1  0.701035  0.797958  0.725959  1
  Bi  Bi3  1  0.190167  0.281880  0.262852  1
  O  O4  1  0.374226  0.489375  0.649132  1
  O  O5  1  0.989033  0.114334  0.810624  1
  O  O6  1  0.114653  0.239406  0.454739  1
  O  O7  1  0.741471  0.868410  0.534578  1
  O  O8  1  0.876838  0.976501  0.185236  1
  O  O9  1  0.495671  0.603617  0.340768  1
  O  O10  1  0.284693  0.358227  0.016545  1
