# generated using pymatgen
data_Cd(CN)2
_symmetry_space_group_name_H-M   'P 1'
_cell_length_a   6.48292947
_cell_length_b   6.48292947
_cell_length_c   6.43030274
_cell_angle_alpha   90.00000000
_cell_angle_beta   90.00000000
_cell_angle_gamma   90.00000000
_symmetry_Int_Tables_number   1
_chemical_formula_structural   Cd(CN)2
_chemical_formula_sum   'Cd2 C4 N4'
_cell_volume   270.25517179
_cell_formula_units_Z   2
loop_
 _symmetry_equiv_pos_site_id
 _symmetry_equiv_pos_as_xyz
  1  'x, y, z'
loop_
 _atom_site_type_symbol
 _atom_site_label
 _atom_site_symmetry_multiplicity
 _atom_site_fract_x
 _atom_site_fract_y
 _atom_site_fract_z
 _atom_site_occupancy
  Cd  Cd0  1  0.000000  0.000000  0.262839  1
  Cd  Cd1  1  0.500000  0.500000  0.762839  1
  C  C2  1  0.203748  0.796252  0.444733  1
  C  C3  1  0.796252  0.203748  0.444733  1
  C  C4  1  0.703748  0.703748  0.944733  1
  C  C5  1  0.296252  0.296252  0.944733  1
  N  N6  1  0.808010  0.808010  0.048847  1
  N  N7  1  0.191990  0.191990  0.048847  1
  N  N8  1  0.691990  0.308010  0.548847  1
  N  N9  1  0.308010  0.691990  0.548847  1
