# generated using pymatgen
data_Sc2Te3
_symmetry_space_group_name_H-M   'P 1'
_cell_length_a   7.19981616
_cell_length_b   7.19981616
_cell_length_c   7.12119102
_cell_angle_alpha   80.40209340
_cell_angle_beta   99.59790660
_cell_angle_gamma   60.27136687
_symmetry_Int_Tables_number   1
_chemical_formula_structural   Sc2Te3
_chemical_formula_sum   'Sc4 Te6'
_cell_volume   302.36437673
_cell_formula_units_Z   2
loop_
 _symmetry_equiv_pos_site_id
 _symmetry_equiv_pos_as_xyz
  1  'x, y, z'
loop_
 _atom_site_type_symbol
 _atom_site_label
 _atom_site_symmetry_multiplicity
 _atom_site_fract_x
 _atom_site_fract_y
 _atom_site_fract_z
 _atom_site_occupancy
  Sc  Sc0  1  0.915023  0.915023  0.250000  1
  Sc  Sc1  1  0.084977  0.084977  0.750000  1
  Sc  Sc2  1  0.750725  0.750725  0.750000  1
  Sc  Sc3  1  0.249275  0.249275  0.250000  1
  Te  Te4  1  0.668143  0.164237  0.499704  1
  Te  Te5  1  0.331857  0.835763  0.500296  1
  Te  Te6  1  0.164237  0.668143  0.000296  1
  Te  Te7  1  0.000000  0.500000  0.500000  1
  Te  Te8  1  0.835763  0.331857  0.999704  1
  Te  Te9  1  0.500000  0.000000  0.000000  1
