# generated using pymatgen
data_Al2FeO4
_symmetry_space_group_name_H-M   'P 1'
_cell_length_a   5.82161813
_cell_length_b   5.82161813
_cell_length_c   5.82161813
_cell_angle_alpha   121.22502033
_cell_angle_beta   119.37642525
_cell_angle_gamma   89.48744050
_symmetry_Int_Tables_number   1
_chemical_formula_structural   Al2FeO4
_chemical_formula_sum   'Al4 Fe2 O8'
_cell_volume   138.82761854
_cell_formula_units_Z   2
loop_
 _symmetry_equiv_pos_site_id
 _symmetry_equiv_pos_as_xyz
  1  'x, y, z'
loop_
 _atom_site_type_symbol
 _atom_site_label
 _atom_site_symmetry_multiplicity
 _atom_site_fract_x
 _atom_site_fract_y
 _atom_site_fract_z
 _atom_site_occupancy
  Al  Al0  1  0.385294  0.135294  0.750000  1
  Al  Al1  1  0.000000  0.500000  0.000000  1
  Al  Al2  1  0.500000  0.500000  0.500000  1
  Al  Al3  1  0.614706  0.864706  0.250000  1
  Fe  Fe4  1  0.000000  0.000000  0.000000  1
  Fe  Fe5  1  0.000000  0.500000  0.500000  1
  O  O6  1  0.760484  0.268324  0.992160  1
  O  O7  1  0.276165  0.268324  0.507840  1
  O  O8  1  0.257489  0.271897  0.014408  1
  O  O9  1  0.257489  0.743082  0.485592  1
  O  O10  1  0.742511  0.256918  0.514408  1
  O  O11  1  0.742511  0.728103  0.985592  1
  O  O12  1  0.723835  0.731676  0.492160  1
  O  O13  1  0.239516  0.731676  0.007840  1
