# generated using pymatgen
data_Al2NiO4
_symmetry_space_group_name_H-M   'P 1'
_cell_length_a   5.75969296
_cell_length_b   5.75969296
_cell_length_c   13.99505676
_cell_angle_alpha   89.89882281
_cell_angle_beta   90.10117719
_cell_angle_gamma   119.86136080
_symmetry_Int_Tables_number   1
_chemical_formula_structural   Al2NiO4
_chemical_formula_sum   'Al12 Ni6 O24'
_cell_volume   402.63180790
_cell_formula_units_Z   6
loop_
 _symmetry_equiv_pos_site_id
 _symmetry_equiv_pos_as_xyz
  1  'x, y, z'
loop_
 _atom_site_type_symbol
 _atom_site_label
 _atom_site_symmetry_multiplicity
 _atom_site_fract_x
 _atom_site_fract_y
 _atom_site_fract_z
 _atom_site_occupancy
  Al  Al0  1  0.171314  0.332933  0.167442  1
  Al  Al1  1  0.500850  0.499150  0.004020  1
  Al  Al2  1  0.495221  0.504779  0.378936  1
  Al  Al3  1  0.667067  0.828686  0.167442  1
  Al  Al4  1  0.499981  0.000307  0.499339  1
  Al  Al5  1  0.825921  0.174079  0.708389  1
  Al  Al6  1  0.999693  0.500019  0.499339  1
  Al  Al7  1  0.173353  0.826647  0.287927  1
  Al  Al8  1  0.834255  0.670121  0.831824  1
  Al  Al9  1  0.329879  0.165745  0.831824  1
  Al  Al10  1  0.504809  0.495191  0.622066  1
  Al  Al11  1  0.839663  0.160337  0.959851  1
  Ni  Ni12  1  0.165470  0.834530  0.041668  1
  Ni  Ni13  1  0.834170  0.165830  0.332644  1
  Ni  Ni14  1  0.667182  0.332818  0.167530  1
  Ni  Ni15  1  0.165704  0.834296  0.666622  1
  Ni  Ni16  1  0.000062  0.999938  0.499722  1
  Ni  Ni17  1  0.331093  0.668907  0.832290  1
  O  O18  1  0.337250  0.203630  0.084993  1
  O  O19  1  0.493978  0.506022  0.250154  1
  O  O20  1  0.796370  0.662750  0.084993  1
  O  O21  1  0.353826  0.646174  0.089858  1
  O  O22  1  0.000553  0.999447  0.241993  1
  O  O23  1  0.654862  0.842719  0.422512  1
  O  O24  1  0.509369  0.985242  0.244125  1
  O  O25  1  0.842809  0.157191  0.088741  1
  O  O26  1  0.157281  0.345138  0.422512  1
  O  O27  1  0.824497  0.175503  0.578319  1
  O  O28  1  0.014758  0.490631  0.244125  1
  O  O29  1  0.669263  0.330737  0.423586  1
  O  O30  1  0.984045  0.506721  0.754594  1
  O  O31  1  0.330977  0.669023  0.577438  1
  O  O32  1  0.842119  0.654535  0.578318  1
  O  O33  1  0.152976  0.847024  0.900184  1
  O  O34  1  0.175185  0.824815  0.420253  1
  O  O35  1  0.493279  0.015955  0.754594  1
  O  O36  1  0.996365  0.003635  0.755148  1
  O  O37  1  0.345465  0.157881  0.578318  1
  O  O38  1  0.658386  0.341614  0.916339  1
  O  O39  1  0.188251  0.332668  0.917711  1
  O  O40  1  0.507651  0.492349  0.754582  1
  O  O41  1  0.667332  0.811749  0.917711  1
