# generated using pymatgen
data_LiV(PO3)4
_symmetry_space_group_name_H-M   'P 1'
_cell_length_a   5.26903087
_cell_length_b   13.73461041
_cell_length_c   7.26328712
_cell_angle_alpha   90.00000000
_cell_angle_beta   97.25874252
_cell_angle_gamma   90.00000000
_symmetry_Int_Tables_number   1
_chemical_formula_structural   LiV(PO3)4
_chemical_formula_sum   'Li2 V2 P8 O24'
_cell_volume   521.41762124
_cell_formula_units_Z   2
loop_
 _symmetry_equiv_pos_site_id
 _symmetry_equiv_pos_as_xyz
  1  'x, y, z'
loop_
 _atom_site_type_symbol
 _atom_site_label
 _atom_site_symmetry_multiplicity
 _atom_site_fract_x
 _atom_site_fract_y
 _atom_site_fract_z
 _atom_site_occupancy
  Li  Li0  1  0.618807  0.008162  0.113809  1
  Li  Li1  1  0.381193  0.508162  0.886191  1
  V  V2  1  0.485757  0.736431  0.492969  1
  V  V3  1  0.514243  0.236431  0.507031  1
  P  P4  1  0.996349  0.375930  0.454242  1
  P  P5  1  0.138828  0.671537  0.101576  1
  P  P6  1  0.969033  0.598344  0.448822  1
  P  P7  1  0.779294  0.820032  0.884709  1
  P  P8  1  0.030967  0.098344  0.551178  1
  P  P9  1  0.003651  0.875930  0.545758  1
  P  P10  1  0.220706  0.320032  0.115291  1
  P  P11  1  0.861172  0.171537  0.898424  1
  O  O12  1  0.031321  0.106001  0.772260  1
  O  O13  1  0.935599  0.988833  0.504842  1
  O  O14  1  0.064401  0.488833  0.495158  1
  O  O15  1  0.950988  0.760845  0.043366  1
  O  O16  1  0.635244  0.214732  0.775567  1
  O  O17  1  0.388135  0.250047  0.237518  1
  O  O18  1  0.655004  0.899675  0.976790  1
  O  O19  1  0.005244  0.365235  0.234907  1
  O  O20  1  0.364756  0.714732  0.224433  1
  O  O21  1  0.724205  0.360416  0.493625  1
  O  O22  1  0.170724  0.661383  0.551413  1
  O  O23  1  0.994756  0.865235  0.765093  1
  O  O24  1  0.206814  0.319944  0.565450  1
  O  O25  1  0.185129  0.611805  0.940089  1
  O  O26  1  0.275795  0.860416  0.506375  1
  O  O27  1  0.829276  0.161383  0.448587  1
  O  O28  1  0.049012  0.260845  0.956634  1
  O  O29  1  0.303620  0.109798  0.510394  1
  O  O30  1  0.696380  0.609798  0.489606  1
  O  O31  1  0.344996  0.399675  0.023210  1
  O  O32  1  0.968679  0.606001  0.227740  1
  O  O33  1  0.611865  0.750047  0.762482  1
  O  O34  1  0.814871  0.111805  0.059911  1
  O  O35  1  0.793186  0.819944  0.434550  1
