# generated using pymatgen
data_SbKr3F11
_symmetry_space_group_name_H-M   'P 1'
_cell_length_a   8.26862368
_cell_length_b   8.87482375
_cell_length_c   9.26700048
_cell_angle_alpha   110.02451969
_cell_angle_beta   115.94459983
_cell_angle_gamma   83.37250656
_symmetry_Int_Tables_number   1
_chemical_formula_structural   SbKr3F11
_chemical_formula_sum   'Sb2 Kr6 F22'
_cell_volume   574.05670332
_cell_formula_units_Z   2
loop_
 _symmetry_equiv_pos_site_id
 _symmetry_equiv_pos_as_xyz
  1  'x, y, z'
loop_
 _atom_site_type_symbol
 _atom_site_label
 _atom_site_symmetry_multiplicity
 _atom_site_fract_x
 _atom_site_fract_y
 _atom_site_fract_z
 _atom_site_occupancy
  Sb  Sb0  1  0.290449  0.678440  0.220984  1
  Sb  Sb1  1  0.709551  0.321560  0.779016  1
  Kr  Kr2  1  0.683101  0.328932  0.270500  1
  Kr  Kr3  1  0.316899  0.671068  0.729500  1
  Kr  Kr4  1  0.236144  0.166490  0.218531  1
  Kr  Kr5  1  0.763856  0.833510  0.781469  1
  Kr  Kr6  1  0.809510  0.852431  0.293034  1
  Kr  Kr7  1  0.190490  0.147569  0.706966  1
  F  F8  1  0.996804  0.117699  0.154689  1
  F  F9  1  0.003196  0.882301  0.845311  1
  F  F10  1  0.938228  0.788078  0.492295  1
  F  F11  1  0.061772  0.211922  0.507705  1
  F  F12  1  0.684659  0.924528  0.097688  1
  F  F13  1  0.315341  0.075472  0.902312  1
  F  F14  1  0.262377  0.878722  0.374883  1
  F  F15  1  0.737623  0.121278  0.625117  1
  F  F16  1  0.460368  0.320536  0.622913  1
  F  F17  1  0.539632  0.679464  0.377087  1
  F  F18  1  0.638263  0.204983  0.884514  1
  F  F19  1  0.361737  0.795017  0.115486  1
  F  F20  1  0.956007  0.317400  0.932882  1
  F  F21  1  0.043993  0.682600  0.067118  1
  F  F22  1  0.674204  0.521446  0.927906  1
  F  F23  1  0.325796  0.478554  0.072094  1
  F  F24  1  0.488181  0.801368  0.699158  1
  F  F25  1  0.511819  0.198632  0.300842  1
  F  F26  1  0.774502  0.437921  0.669594  1
  F  F27  1  0.225498  0.562079  0.330406  1
  F  F28  1  0.145870  0.560036  0.737054  1
  F  F29  1  0.854130  0.439964  0.262946  1
