# generated using pymatgen
data_LiCrPO4
_symmetry_space_group_name_H-M   'P 1'
_cell_length_a   5.03721765
_cell_length_b   5.03721765
_cell_length_c   6.35214202
_cell_angle_alpha   90.00000000
_cell_angle_beta   90.00000000
_cell_angle_gamma   110.49463165
_symmetry_Int_Tables_number   1
_chemical_formula_structural   LiCrPO4
_chemical_formula_sum   'Li2 Cr2 P2 O8'
_cell_volume   150.97480221
_cell_formula_units_Z   2
loop_
 _symmetry_equiv_pos_site_id
 _symmetry_equiv_pos_as_xyz
  1  'x, y, z'
loop_
 _atom_site_type_symbol
 _atom_site_label
 _atom_site_symmetry_multiplicity
 _atom_site_fract_x
 _atom_site_fract_y
 _atom_site_fract_z
 _atom_site_occupancy
  Li  Li0  1  0.331372  0.668628  0.250000  1
  Li  Li1  1  0.668628  0.331372  0.750000  1
  Cr  Cr2  1  0.000000  0.000000  0.000000  1
  Cr  Cr3  1  0.000000  0.000000  0.500000  1
  P  P4  1  0.648777  0.351223  0.250000  1
  P  P5  1  0.351223  0.648777  0.750000  1
  O  O6  1  0.316769  0.248142  0.250000  1
  O  O7  1  0.248142  0.316769  0.750000  1
  O  O8  1  0.754662  0.245338  0.450425  1
  O  O9  1  0.751858  0.683231  0.250000  1
  O  O10  1  0.683231  0.751858  0.750000  1
  O  O11  1  0.245338  0.754662  0.549575  1
  O  O12  1  0.245338  0.754662  0.950425  1
  O  O13  1  0.754662  0.245338  0.049575  1
