# generated using pymatgen
data_Bi2(MoO4)3
_symmetry_space_group_name_H-M   'P 1'
_cell_length_a   7.83609426
_cell_length_b   11.63430603
_cell_length_c   12.01985732
_cell_angle_alpha   90.00000000
_cell_angle_beta   113.36327000
_cell_angle_gamma   90.00000000
_symmetry_Int_Tables_number   1
_chemical_formula_structural   Bi2(MoO4)3
_chemical_formula_sum   'Bi8 Mo12 O48'
_cell_volume   1005.97317770
_cell_formula_units_Z   4
loop_
 _symmetry_equiv_pos_site_id
 _symmetry_equiv_pos_as_xyz
  1  'x, y, z'
loop_
 _atom_site_type_symbol
 _atom_site_label
 _atom_site_symmetry_multiplicity
 _atom_site_fract_x
 _atom_site_fract_y
 _atom_site_fract_z
 _atom_site_occupancy
  Bi  Bi0  1  0.907963  0.631976  0.579454  1
  Bi  Bi1  1  0.092037  0.131976  0.920546  1
  Bi  Bi2  1  0.092037  0.368024  0.420546  1
  Bi  Bi3  1  0.907963  0.868024  0.079454  1
  Bi  Bi4  1  0.253471  0.866970  0.754811  1
  Bi  Bi5  1  0.746529  0.366970  0.745189  1
  Bi  Bi6  1  0.746529  0.133030  0.245189  1
  Bi  Bi7  1  0.253471  0.633030  0.254811  1
  Mo  Mo8  1  0.734977  0.863915  0.703215  1
  Mo  Mo9  1  0.265023  0.363915  0.796785  1
  Mo  Mo10  1  0.265023  0.136085  0.296785  1
  Mo  Mo11  1  0.734977  0.636085  0.203215  1
  Mo  Mo12  1  0.424230  0.647982  0.609098  1
  Mo  Mo13  1  0.575770  0.147982  0.890902  1
  Mo  Mo14  1  0.575770  0.352018  0.390902  1
  Mo  Mo15  1  0.424230  0.852018  0.109098  1
  Mo  Mo16  1  0.044902  0.613434  0.918057  1
  Mo  Mo17  1  0.955098  0.113434  0.581943  1
  Mo  Mo18  1  0.955098  0.386566  0.081943  1
  Mo  Mo19  1  0.044902  0.886566  0.418057  1
  O  O20  1  0.686216  0.971372  0.596173  1
  O  O21  1  0.313784  0.471372  0.903827  1
  O  O22  1  0.313784  0.028628  0.403827  1
  O  O23  1  0.686216  0.528628  0.096173  1
  O  O24  1  0.842097  0.935573  0.845259  1
  O  O25  1  0.157903  0.435573  0.654741  1
  O  O26  1  0.157903  0.064427  0.154741  1
  O  O27  1  0.842097  0.564427  0.345259  1
  O  O28  1  0.141760  0.953010  0.574599  1
  O  O29  1  0.858240  0.453010  0.925401  1
  O  O30  1  0.858240  0.046990  0.425401  1
  O  O31  1  0.141760  0.546990  0.074599  1
  O  O32  1  0.302745  0.937901  0.976768  1
  O  O33  1  0.697255  0.437901  0.523232  1
  O  O34  1  0.697255  0.062099  0.023232  1
  O  O35  1  0.302745  0.562099  0.476768  1
  O  O36  1  0.951729  0.792370  0.696241  1
  O  O37  1  0.509886  0.807979  0.710802  1
  O  O38  1  0.490114  0.192021  0.289198  1
  O  O39  1  0.509886  0.692021  0.210802  1
  O  O40  1  0.537204  0.955986  0.218076  1
  O  O41  1  0.462796  0.455986  0.281924  1
  O  O42  1  0.462796  0.044014  0.781924  1
  O  O43  1  0.537204  0.544013  0.718076  1
  O  O44  1  0.939091  0.948388  0.260255  1
  O  O45  1  0.060909  0.448388  0.239745  1
  O  O46  1  0.060909  0.051612  0.739745  1
  O  O47  1  0.939091  0.551612  0.760255  1
  O  O48  1  0.216342  0.805822  0.146067  1
  O  O49  1  0.783658  0.305822  0.353933  1
  O  O50  1  0.783658  0.194178  0.853933  1
  O  O51  1  0.216342  0.694178  0.646067  1
  O  O52  1  0.877220  0.789206  0.427123  1
  O  O53  1  0.122780  0.289206  0.072877  1
  O  O54  1  0.122780  0.210794  0.572877  1
  O  O55  1  0.877220  0.710794  0.927123  1
  O  O56  1  0.227885  0.795426  0.423016  1
  O  O57  1  0.772115  0.295426  0.076984  1
  O  O58  1  0.772115  0.204574  0.576984  1
  O  O59  1  0.227885  0.704574  0.923016  1
  O  O60  1  0.627500  0.792020  0.075497  1
  O  O61  1  0.372500  0.292020  0.424503  1
  O  O62  1  0.372500  0.207980  0.924503  1
  O  O63  1  0.627500  0.707980  0.575497  1
  O  O64  1  0.951729  0.707630  0.196241  1
  O  O65  1  0.048271  0.207630  0.303759  1
  O  O66  1  0.048271  0.292370  0.803759  1
  O  O67  1  0.490114  0.307979  0.789198  1
