# generated using pymatgen
data_MnReO4
_symmetry_space_group_name_H-M   'P 1'
_cell_length_a   4.81116737
_cell_length_b   5.75614062
_cell_length_c   5.15467418
_cell_angle_alpha   90.00000000
_cell_angle_beta   92.71761499
_cell_angle_gamma   90.00000000
_symmetry_Int_Tables_number   1
_chemical_formula_structural   MnReO4
_chemical_formula_sum   'Mn2 Re2 O8'
_cell_volume   142.59174159
_cell_formula_units_Z   2
loop_
 _symmetry_equiv_pos_site_id
 _symmetry_equiv_pos_as_xyz
  1  'x, y, z'
loop_
 _atom_site_type_symbol
 _atom_site_label
 _atom_site_symmetry_multiplicity
 _atom_site_fract_x
 _atom_site_fract_y
 _atom_site_fract_z
 _atom_site_occupancy
  Mn  Mn0  1  0.000000  0.673114  0.750000  1
  Mn  Mn1  1  0.000000  0.326886  0.250000  1
  Re  Re2  1  0.500000  0.167160  0.750000  1
  Re  Re3  1  0.500000  0.832840  0.250000  1
  O  O4  1  0.759250  0.370739  0.888509  1
  O  O5  1  0.240750  0.370739  0.611491  1
  O  O6  1  0.240750  0.629261  0.111491  1
  O  O7  1  0.759250  0.629261  0.388509  1
  O  O8  1  0.707059  0.896422  0.941591  1
  O  O9  1  0.292941  0.896422  0.558409  1
  O  O10  1  0.707059  0.103578  0.441591  1
  O  O11  1  0.292941  0.103578  0.058409  1
