# generated using pymatgen
data_ZrGa
_symmetry_space_group_name_H-M   'P 1'
_cell_length_a   10.63232397
_cell_length_b   10.63232397
_cell_length_c   10.63232397
_cell_angle_alpha   158.88327233
_cell_angle_beta   158.88327233
_cell_angle_gamma   30.03763543
_symmetry_Int_Tables_number   1
_chemical_formula_structural   ZrGa
_chemical_formula_sum   'Zr4 Ga4'
_cell_volume   155.91092335
_cell_formula_units_Z   4
loop_
 _symmetry_equiv_pos_site_id
 _symmetry_equiv_pos_as_xyz
  1  'x, y, z'
loop_
 _atom_site_type_symbol
 _atom_site_label
 _atom_site_symmetry_multiplicity
 _atom_site_fract_x
 _atom_site_fract_y
 _atom_site_fract_z
 _atom_site_occupancy
  Zr  Zr0  1  0.447341  0.947341  0.500000  1
  Zr  Zr1  1  0.052659  0.552659  0.500000  1
  Zr  Zr2  1  0.697341  0.697341  0.000000  1
  Zr  Zr3  1  0.302659  0.302659  0.000000  1
  Ga  Ga4  1  0.164952  0.164952  0.000000  1
  Ga  Ga5  1  0.585048  0.085048  0.500000  1
  Ga  Ga6  1  0.914952  0.414952  0.500000  1
  Ga  Ga7  1  0.835048  0.835048  0.000000  1
