# generated using pymatgen
data_Zn2SnO4
_symmetry_space_group_name_H-M   'P 1'
_cell_length_a   6.21658715
_cell_length_b   6.21658715
_cell_length_c   6.21658715
_cell_angle_alpha   121.25358120
_cell_angle_beta   118.79176442
_cell_angle_gamma   89.97396463
_symmetry_Int_Tables_number   1
_chemical_formula_structural   Zn2SnO4
_chemical_formula_sum   'Zn4 Sn2 O8'
_cell_volume   169.72326552
_cell_formula_units_Z   2
loop_
 _symmetry_equiv_pos_site_id
 _symmetry_equiv_pos_as_xyz
  1  'x, y, z'
loop_
 _atom_site_type_symbol
 _atom_site_label
 _atom_site_symmetry_multiplicity
 _atom_site_fract_x
 _atom_site_fract_y
 _atom_site_fract_z
 _atom_site_occupancy
  Zn  Zn0  1  0.108422  0.858422  0.750000  1
  Zn  Zn1  1  0.891578  0.141578  0.250000  1
  Zn  Zn2  1  0.500000  0.000000  0.500000  1
  Zn  Zn3  1  0.500000  0.500000  0.000000  1
  Sn  Sn4  1  0.500000  0.500000  0.500000  1
  Sn  Sn5  1  0.000000  0.500000  0.000000  1
  O  O6  1  0.282550  0.265116  0.517434  1
  O  O7  1  0.747682  0.265116  0.982566  1
  O  O8  1  0.749402  0.266356  0.516955  1
  O  O9  1  0.749402  0.732447  0.983045  1
  O  O10  1  0.250598  0.267553  0.016955  1
  O  O11  1  0.250598  0.733644  0.483045  1
  O  O12  1  0.252318  0.734884  0.017434  1
  O  O13  1  0.717450  0.734884  0.482566  1
