# generated using pymatgen
data_Al13Co4
_symmetry_space_group_name_H-M   'P 1'
_cell_length_a   8.20223959
_cell_length_b   12.38816426
_cell_length_c   14.44381185
_cell_angle_alpha   90.00000000
_cell_angle_beta   90.00000000
_cell_angle_gamma   90.00000000
_symmetry_Int_Tables_number   1
_chemical_formula_structural   Al13Co4
_chemical_formula_sum   'Al78 Co24'
_cell_volume   1467.64570767
_cell_formula_units_Z   6
loop_
 _symmetry_equiv_pos_site_id
 _symmetry_equiv_pos_as_xyz
  1  'x, y, z'
loop_
 _atom_site_type_symbol
 _atom_site_label
 _atom_site_symmetry_multiplicity
 _atom_site_fract_x
 _atom_site_fract_y
 _atom_site_fract_z
 _atom_site_occupancy
  Al  Al0  1  0.000000  0.755440  0.403720  1
  Al  Al1  1  0.500000  0.744560  0.903720  1
  Al  Al2  1  0.000000  0.850560  0.564952  1
  Al  Al3  1  0.500000  0.649440  0.064952  1
  Al  Al4  1  0.000000  0.656134  0.209816  1
  Al  Al5  1  0.500000  0.843866  0.709816  1
  Al  Al6  1  0.000000  0.659830  0.024959  1
  Al  Al7  1  0.500000  0.840170  0.524959  1
  Al  Al8  1  0.000000  0.885762  0.256210  1
  Al  Al9  1  0.500000  0.614238  0.756210  1
  Al  Al10  1  0.000000  0.570662  0.739165  1
  Al  Al11  1  0.500000  0.929338  0.239165  1
  Al  Al12  1  0.000000  0.554241  0.421610  1
  Al  Al13  1  0.500000  0.945759  0.921610  1
  Al  Al14  1  0.000000  0.000000  0.000000  1
  Al  Al15  1  0.500000  0.500000  0.500000  1
  Al  Al16  1  0.000000  0.149440  0.435048  1
  Al  Al17  1  0.500000  0.350560  0.935048  1
  Al  Al18  1  0.000000  0.114238  0.743790  1
  Al  Al19  1  0.500000  0.385762  0.243790  1
  Al  Al20  1  0.000000  0.429338  0.260835  1
  Al  Al21  1  0.500000  0.070662  0.760835  1
  Al  Al22  1  0.000000  0.340170  0.975041  1
  Al  Al23  1  0.500000  0.159830  0.475041  1
  Al  Al24  1  0.000000  0.244560  0.596280  1
  Al  Al25  1  0.500000  0.255440  0.096280  1
  Al  Al26  1  0.000000  0.343866  0.790184  1
  Al  Al27  1  0.500000  0.156134  0.290184  1
  Al  Al28  1  0.000000  0.445759  0.578390  1
  Al  Al29  1  0.500000  0.054241  0.078390  1
  Al  Al30  1  0.000000  0.847930  0.829349  1
  Al  Al31  1  0.500000  0.652070  0.329349  1
  Al  Al32  1  0.000000  0.152070  0.170651  1
  Al  Al33  1  0.500000  0.347930  0.670651  1
  Al  Al34  1  0.221621  0.955183  0.683504  1
  Al  Al35  1  0.278379  0.544817  0.183504  1
  Al  Al36  1  0.778379  0.955183  0.683504  1
  Al  Al37  1  0.721621  0.544817  0.183504  1
  Al  Al38  1  0.209735  0.658572  0.868216  1
  Al  Al39  1  0.290265  0.841428  0.368216  1
  Al  Al40  1  0.790265  0.658572  0.868216  1
  Al  Al41  1  0.709735  0.841428  0.368216  1
  Al  Al42  1  0.231503  0.829168  0.992018  1
  Al  Al43  1  0.268497  0.670832  0.492018  1
  Al  Al44  1  0.768497  0.829168  0.992018  1
  Al  Al45  1  0.731503  0.670832  0.492018  1
  Al  Al46  1  0.250784  0.000000  0.500000  1
  Al  Al47  1  0.249216  0.500000  0.000000  1
  Al  Al48  1  0.749216  0.000000  0.500000  1
  Al  Al49  1  0.750784  0.500000  0.000000  1
  Al  Al50  1  0.219761  0.734313  0.679062  1
  Al  Al51  1  0.280239  0.765687  0.179062  1
  Al  Al52  1  0.780239  0.734313  0.679062  1
  Al  Al53  1  0.719761  0.765687  0.179062  1
  Al  Al54  1  0.220783  0.971360  0.134176  1
  Al  Al55  1  0.279217  0.528640  0.634176  1
  Al  Al56  1  0.779217  0.971360  0.134176  1
  Al  Al57  1  0.720783  0.528640  0.634176  1
  Al  Al58  1  0.209735  0.341428  0.131784  1
  Al  Al59  1  0.290265  0.158572  0.631784  1
  Al  Al60  1  0.790265  0.341428  0.131784  1
  Al  Al61  1  0.709735  0.158572  0.631784  1
  Al  Al62  1  0.221621  0.044817  0.316496  1
  Al  Al63  1  0.278379  0.455183  0.816496  1
  Al  Al64  1  0.778379  0.044817  0.316496  1
  Al  Al65  1  0.721621  0.455183  0.816496  1
  Al  Al66  1  0.231503  0.170832  0.007982  1
  Al  Al67  1  0.268497  0.329168  0.507982  1
  Al  Al68  1  0.768497  0.170832  0.007982  1
  Al  Al69  1  0.731503  0.329168  0.507982  1
  Al  Al70  1  0.219761  0.265687  0.320938  1
  Al  Al71  1  0.280239  0.234313  0.820938  1
  Al  Al72  1  0.780239  0.265687  0.320938  1
  Al  Al73  1  0.719761  0.234313  0.820938  1
  Al  Al74  1  0.220783  0.028640  0.865824  1
  Al  Al75  1  0.279217  0.471360  0.365824  1
  Al  Al76  1  0.779217  0.028640  0.865824  1
  Al  Al77  1  0.720783  0.471360  0.365824  1
  Co  Co78  1  0.000000  0.645885  0.583504  1
  Co  Co79  1  0.500000  0.854115  0.083504  1
  Co  Co80  1  0.000000  0.837449  0.100603  1
  Co  Co81  1  0.500000  0.662551  0.600603  1
  Co  Co82  1  0.000000  0.950705  0.409034  1
  Co  Co83  1  0.500000  0.549295  0.909034  1
  Co  Co84  1  0.000000  0.518739  0.897757  1
  Co  Co85  1  0.500000  0.981261  0.397757  1
  Co  Co86  1  0.000000  0.354115  0.416496  1
  Co  Co87  1  0.500000  0.145885  0.916496  1
  Co  Co88  1  0.000000  0.162551  0.899397  1
  Co  Co89  1  0.500000  0.337449  0.399397  1
  Co  Co90  1  0.000000  0.481261  0.102243  1
  Co  Co91  1  0.500000  0.018739  0.602243  1
  Co  Co92  1  0.000000  0.049295  0.590966  1
  Co  Co93  1  0.500000  0.450705  0.090966  1
  Co  Co94  1  0.222625  0.656743  0.322802  1
  Co  Co95  1  0.277375  0.843257  0.822802  1
  Co  Co96  1  0.777375  0.656743  0.322802  1
  Co  Co97  1  0.722625  0.843257  0.822802  1
  Co  Co98  1  0.222625  0.343257  0.677198  1
  Co  Co99  1  0.277375  0.156743  0.177198  1
  Co  Co100  1  0.777375  0.343257  0.677198  1
  Co  Co101  1  0.722625  0.156743  0.177198  1
