# generated using pymatgen
data_Sr9Mg38
_symmetry_space_group_name_H-M   'P 1'
_cell_length_a   10.51816499
_cell_length_b   10.51816499
_cell_length_c   27.90024682
_cell_angle_alpha   90.00000000
_cell_angle_beta   90.00000000
_cell_angle_gamma   120.00000000
_symmetry_Int_Tables_number   1
_chemical_formula_structural   Sr9Mg38
_chemical_formula_sum   'Sr18 Mg76'
_cell_volume   2673.12110757
_cell_formula_units_Z   2
loop_
 _symmetry_equiv_pos_site_id
 _symmetry_equiv_pos_as_xyz
  1  'x, y, z'
loop_
 _atom_site_type_symbol
 _atom_site_label
 _atom_site_symmetry_multiplicity
 _atom_site_fract_x
 _atom_site_fract_y
 _atom_site_fract_z
 _atom_site_occupancy
  Sr  Sr0  1  0.522765  0.045530  0.250000  1
  Sr  Sr1  1  0.477235  0.522765  0.750000  1
  Sr  Sr2  1  0.045530  0.522765  0.750000  1
  Sr  Sr3  1  0.954470  0.477235  0.250000  1
  Sr  Sr4  1  0.522765  0.477235  0.250000  1
  Sr  Sr5  1  0.477235  0.954470  0.750000  1
  Sr  Sr6  1  0.138760  0.277519  0.062753  1
  Sr  Sr7  1  0.861240  0.138760  0.562753  1
  Sr  Sr8  1  0.277519  0.138760  0.562753  1
  Sr  Sr9  1  0.722481  0.861240  0.062753  1
  Sr  Sr10  1  0.138760  0.861240  0.062753  1
  Sr  Sr11  1  0.861240  0.722481  0.937247  1
  Sr  Sr12  1  0.861240  0.138760  0.937247  1
  Sr  Sr13  1  0.861240  0.722481  0.562753  1
  Sr  Sr14  1  0.277519  0.138760  0.937247  1
  Sr  Sr15  1  0.722481  0.861240  0.437247  1
  Sr  Sr16  1  0.138760  0.277519  0.437247  1
  Sr  Sr17  1  0.138760  0.861240  0.437247  1
  Mg  Mg18  1  0.000000  0.000000  0.157385  1
  Mg  Mg19  1  0.000000  0.000000  0.657385  1
  Mg  Mg20  1  0.000000  0.000000  0.842615  1
  Mg  Mg21  1  0.000000  0.000000  0.342615  1
  Mg  Mg22  1  0.333333  0.666667  0.042005  1
  Mg  Mg23  1  0.666667  0.333333  0.542005  1
  Mg  Mg24  1  0.666667  0.333333  0.957995  1
  Mg  Mg25  1  0.333333  0.666667  0.457995  1
  Mg  Mg26  1  0.333333  0.666667  0.157013  1
  Mg  Mg27  1  0.666667  0.333333  0.657013  1
  Mg  Mg28  1  0.666667  0.333333  0.842987  1
  Mg  Mg29  1  0.333333  0.666667  0.342987  1
  Mg  Mg30  1  0.333333  0.666667  0.650717  1
  Mg  Mg31  1  0.666667  0.333333  0.150717  1
  Mg  Mg32  1  0.666667  0.333333  0.349283  1
  Mg  Mg33  1  0.333333  0.666667  0.849283  1
  Mg  Mg34  1  0.500000  0.000000  0.000000  1
  Mg  Mg35  1  0.500000  0.500000  0.500000  1
  Mg  Mg36  1  0.000000  0.500000  0.500000  1
  Mg  Mg37  1  0.000000  0.500000  0.000000  1
  Mg  Mg38  1  0.500000  0.500000  0.000000  1
  Mg  Mg39  1  0.500000  0.000000  0.500000  1
  Mg  Mg40  1  0.901762  0.803524  0.250000  1
  Mg  Mg41  1  0.098238  0.901762  0.750000  1
  Mg  Mg42  1  0.803524  0.901762  0.750000  1
  Mg  Mg43  1  0.196476  0.098238  0.250000  1
  Mg  Mg44  1  0.901762  0.098238  0.250000  1
  Mg  Mg45  1  0.098238  0.196476  0.750000  1
  Mg  Mg46  1  0.234028  0.468056  0.554869  1
  Mg  Mg47  1  0.765972  0.234028  0.054869  1
  Mg  Mg48  1  0.468056  0.234028  0.054869  1
  Mg  Mg49  1  0.531944  0.765972  0.554869  1
  Mg  Mg50  1  0.234028  0.765972  0.554869  1
  Mg  Mg51  1  0.765972  0.531944  0.445131  1
  Mg  Mg52  1  0.765972  0.234028  0.445131  1
  Mg  Mg53  1  0.765972  0.531944  0.054869  1
  Mg  Mg54  1  0.468056  0.234028  0.445131  1
  Mg  Mg55  1  0.531944  0.765972  0.945131  1
  Mg  Mg56  1  0.234028  0.468056  0.945131  1
  Mg  Mg57  1  0.234028  0.765972  0.945131  1
  Mg  Mg58  1  0.504853  0.009706  0.618977  1
  Mg  Mg59  1  0.495147  0.504853  0.118977  1
  Mg  Mg60  1  0.009706  0.504853  0.118977  1
  Mg  Mg61  1  0.990294  0.495147  0.618977  1
  Mg  Mg62  1  0.504853  0.495147  0.618977  1
  Mg  Mg63  1  0.495147  0.990294  0.381023  1
  Mg  Mg64  1  0.495147  0.504853  0.381023  1
  Mg  Mg65  1  0.495147  0.990294  0.118977  1
  Mg  Mg66  1  0.009706  0.504853  0.381023  1
  Mg  Mg67  1  0.990294  0.495147  0.881023  1
  Mg  Mg68  1  0.504853  0.009706  0.881023  1
  Mg  Mg69  1  0.504853  0.495147  0.881023  1
  Mg  Mg70  1  0.167589  0.335178  0.653782  1
  Mg  Mg71  1  0.832411  0.167589  0.153782  1
  Mg  Mg72  1  0.335178  0.167589  0.153782  1
  Mg  Mg73  1  0.664822  0.832411  0.653782  1
  Mg  Mg74  1  0.167589  0.832411  0.653782  1
  Mg  Mg75  1  0.832411  0.664822  0.346218  1
  Mg  Mg76  1  0.832411  0.167589  0.346218  1
  Mg  Mg77  1  0.832411  0.664822  0.153782  1
  Mg  Mg78  1  0.335178  0.167589  0.346218  1
  Mg  Mg79  1  0.664822  0.832411  0.846218  1
  Mg  Mg80  1  0.167589  0.335178  0.846218  1
  Mg  Mg81  1  0.167589  0.832411  0.846218  1
  Mg  Mg82  1  0.169947  0.339895  0.189830  1
  Mg  Mg83  1  0.830053  0.169947  0.689830  1
  Mg  Mg84  1  0.339895  0.169947  0.689830  1
  Mg  Mg85  1  0.660105  0.830053  0.189830  1
  Mg  Mg86  1  0.169947  0.830053  0.189830  1
  Mg  Mg87  1  0.830053  0.660105  0.810170  1
  Mg  Mg88  1  0.830053  0.169947  0.810170  1
  Mg  Mg89  1  0.830053  0.660105  0.689830  1
  Mg  Mg90  1  0.339895  0.169947  0.810170  1
  Mg  Mg91  1  0.660105  0.830053  0.310170  1
  Mg  Mg92  1  0.169947  0.339895  0.310170  1
  Mg  Mg93  1  0.169947  0.830053  0.310170  1
