# generated using pymatgen
data_TiNbN2
_symmetry_space_group_name_H-M   'P 1'
_cell_length_a   5.33363645
_cell_length_b   5.33363645
_cell_length_c   5.33363645
_cell_angle_alpha   131.67259840
_cell_angle_beta   131.67259840
_cell_angle_gamma   70.74661624
_symmetry_Int_Tables_number   1
_chemical_formula_structural   TiNbN2
_chemical_formula_sum   'Ti2 Nb2 N4'
_cell_volume   82.92372422
_cell_formula_units_Z   2
loop_
 _symmetry_equiv_pos_site_id
 _symmetry_equiv_pos_as_xyz
  1  'x, y, z'
loop_
 _atom_site_type_symbol
 _atom_site_label
 _atom_site_symmetry_multiplicity
 _atom_site_fract_x
 _atom_site_fract_y
 _atom_site_fract_z
 _atom_site_occupancy
  Ti  Ti0  1  0.000000  0.000000  0.000000  1
  Ti  Ti1  1  0.750000  0.250000  0.500000  1
  Nb  Nb2  1  0.250000  0.750000  0.500000  1
  Nb  Nb3  1  0.500000  0.500000  0.000000  1
  N  N4  1  0.757145  0.757145  0.000000  1
  N  N5  1  0.992855  0.492855  0.500000  1
  N  N6  1  0.507145  0.007145  0.500000  1
  N  N7  1  0.242855  0.242855  0.000000  1
