# generated using pymatgen
data_NdCo4B
_symmetry_space_group_name_H-M   'P 1'
_cell_length_a   5.09960503
_cell_length_b   5.09960503
_cell_length_c   6.83572487
_cell_angle_alpha   90.00000000
_cell_angle_beta   90.00000000
_cell_angle_gamma   120.00000000
_symmetry_Int_Tables_number   1
_chemical_formula_structural   NdCo4B
_chemical_formula_sum   'Nd2 Co8 B2'
_cell_volume   153.95304688
_cell_formula_units_Z   2
loop_
 _symmetry_equiv_pos_site_id
 _symmetry_equiv_pos_as_xyz
  1  'x, y, z'
loop_
 _atom_site_type_symbol
 _atom_site_label
 _atom_site_symmetry_multiplicity
 _atom_site_fract_x
 _atom_site_fract_y
 _atom_site_fract_z
 _atom_site_occupancy
  Nd  Nd0  1  0.000000  0.000000  0.000000  1
  Nd  Nd1  1  0.000000  0.000000  0.500000  1
  Co  Co2  1  0.333333  0.666667  0.000000  1
  Co  Co3  1  0.500000  0.000000  0.710528  1
  Co  Co4  1  0.000000  0.500000  0.289472  1
  Co  Co5  1  0.666667  0.333333  0.000000  1
  Co  Co6  1  0.500000  0.000000  0.289472  1
  Co  Co7  1  0.500000  0.500000  0.710528  1
  Co  Co8  1  0.500000  0.500000  0.289472  1
  Co  Co9  1  0.000000  0.500000  0.710528  1
  B  B10  1  0.333333  0.666667  0.500000  1
  B  B11  1  0.666667  0.333333  0.500000  1
