# generated using pymatgen
data_Ho3GaO6
_symmetry_space_group_name_H-M   'P 1'
_cell_length_a   7.10795123
_cell_length_b   7.10795123
_cell_length_c   5.41991435
_cell_angle_alpha   90.00000000
_cell_angle_beta   90.00000000
_cell_angle_gamma   102.85828706
_symmetry_Int_Tables_number   1
_chemical_formula_structural   Ho3GaO6
_chemical_formula_sum   'Ho6 Ga2 O12'
_cell_volume   266.96346291
_cell_formula_units_Z   2
loop_
 _symmetry_equiv_pos_site_id
 _symmetry_equiv_pos_as_xyz
  1  'x, y, z'
loop_
 _atom_site_type_symbol
 _atom_site_label
 _atom_site_symmetry_multiplicity
 _atom_site_fract_x
 _atom_site_fract_y
 _atom_site_fract_z
 _atom_site_occupancy
  Ho  Ho0  1  0.398395  0.601605  0.927553  1
  Ho  Ho1  1  0.601605  0.398395  0.427553  1
  Ho  Ho2  1  0.298762  0.088296  0.975956  1
  Ho  Ho3  1  0.701238  0.911704  0.475956  1
  Ho  Ho4  1  0.911704  0.701238  0.975956  1
  Ho  Ho5  1  0.088296  0.298762  0.475956  1
  Ga  Ga6  1  0.193397  0.806603  0.506483  1
  Ga  Ga7  1  0.806603  0.193397  0.006483  1
  O  O8  1  0.215370  0.784630  0.167439  1
  O  O9  1  0.784630  0.215370  0.667439  1
  O  O10  1  0.038891  0.961109  0.652437  1
  O  O11  1  0.961109  0.038891  0.152437  1
  O  O12  1  0.356609  0.322825  0.702384  1
  O  O13  1  0.643391  0.677175  0.202384  1
  O  O14  1  0.677175  0.643391  0.702384  1
  O  O15  1  0.322825  0.356609  0.202384  1
  O  O16  1  0.894018  0.423365  0.186575  1
  O  O17  1  0.105982  0.576635  0.686575  1
  O  O18  1  0.576635  0.105982  0.186575  1
  O  O19  1  0.423365  0.894018  0.686575  1
