# generated using pymatgen
data_Cr2HO4
_symmetry_space_group_name_H-M   'P 1'
_cell_length_a   4.81184317
_cell_length_b   3.02202331
_cell_length_c   5.23036503
_cell_angle_alpha   90.00000000
_cell_angle_beta   111.02816238
_cell_angle_gamma   90.00000000
_symmetry_Int_Tables_number   1
_chemical_formula_structural   Cr2HO4
_chemical_formula_sum   'Cr2 H1 O4'
_cell_volume   70.99226097
_cell_formula_units_Z   1
loop_
 _symmetry_equiv_pos_site_id
 _symmetry_equiv_pos_as_xyz
  1  'x, y, z'
loop_
 _atom_site_type_symbol
 _atom_site_label
 _atom_site_symmetry_multiplicity
 _atom_site_fract_x
 _atom_site_fract_y
 _atom_site_fract_z
 _atom_site_occupancy
  Cr  Cr0  1  0.000000  0.000000  0.000000  1
  Cr  Cr1  1  0.000000  0.500000  0.500000  1
  H  H2  1  0.500000  0.500000  0.000000  1
  O  O3  1  0.801625  0.000000  0.604541  1
  O  O4  1  0.229777  0.500000  0.912254  1
  O  O5  1  0.770223  0.500000  0.087746  1
  O  O6  1  0.198375  0.000000  0.395459  1
