# generated using pymatgen
data_Bi13O20
_symmetry_space_group_name_H-M   'P 1'
_cell_length_a   9.05434850
_cell_length_b   9.05434850
_cell_length_c   9.05434850
_cell_angle_alpha   109.47122063
_cell_angle_beta   109.47122063
_cell_angle_gamma   109.47122063
_symmetry_Int_Tables_number   1
_chemical_formula_structural   Bi13O20
_chemical_formula_sum   'Bi13 O20'
_cell_volume   571.41248839
_cell_formula_units_Z   1
loop_
 _symmetry_equiv_pos_site_id
 _symmetry_equiv_pos_as_xyz
  1  'x, y, z'
loop_
 _atom_site_type_symbol
 _atom_site_label
 _atom_site_symmetry_multiplicity
 _atom_site_fract_x
 _atom_site_fract_y
 _atom_site_fract_z
 _atom_site_occupancy
  Bi  Bi0  1  0.193912  0.856772  0.694839  1
  Bi  Bi1  1  0.337140  0.838066  0.143228  1
  Bi  Bi2  1  0.499074  0.305161  0.161934  1
  Bi  Bi3  1  0.000000  0.000000  0.000000  1
  Bi  Bi4  1  0.500926  0.662860  0.806088  1
  Bi  Bi5  1  0.838066  0.143228  0.337140  1
  Bi  Bi6  1  0.694839  0.193912  0.856772  1
  Bi  Bi7  1  0.662860  0.806088  0.500926  1
  Bi  Bi8  1  0.856772  0.694839  0.193912  1
  Bi  Bi9  1  0.161934  0.499074  0.305161  1
  Bi  Bi10  1  0.143228  0.337140  0.838066  1
  Bi  Bi11  1  0.806088  0.500926  0.662860  1
  Bi  Bi12  1  0.305161  0.161934  0.499074  1
  O  O13  1  0.254223  0.625024  0.890954  1
  O  O14  1  0.000000  0.761064  0.000000  1
  O  O15  1  0.000000  0.000000  0.761064  1
  O  O16  1  0.109046  0.734069  0.363269  1
  O  O17  1  0.000000  0.000000  0.374063  1
  O  O18  1  0.000000  0.374063  0.000000  1
  O  O19  1  0.370801  0.745777  0.636731  1
  O  O20  1  0.265931  0.374976  0.629199  1
  O  O21  1  0.363269  0.109046  0.734069  1
  O  O22  1  0.238936  0.238936  0.238936  1
  O  O23  1  0.374976  0.629199  0.265931  1
  O  O24  1  0.625937  0.625937  0.625937  1
  O  O25  1  0.625024  0.890954  0.254223  1
  O  O26  1  0.636731  0.370801  0.745777  1
  O  O27  1  0.629199  0.265931  0.374976  1
  O  O28  1  0.745777  0.636731  0.370801  1
  O  O29  1  0.734069  0.363269  0.109046  1
  O  O30  1  0.890954  0.254223  0.625024  1
  O  O31  1  0.374063  0.000000  1.000000  1
  O  O32  1  0.761064  0.000000  0.000000  1
