# generated using pymatgen
data_Zn(FeO2)2
_symmetry_space_group_name_H-M   'P 1'
_cell_length_a   6.04578796
_cell_length_b   6.04578796
_cell_length_c   6.04578796
_cell_angle_alpha   60.10429987
_cell_angle_beta   60.10429987
_cell_angle_gamma   60.10429987
_symmetry_Int_Tables_number   1
_chemical_formula_structural   Zn(FeO2)2
_chemical_formula_sum   'Zn2 Fe4 O8'
_cell_volume   156.62779758
_cell_formula_units_Z   2
loop_
 _symmetry_equiv_pos_site_id
 _symmetry_equiv_pos_as_xyz
  1  'x, y, z'
loop_
 _atom_site_type_symbol
 _atom_site_label
 _atom_site_symmetry_multiplicity
 _atom_site_fract_x
 _atom_site_fract_y
 _atom_site_fract_z
 _atom_site_occupancy
  Zn  Zn0  1  0.003078  0.003078  0.003078  1
  Zn  Zn1  1  0.625574  0.625574  0.625574  1
  Fe  Fe2  1  0.246402  0.246402  0.246402  1
  Fe  Fe3  1  0.626509  0.118739  0.626509  1
  Fe  Fe4  1  0.626509  0.626509  0.118739  1
  Fe  Fe5  1  0.118739  0.626509  0.626509  1
  O  O6  1  0.854488  0.376903  0.376903  1
  O  O7  1  0.376903  0.376903  0.854488  1
  O  O8  1  0.376903  0.854488  0.376903  1
  O  O9  1  0.380731  0.380731  0.380731  1
  O  O10  1  0.866410  0.866410  0.866410  1
  O  O11  1  0.871297  0.405153  0.871297  1
  O  O12  1  0.871297  0.871297  0.405153  1
  O  O13  1  0.405153  0.871297  0.871297  1
