# generated using pymatgen
data_Ca4Sb2S
_symmetry_space_group_name_H-M   'P 1'
_cell_length_a   8.05137597
_cell_length_b   8.05137597
_cell_length_c   8.05137597
_cell_angle_alpha   110.54951031
_cell_angle_beta   110.54951031
_cell_angle_gamma   107.33551980
_symmetry_Int_Tables_number   1
_chemical_formula_structural   Ca4Sb2S
_chemical_formula_sum   'Ca8 Sb4 S2'
_cell_volume   401.36336670
_cell_formula_units_Z   2
loop_
 _symmetry_equiv_pos_site_id
 _symmetry_equiv_pos_as_xyz
  1  'x, y, z'
loop_
 _atom_site_type_symbol
 _atom_site_label
 _atom_site_symmetry_multiplicity
 _atom_site_fract_x
 _atom_site_fract_y
 _atom_site_fract_z
 _atom_site_occupancy
  Ca  Ca0  1  0.125710  0.747445  0.762202  1
  Ca  Ca1  1  0.636492  0.874290  0.621735  1
  Ca  Ca2  1  0.252555  0.014757  0.378265  1
  Ca  Ca3  1  0.497445  0.375710  0.262202  1
  Ca  Ca4  1  0.764757  0.502555  0.878265  1
  Ca  Ca5  1  0.624290  0.886492  0.121735  1
  Ca  Ca6  1  0.985243  0.363508  0.237798  1
  Ca  Ca7  1  0.113508  0.235243  0.737798  1
  Sb  Sb8  1  0.247355  0.625000  0.122355  1
  Sb  Sb9  1  0.375000  0.497355  0.622355  1
  Sb  Sb10  1  0.502645  0.125000  0.877645  1
  Sb  Sb11  1  0.875000  0.752645  0.377645  1
  S  S12  1  0.750000  0.250000  0.500000  1
  S  S13  1  1.000000  1.000000  0.000000  1
