# generated using pymatgen
data_SrMgSn
_symmetry_space_group_name_H-M   'P 1'
_cell_length_a   4.90272949
_cell_length_b   8.23527103
_cell_length_c   8.94186643
_cell_angle_alpha   90.00000000
_cell_angle_beta   90.00000000
_cell_angle_gamma   90.00000000
_symmetry_Int_Tables_number   1
_chemical_formula_structural   SrMgSn
_chemical_formula_sum   'Sr4 Mg4 Sn4'
_cell_volume   361.03059455
_cell_formula_units_Z   4
loop_
 _symmetry_equiv_pos_site_id
 _symmetry_equiv_pos_as_xyz
  1  'x, y, z'
loop_
 _atom_site_type_symbol
 _atom_site_label
 _atom_site_symmetry_multiplicity
 _atom_site_fract_x
 _atom_site_fract_y
 _atom_site_fract_z
 _atom_site_occupancy
  Sr  Sr0  1  0.750000  0.988737  0.811786  1
  Sr  Sr1  1  0.250000  0.511263  0.311786  1
  Sr  Sr2  1  0.250000  0.011263  0.188214  1
  Sr  Sr3  1  0.750000  0.488737  0.688214  1
  Mg  Mg4  1  0.750000  0.353557  0.066910  1
  Mg  Mg5  1  0.250000  0.646443  0.933090  1
  Mg  Mg6  1  0.750000  0.853557  0.433090  1
  Mg  Mg7  1  0.250000  0.146443  0.566910  1
  Sn  Sn8  1  0.250000  0.777497  0.608365  1
  Sn  Sn9  1  0.250000  0.277497  0.891635  1
  Sn  Sn10  1  0.750000  0.722503  0.108365  1
  Sn  Sn11  1  0.750000  0.222503  0.391635  1
