# generated using pymatgen
data_LaMnSi2
_symmetry_space_group_name_H-M   'P 1'
_cell_length_a   9.10917884
_cell_length_b   9.10917884
_cell_length_c   4.02692504
_cell_angle_alpha   90.00000000
_cell_angle_beta   90.00000000
_cell_angle_gamma   153.57958612
_symmetry_Int_Tables_number   1
_chemical_formula_structural   LaMnSi2
_chemical_formula_sum   'La2 Mn2 Si4'
_cell_volume   148.67823423
_cell_formula_units_Z   2
loop_
 _symmetry_equiv_pos_site_id
 _symmetry_equiv_pos_as_xyz
  1  'x, y, z'
loop_
 _atom_site_type_symbol
 _atom_site_label
 _atom_site_symmetry_multiplicity
 _atom_site_fract_x
 _atom_site_fract_y
 _atom_site_fract_z
 _atom_site_occupancy
  La  La0  1  0.102528  0.897472  0.250000  1
  La  La1  1  0.897472  0.102528  0.750000  1
  Mn  Mn2  1  0.249180  0.750820  0.750000  1
  Mn  Mn3  1  0.750820  0.249180  0.250000  1
  Si  Si4  1  0.320136  0.679864  0.250000  1
  Si  Si5  1  0.679864  0.320136  0.750000  1
  Si  Si6  1  0.536245  0.463755  0.750000  1
  Si  Si7  1  0.463755  0.536245  0.250000  1
