# generated using pymatgen
data_Zr3Ir
_symmetry_space_group_name_H-M   'P 1'
_cell_length_a   8.17484425
_cell_length_b   8.17484425
_cell_length_c   8.17484425
_cell_angle_alpha   97.04947507
_cell_angle_beta   97.04947507
_cell_angle_gamma   138.98582706
_symmetry_Int_Tables_number   1
_chemical_formula_structural   Zr3Ir
_chemical_formula_sum   'Zr12 Ir4'
_cell_volume   335.79364197
_cell_formula_units_Z   4
loop_
 _symmetry_equiv_pos_site_id
 _symmetry_equiv_pos_as_xyz
  1  'x, y, z'
loop_
 _atom_site_type_symbol
 _atom_site_label
 _atom_site_symmetry_multiplicity
 _atom_site_fract_x
 _atom_site_fract_y
 _atom_site_fract_z
 _atom_site_occupancy
  Zr  Zr0  1  0.546289  0.958261  0.000000  1
  Zr  Zr1  1  0.453711  0.453711  0.411972  1
  Zr  Zr2  1  0.041739  0.041739  0.588028  1
  Zr  Zr3  1  0.958261  0.546289  1.000000  1
  Zr  Zr4  1  0.500000  0.854264  0.354264  1
  Zr  Zr5  1  0.854264  0.500000  0.354264  1
  Zr  Zr6  1  0.145736  0.500000  0.645736  1
  Zr  Zr7  1  0.500000  0.145736  0.645736  1
  Zr  Zr8  1  0.166970  0.358334  0.000000  1
  Zr  Zr9  1  0.833030  0.833030  0.191364  1
  Zr  Zr10  1  0.641666  0.641666  0.808636  1
  Zr  Zr11  1  0.358334  0.166970  1.000000  1
  Ir  Ir12  1  1.000000  0.707916  0.707916  1
  Ir  Ir13  1  0.707916  1.000000  0.707916  1
  Ir  Ir14  1  0.292084  1.000000  0.292084  1
  Ir  Ir15  1  1.000000  0.292084  0.292084  1
