# generated using pymatgen
data_Ag3(AsO4)2
_symmetry_space_group_name_H-M   'P 1'
_cell_length_a   5.97246822
_cell_length_b   5.97246822
_cell_length_c   5.97246822
_cell_angle_alpha   88.18321179
_cell_angle_beta   88.18321179
_cell_angle_gamma   88.18321179
_symmetry_Int_Tables_number   1
_chemical_formula_structural   Ag3(AsO4)2
_chemical_formula_sum   'Ag3 As2 O8'
_cell_volume   212.72555049
_cell_formula_units_Z   1
loop_
 _symmetry_equiv_pos_site_id
 _symmetry_equiv_pos_as_xyz
  1  'x, y, z'
loop_
 _atom_site_type_symbol
 _atom_site_label
 _atom_site_symmetry_multiplicity
 _atom_site_fract_x
 _atom_site_fract_y
 _atom_site_fract_z
 _atom_site_occupancy
  Ag  Ag0  1  0.510308  0.258556  0.998189  1
  Ag  Ag1  1  0.258556  0.998189  0.510308  1
  Ag  Ag2  1  0.998189  0.510308  0.258556  1
  As  As3  1  0.002626  0.002626  0.002626  1
  As  As4  1  0.497937  0.497937  0.497937  1
  O  O5  1  0.843357  0.211452  0.144892  1
  O  O6  1  0.846650  0.846650  0.846650  1
  O  O7  1  0.659449  0.645707  0.306704  1
  O  O8  1  0.645707  0.306704  0.659449  1
  O  O9  1  0.306704  0.659449  0.645707  1
  O  O10  1  0.324172  0.324172  0.324172  1
  O  O11  1  0.144892  0.843357  0.211452  1
  O  O12  1  0.211452  0.144892  0.843357  1
