# generated using pymatgen
data_Ca2GaCu2
_symmetry_space_group_name_H-M   'P 1'
_cell_length_a   5.68691048
_cell_length_b   5.68691048
_cell_length_c   5.68691048
_cell_angle_alpha   136.32539659
_cell_angle_beta   122.17771583
_cell_angle_gamma   75.17779477
_symmetry_Int_Tables_number   1
_chemical_formula_structural   Ca2GaCu2
_chemical_formula_sum   'Ca2 Ga1 Cu2'
_cell_volume   104.83405565
_cell_formula_units_Z   1
loop_
 _symmetry_equiv_pos_site_id
 _symmetry_equiv_pos_as_xyz
  1  'x, y, z'
loop_
 _atom_site_type_symbol
 _atom_site_label
 _atom_site_symmetry_multiplicity
 _atom_site_fract_x
 _atom_site_fract_y
 _atom_site_fract_z
 _atom_site_occupancy
  Ca  Ca0  1  0.303967  0.803967  0.500000  1
  Ca  Ca1  1  0.696033  0.196033  0.500000  1
  Ga  Ga2  1  0.000000  0.000000  0.000000  1
  Cu  Cu3  1  0.739865  0.500000  0.239865  1
  Cu  Cu4  1  0.260135  0.500000  0.760135  1
