# generated using pymatgen
data_Te8Ir3
_symmetry_space_group_name_H-M   'P 1'
_cell_length_a   9.14986281
_cell_length_b   9.21498718
_cell_length_c   11.33145772
_cell_angle_alpha   90.51779977
_cell_angle_beta   89.97025859
_cell_angle_gamma   119.76549430
_symmetry_Int_Tables_number   1
_chemical_formula_structural   Te8Ir3
_chemical_formula_sum   'Te24 Ir9'
_cell_volume   829.32521656
_cell_formula_units_Z   3
loop_
 _symmetry_equiv_pos_site_id
 _symmetry_equiv_pos_as_xyz
  1  'x, y, z'
loop_
 _atom_site_type_symbol
 _atom_site_label
 _atom_site_symmetry_multiplicity
 _atom_site_fract_x
 _atom_site_fract_y
 _atom_site_fract_z
 _atom_site_occupancy
  Te  Te0  1  0.830472  0.665090  0.205774  1
  Te  Te1  1  0.415923  0.346986  0.292251  1
  Te  Te2  1  0.738584  0.255668  0.378594  1
  Te  Te3  1  0.163879  0.583993  0.291585  1
  Te  Te4  1  0.515184  0.753787  0.375345  1
  Te  Te5  1  0.914238  0.084851  0.292005  1
  Te  Te6  1  0.172504  0.331489  0.537599  1
  Te  Te7  1  0.747191  0.993017  0.625922  1
  Te  Te8  1  0.252809  0.006983  0.374078  1
  Te  Te9  1  0.827496  0.668511  0.462401  1
  Te  Te10  1  0.085762  0.915149  0.707995  1
  Te  Te11  1  0.484816  0.246213  0.624655  1
  Te  Te12  1  0.836121  0.416007  0.708415  1
  Te  Te13  1  0.261416  0.744332  0.621406  1
  Te  Te14  1  0.497534  0.999074  0.871533  1
  Te  Te15  1  0.090516  0.671788  0.959711  1
  Te  Te16  1  0.584077  0.653014  0.707749  1
  Te  Te17  1  0.169528  0.334910  0.794226  1
  Te  Te18  1  0.410487  0.583168  0.042871  1
  Te  Te19  1  0.826395  0.912751  0.955166  1
  Te  Te20  1  0.173605  0.087249  0.044834  1
  Te  Te21  1  0.589513  0.416832  0.957129  1
  Te  Te22  1  0.909484  0.328212  0.040289  1
  Te  Te23  1  0.502466  0.000926  0.128467  1
  Ir  Ir24  1  0.163052  0.831864  0.167463  1
  Ir  Ir25  1  0.000000  0.500000  0.500000  1
  Ir  Ir26  1  0.500000  0.000000  0.500000  1
  Ir  Ir27  1  0.836948  0.168136  0.832537  1
  Ir  Ir28  1  0.000000  0.000000  0.500000  1
  Ir  Ir29  1  0.333137  0.166379  0.834233  1
  Ir  Ir30  1  0.836542  0.666563  0.833948  1
  Ir  Ir31  1  0.666863  0.833621  0.165767  1
  Ir  Ir32  1  0.163458  0.333437  0.166052  1
