# generated using pymatgen
data_SnRh
_symmetry_space_group_name_H-M   'P 1'
_cell_length_a   5.21301203
_cell_length_b   5.21301203
_cell_length_c   5.21301203
_cell_angle_alpha   90.00000000
_cell_angle_beta   90.00000000
_cell_angle_gamma   90.00000000
_symmetry_Int_Tables_number   1
_chemical_formula_structural   SnRh
_chemical_formula_sum   'Sn4 Rh4'
_cell_volume   141.66617936
_cell_formula_units_Z   4
loop_
 _symmetry_equiv_pos_site_id
 _symmetry_equiv_pos_as_xyz
  1  'x, y, z'
loop_
 _atom_site_type_symbol
 _atom_site_label
 _atom_site_symmetry_multiplicity
 _atom_site_fract_x
 _atom_site_fract_y
 _atom_site_fract_z
 _atom_site_occupancy
  Sn  Sn0  1  0.839791  0.839791  0.839791  1
  Sn  Sn1  1  0.660209  0.160209  0.339791  1
  Sn  Sn2  1  0.339791  0.660209  0.160209  1
  Sn  Sn3  1  0.160209  0.339791  0.660209  1
  Rh  Rh4  1  0.143523  0.143523  0.143523  1
  Rh  Rh5  1  0.356477  0.856477  0.643523  1
  Rh  Rh6  1  0.643523  0.356477  0.856477  1
  Rh  Rh7  1  0.856477  0.643523  0.356477  1
