# generated using pymatgen
data_Li3Co3(PO4)4
_symmetry_space_group_name_H-M   'P 1'
_cell_length_a   8.84822879
_cell_length_b   7.87841636
_cell_length_c   9.31514999
_cell_angle_alpha   90.00000000
_cell_angle_beta   113.31654432
_cell_angle_gamma   90.00000000
_symmetry_Int_Tables_number   1
_chemical_formula_structural   Li3Co3(PO4)4
_chemical_formula_sum   'Li6 Co6 P8 O32'
_cell_volume   596.32759005
_cell_formula_units_Z   2
loop_
 _symmetry_equiv_pos_site_id
 _symmetry_equiv_pos_as_xyz
  1  'x, y, z'
loop_
 _atom_site_type_symbol
 _atom_site_label
 _atom_site_symmetry_multiplicity
 _atom_site_fract_x
 _atom_site_fract_y
 _atom_site_fract_z
 _atom_site_occupancy
  Li  Li0  1  0.593727  0.367010  0.261108  1
  Li  Li1  1  0.406273  0.867010  0.738892  1
  Li  Li2  1  0.103512  0.140002  0.258579  1
  Li  Li3  1  0.896488  0.640002  0.741421  1
  Li  Li4  1  0.593575  0.139490  0.755511  1
  Li  Li5  1  0.406425  0.639490  0.244489  1
  Co  Co6  1  0.107610  0.353561  0.759339  1
  Co  Co7  1  0.486687  0.008820  0.261697  1
  Co  Co8  1  0.892390  0.853561  0.240661  1
  Co  Co9  1  0.513313  0.508820  0.738303  1
  Co  Co10  1  0.995864  0.994198  0.750678  1
  Co  Co11  1  0.004136  0.494198  0.249322  1
  P  P12  1  0.634307  0.680789  0.069247  1
  P  P13  1  0.365693  0.180789  0.930753  1
  P  P14  1  0.137141  0.690167  0.583450  1
  P  P15  1  0.870275  0.303901  0.920099  1
  P  P16  1  0.361055  0.319578  0.422815  1
  P  P17  1  0.638945  0.819578  0.577185  1
  P  P18  1  0.129725  0.803901  0.079901  1
  P  P19  1  0.862859  0.190167  0.416550  1
  O  O20  1  0.691543  0.365106  0.884308  1
  O  O21  1  0.315807  0.646673  0.610471  1
  O  O22  1  0.450813  0.063490  0.861953  1
  O  O23  1  0.947540  0.058485  0.349968  1
  O  O24  1  0.052460  0.558485  0.650032  1
  O  O25  1  0.822463  0.864883  0.609440  1
  O  O26  1  0.967020  0.189845  0.600454  1
  O  O27  1  0.965904  0.306222  0.101127  1
  O  O28  1  0.339386  0.365042  0.854223  1
  O  O29  1  0.171538  0.145261  0.880530  1
  O  O30  1  0.858336  0.123169  0.849207  1
  O  O31  1  0.044010  0.925700  0.155085  1
  O  O32  1  0.861310  0.367758  0.344330  1
  O  O33  1  0.138690  0.867758  0.655670  1
  O  O34  1  0.684193  0.146673  0.389529  1
  O  O35  1  0.446432  0.191739  0.110182  1
  O  O36  1  0.032980  0.689845  0.399546  1
  O  O37  1  0.308457  0.865106  0.115692  1
  O  O38  1  0.141664  0.623169  0.150793  1
  O  O39  1  0.552921  0.938952  0.645015  1
  O  O40  1  0.034096  0.806222  0.898873  1
  O  O41  1  0.547955  0.815835  0.392804  1
  O  O42  1  0.660614  0.865042  0.145777  1
  O  O43  1  0.828462  0.645261  0.119470  1
  O  O44  1  0.955990  0.425700  0.844915  1
  O  O45  1  0.351338  0.134326  0.362815  1
  O  O46  1  0.648662  0.634326  0.637185  1
  O  O47  1  0.177537  0.364883  0.390560  1
  O  O48  1  0.553568  0.691739  0.889818  1
  O  O49  1  0.447079  0.438952  0.354985  1
  O  O50  1  0.549187  0.563490  0.138047  1
  O  O51  1  0.452045  0.315835  0.607196  1
