# generated using pymatgen
data_Cd2(TeO3)3
_symmetry_space_group_name_H-M   'P 1'
_cell_length_a   9.51033862
_cell_length_b   7.42432594
_cell_length_c   13.46198702
_cell_angle_alpha   90.00000000
_cell_angle_beta   122.79434999
_cell_angle_gamma   90.00000000
_symmetry_Int_Tables_number   1
_chemical_formula_structural   Cd2(TeO3)3
_chemical_formula_sum   'Cd8 Te12 O36'
_cell_volume   799.02782906
_cell_formula_units_Z   4
loop_
 _symmetry_equiv_pos_site_id
 _symmetry_equiv_pos_as_xyz
  1  'x, y, z'
loop_
 _atom_site_type_symbol
 _atom_site_label
 _atom_site_symmetry_multiplicity
 _atom_site_fract_x
 _atom_site_fract_y
 _atom_site_fract_z
 _atom_site_occupancy
  Cd  Cd0  1  0.398403  0.624005  0.352526  1
  Cd  Cd1  1  0.601597  0.124005  0.147474  1
  Cd  Cd2  1  0.601597  0.375995  0.647474  1
  Cd  Cd3  1  0.398403  0.875995  0.852526  1
  Cd  Cd4  1  0.595371  0.625169  0.147219  1
  Cd  Cd5  1  0.404629  0.125169  0.352781  1
  Cd  Cd6  1  0.404629  0.374831  0.852781  1
  Cd  Cd7  1  0.595371  0.874831  0.647219  1
  Te  Te8  1  0.002023  0.126172  0.750026  1
  Te  Te9  1  0.997977  0.626172  0.749974  1
  Te  Te10  1  0.997977  0.873828  0.249974  1
  Te  Te11  1  0.002023  0.373828  0.250026  1
  Te  Te12  1  0.212146  0.378915  0.039912  1
  Te  Te13  1  0.787854  0.878915  0.460088  1
  Te  Te14  1  0.787854  0.621085  0.960088  1
  Te  Te15  1  0.212146  0.121085  0.539912  1
  Te  Te16  1  0.237582  0.876164  0.061280  1
  Te  Te17  1  0.762418  0.376164  0.438720  1
  Te  Te18  1  0.762418  0.123836  0.938720  1
  Te  Te19  1  0.237582  0.623836  0.561280  1
  O  O20  1  0.651993  0.918203  0.838518  1
  O  O21  1  0.348007  0.418203  0.661482  1
  O  O22  1  0.348007  0.081797  0.161482  1
  O  O23  1  0.651993  0.581797  0.338518  1
  O  O24  1  0.407711  0.120344  0.535972  1
  O  O25  1  0.592289  0.620344  0.964028  1
  O  O26  1  0.592289  0.879656  0.464028  1
  O  O27  1  0.407711  0.379656  0.035972  1
  O  O28  1  0.411137  0.631691  0.529760  1
  O  O29  1  0.588863  0.131691  0.970240  1
  O  O30  1  0.588863  0.368309  0.470240  1
  O  O31  1  0.411137  0.868309  0.029760  1
  O  O32  1  0.331952  0.839232  0.657040  1
  O  O33  1  0.668048  0.339232  0.842960  1
  O  O34  1  0.668048  0.160768  0.342960  1
  O  O35  1  0.331952  0.660768  0.157040  1
  O  O36  1  0.223392  0.130552  0.783074  1
  O  O37  1  0.776608  0.630552  0.716926  1
  O  O38  1  0.776608  0.869448  0.216926  1
  O  O39  1  0.223392  0.369448  0.283074  1
  O  O40  1  0.035883  0.623823  0.307466  1
  O  O41  1  0.964117  0.123823  0.192534  1
  O  O42  1  0.964117  0.376177  0.692534  1
  O  O43  1  0.035883  0.876177  0.807466  1
  O  O44  1  0.077805  0.935108  0.419233  1
  O  O45  1  0.922195  0.435108  0.080767  1
  O  O46  1  0.922195  0.064892  0.580767  1
  O  O47  1  0.077805  0.564892  0.919233  1
  O  O48  1  0.085579  0.311820  0.418344  1
  O  O49  1  0.914421  0.811820  0.081656  1
  O  O50  1  0.914421  0.688180  0.581656  1
  O  O51  1  0.085579  0.188180  0.918344  1
  O  O52  1  0.220106  0.880810  0.286064  1
  O  O53  1  0.779894  0.380810  0.213936  1
  O  O54  1  0.779894  0.119190  0.713936  1
  O  O55  1  0.220106  0.619190  0.786064  1
