# generated using pymatgen
data_Ta2Te2O9
_symmetry_space_group_name_H-M   'P 1'
_cell_length_a   7.24220671
_cell_length_b   7.66718975
_cell_length_c   14.96670666
_cell_angle_alpha   90.00000000
_cell_angle_beta   102.38303925
_cell_angle_gamma   90.00000000
_symmetry_Int_Tables_number   1
_chemical_formula_structural   Ta2Te2O9
_chemical_formula_sum   'Ta8 Te8 O36'
_cell_volume   811.72791528
_cell_formula_units_Z   4
loop_
 _symmetry_equiv_pos_site_id
 _symmetry_equiv_pos_as_xyz
  1  'x, y, z'
loop_
 _atom_site_type_symbol
 _atom_site_label
 _atom_site_symmetry_multiplicity
 _atom_site_fract_x
 _atom_site_fract_y
 _atom_site_fract_z
 _atom_site_occupancy
  Ta  Ta0  1  0.363794  0.504517  0.096898  1
  Ta  Ta1  1  0.636206  0.004517  0.403102  1
  Ta  Ta2  1  0.636206  0.495483  0.903102  1
  Ta  Ta3  1  0.363794  0.995483  0.596898  1
  Ta  Ta4  1  0.053809  0.698762  0.431665  1
  Ta  Ta5  1  0.946191  0.198762  0.068335  1
  Ta  Ta6  1  0.946191  0.301238  0.568335  1
  Ta  Ta7  1  0.053809  0.801238  0.931665  1
  Te  Te8  1  0.456617  0.566143  0.328719  1
  Te  Te9  1  0.543383  0.066143  0.171281  1
  Te  Te10  1  0.543383  0.433857  0.671281  1
  Te  Te11  1  0.456617  0.933857  0.828719  1
  Te  Te12  1  0.868808  0.628477  0.186066  1
  Te  Te13  1  0.131192  0.128477  0.313934  1
  Te  Te14  1  0.131192  0.371523  0.813934  1
  Te  Te15  1  0.868808  0.871523  0.686066  1
  O  O16  1  0.599338  0.848118  0.668114  1
  O  O17  1  0.400662  0.348118  0.831886  1
  O  O18  1  0.400662  0.151882  0.331886  1
  O  O19  1  0.599338  0.651882  0.168114  1
  O  O20  1  0.112992  0.893733  0.348623  1
  O  O21  1  0.887008  0.393733  0.151377  1
  O  O22  1  0.887008  0.106267  0.651377  1
  O  O23  1  0.112992  0.606267  0.848623  1
  O  O24  1  0.500000  0.500000  0.000000  1
  O  O25  1  0.500000  0.000000  0.500000  1
  O  O26  1  0.898632  0.588463  0.313268  1
  O  O27  1  0.101368  0.088463  0.186732  1
  O  O28  1  0.101368  0.411537  0.686732  1
  O  O29  1  0.898632  0.911537  0.813268  1
  O  O30  1  0.209846  0.695815  0.039396  1
  O  O31  1  0.790154  0.195815  0.460604  1
  O  O32  1  0.790154  0.304185  0.960604  1
  O  O33  1  0.209846  0.804185  0.539396  1
  O  O34  1  0.512977  0.309613  0.170271  1
  O  O35  1  0.487023  0.809613  0.329729  1
  O  O36  1  0.000000  0.000000  0.000000  1
  O  O37  1  0.000000  0.500000  0.500000  1
  O  O38  1  0.280269  0.935928  0.905857  1
  O  O39  1  0.719731  0.435928  0.594143  1
  O  O40  1  0.719731  0.064072  0.094143  1
  O  O41  1  0.280269  0.564072  0.405857  1
  O  O42  1  0.829420  0.667058  0.946681  1
  O  O43  1  0.170580  0.167058  0.553319  1
  O  O44  1  0.170580  0.332942  0.053319  1
  O  O45  1  0.829420  0.832942  0.446681  1
  O  O46  1  0.271719  0.940814  0.715986  1
  O  O47  1  0.728281  0.440814  0.784014  1
  O  O48  1  0.728281  0.059186  0.284014  1
  O  O49  1  0.271719  0.559186  0.215986  1
  O  O50  1  0.512977  0.190387  0.670271  1
  O  O51  1  0.487023  0.690387  0.829729  1
