# generated using pymatgen
data_Ce3Ga4Cl
_symmetry_space_group_name_H-M   'P 1'
_cell_length_a   7.94607353
_cell_length_b   7.94607353
_cell_length_c   7.94607353
_cell_angle_alpha   119.40895959
_cell_angle_beta   119.40895959
_cell_angle_gamma   91.02679727
_symmetry_Int_Tables_number   1
_chemical_formula_structural   Ce3Ga4Cl
_chemical_formula_sum   'Ce6 Ga8 Cl2'
_cell_volume   357.87373745
_cell_formula_units_Z   2
loop_
 _symmetry_equiv_pos_site_id
 _symmetry_equiv_pos_as_xyz
  1  'x, y, z'
loop_
 _atom_site_type_symbol
 _atom_site_label
 _atom_site_symmetry_multiplicity
 _atom_site_fract_x
 _atom_site_fract_y
 _atom_site_fract_z
 _atom_site_occupancy
  Ce  Ce0  1  0.159489  0.659489  0.818978  1
  Ce  Ce1  1  0.659489  0.840511  0.500000  1
  Ce  Ce2  1  0.340511  0.159489  0.500000  1
  Ce  Ce3  1  0.840511  0.340511  0.181022  1
  Ce  Ce4  1  0.750000  0.750000  0.000000  1
  Ce  Ce5  1  0.250000  0.250000  0.000000  1
  Ga  Ga6  1  0.449779  0.949779  0.787474  1
  Ga  Ga7  1  0.162305  0.662305  0.212526  1
  Ga  Ga8  1  0.837695  0.337695  0.787474  1
  Ga  Ga9  1  0.662305  0.449779  0.500000  1
  Ga  Ga10  1  0.550221  0.050221  0.212526  1
  Ga  Ga11  1  0.050221  0.837695  0.500000  1
  Ga  Ga12  1  0.337695  0.550221  0.500000  1
  Ga  Ga13  1  0.949779  0.162305  0.500000  1
  Cl  Cl14  1  0.500000  0.500000  0.000000  1
  Cl  Cl15  1  0.000000  0.000000  0.000000  1
