# generated using pymatgen
data_Li3Mn3O8
_symmetry_space_group_name_H-M   'P 1'
_cell_length_a   5.92170272
_cell_length_b   5.92170272
_cell_length_c   5.92170272
_cell_angle_alpha   58.83210993
_cell_angle_beta   58.83210993
_cell_angle_gamma   58.83210993
_symmetry_Int_Tables_number   1
_chemical_formula_structural   Li3Mn3O8
_chemical_formula_sum   'Li3 Mn3 O8'
_cell_volume   142.91791341
_cell_formula_units_Z   1
loop_
 _symmetry_equiv_pos_site_id
 _symmetry_equiv_pos_as_xyz
  1  'x, y, z'
loop_
 _atom_site_type_symbol
 _atom_site_label
 _atom_site_symmetry_multiplicity
 _atom_site_fract_x
 _atom_site_fract_y
 _atom_site_fract_z
 _atom_site_occupancy
  Li  Li0  1  0.621242  0.621242  0.621242  1
  Li  Li1  1  0.378758  0.378758  0.378758  1
  Li  Li2  1  0.000000  0.000000  0.000000  1
  Mn  Mn3  1  0.000000  0.000000  0.500000  1
  Mn  Mn4  1  0.500000  0.000000  0.000000  1
  Mn  Mn5  1  0.000000  0.500000  0.000000  1
  O  O6  1  0.237622  0.237622  0.237622  1
  O  O7  1  0.248913  0.791443  0.248913  1
  O  O8  1  0.791443  0.248913  0.248913  1
  O  O9  1  0.248913  0.248913  0.791443  1
  O  O10  1  0.751087  0.751087  0.208557  1
  O  O11  1  0.751087  0.208557  0.751087  1
  O  O12  1  0.208557  0.751087  0.751087  1
  O  O13  1  0.762378  0.762378  0.762378  1
