# generated using pymatgen
data_NdPO4
_symmetry_space_group_name_H-M   'P 1'
_cell_length_a   6.45372029
_cell_length_b   7.04245201
_cell_length_c   8.20121596
_cell_angle_alpha   90.00000000
_cell_angle_beta   125.83277638
_cell_angle_gamma   90.00000000
_symmetry_Int_Tables_number   1
_chemical_formula_structural   NdPO4
_chemical_formula_sum   'Nd4 P4 O16'
_cell_volume   302.19552031
_cell_formula_units_Z   4
loop_
 _symmetry_equiv_pos_site_id
 _symmetry_equiv_pos_as_xyz
  1  'x, y, z'
loop_
 _atom_site_type_symbol
 _atom_site_label
 _atom_site_symmetry_multiplicity
 _atom_site_fract_x
 _atom_site_fract_y
 _atom_site_fract_z
 _atom_site_occupancy
  Nd  Nd0  1  0.187274  0.656630  0.784439  1
  Nd  Nd1  1  0.812726  0.156630  0.715561  1
  Nd  Nd2  1  0.812726  0.343370  0.215561  1
  Nd  Nd3  1  0.187274  0.843370  0.284439  1
  P  P4  1  0.691630  0.660702  0.802623  1
  P  P5  1  0.308370  0.160702  0.697377  1
  P  P6  1  0.308370  0.339298  0.197377  1
  P  P7  1  0.691630  0.839298  0.302623  1
  O  O8  1  0.415191  0.710519  0.624707  1
  O  O9  1  0.584809  0.210519  0.875293  1
  O  O10  1  0.584809  0.289481  0.375293  1
  O  O11  1  0.415191  0.789481  0.124707  1
  O  O12  1  0.661340  0.601279  0.970039  1
  O  O13  1  0.338660  0.101279  0.529961  1
  O  O14  1  0.338660  0.398721  0.029961  1
  O  O15  1  0.661340  0.898721  0.470039  1
  O  O16  1  0.812161  0.995833  0.249644  1
  O  O17  1  0.187839  0.495833  0.250356  1
  O  O18  1  0.187839  0.004167  0.750356  1
  O  O19  1  0.812161  0.504167  0.749644  1
  O  O20  1  0.882696  0.668711  0.381639  1
  O  O21  1  0.117304  0.168711  0.118361  1
  O  O22  1  0.117304  0.331289  0.618361  1
  O  O23  1  0.882696  0.831289  0.881639  1
