# generated using pymatgen
data_NiP2O7
_symmetry_space_group_name_H-M   'P 1'
_cell_length_a   6.99702194
_cell_length_b   8.29225339
_cell_length_c   9.71070954
_cell_angle_alpha   90.00000000
_cell_angle_beta   107.57748536
_cell_angle_gamma   90.00000000
_symmetry_Int_Tables_number   1
_chemical_formula_structural   NiP2O7
_chemical_formula_sum   'Ni4 P8 O28'
_cell_volume   537.11916039
_cell_formula_units_Z   4
loop_
 _symmetry_equiv_pos_site_id
 _symmetry_equiv_pos_as_xyz
  1  'x, y, z'
loop_
 _atom_site_type_symbol
 _atom_site_label
 _atom_site_symmetry_multiplicity
 _atom_site_fract_x
 _atom_site_fract_y
 _atom_site_fract_z
 _atom_site_occupancy
  Ni  Ni0  1  0.276552  0.229619  0.994080  1
  Ni  Ni1  1  0.723448  0.770381  0.005920  1
  Ni  Ni2  1  0.723448  0.729619  0.505920  1
  Ni  Ni3  1  0.276552  0.270381  0.494080  1
  P  P4  1  0.061285  0.033102  0.208103  1
  P  P5  1  0.460039  0.581417  0.708233  1
  P  P6  1  0.938715  0.533102  0.291897  1
  P  P7  1  0.460039  0.918583  0.208233  1
  P  P8  1  0.539961  0.418583  0.291767  1
  P  P9  1  0.938715  0.966898  0.791897  1
  P  P10  1  0.061285  0.466898  0.708103  1
  P  P11  1  0.539961  0.081417  0.791767  1
  O  O12  1  0.902392  0.893868  0.642983  1
  O  O13  1  0.928483  0.825660  0.893243  1
  O  O14  1  0.097608  0.106132  0.357017  1
  O  O15  1  0.501010  0.279053  0.384825  1
  O  O16  1  0.136689  0.053776  0.851397  1
  O  O17  1  0.902392  0.606132  0.142983  1
  O  O18  1  0.136689  0.446224  0.351397  1
  O  O19  1  0.071517  0.325660  0.606757  1
  O  O20  1  0.232165  0.600143  0.713122  1
  O  O21  1  0.470991  0.421814  0.633089  1
  O  O22  1  0.398842  0.405695  0.139715  1
  O  O23  1  0.501010  0.220947  0.884825  1
  O  O24  1  0.601158  0.594305  0.860285  1
  O  O25  1  0.863311  0.553776  0.648603  1
  O  O26  1  0.498990  0.779053  0.115175  1
  O  O27  1  0.470991  0.078186  0.133089  1
  O  O28  1  0.398842  0.094305  0.639715  1
  O  O29  1  0.232165  0.899857  0.213122  1
  O  O30  1  0.767835  0.100143  0.786878  1
  O  O31  1  0.529009  0.921814  0.866911  1
  O  O32  1  0.863311  0.946224  0.148603  1
  O  O33  1  0.767835  0.399857  0.286878  1
  O  O34  1  0.097608  0.393868  0.857017  1
  O  O35  1  0.529009  0.578186  0.366911  1
  O  O36  1  0.928483  0.674340  0.393243  1
  O  O37  1  0.601158  0.905695  0.360285  1
  O  O38  1  0.498990  0.720947  0.615175  1
  O  O39  1  0.071517  0.174340  0.106757  1
