# generated using pymatgen
data_Tm3Ga5
_symmetry_space_group_name_H-M   'P 1'
_cell_length_a   6.04879583
_cell_length_b   9.62498503
_cell_length_c   11.26815676
_cell_angle_alpha   90.00000000
_cell_angle_beta   90.00000000
_cell_angle_gamma   90.00000000
_symmetry_Int_Tables_number   1
_chemical_formula_structural   Tm3Ga5
_chemical_formula_sum   'Tm12 Ga20'
_cell_volume   656.02723352
_cell_formula_units_Z   4
loop_
 _symmetry_equiv_pos_site_id
 _symmetry_equiv_pos_as_xyz
  1  'x, y, z'
loop_
 _atom_site_type_symbol
 _atom_site_label
 _atom_site_symmetry_multiplicity
 _atom_site_fract_x
 _atom_site_fract_y
 _atom_site_fract_z
 _atom_site_occupancy
  Tm  Tm0  1  0.652096  0.750000  0.572680  1
  Tm  Tm1  1  0.847904  0.750000  0.072680  1
  Tm  Tm2  1  0.347904  0.250000  0.427320  1
  Tm  Tm3  1  0.152096  0.250000  0.927320  1
  Tm  Tm4  1  0.610626  0.990280  0.852458  1
  Tm  Tm5  1  0.889374  0.509720  0.352458  1
  Tm  Tm6  1  0.389374  0.490280  0.147542  1
  Tm  Tm7  1  0.110626  0.009720  0.647542  1
  Tm  Tm8  1  0.389374  0.009720  0.147542  1
  Tm  Tm9  1  0.110626  0.490280  0.647542  1
  Tm  Tm10  1  0.610626  0.509720  0.852458  1
  Tm  Tm11  1  0.889374  0.990280  0.352458  1
  Ga  Ga12  1  0.626079  0.448556  0.590950  1
  Ga  Ga13  1  0.873921  0.051444  0.090950  1
  Ga  Ga14  1  0.373921  0.948556  0.409050  1
  Ga  Ga15  1  0.126079  0.551444  0.909050  1
  Ga  Ga16  1  0.373921  0.551444  0.409050  1
  Ga  Ga17  1  0.126079  0.948556  0.909050  1
  Ga  Ga18  1  0.626079  0.051444  0.590950  1
  Ga  Ga19  1  0.873921  0.448556  0.090950  1
  Ga  Ga20  1  0.325964  0.750000  0.751085  1
  Ga  Ga21  1  0.174036  0.750000  0.251085  1
  Ga  Ga22  1  0.674036  0.250000  0.248915  1
  Ga  Ga23  1  0.825964  0.250000  0.748915  1
  Ga  Ga24  1  0.127475  0.750000  0.506173  1
  Ga  Ga25  1  0.372525  0.750000  0.006173  1
  Ga  Ga26  1  0.872525  0.250000  0.493827  1
  Ga  Ga27  1  0.627475  0.250000  0.993827  1
  Ga  Ga28  1  0.893289  0.750000  0.798757  1
  Ga  Ga29  1  0.606711  0.750000  0.298757  1
  Ga  Ga30  1  0.106711  0.250000  0.201243  1
  Ga  Ga31  1  0.393289  0.250000  0.701243  1
