# generated using pymatgen
data_InAgSe2
_symmetry_space_group_name_H-M   'P 1'
_cell_length_a   7.04106596
_cell_length_b   7.04106596
_cell_length_c   7.04106596
_cell_angle_alpha   132.53066452
_cell_angle_beta   132.53066452
_cell_angle_gamma   69.39218027
_symmetry_Int_Tables_number   1
_chemical_formula_structural   InAgSe2
_chemical_formula_sum   'In2 Ag2 Se4'
_cell_volume   185.98554244
_cell_formula_units_Z   2
loop_
 _symmetry_equiv_pos_site_id
 _symmetry_equiv_pos_as_xyz
  1  'x, y, z'
loop_
 _atom_site_type_symbol
 _atom_site_label
 _atom_site_symmetry_multiplicity
 _atom_site_fract_x
 _atom_site_fract_y
 _atom_site_fract_z
 _atom_site_occupancy
  In  In0  1  1.000000  1.000000  0.000000  1
  In  In1  1  0.750000  0.250000  0.500000  1
  Ag  Ag2  1  0.250000  0.750000  0.500000  1
  Ag  Ag3  1  0.500000  0.500000  0.000000  1
  Se  Se4  1  0.758614  0.758614  0.000000  1
  Se  Se5  1  0.508614  0.008614  0.500000  1
  Se  Se6  1  0.241386  0.241386  0.000000  1
  Se  Se7  1  0.991386  0.491386  0.500000  1
