# generated using pymatgen
data_Ta2Mn3O8
_symmetry_space_group_name_H-M   'P 1'
_cell_length_a   9.47934252
_cell_length_b   9.47934252
_cell_length_c   9.47934252
_cell_angle_alpha   105.98038790
_cell_angle_beta   105.98038790
_cell_angle_gamma   116.70412990
_symmetry_Int_Tables_number   1
_chemical_formula_structural   Ta2Mn3O8
_chemical_formula_sum   'Ta8 Mn12 O32'
_cell_volume   647.78007276
_cell_formula_units_Z   4
loop_
 _symmetry_equiv_pos_site_id
 _symmetry_equiv_pos_as_xyz
  1  'x, y, z'
loop_
 _atom_site_type_symbol
 _atom_site_label
 _atom_site_symmetry_multiplicity
 _atom_site_fract_x
 _atom_site_fract_y
 _atom_site_fract_z
 _atom_site_occupancy
  Ta  Ta0  1  0.919390  0.299545  0.227925  1
  Ta  Ta1  1  0.941465  0.669390  0.119845  1
  Ta  Ta2  1  0.549545  0.821619  0.880155  1
  Ta  Ta3  1  0.071619  0.691465  0.772075  1
  Ta  Ta4  1  0.330610  0.450455  0.272075  1
  Ta  Ta5  1  0.308535  0.080610  0.380155  1
  Ta  Ta6  1  0.700455  0.928381  0.619845  1
  Ta  Ta7  1  0.178381  0.058535  0.727925  1
  Mn  Mn8  1  0.000000  0.000000  0.000000  1
  Mn  Mn9  1  0.250000  0.750000  0.500000  1
  Mn  Mn10  1  0.500000  0.500000  0.000000  1
  Mn  Mn11  1  0.750000  0.250000  0.500000  1
  Mn  Mn12  1  0.417274  0.825565  0.182529  1
  Mn  Mn13  1  0.484745  0.167274  0.091709  1
  Mn  Mn14  1  0.075565  0.393036  0.908291  1
  Mn  Mn15  1  0.643036  0.234745  0.817471  1
  Mn  Mn16  1  0.832726  0.924435  0.317471  1
  Mn  Mn17  1  0.765255  0.582726  0.408291  1
  Mn  Mn18  1  0.174435  0.356964  0.591709  1
  Mn  Mn19  1  0.606964  0.515255  0.682529  1
  O  O20  1  0.704939  0.088251  0.034157  1
  O  O21  1  0.920781  0.454939  0.116688  1
  O  O22  1  0.338251  0.804093  0.883312  1
  O  O23  1  0.054093  0.670781  0.965843  1
  O  O24  1  0.545061  0.661749  0.465843  1
  O  O25  1  0.329219  0.295061  0.383312  1
  O  O26  1  0.911749  0.945907  0.616688  1
  O  O27  1  0.195907  0.079219  0.534157  1
  O  O28  1  0.825875  0.691983  0.258775  1
  O  O29  1  0.817100  0.575875  0.633892  1
  O  O30  1  0.941983  0.183208  0.366108  1
  O  O31  1  0.433208  0.567100  0.741225  1
  O  O32  1  0.424125  0.058017  0.241225  1
  O  O33  1  0.432900  0.174125  0.866108  1
  O  O34  1  0.308017  0.566792  0.133892  1
  O  O35  1  0.816792  0.182900  0.758775  1
  O  O36  1  0.068410  0.253542  0.108975  1
  O  O37  1  0.209435  0.818410  0.314868  1
  O  O38  1  0.503542  0.894567  0.685132  1
  O  O39  1  0.144567  0.959435  0.891025  1
  O  O40  1  0.213256  0.290240  0.818703  1
  O  O41  1  0.644554  0.963256  0.423016  1
  O  O42  1  0.540240  0.221538  0.576984  1
  O  O43  1  0.471538  0.394554  0.181297  1
  O  O44  1  0.036744  0.459760  0.681297  1
  O  O45  1  0.605446  0.786744  0.076984  1
  O  O46  1  0.709760  0.528462  0.923016  1
  O  O47  1  0.778462  0.355446  0.318703  1
  O  O48  1  0.105433  0.790565  0.608975  1
  O  O49  1  0.746458  0.855433  0.814868  1
  O  O50  1  0.040565  0.931590  0.185132  1
  O  O51  1  0.181590  0.496458  0.391025  1
