# generated using pymatgen
data_Ni3Te2
_symmetry_space_group_name_H-M   'P 1'
_cell_length_a   6.10262070
_cell_length_b   3.80376852
_cell_length_c   7.53718814
_cell_angle_alpha   90.00000000
_cell_angle_beta   91.59504071
_cell_angle_gamma   90.00000000
_symmetry_Int_Tables_number   1
_chemical_formula_structural   Ni3Te2
_chemical_formula_sum   'Ni6 Te4'
_cell_volume   174.89262826
_cell_formula_units_Z   2
loop_
 _symmetry_equiv_pos_site_id
 _symmetry_equiv_pos_as_xyz
  1  'x, y, z'
loop_
 _atom_site_type_symbol
 _atom_site_label
 _atom_site_symmetry_multiplicity
 _atom_site_fract_x
 _atom_site_fract_y
 _atom_site_fract_z
 _atom_site_occupancy
  Ni  Ni0  1  0.709698  0.250000  0.364794  1
  Ni  Ni1  1  0.290302  0.750000  0.635206  1
  Ni  Ni2  1  0.992270  0.250000  0.628886  1
  Ni  Ni3  1  0.007730  0.750000  0.371114  1
  Ni  Ni4  1  0.006176  0.250000  0.123112  1
  Ni  Ni5  1  0.993824  0.750000  0.876888  1
  Te  Te6  1  0.280594  0.250000  0.880948  1
  Te  Te7  1  0.719406  0.750000  0.119052  1
  Te  Te8  1  0.287361  0.250000  0.382347  1
  Te  Te9  1  0.712639  0.750000  0.617653  1
