# generated using pymatgen
data_In2HgTe4
_symmetry_space_group_name_H-M   'P 1'
_cell_length_a   7.40319643
_cell_length_b   7.40319643
_cell_length_c   7.40319643
_cell_angle_alpha   130.76934725
_cell_angle_beta   130.76934725
_cell_angle_gamma   72.17979494
_symmetry_Int_Tables_number   1
_chemical_formula_structural   In2HgTe4
_chemical_formula_sum   'In2 Hg1 Te4'
_cell_volume   227.54097321
_cell_formula_units_Z   1
loop_
 _symmetry_equiv_pos_site_id
 _symmetry_equiv_pos_as_xyz
  1  'x, y, z'
loop_
 _atom_site_type_symbol
 _atom_site_label
 _atom_site_symmetry_multiplicity
 _atom_site_fract_x
 _atom_site_fract_y
 _atom_site_fract_z
 _atom_site_occupancy
  In  In0  1  0.250000  0.750000  0.500000  1
  In  In1  1  0.500000  0.500000  0.000000  1
  Hg  Hg2  1  0.750000  0.250000  0.500000  1
  Te  Te3  1  0.491542  0.991542  0.500000  1
  Te  Te4  1  0.744169  0.744169  0.000000  1
  Te  Te5  1  0.008458  0.508458  0.500000  1
  Te  Te6  1  0.255831  0.255831  0.000000  1
