# generated using pymatgen
data_NaTh2F9
_symmetry_space_group_name_H-M   'P 1'
_cell_length_a   7.63024670
_cell_length_b   7.63024670
_cell_length_c   7.63024670
_cell_angle_alpha   108.96255819
_cell_angle_beta   108.96255819
_cell_angle_gamma   110.49340663
_symmetry_Int_Tables_number   1
_chemical_formula_structural   NaTh2F9
_chemical_formula_sum   'Na2 Th4 F18'
_cell_volume   341.89279830
_cell_formula_units_Z   2
loop_
 _symmetry_equiv_pos_site_id
 _symmetry_equiv_pos_as_xyz
  1  'x, y, z'
loop_
 _atom_site_type_symbol
 _atom_site_label
 _atom_site_symmetry_multiplicity
 _atom_site_fract_x
 _atom_site_fract_y
 _atom_site_fract_z
 _atom_site_occupancy
  Na  Na0  1  0.500000  1.000000  0.500000  1
  Na  Na1  1  1.000000  0.500000  0.500000  1
  Th  Th2  1  0.621368  0.621368  0.629973  1
  Th  Th3  1  0.008605  0.378632  0.000000  1
  Th  Th4  1  0.378632  0.008605  0.000000  1
  Th  Th5  1  0.991395  0.991395  0.370027  1
  F  F6  1  0.337537  0.337537  0.576465  1
  F  F7  1  0.238928  0.662463  1.000000  1
  F  F8  1  0.662463  0.238928  0.000000  1
  F  F9  1  0.761072  0.761072  0.423535  1
  F  F10  1  0.604452  0.353120  0.354172  1
  F  F11  1  0.998948  0.250280  0.645828  1
  F  F12  1  0.239077  1.000000  0.239077  1
  F  F13  1  1.000000  0.760923  0.760923  1
  F  F14  1  0.000000  0.239077  0.239077  1
  F  F15  1  0.760923  1.000000  0.760923  1
  F  F16  1  0.225133  0.225133  0.000000  1
  F  F17  1  0.774867  0.774867  0.000000  1
  F  F18  1  0.250280  0.998948  0.645828  1
  F  F19  1  0.395548  0.749720  0.748668  1
  F  F20  1  0.001052  0.646880  0.251332  1
  F  F21  1  0.353120  0.604452  0.354172  1
  F  F22  1  0.749720  0.395548  0.748668  1
  F  F23  1  0.646880  0.001052  0.251332  1
