# generated using pymatgen
data_Ac2S3
_symmetry_space_group_name_H-M   'P 1'
_cell_length_a   14.98082302
_cell_length_b   14.98082302
_cell_length_c   14.98082302
_cell_angle_alpha   144.73079571
_cell_angle_beta   144.73079571
_cell_angle_gamma   50.73588187
_symmetry_Int_Tables_number   1
_chemical_formula_structural   Ac2S3
_chemical_formula_sum   'Ac16 S24'
_cell_volume   1115.21928234
_cell_formula_units_Z   8
loop_
 _symmetry_equiv_pos_site_id
 _symmetry_equiv_pos_as_xyz
  1  'x, y, z'
loop_
 _atom_site_type_symbol
 _atom_site_label
 _atom_site_symmetry_multiplicity
 _atom_site_fract_x
 _atom_site_fract_y
 _atom_site_fract_z
 _atom_site_occupancy
  Ac  Ac0  1  0.181372  0.297788  0.402573  1
  Ac  Ac1  1  0.585592  0.085592  0.500000  1
  Ac  Ac2  1  0.375000  0.745699  0.870699  1
  Ac  Ac3  1  0.854785  0.952212  0.383584  1
  Ac  Ac4  1  0.164408  0.164408  0.000000  1
  Ac  Ac5  1  0.568628  0.471201  0.616416  1
  Ac  Ac6  1  0.875000  0.504301  0.129301  1
  Ac  Ac7  1  0.047788  0.431372  0.902573  1
  Ac  Ac8  1  0.835592  0.835592  0.000000  1
  Ac  Ac9  1  0.495699  0.625000  0.370699  1
  Ac  Ac10  1  0.528799  0.145215  0.097427  1
  Ac  Ac11  1  0.254301  0.125000  0.629301  1
  Ac  Ac12  1  0.914408  0.414408  0.500000  1
  Ac  Ac13  1  0.702212  0.104785  0.883584  1
  Ac  Ac14  1  0.221201  0.818628  0.116416  1
  Ac  Ac15  1  0.895215  0.778799  0.597427  1
  S  S16  1  0.890503  0.137719  0.894285  1
  S  S17  1  0.532506  0.422969  0.744078  1
  S  S18  1  0.243433  0.996218  0.105715  1
  S  S19  1  0.506567  0.112281  0.252785  1
  S  S20  1  0.859497  0.253782  0.747215  1
  S  S21  1  0.678891  0.788428  0.255922  1
  S  S22  1  0.568787  0.815023  0.917401  1
  S  S23  1  0.071109  0.827031  0.609537  1
  S  S24  1  0.184977  0.102378  0.753764  1
  S  S25  1  0.897622  0.651386  0.082599  1
  S  S26  1  0.217494  0.461572  0.390463  1
  S  S27  1  0.172969  0.782506  0.244078  1
  S  S28  1  0.538428  0.928891  0.755922  1
  S  S29  1  0.348614  0.431213  0.246236  1
  S  S30  1  0.211572  0.467494  0.890463  1
  S  S31  1  0.746218  0.493433  0.605715  1
  S  S32  1  0.862281  0.756567  0.752785  1
  S  S33  1  0.577031  0.321109  0.109537  1
  S  S34  1  0.887719  0.140503  0.394285  1
  S  S35  1  0.852378  0.434977  0.253764  1
  S  S36  1  0.181213  0.598614  0.746236  1
  S  S37  1  0.003782  0.109497  0.247215  1
  S  S38  1  0.401386  0.147622  0.582599  1
  S  S39  1  0.565023  0.818787  0.417401  1
