# generated using pymatgen
data_Pd13Pb9
_symmetry_space_group_name_H-M   'P 1'
_cell_length_a   9.26511643
_cell_length_b   9.26511643
_cell_length_c   14.20450320
_cell_angle_alpha   60.91879949
_cell_angle_beta   119.08120051
_cell_angle_gamma   119.97672520
_symmetry_Int_Tables_number   1
_chemical_formula_structural   Pd13Pb9
_chemical_formula_sum   'Pd26 Pb18'
_cell_volume   874.14794672
_cell_formula_units_Z   2
loop_
 _symmetry_equiv_pos_site_id
 _symmetry_equiv_pos_as_xyz
  1  'x, y, z'
loop_
 _atom_site_type_symbol
 _atom_site_label
 _atom_site_symmetry_multiplicity
 _atom_site_fract_x
 _atom_site_fract_y
 _atom_site_fract_z
 _atom_site_occupancy
  Pd  Pd0  1  0.263760  0.499848  0.499686  1
  Pd  Pd1  1  0.980048  0.743817  0.994433  1
  Pd  Pd2  1  0.396657  0.344110  0.140326  1
  Pd  Pd3  1  0.499848  0.263760  0.000314  1
  Pd  Pd4  1  0.902003  0.343118  0.130188  1
  Pd  Pd5  1  0.133178  0.099187  0.625110  1
  Pd  Pd6  1  0.500152  0.736240  0.999686  1
  Pd  Pd7  1  0.343118  0.902003  0.369812  1
  Pd  Pd8  1  0.344110  0.396657  0.359674  1
  Pd  Pd9  1  0.900813  0.866822  0.125110  1
  Pd  Pd10  1  0.097997  0.656882  0.869812  1
  Pd  Pd11  1  0.866822  0.900813  0.374890  1
  Pd  Pd12  1  0.877080  0.376255  0.750645  1
  Pd  Pd13  1  0.256183  0.019952  0.494433  1
  Pd  Pd14  1  0.376255  0.877080  0.749355  1
  Pd  Pd15  1  0.655890  0.603343  0.640326  1
  Pd  Pd16  1  0.656882  0.097997  0.630188  1
  Pd  Pd17  1  0.623745  0.122920  0.250645  1
  Pd  Pd18  1  0.743817  0.980048  0.505567  1
  Pd  Pd19  1  0.375181  0.375181  0.750000  1
  Pd  Pd20  1  0.736240  0.500152  0.500314  1
  Pd  Pd21  1  0.122920  0.623745  0.249355  1
  Pd  Pd22  1  0.603343  0.655890  0.859674  1
  Pd  Pd23  1  0.019952  0.256183  0.005567  1
  Pd  Pd24  1  0.624819  0.624819  0.250000  1
  Pd  Pd25  1  0.099187  0.133178  0.874890  1
  Pb  Pb26  1  0.420428  0.754392  0.613267  1
  Pb  Pb27  1  0.245608  0.579572  0.113267  1
  Pb  Pb28  1  0.992761  0.249971  0.381596  1
  Pb  Pb29  1  0.007239  0.750029  0.618404  1
  Pb  Pb30  1  0.249971  0.992761  0.118404  1
  Pb  Pb31  1  0.473124  0.271989  0.616317  1
  Pb  Pb32  1  0.671653  0.991437  0.125140  1
  Pb  Pb33  1  0.876267  0.876267  0.750000  1
  Pb  Pb34  1  0.750029  0.007239  0.881596  1
  Pb  Pb35  1  0.008563  0.328347  0.625140  1
  Pb  Pb36  1  0.271989  0.473124  0.883683  1
  Pb  Pb37  1  0.526876  0.728011  0.383683  1
  Pb  Pb38  1  0.328347  0.008563  0.874860  1
  Pb  Pb39  1  0.754392  0.420428  0.886733  1
  Pb  Pb40  1  0.728011  0.526876  0.116317  1
  Pb  Pb41  1  0.579572  0.245608  0.386733  1
  Pb  Pb42  1  0.991437  0.671653  0.374860  1
  Pb  Pb43  1  0.123733  0.123733  0.250000  1
