# generated using pymatgen
data_TlMo6O17
_symmetry_space_group_name_H-M   'P 1'
_cell_length_a   5.63087775
_cell_length_b   5.63087775
_cell_length_c   14.39830447
_cell_angle_alpha   90.00000000
_cell_angle_beta   90.00000000
_cell_angle_gamma   120.00000000
_symmetry_Int_Tables_number   1
_chemical_formula_structural   TlMo6O17
_chemical_formula_sum   'Tl1 Mo6 O17'
_cell_volume   395.36132393
_cell_formula_units_Z   1
loop_
 _symmetry_equiv_pos_site_id
 _symmetry_equiv_pos_as_xyz
  1  'x, y, z'
loop_
 _atom_site_type_symbol
 _atom_site_label
 _atom_site_symmetry_multiplicity
 _atom_site_fract_x
 _atom_site_fract_y
 _atom_site_fract_z
 _atom_site_occupancy
  Tl  Tl0  1  0.000000  0.000000  0.500000  1
  Mo  Mo1  1  0.000000  0.000000  0.787398  1
  Mo  Mo2  1  0.000000  0.000000  0.212602  1
  Mo  Mo3  1  0.666667  0.333333  0.068984  1
  Mo  Mo4  1  0.333333  0.666667  0.931016  1
  Mo  Mo5  1  0.666667  0.333333  0.644725  1
  Mo  Mo6  1  0.333333  0.666667  0.355275  1
  O  O7  1  0.500000  0.500000  0.000000  1
  O  O8  1  0.000000  0.500000  0.000000  1
  O  O9  1  0.500000  0.000000  0.000000  1
  O  O10  1  0.666667  0.333333  0.522784  1
  O  O11  1  0.333333  0.666667  0.477216  1
  O  O12  1  0.836180  0.163820  0.152574  1
  O  O13  1  0.836180  0.672359  0.152574  1
  O  O14  1  0.158163  0.841837  0.315024  1
  O  O15  1  0.158163  0.316326  0.315024  1
  O  O16  1  0.683674  0.841837  0.315024  1
  O  O17  1  0.316326  0.158163  0.684976  1
  O  O18  1  0.841837  0.683674  0.684976  1
  O  O19  1  0.841837  0.158163  0.684976  1
  O  O20  1  0.163820  0.836180  0.847426  1
  O  O21  1  0.163820  0.327641  0.847426  1
  O  O22  1  0.672359  0.836180  0.847426  1
  O  O23  1  0.327641  0.163820  0.152574  1
