# generated using pymatgen
data_Li2Sn2Au
_symmetry_space_group_name_H-M   'P 1'
_cell_length_a   10.47604333
_cell_length_b   10.47604333
_cell_length_c   10.47604333
_cell_angle_alpha   154.43942096
_cell_angle_beta   154.43942096
_cell_angle_gamma   36.46122749
_symmetry_Int_Tables_number   1
_chemical_formula_structural   Li2Sn2Au
_chemical_formula_sum   'Li4 Sn4 Au2'
_cell_volume   213.75077000
_cell_formula_units_Z   2
loop_
 _symmetry_equiv_pos_site_id
 _symmetry_equiv_pos_as_xyz
  1  'x, y, z'
loop_
 _atom_site_type_symbol
 _atom_site_label
 _atom_site_symmetry_multiplicity
 _atom_site_fract_x
 _atom_site_fract_y
 _atom_site_fract_z
 _atom_site_occupancy
  Li  Li0  1  0.324400  0.324400  0.000000  1
  Li  Li1  1  0.074400  0.574400  0.500000  1
  Li  Li2  1  0.425600  0.925600  0.500000  1
  Li  Li3  1  0.675600  0.675600  0.000000  1
  Sn  Sn4  1  0.827222  0.827222  0.000000  1
  Sn  Sn5  1  0.577222  0.077222  0.500000  1
  Sn  Sn6  1  0.922778  0.422778  0.500000  1
  Sn  Sn7  1  0.172778  0.172778  0.000000  1
  Au  Au8  1  0.250000  0.750000  0.500000  1
  Au  Au9  1  0.500000  0.500000  0.000000  1
