# generated using pymatgen
data_MgAl2O4
_symmetry_space_group_name_H-M   'P 1'
_cell_length_a   5.78746304
_cell_length_b   5.78746304
_cell_length_c   5.78746304
_cell_angle_alpha   59.55600932
_cell_angle_beta   59.55600932
_cell_angle_gamma   59.55600932
_symmetry_Int_Tables_number   1
_chemical_formula_structural   MgAl2O4
_chemical_formula_sum   'Mg2 Al4 O8'
_cell_volume   135.68867641
_cell_formula_units_Z   2
loop_
 _symmetry_equiv_pos_site_id
 _symmetry_equiv_pos_as_xyz
  1  'x, y, z'
loop_
 _atom_site_type_symbol
 _atom_site_label
 _atom_site_symmetry_multiplicity
 _atom_site_fract_x
 _atom_site_fract_y
 _atom_site_fract_z
 _atom_site_occupancy
  Mg  Mg0  1  0.622022  0.622022  0.622022  1
  Mg  Mg1  1  0.998665  0.998665  0.998665  1
  Al  Al2  1  0.996443  0.510427  0.996443  1
  Al  Al3  1  0.996443  0.996443  0.510427  1
  Al  Al4  1  0.510427  0.996443  0.996443  1
  Al  Al5  1  0.380290  0.380290  0.380290  1
  O  O6  1  0.752562  0.752562  0.212010  1
  O  O7  1  0.752562  0.212010  0.752562  1
  O  O8  1  0.212010  0.752562  0.752562  1
  O  O9  1  0.760135  0.760135  0.760135  1
  O  O10  1  0.245847  0.245847  0.245847  1
  O  O11  1  0.770417  0.251089  0.251089  1
  O  O12  1  0.251089  0.770417  0.251089  1
  O  O13  1  0.251089  0.251089  0.770417  1
