# generated using pymatgen
data_LiNb3O8
_symmetry_space_group_name_H-M   'P 1'
_cell_length_a   7.63227100
_cell_length_b   5.10193610
_cell_length_c   15.58699424
_cell_angle_alpha   90.00000000
_cell_angle_beta   107.04863786
_cell_angle_gamma   90.00000000
_symmetry_Int_Tables_number   1
_chemical_formula_structural   LiNb3O8
_chemical_formula_sum   'Li4 Nb12 O32'
_cell_volume   580.27599364
_cell_formula_units_Z   4
loop_
 _symmetry_equiv_pos_site_id
 _symmetry_equiv_pos_as_xyz
  1  'x, y, z'
loop_
 _atom_site_type_symbol
 _atom_site_label
 _atom_site_symmetry_multiplicity
 _atom_site_fract_x
 _atom_site_fract_y
 _atom_site_fract_z
 _atom_site_occupancy
  Li  Li0  1  0.739001  0.258817  0.579386  1
  Li  Li1  1  0.739001  0.241183  0.079386  1
  Li  Li2  1  0.260999  0.741183  0.420614  1
  Li  Li3  1  0.260999  0.758817  0.920614  1
  Nb  Nb4  1  0.481255  0.238933  0.334768  1
  Nb  Nb5  1  0.518745  0.738933  0.165232  1
  Nb  Nb6  1  0.518745  0.761067  0.665232  1
  Nb  Nb7  1  0.481255  0.261067  0.834768  1
  Nb  Nb8  1  0.751326  0.742934  0.425564  1
  Nb  Nb9  1  0.248674  0.242934  0.074436  1
  Nb  Nb10  1  0.248674  0.257066  0.574436  1
  Nb  Nb11  1  0.751326  0.757066  0.925564  1
  Nb  Nb12  1  0.991116  0.230617  0.331305  1
  Nb  Nb13  1  0.008884  0.730617  0.168695  1
  Nb  Nb14  1  0.008884  0.769383  0.668695  1
  Nb  Nb15  1  0.991116  0.269383  0.831305  1
  O  O16  1  0.960172  0.920317  0.398876  1
  O  O17  1  0.039828  0.420317  0.101124  1
  O  O18  1  0.039828  0.079683  0.601124  1
  O  O19  1  0.960172  0.579683  0.898876  1
  O  O20  1  0.648362  0.065419  0.450289  1
  O  O21  1  0.351638  0.565419  0.049711  1
  O  O22  1  0.351638  0.934581  0.549711  1
  O  O23  1  0.648362  0.434581  0.950289  1
  O  O24  1  0.781400  0.417090  0.345282  1
  O  O25  1  0.781400  0.082910  0.845282  1
  O  O26  1  0.218600  0.582910  0.654718  1
  O  O27  1  0.218600  0.917090  0.154718  1
  O  O28  1  0.914726  0.432355  0.717998  1
  O  O29  1  0.085274  0.932355  0.782002  1
  O  O30  1  0.085274  0.567645  0.282002  1
  O  O31  1  0.914726  0.067645  0.217998  1
  O  O32  1  0.264048  0.401147  0.845289  1
  O  O33  1  0.735952  0.901147  0.654711  1
  O  O34  1  0.735952  0.598853  0.154711  1
  O  O35  1  0.264048  0.098853  0.345289  1
  O  O36  1  0.583406  0.585884  0.783040  1
  O  O37  1  0.416594  0.085884  0.716960  1
  O  O38  1  0.416594  0.414116  0.216960  1
  O  O39  1  0.583406  0.914116  0.283040  1
  O  O40  1  0.148340  0.105347  0.960731  1
  O  O41  1  0.851660  0.605347  0.539269  1
  O  O42  1  0.851660  0.894653  0.039269  1
  O  O43  1  0.148340  0.394653  0.460731  1
  O  O44  1  0.501215  0.939545  0.901048  1
  O  O45  1  0.498785  0.439545  0.598952  1
  O  O46  1  0.498785  0.060455  0.098952  1
  O  O47  1  0.501215  0.560455  0.401048  1
