# generated using pymatgen
data_Ce2Se3
_symmetry_space_group_name_H-M   'P 1'
_cell_length_a   14.74698220
_cell_length_b   14.74698220
_cell_length_c   14.74698220
_cell_angle_alpha   144.85681958
_cell_angle_beta   144.85681958
_cell_angle_gamma   50.54794708
_symmetry_Int_Tables_number   1
_chemical_formula_structural   Ce2Se3
_chemical_formula_sum   'Ce16 Se24'
_cell_volume   1057.27745127
_cell_formula_units_Z   8
loop_
 _symmetry_equiv_pos_site_id
 _symmetry_equiv_pos_as_xyz
  1  'x, y, z'
loop_
 _atom_site_type_symbol
 _atom_site_label
 _atom_site_symmetry_multiplicity
 _atom_site_fract_x
 _atom_site_fract_y
 _atom_site_fract_z
 _atom_site_occupancy
  Ce  Ce0  1  0.906484  0.784343  0.611075  1
  Ce  Ce1  1  0.583520  0.083520  0.500000  1
  Ce  Ce2  1  0.375000  0.745337  0.870337  1
  Ce  Ce3  1  0.166480  0.166480  0.000000  1
  Ce  Ce4  1  0.843516  0.954590  0.377859  1
  Ce  Ce5  1  0.875000  0.504663  0.129663  1
  Ce  Ce6  1  0.576732  0.465657  0.622141  1
  Ce  Ce7  1  0.045410  0.423268  0.888925  1
  Ce  Ce8  1  0.495337  0.625000  0.370337  1
  Ce  Ce9  1  0.833520  0.833520  0.000000  1
  Ce  Ce10  1  0.254663  0.125000  0.629663  1
  Ce  Ce11  1  0.534343  0.156484  0.111075  1
  Ce  Ce12  1  0.916480  0.416480  0.500000  1
  Ce  Ce13  1  0.704590  0.093516  0.877859  1
  Ce  Ce14  1  0.173268  0.295410  0.388925  1
  Ce  Ce15  1  0.215657  0.826732  0.122141  1
  Se  Se16  1  0.528862  0.423772  0.746268  1
  Se  Se17  1  0.240917  0.993238  0.100094  1
  Se  Se18  1  0.893144  0.140823  0.899906  1
  Se  Se19  1  0.509083  0.109177  0.252321  1
  Se  Se20  1  0.856856  0.256762  0.747679  1
  Se  Se21  1  0.677504  0.782594  0.253732  1
  Se  Se22  1  0.072496  0.826228  0.605089  1
  Se  Se23  1  0.186868  0.094164  0.748978  1
  Se  Se24  1  0.905836  0.654815  0.092705  1
  Se  Se25  1  0.221138  0.467406  0.394911  1
  Se  Se26  1  0.562110  0.813132  0.907295  1
  Se  Se27  1  0.173772  0.778862  0.246268  1
  Se  Se28  1  0.532594  0.927504  0.753732  1
  Se  Se29  1  0.345185  0.437890  0.251022  1
  Se  Se30  1  0.743238  0.490917  0.600094  1
  Se  Se31  1  0.859177  0.759083  0.752321  1
  Se  Se32  1  0.576228  0.322496  0.105089  1
  Se  Se33  1  0.890823  0.143144  0.399906  1
  Se  Se34  1  0.844164  0.436868  0.248978  1
  Se  Se35  1  0.217406  0.471138  0.894911  1
  Se  Se36  1  0.187890  0.595185  0.751022  1
  Se  Se37  1  0.006762  0.106856  0.247679  1
  Se  Se38  1  0.404815  0.155836  0.592705  1
  Se  Se39  1  0.563132  0.812110  0.407295  1
