# generated using pymatgen
data_SrLaTiMnO6
_symmetry_space_group_name_H-M   'P 1'
_cell_length_a   5.68758737
_cell_length_b   5.64068981
_cell_length_c   9.51783080
_cell_angle_alpha   90.00000000
_cell_angle_beta   126.05753956
_cell_angle_gamma   90.00000000
_symmetry_Int_Tables_number   1
_chemical_formula_structural   SrLaTiMnO6
_chemical_formula_sum   'Sr2 La2 Ti2 Mn2 O12'
_cell_volume   246.85317232
_cell_formula_units_Z   2
loop_
 _symmetry_equiv_pos_site_id
 _symmetry_equiv_pos_as_xyz
  1  'x, y, z'
loop_
 _atom_site_type_symbol
 _atom_site_label
 _atom_site_symmetry_multiplicity
 _atom_site_fract_x
 _atom_site_fract_y
 _atom_site_fract_z
 _atom_site_occupancy
  Sr  Sr0  1  0.251135  0.242818  0.250253  1
  Sr  Sr1  1  0.251135  0.757182  0.750253  1
  La  La2  1  0.740392  0.737240  0.250223  1
  La  La3  1  0.740392  0.262760  0.750223  1
  Ti  Ti4  1  0.500414  0.751931  0.501661  1
  Ti  Ti5  1  0.500414  0.248069  0.001661  1
  Mn  Mn6  1  0.997327  0.750798  0.000000  1
  Mn  Mn7  1  0.997327  0.249202  0.500000  1
  O  O8  1  0.167372  0.245958  0.745672  1
  O  O9  1  0.311742  0.007525  0.538104  1
  O  O10  1  0.717450  0.021766  0.960954  1
  O  O11  1  0.717450  0.978234  0.460954  1
  O  O12  1  0.311742  0.992475  0.038104  1
  O  O13  1  0.167372  0.754042  0.245672  1
  O  O14  1  0.816364  0.743104  0.754052  1
  O  O15  1  0.294335  0.509639  0.536356  1
  O  O16  1  0.703468  0.495496  0.962724  1
  O  O17  1  0.294335  0.490361  0.036356  1
  O  O18  1  0.703468  0.504504  0.462724  1
  O  O19  1  0.816364  0.256896  0.254052  1
