# generated using pymatgen
data_Tm2Cu2O5
_symmetry_space_group_name_H-M   'P 1'
_cell_length_a   3.45893769
_cell_length_b   10.81812762
_cell_length_c   12.43445839
_cell_angle_alpha   90.00000000
_cell_angle_beta   90.00000000
_cell_angle_gamma   90.00000000
_symmetry_Int_Tables_number   1
_chemical_formula_structural   Tm2Cu2O5
_chemical_formula_sum   'Tm8 Cu8 O20'
_cell_volume   465.28785046
_cell_formula_units_Z   4
loop_
 _symmetry_equiv_pos_site_id
 _symmetry_equiv_pos_as_xyz
  1  'x, y, z'
loop_
 _atom_site_type_symbol
 _atom_site_label
 _atom_site_symmetry_multiplicity
 _atom_site_fract_x
 _atom_site_fract_y
 _atom_site_fract_z
 _atom_site_occupancy
  Tm  Tm0  1  0.276484  0.042440  0.829668  1
  Tm  Tm1  1  0.723516  0.957560  0.329668  1
  Tm  Tm2  1  0.223516  0.542440  0.829668  1
  Tm  Tm3  1  0.776484  0.457560  0.329668  1
  Tm  Tm4  1  0.277555  0.207626  0.501779  1
  Tm  Tm5  1  0.722445  0.792374  0.001779  1
  Tm  Tm6  1  0.222445  0.707626  0.501779  1
  Tm  Tm7  1  0.777555  0.292374  0.001779  1
  Cu  Cu8  1  0.844817  0.261603  0.718962  1
  Cu  Cu9  1  0.155183  0.738397  0.218962  1
  Cu  Cu10  1  0.655183  0.761603  0.718962  1
  Cu  Cu11  1  0.344817  0.238397  0.218962  1
  Cu  Cu12  1  0.840355  0.988581  0.612076  1
  Cu  Cu13  1  0.159645  0.011419  0.112076  1
  Cu  Cu14  1  0.659645  0.488581  0.612076  1
  Cu  Cu15  1  0.340355  0.511419  0.112076  1
  O  O16  1  0.272027  0.422375  0.971994  1
  O  O17  1  0.727973  0.577625  0.471994  1
  O  O18  1  0.227973  0.922375  0.971994  1
  O  O19  1  0.772027  0.077625  0.471994  1
  O  O20  1  0.724432  0.429268  0.764275  1
  O  O21  1  0.275568  0.570732  0.264275  1
  O  O22  1  0.775568  0.929268  0.764275  1
  O  O23  1  0.224432  0.070732  0.264275  1
  O  O24  1  0.165866  0.124621  0.665637  1
  O  O25  1  0.834134  0.875379  0.165637  1
  O  O26  1  0.334134  0.624621  0.665637  1
  O  O27  1  0.665866  0.375379  0.165637  1
  O  O28  1  0.780896  0.321059  0.566421  1
  O  O29  1  0.219104  0.678941  0.066421  1
  O  O30  1  0.719104  0.821059  0.566421  1
  O  O31  1  0.280896  0.178941  0.066421  1
  O  O32  1  0.275622  0.327501  0.358987  1
  O  O33  1  0.724378  0.672499  0.858987  1
  O  O34  1  0.224378  0.827501  0.358987  1
  O  O35  1  0.775622  0.172499  0.858987  1
