# generated using pymatgen
data_LiTbSe2
_symmetry_space_group_name_H-M   'P 1'
_cell_length_a   7.05847840
_cell_length_b   7.05847840
_cell_length_c   7.05847840
_cell_angle_alpha   132.20769819
_cell_angle_beta   132.20769819
_cell_angle_gamma   69.90118733
_symmetry_Int_Tables_number   1
_chemical_formula_structural   LiTbSe2
_chemical_formula_sum   'Li2 Tb2 Se4'
_cell_volume   189.19154527
_cell_formula_units_Z   2
loop_
 _symmetry_equiv_pos_site_id
 _symmetry_equiv_pos_as_xyz
  1  'x, y, z'
loop_
 _atom_site_type_symbol
 _atom_site_label
 _atom_site_symmetry_multiplicity
 _atom_site_fract_x
 _atom_site_fract_y
 _atom_site_fract_z
 _atom_site_occupancy
  Li  Li0  1  0.500000  0.500000  0.000000  1
  Li  Li1  1  0.250000  0.750000  0.500000  1
  Tb  Tb2  1  0.000000  0.000000  0.000000  1
  Tb  Tb3  1  0.750000  0.250000  0.500000  1
  Se  Se4  1  0.751931  0.751931  0.000000  1
  Se  Se5  1  0.501931  0.001931  0.500000  1
  Se  Se6  1  0.248069  0.248069  0.000000  1
  Se  Se7  1  0.998069  0.498069  0.500000  1
