# generated using pymatgen
data_Co2SnO4
_symmetry_space_group_name_H-M   'P 1'
_cell_length_a   6.20421566
_cell_length_b   6.20421566
_cell_length_c   6.20421566
_cell_angle_alpha   121.24352997
_cell_angle_beta   118.92089603
_cell_angle_gamma   89.86945992
_symmetry_Int_Tables_number   1
_chemical_formula_structural   Co2SnO4
_chemical_formula_sum   'Co4 Sn2 O8'
_cell_volume   168.57015793
_cell_formula_units_Z   2
loop_
 _symmetry_equiv_pos_site_id
 _symmetry_equiv_pos_as_xyz
  1  'x, y, z'
loop_
 _atom_site_type_symbol
 _atom_site_label
 _atom_site_symmetry_multiplicity
 _atom_site_fract_x
 _atom_site_fract_y
 _atom_site_fract_z
 _atom_site_occupancy
  Co  Co0  1  0.111806  0.861806  0.750000  1
  Co  Co1  1  0.888194  0.138194  0.250000  1
  Co  Co2  1  0.500000  0.000000  0.500000  1
  Co  Co3  1  0.500000  0.500000  0.000000  1
  Sn  Sn4  1  0.500000  0.500000  0.500000  1
  Sn  Sn5  1  0.000000  0.500000  0.000000  1
  O  O6  1  0.748258  0.265026  0.516768  1
  O  O7  1  0.748258  0.731490  0.983232  1
  O  O8  1  0.282846  0.264741  0.518105  1
  O  O9  1  0.746636  0.264741  0.981895  1
  O  O10  1  0.253364  0.735259  0.018105  1
  O  O11  1  0.717154  0.735259  0.481895  1
  O  O12  1  0.251742  0.268510  0.016768  1
  O  O13  1  0.251742  0.734974  0.483232  1
