# generated using pymatgen
data_NbZn2
_symmetry_space_group_name_H-M   'P 1'
_cell_length_a   5.07059381
_cell_length_b   5.07059381
_cell_length_c   16.37205541
_cell_angle_alpha   90.00000000
_cell_angle_beta   90.00000000
_cell_angle_gamma   120.00000000
_symmetry_Int_Tables_number   1
_chemical_formula_structural   NbZn2
_chemical_formula_sum   'Nb8 Zn16'
_cell_volume   364.54528160
_cell_formula_units_Z   8
loop_
 _symmetry_equiv_pos_site_id
 _symmetry_equiv_pos_as_xyz
  1  'x, y, z'
loop_
 _atom_site_type_symbol
 _atom_site_label
 _atom_site_symmetry_multiplicity
 _atom_site_fract_x
 _atom_site_fract_y
 _atom_site_fract_z
 _atom_site_occupancy
  Nb  Nb0  1  0.333333  0.666667  0.656656  1
  Nb  Nb1  1  0.666667  0.333333  0.156656  1
  Nb  Nb2  1  0.666667  0.333333  0.343344  1
  Nb  Nb3  1  0.333333  0.666667  0.843344  1
  Nb  Nb4  1  0.000000  0.000000  0.409190  1
  Nb  Nb5  1  0.000000  0.000000  0.909190  1
  Nb  Nb6  1  0.000000  0.000000  0.590810  1
  Nb  Nb7  1  0.000000  0.000000  0.090810  1
  Zn  Zn8  1  0.839476  0.678952  0.750000  1
  Zn  Zn9  1  0.160524  0.839476  0.250000  1
  Zn  Zn10  1  0.678952  0.839476  0.250000  1
  Zn  Zn11  1  0.321048  0.160524  0.750000  1
  Zn  Zn12  1  0.839476  0.160524  0.750000  1
  Zn  Zn13  1  0.160524  0.321048  0.250000  1
  Zn  Zn14  1  0.500000  0.000000  0.500000  1
  Zn  Zn15  1  0.500000  0.500000  0.000000  1
  Zn  Zn16  1  0.333333  0.666667  0.126832  1
  Zn  Zn17  1  0.666667  0.333333  0.626832  1
  Zn  Zn18  1  0.666667  0.333333  0.873168  1
  Zn  Zn19  1  0.333333  0.666667  0.373168  1
  Zn  Zn20  1  0.500000  0.000000  0.000000  1
  Zn  Zn21  1  0.500000  0.500000  0.500000  1
  Zn  Zn22  1  0.000000  0.500000  0.500000  1
  Zn  Zn23  1  0.000000  0.500000  0.000000  1
