# generated using pymatgen
data_CoPO4
_symmetry_space_group_name_H-M   'P 1'
_cell_length_a   4.70137397
_cell_length_b   4.70137397
_cell_length_c   6.41544491
_cell_angle_alpha   90.00000000
_cell_angle_beta   90.00000000
_cell_angle_gamma   111.12012094
_symmetry_Int_Tables_number   1
_chemical_formula_structural   CoPO4
_chemical_formula_sum   'Co2 P2 O8'
_cell_volume   132.27492074
_cell_formula_units_Z   2
loop_
 _symmetry_equiv_pos_site_id
 _symmetry_equiv_pos_as_xyz
  1  'x, y, z'
loop_
 _atom_site_type_symbol
 _atom_site_label
 _atom_site_symmetry_multiplicity
 _atom_site_fract_x
 _atom_site_fract_y
 _atom_site_fract_z
 _atom_site_occupancy
  Co  Co0  1  0.000000  0.000000  0.000000  1
  Co  Co1  1  0.000000  0.000000  0.500000  1
  P  P2  1  0.349619  0.650381  0.750000  1
  P  P3  1  0.650381  0.349619  0.250000  1
  O  O4  1  0.222083  0.294649  0.750000  1
  O  O5  1  0.236645  0.763355  0.551541  1
  O  O6  1  0.777917  0.705351  0.250000  1
  O  O7  1  0.763355  0.236645  0.051541  1
  O  O8  1  0.763355  0.236645  0.448459  1
  O  O9  1  0.236645  0.763355  0.948459  1
  O  O10  1  0.705351  0.777917  0.750000  1
  O  O11  1  0.294649  0.222083  0.250000  1
