# generated using pymatgen
data_Pr5CuSe8
_symmetry_space_group_name_H-M   'P 1'
_cell_length_a   7.75442687
_cell_length_b   7.75442687
_cell_length_c   7.75442687
_cell_angle_alpha   110.34789104
_cell_angle_beta   110.34789104
_cell_angle_gamma   107.73175810
_symmetry_Int_Tables_number   1
_chemical_formula_structural   Pr5CuSe8
_chemical_formula_sum   'Pr5 Cu1 Se8'
_cell_volume   358.69723519
_cell_formula_units_Z   1
loop_
 _symmetry_equiv_pos_site_id
 _symmetry_equiv_pos_as_xyz
  1  'x, y, z'
loop_
 _atom_site_type_symbol
 _atom_site_label
 _atom_site_symmetry_multiplicity
 _atom_site_fract_x
 _atom_site_fract_y
 _atom_site_fract_z
 _atom_site_occupancy
  Pr  Pr0  1  0.238931  0.620503  0.122204  1
  Pr  Pr1  1  0.379497  0.501701  0.618427  1
  Pr  Pr2  1  0.498299  0.116727  0.877796  1
  Pr  Pr3  1  0.750000  0.250000  0.500000  1
  Pr  Pr4  1  0.883273  0.761069  0.381573  1
  Cu  Cu5  1  1.000000  1.000000  0.000000  1
  Se  Se6  1  0.605660  0.864980  0.103804  1
  Se  Se7  1  0.652185  0.891306  0.630442  1
  Se  Se8  1  0.260864  0.021743  0.369558  1
  Se  Se9  1  0.498144  0.394340  0.259320  1
  Se  Se10  1  0.761176  0.501856  0.896196  1
  Se  Se11  1  0.108694  0.739136  0.760879  1
  Se  Se12  1  0.978257  0.347815  0.239121  1
  Se  Se13  1  0.135020  0.238824  0.740680  1
