# generated using pymatgen
data_Hg3SO6
_symmetry_space_group_name_H-M   'P 1'
_cell_length_a   7.17633367
_cell_length_b   7.17633367
_cell_length_c   10.56830222
_cell_angle_alpha   90.00000000
_cell_angle_beta   90.00000000
_cell_angle_gamma   120.00000000
_symmetry_Int_Tables_number   1
_chemical_formula_structural   Hg3SO6
_chemical_formula_sum   'Hg9 S3 O18'
_cell_volume   471.34738596
_cell_formula_units_Z   3
loop_
 _symmetry_equiv_pos_site_id
 _symmetry_equiv_pos_as_xyz
  1  'x, y, z'
loop_
 _atom_site_type_symbol
 _atom_site_label
 _atom_site_symmetry_multiplicity
 _atom_site_fract_x
 _atom_site_fract_y
 _atom_site_fract_z
 _atom_site_occupancy
  Hg  Hg0  1  0.498348  0.189105  0.673986  1
  Hg  Hg1  1  0.690757  0.501652  0.340652  1
  Hg  Hg2  1  0.810895  0.309243  0.007319  1
  Hg  Hg3  1  0.299552  0.295742  0.998787  1
  Hg  Hg4  1  0.996190  0.700448  0.665453  1
  Hg  Hg5  1  0.704258  0.003810  0.332120  1
  Hg  Hg6  1  0.495686  0.687740  0.648911  1
  Hg  Hg7  1  0.192054  0.504314  0.315577  1
  Hg  Hg8  1  0.312260  0.807946  0.982244  1
  S  S9  1  0.777885  0.764592  0.991416  1
  S  S10  1  0.986707  0.222115  0.658082  1
  S  S11  1  0.235408  0.013293  0.324749  1
  O  O12  1  0.125414  0.401843  0.568618  1
  O  O13  1  0.276430  0.874586  0.235285  1
  O  O14  1  0.598157  0.723570  0.901951  1
  O  O15  1  0.803253  0.051425  0.583399  1
  O  O16  1  0.248172  0.196747  0.250065  1
  O  O17  1  0.948575  0.751828  0.916732  1
  O  O18  1  0.326542  0.850519  0.710469  1
  O  O19  1  0.523977  0.673458  0.377136  1
  O  O20  1  0.149481  0.476023  0.043803  1
  O  O21  1  0.899180  0.308065  0.757239  1
  O  O22  1  0.408885  0.100820  0.423906  1
  O  O23  1  0.691935  0.591115  0.090573  1
  O  O24  1  0.480764  0.148842  0.947086  1
  O  O25  1  0.851158  0.331922  0.280420  1
  O  O26  1  0.668078  0.519236  0.613753  1
  O  O27  1  0.864210  0.977683  0.053923  1
  O  O28  1  0.022317  0.886527  0.387256  1
  O  O29  1  0.113473  0.135790  0.720590  1
