# generated using pymatgen
data_NaMoPO6
_symmetry_space_group_name_H-M   'P 1'
_cell_length_a   6.45592116
_cell_length_b   12.22118961
_cell_length_c   13.74643198
_cell_angle_alpha   90.00000000
_cell_angle_beta   116.78241179
_cell_angle_gamma   90.00000000
_symmetry_Int_Tables_number   1
_chemical_formula_structural   NaMoPO6
_chemical_formula_sum   'Na8 Mo8 P8 O48'
_cell_volume   968.23100972
_cell_formula_units_Z   8
loop_
 _symmetry_equiv_pos_site_id
 _symmetry_equiv_pos_as_xyz
  1  'x, y, z'
loop_
 _atom_site_type_symbol
 _atom_site_label
 _atom_site_symmetry_multiplicity
 _atom_site_fract_x
 _atom_site_fract_y
 _atom_site_fract_z
 _atom_site_occupancy
  Na  Na0  1  0.105744  0.825418  0.153451  1
  Na  Na1  1  0.894256  0.325418  0.346549  1
  Na  Na2  1  0.894256  0.174582  0.846549  1
  Na  Na3  1  0.105744  0.674582  0.653451  1
  Na  Na4  1  0.566401  0.702007  0.110280  1
  Na  Na5  1  0.433599  0.202007  0.389720  1
  Na  Na6  1  0.433599  0.297993  0.889720  1
  Na  Na7  1  0.566401  0.797993  0.610280  1
  Mo  Mo8  1  0.643703  0.896069  0.387243  1
  Mo  Mo9  1  0.356297  0.396069  0.112757  1
  Mo  Mo10  1  0.356297  0.103931  0.612757  1
  Mo  Mo11  1  0.643703  0.603931  0.887243  1
  Mo  Mo12  1  0.115254  0.604255  0.369512  1
  Mo  Mo13  1  0.884746  0.104255  0.130488  1
  Mo  Mo14  1  0.884746  0.395745  0.630488  1
  Mo  Mo15  1  0.115254  0.895745  0.869512  1
  P  P16  1  0.135841  0.958950  0.377205  1
  P  P17  1  0.864159  0.458950  0.122795  1
  P  P18  1  0.864159  0.041050  0.622795  1
  P  P19  1  0.135841  0.541050  0.877205  1
  P  P20  1  0.683525  0.614274  0.437175  1
  P  P21  1  0.316475  0.114274  0.062825  1
  P  P22  1  0.316475  0.385726  0.562825  1
  P  P23  1  0.683525  0.885726  0.937175  1
  O  O24  1  0.517448  0.831477  0.259316  1
  O  O25  1  0.482552  0.331477  0.240684  1
  O  O26  1  0.482552  0.168523  0.740684  1
  O  O27  1  0.517448  0.668523  0.759316  1
  O  O28  1  0.405830  0.534159  0.142816  1
  O  O29  1  0.594170  0.034159  0.357184  1
  O  O30  1  0.594170  0.465841  0.857184  1
  O  O31  1  0.405830  0.965841  0.642816  1
  O  O32  1  0.023778  0.704235  0.267798  1
  O  O33  1  0.976222  0.204235  0.232202  1
  O  O34  1  0.976222  0.295765  0.732202  1
  O  O35  1  0.023778  0.795765  0.767798  1
  O  O36  1  0.222530  0.676742  0.492173  1
  O  O37  1  0.777470  0.176742  0.007827  1
  O  O38  1  0.777470  0.323258  0.507827  1
  O  O39  1  0.222530  0.823258  0.992173  1
  O  O40  1  0.796125  0.569063  0.062500  1
  O  O41  1  0.711469  0.736456  0.470506  1
  O  O42  1  0.203875  0.069063  0.437500  1
  O  O43  1  0.796125  0.930937  0.562500  1
  O  O44  1  0.019529  0.975020  0.253219  1
  O  O45  1  0.980471  0.475020  0.246781  1
  O  O46  1  0.980471  0.024980  0.746781  1
  O  O47  1  0.019529  0.524980  0.753219  1
  O  O48  1  0.424295  0.582210  0.371266  1
  O  O49  1  0.575705  0.082210  0.128734  1
  O  O50  1  0.575705  0.417790  0.628734  1
  O  O51  1  0.424295  0.917790  0.871266  1
  O  O52  1  0.795167  0.587505  0.360475  1
  O  O53  1  0.204833  0.087505  0.139525  1
  O  O54  1  0.204833  0.412495  0.639525  1
  O  O55  1  0.795167  0.912495  0.860475  1
  O  O56  1  0.969822  0.606206  0.911196  1
  O  O57  1  0.030178  0.106206  0.588804  1
  O  O58  1  0.030178  0.393794  0.088804  1
  O  O59  1  0.969822  0.893794  0.411196  1
  O  O60  1  0.352221  0.617231  0.911512  1
  O  O61  1  0.647779  0.117231  0.588488  1
  O  O62  1  0.647779  0.382769  0.088488  1
  O  O63  1  0.352221  0.882769  0.411512  1
  O  O64  1  0.806110  0.549737  0.543631  1
  O  O65  1  0.193890  0.049737  0.956369  1
  O  O66  1  0.193890  0.450263  0.456369  1
  O  O67  1  0.806110  0.950263  0.043631  1
  O  O68  1  0.711469  0.763544  0.970506  1
  O  O69  1  0.288531  0.263544  0.529494  1
  O  O70  1  0.288531  0.236456  0.029494  1
  O  O71  1  0.203875  0.430937  0.937500  1
