# generated using pymatgen
data_Tl4SnTe3
_symmetry_space_group_name_H-M   'P 1'
_cell_length_a   9.19877051
_cell_length_b   9.19877051
_cell_length_c   9.19877051
_cell_angle_alpha   121.84672472
_cell_angle_beta   121.84672472
_cell_angle_gamma   86.83007455
_symmetry_Int_Tables_number   1
_chemical_formula_structural   Tl4SnTe3
_chemical_formula_sum   'Tl8 Sn2 Te6'
_cell_volume   534.14220669
_cell_formula_units_Z   2
loop_
 _symmetry_equiv_pos_site_id
 _symmetry_equiv_pos_as_xyz
  1  'x, y, z'
loop_
 _atom_site_type_symbol
 _atom_site_label
 _atom_site_symmetry_multiplicity
 _atom_site_fract_x
 _atom_site_fract_y
 _atom_site_fract_z
 _atom_site_occupancy
  Tl  Tl0  1  0.487220  0.987220  0.791225  1
  Tl  Tl1  1  0.512780  0.012780  0.208775  1
  Tl  Tl2  1  0.987220  0.195994  0.500000  1
  Tl  Tl3  1  0.695994  0.487220  0.500000  1
  Tl  Tl4  1  0.012780  0.804006  0.500000  1
  Tl  Tl5  1  0.304006  0.512780  0.500000  1
  Tl  Tl6  1  0.804006  0.304006  0.791225  1
  Tl  Tl7  1  0.195994  0.695994  0.208775  1
  Sn  Sn8  1  0.000000  0.000000  0.000000  1
  Sn  Sn9  1  0.500000  0.500000  0.000000  1
  Te  Te10  1  0.834013  0.334013  0.168025  1
  Te  Te11  1  0.665987  0.834013  0.500000  1
  Te  Te12  1  0.334013  0.165987  0.500000  1
  Te  Te13  1  0.750000  0.750000  0.000000  1
  Te  Te14  1  0.250000  0.250000  0.000000  1
  Te  Te15  1  0.165987  0.665987  0.831975  1
