# generated using pymatgen
data_ScHg3
_symmetry_space_group_name_H-M   'P 1'
_cell_length_a   6.49187977
_cell_length_b   6.49187977
_cell_length_c   4.89706870
_cell_angle_alpha   90.00000000
_cell_angle_beta   90.00000000
_cell_angle_gamma   120.00000000
_symmetry_Int_Tables_number   1
_chemical_formula_structural   ScHg3
_chemical_formula_sum   'Sc2 Hg6'
_cell_volume   178.73424264
_cell_formula_units_Z   2
loop_
 _symmetry_equiv_pos_site_id
 _symmetry_equiv_pos_as_xyz
  1  'x, y, z'
loop_
 _atom_site_type_symbol
 _atom_site_label
 _atom_site_symmetry_multiplicity
 _atom_site_fract_x
 _atom_site_fract_y
 _atom_site_fract_z
 _atom_site_occupancy
  Sc  Sc0  1  0.666667  0.333333  0.750000  1
  Sc  Sc1  1  0.333333  0.666667  0.250000  1
  Hg  Hg2  1  0.660722  0.830361  0.750000  1
  Hg  Hg3  1  0.339278  0.169639  0.250000  1
  Hg  Hg4  1  0.830361  0.169639  0.250000  1
  Hg  Hg5  1  0.169639  0.339278  0.750000  1
  Hg  Hg6  1  0.169639  0.830361  0.750000  1
  Hg  Hg7  1  0.830361  0.660722  0.250000  1
