# generated using pymatgen
data_Er10Ti6O27
_symmetry_space_group_name_H-M   'P 1'
_cell_length_a   7.41200223
_cell_length_b   7.41200223
_cell_length_c   12.12584468
_cell_angle_alpha   71.17990623
_cell_angle_beta   108.82009377
_cell_angle_gamma   118.61465564
_symmetry_Int_Tables_number   1
_chemical_formula_structural   Er10Ti6O27
_chemical_formula_sum   'Er10 Ti6 O27'
_cell_volume   542.09026203
_cell_formula_units_Z   1
loop_
 _symmetry_equiv_pos_site_id
 _symmetry_equiv_pos_as_xyz
  1  'x, y, z'
loop_
 _atom_site_type_symbol
 _atom_site_label
 _atom_site_symmetry_multiplicity
 _atom_site_fract_x
 _atom_site_fract_y
 _atom_site_fract_z
 _atom_site_occupancy
  Er  Er0  1  0.010655  0.517446  0.018191  1
  Er  Er1  1  0.482554  0.989345  0.018191  1
  Er  Er2  1  0.278337  0.278946  0.246921  1
  Er  Er3  1  0.734478  0.750372  0.751007  1
  Er  Er4  1  0.732432  0.267568  0.243084  1
  Er  Er5  1  0.994937  0.005063  0.479778  1
  Er  Er6  1  0.721054  0.721663  0.246921  1
  Er  Er7  1  0.254298  0.745702  0.754400  1
  Er  Er8  1  0.249628  0.265522  0.751007  1
  Er  Er9  1  0.740591  0.259409  0.749776  1
  Ti  Ti10  1  0.002638  0.997362  0.003406  1
  Ti  Ti11  1  0.505257  0.983574  0.500238  1
  Ti  Ti12  1  0.502419  0.497581  0.489719  1
  Ti  Ti13  1  0.016426  0.494743  0.500238  1
  Ti  Ti14  1  0.508806  0.491194  0.983856  1
  Ti  Ti15  1  0.260877  0.739123  0.280203  1
  O  O16  1  0.093236  0.233915  0.065109  1
  O  O17  1  0.420065  0.579935  0.307098  1
  O  O18  1  0.547740  0.452260  0.161819  1
  O  O19  1  0.766085  0.906764  0.065109  1
  O  O20  1  0.360222  0.006582  0.314048  1
  O  O21  1  0.723366  0.868089  0.553611  1
  O  O22  1  0.757014  0.242986  0.437714  1
  O  O23  1  0.618750  0.955792  0.229411  1
  O  O24  1  0.936914  0.063086  0.831416  1
  O  O25  1  0.694315  0.305685  0.044083  1
  O  O26  1  0.993418  0.639778  0.314048  1
  O  O27  1  0.044208  0.381250  0.229411  1
  O  O28  1  0.131911  0.276634  0.553611  1
  O  O29  1  0.772434  0.614692  0.456079  1
  O  O30  1  0.946951  0.583033  0.815777  1
  O  O31  1  0.348930  0.651070  0.970392  1
  O  O32  1  0.014128  0.433680  0.660650  1
  O  O33  1  0.175612  0.824388  0.549171  1
  O  O34  1  0.175289  0.824711  0.098972  1
  O  O35  1  0.416967  0.053049  0.815777  1
  O  O36  1  0.385308  0.227566  0.456079  1
  O  O37  1  0.566320  0.985872  0.660650  1
  O  O38  1  0.334051  0.665949  0.466141  1
  O  O39  1  0.317449  0.214370  0.953253  1
  O  O40  1  0.433737  0.566263  0.800392  1
  O  O41  1  0.557062  0.442938  0.657490  1
  O  O42  1  0.785630  0.682551  0.953253  1
