# generated using pymatgen
data_Mo2P3O13
_symmetry_space_group_name_H-M   'P 1'
_cell_length_a   6.44171361
_cell_length_b   7.54757307
_cell_length_c   11.25608494
_cell_angle_alpha   76.37718200
_cell_angle_beta   86.20788546
_cell_angle_gamma   80.05693945
_symmetry_Int_Tables_number   1
_chemical_formula_structural   Mo2P3O13
_chemical_formula_sum   'Mo4 P6 O26'
_cell_volume   523.69285316
_cell_formula_units_Z   2
loop_
 _symmetry_equiv_pos_site_id
 _symmetry_equiv_pos_as_xyz
  1  'x, y, z'
loop_
 _atom_site_type_symbol
 _atom_site_label
 _atom_site_symmetry_multiplicity
 _atom_site_fract_x
 _atom_site_fract_y
 _atom_site_fract_z
 _atom_site_occupancy
  Mo  Mo0  1  0.213669  0.210010  0.092728  1
  Mo  Mo1  1  0.760317  0.797421  0.407522  1
  Mo  Mo2  1  0.786331  0.789990  0.907272  1
  Mo  Mo3  1  0.239683  0.202579  0.592478  1
  P  P4  1  0.263563  0.934114  0.890803  1
  P  P5  1  0.740339  0.200311  0.664827  1
  P  P6  1  0.259661  0.799689  0.335173  1
  P  P7  1  0.736437  0.065886  0.109197  1
  P  P8  1  0.882254  0.523354  0.690634  1
  P  P9  1  0.117746  0.476646  0.309366  1
  O  O10  1  0.779190  0.632836  0.042199  1
  O  O11  1  0.477801  0.806834  0.881899  1
  O  O12  1  0.109426  0.455493  0.660363  1
  O  O13  1  0.221683  0.099342  0.784469  1
  O  O14  1  0.909127  0.191447  0.092380  1
  O  O15  1  0.857111  0.618071  0.801071  1
  O  O16  1  0.522199  0.193166  0.118101  1
  O  O17  1  0.268269  0.999004  0.012214  1
  O  O18  1  0.242684  0.988908  0.249253  1
  O  O19  1  0.142889  0.381929  0.198929  1
  O  O20  1  0.310524  0.984313  0.572332  1
  O  O21  1  0.752761  0.648879  0.585335  1
  O  O22  1  0.757316  0.011092  0.750747  1
  O  O23  1  0.921982  0.212496  0.569774  1
  O  O24  1  0.731731  0.000996  0.987786  1
  O  O25  1  0.220810  0.367164  0.957801  1
  O  O26  1  0.090873  0.808553  0.907620  1
  O  O27  1  0.247239  0.351121  0.414665  1
  O  O28  1  0.078018  0.787504  0.430226  1
  O  O29  1  0.529264  0.269350  0.603208  1
  O  O30  1  0.470736  0.730650  0.396792  1
  O  O31  1  0.890574  0.544507  0.339637  1
  O  O32  1  0.689476  0.015687  0.427668  1
  O  O33  1  0.762494  0.348694  0.745922  1
  O  O34  1  0.237506  0.651306  0.254078  1
  O  O35  1  0.778317  0.900658  0.215531  1
