# generated using pymatgen
data_TiPt8
_symmetry_space_group_name_H-M   'P 1'
_cell_length_a   6.27729210
_cell_length_b   6.27729210
_cell_length_c   6.27729210
_cell_angle_alpha   95.65311941
_cell_angle_beta   95.65311941
_cell_angle_gamma   143.41647834
_symmetry_Int_Tables_number   1
_chemical_formula_structural   TiPt8
_chemical_formula_sum   'Ti1 Pt8'
_cell_volume   139.97175304
_cell_formula_units_Z   1
loop_
 _symmetry_equiv_pos_site_id
 _symmetry_equiv_pos_as_xyz
  1  'x, y, z'
loop_
 _atom_site_type_symbol
 _atom_site_label
 _atom_site_symmetry_multiplicity
 _atom_site_fract_x
 _atom_site_fract_y
 _atom_site_fract_z
 _atom_site_occupancy
  Ti  Ti0  1  0.000000  0.000000  0.000000  1
  Pt  Pt1  1  0.661884  0.661884  0.323768  1
  Pt  Pt2  1  0.338116  0.338116  0.676232  1
  Pt  Pt3  1  0.338116  0.661884  0.000000  1
  Pt  Pt4  1  0.000000  0.328972  0.328972  1
  Pt  Pt5  1  0.671028  0.000000  0.671028  1
  Pt  Pt6  1  0.328972  0.000000  0.328972  1
  Pt  Pt7  1  0.000000  0.671028  0.671028  1
  Pt  Pt8  1  0.661884  0.338116  0.000000  1
