# generated using pymatgen
data_LiFe2(PO4)3
_symmetry_space_group_name_H-M   'P 1'
_cell_length_a   8.69616822
_cell_length_b   8.69616822
_cell_length_c   8.69616822
_cell_angle_alpha   59.77182684
_cell_angle_beta   59.77182684
_cell_angle_gamma   59.77182684
_symmetry_Int_Tables_number   1
_chemical_formula_structural   LiFe2(PO4)3
_chemical_formula_sum   'Li2 Fe4 P6 O24'
_cell_volume   462.60788545
_cell_formula_units_Z   2
loop_
 _symmetry_equiv_pos_site_id
 _symmetry_equiv_pos_as_xyz
  1  'x, y, z'
loop_
 _atom_site_type_symbol
 _atom_site_label
 _atom_site_symmetry_multiplicity
 _atom_site_fract_x
 _atom_site_fract_y
 _atom_site_fract_z
 _atom_site_occupancy
  Li  Li0  1  0.000000  0.000000  1.000000  1
  Li  Li1  1  0.500000  0.500000  0.500000  1
  Fe  Fe2  1  0.143354  0.143354  0.143354  1
  Fe  Fe3  1  0.356646  0.356646  0.356646  1
  Fe  Fe4  1  0.643354  0.643354  0.643354  1
  Fe  Fe5  1  0.856646  0.856646  0.856646  1
  P  P6  1  0.250000  0.541595  0.958405  1
  P  P7  1  0.541595  0.958405  0.250000  1
  P  P8  1  0.458405  0.041595  0.750000  1
  P  P9  1  0.750000  0.458405  0.041595  1
  P  P10  1  0.958405  0.250000  0.541595  1
  P  P11  1  0.041595  0.750000  0.458405  1
  O  O12  1  0.734533  0.938813  0.088465  1
  O  O13  1  0.199217  0.379183  0.992965  1
  O  O14  1  0.379183  0.992965  0.199217  1
  O  O15  1  0.120817  0.300783  0.507035  1
  O  O16  1  0.879183  0.699217  0.492965  1
  O  O17  1  0.007035  0.800783  0.620817  1
  O  O18  1  0.800783  0.620817  0.007035  1
  O  O19  1  0.938813  0.088465  0.734533  1
  O  O20  1  0.411535  0.561187  0.765467  1
  O  O21  1  0.561187  0.765467  0.411535  1
  O  O22  1  0.992965  0.199217  0.379183  1
  O  O23  1  0.300783  0.507035  0.120817  1
  O  O24  1  0.911535  0.265467  0.061187  1
  O  O25  1  0.588465  0.438813  0.234533  1
  O  O26  1  0.234533  0.588465  0.438813  1
  O  O27  1  0.620817  0.007035  0.800783  1
  O  O28  1  0.061187  0.911535  0.265467  1
  O  O29  1  0.765467  0.411535  0.561187  1
  O  O30  1  0.507035  0.120817  0.300783  1
  O  O31  1  0.088465  0.734533  0.938813  1
  O  O32  1  0.699217  0.492965  0.879183  1
  O  O33  1  0.265467  0.061187  0.911535  1
  O  O34  1  0.438813  0.234533  0.588465  1
  O  O35  1  0.492965  0.879183  0.699217  1
