# generated using pymatgen
data_Ag2S
_symmetry_space_group_name_H-M   'P 1'
_cell_length_a   4.25250795
_cell_length_b   4.25250795
_cell_length_c   7.67964881
_cell_angle_alpha   89.37223478
_cell_angle_beta   90.62776522
_cell_angle_gamma   111.61865998
_symmetry_Int_Tables_number   1
_chemical_formula_structural   Ag2S
_chemical_formula_sum   'Ag4 S2'
_cell_volume   129.09697335
_cell_formula_units_Z   2
loop_
 _symmetry_equiv_pos_site_id
 _symmetry_equiv_pos_as_xyz
  1  'x, y, z'
loop_
 _atom_site_type_symbol
 _atom_site_label
 _atom_site_symmetry_multiplicity
 _atom_site_fract_x
 _atom_site_fract_y
 _atom_site_fract_z
 _atom_site_occupancy
  Ag  Ag0  1  0.000000  0.000000  0.500000  1
  Ag  Ag1  1  0.601567  0.398433  0.270061  1
  Ag  Ag2  1  0.398433  0.601567  0.729939  1
  Ag  Ag3  1  0.990941  0.009059  0.002972  1
  S  S4  1  0.783303  0.216697  0.748608  1
  S  S5  1  0.216697  0.783303  0.251392  1
