# generated using pymatgen
data_EuPO4
_symmetry_space_group_name_H-M   'P 1'
_cell_length_a   6.48673886
_cell_length_b   7.03202697
_cell_length_c   8.20033434
_cell_angle_alpha   90.00000000
_cell_angle_beta   126.14711494
_cell_angle_gamma   90.00000000
_symmetry_Int_Tables_number   1
_chemical_formula_structural   EuPO4
_chemical_formula_sum   'Eu4 P4 O16'
_cell_volume   302.05343573
_cell_formula_units_Z   4
loop_
 _symmetry_equiv_pos_site_id
 _symmetry_equiv_pos_as_xyz
  1  'x, y, z'
loop_
 _atom_site_type_symbol
 _atom_site_label
 _atom_site_symmetry_multiplicity
 _atom_site_fract_x
 _atom_site_fract_y
 _atom_site_fract_z
 _atom_site_occupancy
  Eu  Eu0  1  0.685015  0.656951  0.782691  1
  Eu  Eu1  1  0.314985  0.156951  0.717309  1
  Eu  Eu2  1  0.314985  0.343049  0.217309  1
  Eu  Eu3  1  0.685015  0.843049  0.282691  1
  P  P4  1  0.193203  0.661572  0.804529  1
  P  P5  1  0.806797  0.161572  0.695471  1
  P  P6  1  0.806797  0.338428  0.195471  1
  P  P7  1  0.193203  0.838428  0.304529  1
  O  O8  1  0.916016  0.710475  0.624947  1
  O  O9  1  0.083984  0.210475  0.875053  1
  O  O10  1  0.083984  0.289525  0.375053  1
  O  O11  1  0.916016  0.789525  0.124947  1
  O  O12  1  0.163066  0.601608  0.971576  1
  O  O13  1  0.836934  0.101608  0.528424  1
  O  O14  1  0.836934  0.398392  0.028424  1
  O  O15  1  0.163066  0.898392  0.471576  1
  O  O16  1  0.312264  0.994919  0.250934  1
  O  O17  1  0.687736  0.494919  0.249066  1
  O  O18  1  0.687736  0.005081  0.749066  1
  O  O19  1  0.312264  0.505081  0.750934  1
  O  O20  1  0.380852  0.667084  0.382929  1
  O  O21  1  0.619148  0.167084  0.117071  1
  O  O22  1  0.619148  0.332916  0.617071  1
  O  O23  1  0.380852  0.832916  0.882929  1
