# generated using pymatgen
data_ScUS2
_symmetry_space_group_name_H-M   'P 1'
_cell_length_a   6.53453155
_cell_length_b   6.53453155
_cell_length_c   6.53453155
_cell_angle_alpha   131.71137088
_cell_angle_beta   131.71137088
_cell_angle_gamma   70.68526897
_symmetry_Int_Tables_number   1
_chemical_formula_structural   ScUS2
_chemical_formula_sum   'Sc2 U2 S4'
_cell_volume   152.32162981
_cell_formula_units_Z   2
loop_
 _symmetry_equiv_pos_site_id
 _symmetry_equiv_pos_as_xyz
  1  'x, y, z'
loop_
 _atom_site_type_symbol
 _atom_site_label
 _atom_site_symmetry_multiplicity
 _atom_site_fract_x
 _atom_site_fract_y
 _atom_site_fract_z
 _atom_site_occupancy
  Sc  Sc0  1  0.500000  0.500000  0.000000  1
  Sc  Sc1  1  0.250000  0.750000  0.500000  1
  U  U2  1  0.000000  0.000000  0.000000  1
  U  U3  1  0.750000  0.250000  0.500000  1
  S  S4  1  0.494545  0.994545  0.500000  1
  S  S5  1  0.005455  0.505455  0.500000  1
  S  S6  1  0.744545  0.744545  0.000000  1
  S  S7  1  0.255455  0.255455  0.000000  1
