# generated using pymatgen
data_Mg2Al5Cu6
_symmetry_space_group_name_H-M   'P 1'
_cell_length_a   8.26392347
_cell_length_b   8.26392347
_cell_length_c   8.26392347
_cell_angle_alpha   90.00000000
_cell_angle_beta   90.00000000
_cell_angle_gamma   90.00000000
_symmetry_Int_Tables_number   1
_chemical_formula_structural   Mg2Al5Cu6
_chemical_formula_sum   'Mg6 Al15 Cu18'
_cell_volume   564.36342434
_cell_formula_units_Z   3
loop_
 _symmetry_equiv_pos_site_id
 _symmetry_equiv_pos_as_xyz
  1  'x, y, z'
loop_
 _atom_site_type_symbol
 _atom_site_label
 _atom_site_symmetry_multiplicity
 _atom_site_fract_x
 _atom_site_fract_y
 _atom_site_fract_z
 _atom_site_occupancy
  Mg  Mg0  1  0.678856  0.000000  0.500000  1
  Mg  Mg1  1  0.500000  0.321144  0.000000  1
  Mg  Mg2  1  0.000000  0.500000  0.321144  1
  Mg  Mg3  1  0.500000  0.678856  0.000000  1
  Mg  Mg4  1  0.000000  0.500000  0.678856  1
  Mg  Mg5  1  0.321144  0.000000  0.500000  1
  Al  Al6  1  0.500000  0.000000  0.834284  1
  Al  Al7  1  0.217815  0.217815  0.217815  1
  Al  Al8  1  0.782185  0.782185  0.217815  1
  Al  Al9  1  0.217815  0.782185  0.782185  1
  Al  Al10  1  0.834284  0.500000  0.000000  1
  Al  Al11  1  0.782185  0.782185  0.782185  1
  Al  Al12  1  0.217815  0.217815  0.782185  1
  Al  Al13  1  0.782185  0.217815  0.217815  1
  Al  Al14  1  0.217815  0.782185  0.217815  1
  Al  Al15  1  0.000000  0.834284  0.500000  1
  Al  Al16  1  0.500000  0.000000  0.165716  1
  Al  Al17  1  0.000000  0.165716  0.500000  1
  Al  Al18  1  0.165716  0.500000  0.000000  1
  Al  Al19  1  0.500000  0.500000  0.500000  1
  Al  Al20  1  0.782185  0.217815  0.782185  1
  Cu  Cu21  1  0.500000  0.244044  0.334604  1
  Cu  Cu22  1  0.334604  0.500000  0.244044  1
  Cu  Cu23  1  0.244044  0.334604  0.500000  1
  Cu  Cu24  1  0.755956  0.665396  0.500000  1
  Cu  Cu25  1  0.334604  0.500000  0.755956  1
  Cu  Cu26  1  0.755956  0.334604  0.500000  1
  Cu  Cu27  1  0.665396  0.500000  0.244044  1
  Cu  Cu28  1  0.665396  0.500000  0.755956  1
  Cu  Cu29  1  0.244044  0.665396  0.500000  1
  Cu  Cu30  1  0.500000  0.755956  0.665396  1
  Cu  Cu31  1  0.500000  0.244044  0.665396  1
  Cu  Cu32  1  0.500000  0.755956  0.334604  1
  Cu  Cu33  1  0.771886  0.000000  0.000000  1
  Cu  Cu34  1  0.000000  0.771886  0.000000  1
  Cu  Cu35  1  0.000000  0.000000  0.228114  1
  Cu  Cu36  1  0.000000  0.228114  0.000000  1
  Cu  Cu37  1  0.228114  0.000000  0.000000  1
  Cu  Cu38  1  0.000000  0.000000  0.771886  1
