# generated using pymatgen
data_Sm2CdSe4
_symmetry_space_group_name_H-M   'P 1'
_cell_length_a   7.71403773
_cell_length_b   7.71403773
_cell_length_c   7.71403773
_cell_angle_alpha   110.67624731
_cell_angle_beta   110.67624731
_cell_angle_gamma   107.08715096
_symmetry_Int_Tables_number   1
_chemical_formula_structural   Sm2CdSe4
_chemical_formula_sum   'Sm4 Cd2 Se8'
_cell_volume   352.90841497
_cell_formula_units_Z   2
loop_
 _symmetry_equiv_pos_site_id
 _symmetry_equiv_pos_as_xyz
  1  'x, y, z'
loop_
 _atom_site_type_symbol
 _atom_site_label
 _atom_site_symmetry_multiplicity
 _atom_site_fract_x
 _atom_site_fract_y
 _atom_site_fract_z
 _atom_site_occupancy
  Sm  Sm0  1  0.239685  0.625000  0.114685  1
  Sm  Sm1  1  0.375000  0.489685  0.614685  1
  Sm  Sm2  1  0.510315  0.125000  0.885315  1
  Sm  Sm3  1  0.875000  0.760315  0.385315  1
  Cd  Cd4  1  0.750000  0.250000  0.500000  1
  Cd  Cd5  1  1.000000  1.000000  0.000000  1
  Se  Se6  1  0.131605  0.755696  0.761147  1
  Se  Se7  1  0.120458  0.244549  0.738853  1
  Se  Se8  1  0.244304  0.005451  0.375909  1
  Se  Se9  1  0.505696  0.381605  0.261147  1
  Se  Se10  1  0.755451  0.494304  0.875909  1
  Se  Se11  1  0.618395  0.879542  0.124091  1
  Se  Se12  1  0.629542  0.868395  0.624091  1
  Se  Se13  1  0.994549  0.370458  0.238853  1
