# generated using pymatgen
data_Y10H21
_symmetry_space_group_name_H-M   'P 1'
_cell_length_a   6.37861617
_cell_length_b   7.36390700
_cell_length_c   8.23140555
_cell_angle_alpha   102.84996401
_cell_angle_beta   97.49580668
_cell_angle_gamma   106.65507535
_symmetry_Int_Tables_number   1
_chemical_formula_structural   Y10H21
_chemical_formula_sum   'Y10 H21'
_cell_volume   353.25285908
_cell_formula_units_Z   1
loop_
 _symmetry_equiv_pos_site_id
 _symmetry_equiv_pos_as_xyz
  1  'x, y, z'
loop_
 _atom_site_type_symbol
 _atom_site_label
 _atom_site_symmetry_multiplicity
 _atom_site_fract_x
 _atom_site_fract_y
 _atom_site_fract_z
 _atom_site_occupancy
  Y  Y0  1  0.701251  0.653069  0.900191  1
  Y  Y1  1  0.500466  0.250001  0.500079  1
  Y  Y2  1  0.297351  0.851602  0.099324  1
  Y  Y3  1  0.702649  0.148398  0.900676  1
  Y  Y4  1  0.100477  0.449280  0.699778  1
  Y  Y5  1  0.499534  0.749999  0.499921  1
  Y  Y6  1  0.900019  0.049590  0.297334  1
  Y  Y7  1  0.298749  0.346931  0.099809  1
  Y  Y8  1  0.099981  0.950410  0.702666  1
  Y  Y9  1  0.899523  0.550720  0.300222  1
  H  H10  1  0.550717  0.975058  0.349562  1
  H  H11  1  0.350868  0.575289  0.950819  1
  H  H12  1  0.149147  0.173849  0.549469  1
  H  H13  1  0.649132  0.424711  0.049181  1
  H  H14  1  0.549072  0.475060  0.348663  1
  H  H15  1  0.449283  0.024942  0.650438  1
  H  H16  1  0.949486  0.769477  0.153128  1
  H  H17  1  0.359449  0.077148  0.948676  1
  H  H18  1  0.640551  0.922852  0.051324  1
  H  H19  1  0.149690  0.676568  0.550117  1
  H  H20  1  0.250009  0.624348  0.249098  1
  H  H21  1  0.749991  0.375652  0.750902  1
  H  H22  1  0.948826  0.282027  0.153039  1
  H  H23  1  0.050514  0.230523  0.846872  1
  H  H24  1  0.450928  0.524940  0.651337  1
  H  H25  1  0.850853  0.826151  0.450531  1
  H  H26  1  0.255668  0.127619  0.255962  1
  H  H27  1  0.744332  0.872381  0.744038  1
  H  H28  1  0.000000  0.000000  0.000000  1
  H  H29  1  0.051174  0.717973  0.846961  1
  H  H30  1  0.850310  0.323432  0.449883  1
