# generated using pymatgen
data_KCN
_symmetry_space_group_name_H-M   'P 1'
_cell_length_a   4.48959732
_cell_length_b   4.48959732
_cell_length_c   4.48959732
_cell_angle_alpha   121.39322981
_cell_angle_beta   107.93752763
_cell_angle_gamma   99.85244456
_symmetry_Int_Tables_number   1
_chemical_formula_structural   KCN
_chemical_formula_sum   'K1 C1 N1'
_cell_volume   67.08937375
_cell_formula_units_Z   1
loop_
 _symmetry_equiv_pos_site_id
 _symmetry_equiv_pos_as_xyz
  1  'x, y, z'
loop_
 _atom_site_type_symbol
 _atom_site_label
 _atom_site_symmetry_multiplicity
 _atom_site_fract_x
 _atom_site_fract_y
 _atom_site_fract_z
 _atom_site_occupancy
  K  K0  1  0.990396  0.000000  0.990396  1
  C  C1  1  0.392974  0.500000  0.892974  1
  N  N2  1  0.616629  0.500000  0.116629  1
