# generated using pymatgen
data_NdTiO3
_symmetry_space_group_name_H-M   'P 1'
_cell_length_a   5.50560407
_cell_length_b   5.73577544
_cell_length_c   7.85485648
_cell_angle_alpha   90.00000000
_cell_angle_beta   90.00000000
_cell_angle_gamma   90.00000000
_symmetry_Int_Tables_number   1
_chemical_formula_structural   NdTiO3
_chemical_formula_sum   'Nd4 Ti4 O12'
_cell_volume   248.04779490
_cell_formula_units_Z   4
loop_
 _symmetry_equiv_pos_site_id
 _symmetry_equiv_pos_as_xyz
  1  'x, y, z'
loop_
 _atom_site_type_symbol
 _atom_site_label
 _atom_site_symmetry_multiplicity
 _atom_site_fract_x
 _atom_site_fract_y
 _atom_site_fract_z
 _atom_site_occupancy
  Nd  Nd0  1  0.015171  0.939387  0.750000  1
  Nd  Nd1  1  0.515171  0.560613  0.250000  1
  Nd  Nd2  1  0.484829  0.439387  0.750000  1
  Nd  Nd3  1  0.984829  0.060613  0.250000  1
  Ti  Ti4  1  0.000000  0.500000  0.500000  1
  Ti  Ti5  1  0.500000  0.000000  0.500000  1
  Ti  Ti6  1  0.500000  0.000000  0.000000  1
  Ti  Ti7  1  0.000000  0.500000  0.000000  1
  O  O8  1  0.700983  0.295520  0.451992  1
  O  O9  1  0.200983  0.204480  0.548008  1
  O  O10  1  0.799017  0.795520  0.048008  1
  O  O11  1  0.299017  0.704480  0.951992  1
  O  O12  1  0.299017  0.704480  0.548008  1
  O  O13  1  0.799017  0.795520  0.451992  1
  O  O14  1  0.200983  0.204480  0.951992  1
  O  O15  1  0.700983  0.295520  0.048008  1
  O  O16  1  0.094343  0.473009  0.250000  1
  O  O17  1  0.594343  0.026991  0.750000  1
  O  O18  1  0.405657  0.973009  0.250000  1
  O  O19  1  0.905657  0.526991  0.750000  1
