# generated using pymatgen
data_Tb5Br8
_symmetry_space_group_name_H-M   'P 1'
_cell_length_a   10.36540691
_cell_length_b   10.36540691
_cell_length_c   14.12225231
_cell_angle_alpha   49.28757436
_cell_angle_beta   130.71242564
_cell_angle_gamma   158.07322638
_symmetry_Int_Tables_number   1
_chemical_formula_structural   Tb5Br8
_chemical_formula_sum   'Tb5 Br8'
_cell_volume   423.46886323
_cell_formula_units_Z   1
loop_
 _symmetry_equiv_pos_site_id
 _symmetry_equiv_pos_as_xyz
  1  'x, y, z'
loop_
 _atom_site_type_symbol
 _atom_site_label
 _atom_site_symmetry_multiplicity
 _atom_site_fract_x
 _atom_site_fract_y
 _atom_site_fract_z
 _atom_site_occupancy
  Tb  Tb0  1  0.858813  0.141187  0.347597  1
  Tb  Tb1  1  0.141187  0.858813  0.652403  1
  Tb  Tb2  1  0.514503  0.485497  0.376575  1
  Tb  Tb3  1  0.485497  0.514503  0.623425  1
  Tb  Tb4  1  0.000000  0.000000  0.000000  1
  Br  Br5  1  0.967564  0.032436  0.769548  1
  Br  Br6  1  0.032436  0.967564  0.230452  1
  Br  Br7  1  0.296947  0.703053  0.425642  1
  Br  Br8  1  0.703053  0.296947  0.574358  1
  Br  Br9  1  0.633268  0.366732  0.102441  1
  Br  Br10  1  0.672618  0.327382  0.831655  1
  Br  Br11  1  0.327382  0.672618  0.168345  1
  Br  Br12  1  0.366732  0.633268  0.897559  1
