# generated using pymatgen
data_Nb5Te4
_symmetry_space_group_name_H-M   'P 1'
_cell_length_a   7.60670216
_cell_length_b   7.60670216
_cell_length_c   7.60670216
_cell_angle_alpha   93.37193225
_cell_angle_beta   93.37193225
_cell_angle_gamma   151.92901685
_symmetry_Int_Tables_number   1
_chemical_formula_structural   Nb5Te4
_chemical_formula_sum   'Nb5 Te4'
_cell_volume   200.93050869
_cell_formula_units_Z   1
loop_
 _symmetry_equiv_pos_site_id
 _symmetry_equiv_pos_as_xyz
  1  'x, y, z'
loop_
 _atom_site_type_symbol
 _atom_site_label
 _atom_site_symmetry_multiplicity
 _atom_site_fract_x
 _atom_site_fract_y
 _atom_site_fract_z
 _atom_site_occupancy
  Nb  Nb0  1  0.000000  0.000000  0.000000  1
  Nb  Nb1  1  0.619908  0.311189  0.931097  1
  Nb  Nb2  1  0.688811  0.619908  0.308718  1
  Nb  Nb3  1  0.311189  0.380092  0.691282  1
  Nb  Nb4  1  0.380092  0.688811  0.068903  1
  Te  Te5  1  0.714987  0.060491  0.775478  1
  Te  Te6  1  0.939509  0.714987  0.654495  1
  Te  Te7  1  0.060491  0.285013  0.345505  1
  Te  Te8  1  0.285013  0.939509  0.224522  1
