# generated using pymatgen
data_Tb2SmS4
_symmetry_space_group_name_H-M   'P 1'
_cell_length_a   7.25654244
_cell_length_b   7.25654244
_cell_length_c   7.25654244
_cell_angle_alpha   109.34363123
_cell_angle_beta   109.34363123
_cell_angle_gamma   109.72670191
_symmetry_Int_Tables_number   1
_chemical_formula_structural   Tb2SmS4
_chemical_formula_sum   'Tb4 Sm2 S8'
_cell_volume   294.14457868
_cell_formula_units_Z   2
loop_
 _symmetry_equiv_pos_site_id
 _symmetry_equiv_pos_as_xyz
  1  'x, y, z'
loop_
 _atom_site_type_symbol
 _atom_site_label
 _atom_site_symmetry_multiplicity
 _atom_site_fract_x
 _atom_site_fract_y
 _atom_site_fract_z
 _atom_site_occupancy
  Tb  Tb0  1  0.625000  0.249162  0.124162  1
  Tb  Tb1  1  0.499162  0.375000  0.624162  1
  Tb  Tb2  1  0.125000  0.500838  0.875838  1
  Tb  Tb3  1  0.750838  0.875000  0.375838  1
  Sm  Sm4  1  0.250000  0.750000  0.500000  1
  Sm  Sm5  1  1.000000  1.000000  0.000000  1
  S  S6  1  0.729414  0.127593  0.748526  1
  S  S7  1  0.230888  0.129067  0.751474  1
  S  S8  1  0.870933  0.622407  0.101821  1
  S  S9  1  0.019112  0.270586  0.398179  1
  S  S10  1  0.377593  0.479414  0.248526  1
  S  S11  1  0.520586  0.769112  0.898179  1
  S  S12  1  0.872407  0.620933  0.601821  1
  S  S13  1  0.379067  0.980888  0.251474  1
