# generated using pymatgen
data_Cr(PO3)4
_symmetry_space_group_name_H-M   'P 1'
_cell_length_a   7.01677620
_cell_length_b   7.01677620
_cell_length_c   9.49338523
_cell_angle_alpha   88.52600982
_cell_angle_beta   91.47399018
_cell_angle_gamma   71.15553811
_symmetry_Int_Tables_number   1
_chemical_formula_structural   Cr(PO3)4
_chemical_formula_sum   'Cr2 P8 O24'
_cell_volume   441.92207519
_cell_formula_units_Z   2
loop_
 _symmetry_equiv_pos_site_id
 _symmetry_equiv_pos_as_xyz
  1  'x, y, z'
loop_
 _atom_site_type_symbol
 _atom_site_label
 _atom_site_symmetry_multiplicity
 _atom_site_fract_x
 _atom_site_fract_y
 _atom_site_fract_z
 _atom_site_occupancy
  Cr  Cr0  1  0.391599  0.391599  0.750000  1
  Cr  Cr1  1  0.608401  0.608401  0.250000  1
  P  P2  1  0.297835  0.776737  0.971138  1
  P  P3  1  0.132553  0.223512  0.966909  1
  P  P4  1  0.867447  0.776488  0.033091  1
  P  P5  1  0.223263  0.702165  0.471138  1
  P  P6  1  0.702165  0.223263  0.028862  1
  P  P7  1  0.776488  0.867447  0.466909  1
  P  P8  1  0.776737  0.297835  0.528862  1
  P  P9  1  0.223512  0.132553  0.533091  1
  O  O10  1  0.104786  0.731170  0.030312  1
  O  O11  1  0.361623  0.615102  0.354978  1
  O  O12  1  0.384898  0.638377  0.854978  1
  O  O13  1  0.615102  0.361623  0.145022  1
  O  O14  1  0.628961  0.842527  0.354348  1
  O  O15  1  0.638377  0.384898  0.645022  1
  O  O16  1  0.229026  0.233720  0.107222  1
  O  O17  1  0.371039  0.157473  0.645652  1
  O  O18  1  0.218232  0.568590  0.596627  1
  O  O19  1  0.233720  0.229026  0.392778  1
  O  O20  1  0.268830  0.895214  0.530312  1
  O  O21  1  0.895214  0.268830  0.969688  1
  O  O22  1  0.731170  0.104786  0.469688  1
  O  O23  1  0.770974  0.766280  0.892778  1
  O  O24  1  0.793392  0.999984  0.097927  1
  O  O25  1  0.431410  0.781768  0.096627  1
  O  O26  1  0.000016  0.206608  0.597927  1
  O  O27  1  0.999984  0.793392  0.402073  1
  O  O28  1  0.842527  0.628961  0.145652  1
  O  O29  1  0.206608  0.000016  0.902073  1
  O  O30  1  0.766280  0.770974  0.607222  1
  O  O31  1  0.781768  0.431410  0.403373  1
  O  O32  1  0.568590  0.218232  0.903373  1
  O  O33  1  0.157473  0.371039  0.854348  1
