# generated using pymatgen
data_Ba3(BN2)2
_symmetry_space_group_name_H-M   'P 1'
_cell_length_a   4.29993005
_cell_length_b   11.16357802
_cell_length_c   14.91346433
_cell_angle_alpha   90.00000000
_cell_angle_beta   90.00000000
_cell_angle_gamma   90.00000000
_symmetry_Int_Tables_number   1
_chemical_formula_structural   Ba3(BN2)2
_chemical_formula_sum   'Ba12 B8 N16'
_cell_volume   715.88513136
_cell_formula_units_Z   4
loop_
 _symmetry_equiv_pos_site_id
 _symmetry_equiv_pos_as_xyz
  1  'x, y, z'
loop_
 _atom_site_type_symbol
 _atom_site_label
 _atom_site_symmetry_multiplicity
 _atom_site_fract_x
 _atom_site_fract_y
 _atom_site_fract_z
 _atom_site_occupancy
  Ba  Ba0  1  0.852959  0.037896  0.829430  1
  Ba  Ba1  1  0.352959  0.462104  0.170570  1
  Ba  Ba2  1  0.147041  0.537896  0.670570  1
  Ba  Ba3  1  0.647041  0.962104  0.329430  1
  Ba  Ba4  1  0.725652  0.844921  0.593001  1
  Ba  Ba5  1  0.225652  0.655079  0.406999  1
  Ba  Ba6  1  0.274348  0.344921  0.906999  1
  Ba  Ba7  1  0.774348  0.155079  0.093001  1
  Ba  Ba8  1  0.600449  0.687938  0.886059  1
  Ba  Ba9  1  0.100449  0.812062  0.113941  1
  Ba  Ba10  1  0.399551  0.187938  0.613941  1
  Ba  Ba11  1  0.899551  0.312062  0.386059  1
  B  B12  1  0.593021  0.500684  0.520874  1
  B  B13  1  0.093021  0.999316  0.479126  1
  B  B14  1  0.906979  0.499316  0.020874  1
  B  B15  1  0.406979  0.000684  0.979126  1
  B  B16  1  0.234467  0.858796  0.738325  1
  B  B17  1  0.734467  0.641204  0.261675  1
  B  B18  1  0.765533  0.358796  0.761675  1
  B  B19  1  0.265533  0.141204  0.238325  1
  N  N20  1  0.352410  0.966915  0.716176  1
  N  N21  1  0.852410  0.533085  0.283824  1
  N  N22  1  0.647590  0.466915  0.783824  1
  N  N23  1  0.147590  0.033085  0.216176  1
  N  N24  1  0.932279  0.100254  0.495483  1
  N  N25  1  0.432279  0.399745  0.504517  1
  N  N26  1  0.067721  0.600255  0.004517  1
  N  N27  1  0.567721  0.899745  0.995483  1
  N  N28  1  0.787554  0.388675  0.036629  1
  N  N29  1  0.287554  0.111325  0.963371  1
  N  N30  1  0.712446  0.611325  0.536629  1
  N  N31  1  0.212446  0.888675  0.463371  1
  N  N32  1  0.593578  0.745863  0.242499  1
  N  N33  1  0.093578  0.754137  0.757501  1
  N  N34  1  0.406422  0.245863  0.257501  1
  N  N35  1  0.906422  0.254137  0.742499  1
