# generated using pymatgen
data_Li3NbO4
_symmetry_space_group_name_H-M   'P 1'
_cell_length_a   5.21393960
_cell_length_b   5.21393960
_cell_length_c   5.21393960
_cell_angle_alpha   132.89826850
_cell_angle_beta   132.89826850
_cell_angle_gamma   68.81395624
_symmetry_Int_Tables_number   1
_chemical_formula_structural   Li3NbO4
_chemical_formula_sum   'Li3 Nb1 O4'
_cell_volume   74.68030775
_cell_formula_units_Z   1
loop_
 _symmetry_equiv_pos_site_id
 _symmetry_equiv_pos_as_xyz
  1  'x, y, z'
loop_
 _atom_site_type_symbol
 _atom_site_label
 _atom_site_symmetry_multiplicity
 _atom_site_fract_x
 _atom_site_fract_y
 _atom_site_fract_z
 _atom_site_occupancy
  Li  Li0  1  0.250000  0.750000  0.500000  1
  Li  Li1  1  0.750000  0.250000  0.500000  1
  Li  Li2  1  0.500000  0.500000  0.000000  1
  Nb  Nb3  1  0.000000  0.000000  0.000000  1
  O  O4  1  0.774503  0.774503  0.000000  1
  O  O5  1  0.225497  0.225497  0.000000  1
  O  O6  1  0.000000  0.500000  0.500000  1
  O  O7  1  0.500000  0.000000  0.500000  1
