# generated using pymatgen
data_Ho10Ti6O27
_symmetry_space_group_name_H-M   'P 1'
_cell_length_a   7.44523132
_cell_length_b   7.44523132
_cell_length_c   12.15810251
_cell_angle_alpha   71.14871089
_cell_angle_beta   108.85128911
_cell_angle_gamma   118.58370482
_symmetry_Int_Tables_number   1
_chemical_formula_structural   Ho10Ti6O27
_chemical_formula_sum   'Ho10 Ti6 O27'
_cell_volume   548.42017527
_cell_formula_units_Z   1
loop_
 _symmetry_equiv_pos_site_id
 _symmetry_equiv_pos_as_xyz
  1  'x, y, z'
loop_
 _atom_site_type_symbol
 _atom_site_label
 _atom_site_symmetry_multiplicity
 _atom_site_fract_x
 _atom_site_fract_y
 _atom_site_fract_z
 _atom_site_occupancy
  Ho  Ho0  1  0.010504  0.517874  0.018445  1
  Ho  Ho1  1  0.278823  0.278693  0.246792  1
  Ho  Ho2  1  0.482126  0.989496  0.018445  1
  Ho  Ho3  1  0.739976  0.260024  0.749490  1
  Ho  Ho4  1  0.721307  0.721177  0.246792  1
  Ho  Ho5  1  0.734410  0.750712  0.750891  1
  Ho  Ho6  1  0.732872  0.267128  0.243308  1
  Ho  Ho7  1  0.249288  0.265590  0.750891  1
  Ho  Ho8  1  0.996454  0.003546  0.478743  1
  Ho  Ho9  1  0.254190  0.745810  0.754052  1
  Ti  Ti10  1  0.002285  0.997715  0.003931  1
  Ti  Ti11  1  0.502345  0.497655  0.488719  1
  Ti  Ti12  1  0.508802  0.984632  0.500370  1
  Ti  Ti13  1  0.508585  0.491415  0.983530  1
  Ti  Ti14  1  0.015368  0.491198  0.500370  1
  Ti  Ti15  1  0.261122  0.738878  0.282112  1
  O  O16  1  0.419425  0.580575  0.306468  1
  O  O17  1  0.092977  0.233270  0.064710  1
  O  O18  1  0.361585  0.005619  0.315396  1
  O  O19  1  0.547852  0.452148  0.161203  1
  O  O20  1  0.766730  0.907023  0.064710  1
  O  O21  1  0.723853  0.871368  0.552429  1
  O  O22  1  0.936991  0.063009  0.832389  1
  O  O23  1  0.620380  0.955818  0.229856  1
  O  O24  1  0.755054  0.244946  0.438390  1
  O  O25  1  0.694787  0.305213  0.044180  1
  O  O26  1  0.994381  0.638415  0.315396  1
  O  O27  1  0.771328  0.615295  0.456240  1
  O  O28  1  0.946822  0.583358  0.815499  1
  O  O29  1  0.044182  0.379620  0.229856  1
  O  O30  1  0.128632  0.276147  0.552429  1
  O  O31  1  0.013785  0.433520  0.660184  1
  O  O32  1  0.349751  0.650249  0.970649  1
  O  O33  1  0.175852  0.824148  0.549398  1
  O  O34  1  0.174314  0.825686  0.099894  1
  O  O35  1  0.416642  0.053178  0.815499  1
  O  O36  1  0.384705  0.228672  0.456240  1
  O  O37  1  0.433712  0.566288  0.800335  1
  O  O38  1  0.318758  0.215905  0.953298  1
  O  O39  1  0.566480  0.986215  0.660184  1
  O  O40  1  0.334836  0.665164  0.465994  1
  O  O41  1  0.556133  0.443867  0.656496  1
  O  O42  1  0.784095  0.681242  0.953298  1
