# generated using pymatgen
data_Ni3S2
_symmetry_space_group_name_H-M   'P 1'
_cell_length_a   4.05990361
_cell_length_b   4.05990361
_cell_length_c   4.05990361
_cell_angle_alpha   89.36469357
_cell_angle_beta   89.36469357
_cell_angle_gamma   89.36469357
_symmetry_Int_Tables_number   1
_chemical_formula_structural   Ni3S2
_chemical_formula_sum   'Ni3 S2'
_cell_volume   66.90639887
_cell_formula_units_Z   1
loop_
 _symmetry_equiv_pos_site_id
 _symmetry_equiv_pos_as_xyz
  1  'x, y, z'
loop_
 _atom_site_type_symbol
 _atom_site_label
 _atom_site_symmetry_multiplicity
 _atom_site_fract_x
 _atom_site_fract_y
 _atom_site_fract_z
 _atom_site_occupancy
  Ni  Ni0  1  0.756090  0.243910  0.500000  1
  Ni  Ni1  1  0.500000  0.756090  0.243910  1
  Ni  Ni2  1  0.243910  0.500000  0.756090  1
  S  S3  1  0.745374  0.745374  0.745374  1
  S  S4  1  0.254626  0.254626  0.254626  1
