# generated using pymatgen
data_Ni4P16W
_symmetry_space_group_name_H-M   'P 1'
_cell_length_a   10.24486392
_cell_length_b   10.24486392
_cell_length_c   11.16185645
_cell_angle_alpha   79.48513893
_cell_angle_beta   100.51486107
_cell_angle_gamma   147.72449387
_symmetry_Int_Tables_number   1
_chemical_formula_structural   Ni4P16W
_chemical_formula_sum   'Ni8 P32 W2'
_cell_volume   614.18716309
_cell_formula_units_Z   2
loop_
 _symmetry_equiv_pos_site_id
 _symmetry_equiv_pos_as_xyz
  1  'x, y, z'
loop_
 _atom_site_type_symbol
 _atom_site_label
 _atom_site_symmetry_multiplicity
 _atom_site_fract_x
 _atom_site_fract_y
 _atom_site_fract_z
 _atom_site_occupancy
  Ni  Ni0  1  0.195493  0.694548  0.371539  1
  Ni  Ni1  1  0.694548  0.195493  0.128461  1
  Ni  Ni2  1  0.804507  0.305452  0.628461  1
  Ni  Ni3  1  0.305452  0.804507  0.871539  1
  Ni  Ni4  1  0.988209  0.200453  0.925607  1
  Ni  Ni5  1  0.200453  0.988209  0.574393  1
  Ni  Ni6  1  0.011791  0.799547  0.074393  1
  Ni  Ni7  1  0.799547  0.011791  0.425607  1
  P  P8  1  0.732664  0.740989  0.392578  1
  P  P9  1  0.740989  0.732664  0.107422  1
  P  P10  1  0.267336  0.259011  0.607422  1
  P  P11  1  0.259011  0.267336  0.892578  1
  P  P12  1  0.625925  0.384330  0.339202  1
  P  P13  1  0.384330  0.625925  0.160798  1
  P  P14  1  0.374075  0.615670  0.660798  1
  P  P15  1  0.615670  0.374075  0.839202  1
  P  P16  1  0.014780  0.732771  0.280468  1
  P  P17  1  0.732771  0.014780  0.219532  1
  P  P18  1  0.886438  0.009376  0.632062  1
  P  P19  1  0.009376  0.886438  0.867938  1
  P  P20  1  0.113562  0.990624  0.367938  1
  P  P21  1  0.990624  0.113562  0.132062  1
  P  P22  1  0.656433  0.780402  0.919705  1
  P  P23  1  0.780402  0.656433  0.580295  1
  P  P24  1  0.343567  0.219598  0.080295  1
  P  P25  1  0.219598  0.343567  0.419705  1
  P  P26  1  0.319166  0.602529  0.957461  1
  P  P27  1  0.602529  0.319166  0.542539  1
  P  P28  1  0.680834  0.397471  0.042539  1
  P  P29  1  0.397471  0.680834  0.457461  1
  P  P30  1  0.720736  0.146558  0.945709  1
  P  P31  1  0.146558  0.720736  0.554291  1
  P  P32  1  0.279264  0.853442  0.054291  1
  P  P33  1  0.853442  0.279264  0.445709  1
  P  P34  1  0.441356  0.883817  0.687951  1
  P  P35  1  0.883817  0.441356  0.812049  1
  P  P36  1  0.558644  0.116183  0.312049  1
  P  P37  1  0.116183  0.558644  0.187951  1
  P  P38  1  0.267229  0.985220  0.780468  1
  P  P39  1  0.985220  0.267229  0.719532  1
  W  W40  1  0.394765  0.394765  0.250000  1
  W  W41  1  0.605235  0.605235  0.750000  1
