# generated using pymatgen
data_Er3GaO6
_symmetry_space_group_name_H-M   'P 1'
_cell_length_a   7.07306819
_cell_length_b   7.07306819
_cell_length_c   5.39696294
_cell_angle_alpha   90.00000000
_cell_angle_beta   90.00000000
_cell_angle_gamma   102.85626159
_symmetry_Int_Tables_number   1
_chemical_formula_structural   Er3GaO6
_chemical_formula_sum   'Er6 Ga2 O12'
_cell_volume   263.23228602
_cell_formula_units_Z   2
loop_
 _symmetry_equiv_pos_site_id
 _symmetry_equiv_pos_as_xyz
  1  'x, y, z'
loop_
 _atom_site_type_symbol
 _atom_site_label
 _atom_site_symmetry_multiplicity
 _atom_site_fract_x
 _atom_site_fract_y
 _atom_site_fract_z
 _atom_site_occupancy
  Er  Er0  1  0.398605  0.601395  0.929321  1
  Er  Er1  1  0.601395  0.398605  0.429321  1
  Er  Er2  1  0.298510  0.088292  0.978458  1
  Er  Er3  1  0.701490  0.911708  0.478458  1
  Er  Er4  1  0.911708  0.701490  0.978458  1
  Er  Er5  1  0.088292  0.298510  0.478458  1
  Ga  Ga6  1  0.193613  0.806387  0.508748  1
  Ga  Ga7  1  0.806387  0.193613  0.008748  1
  O  O8  1  0.215377  0.784623  0.168508  1
  O  O9  1  0.784623  0.215377  0.668508  1
  O  O10  1  0.038702  0.961298  0.657067  1
  O  O11  1  0.961298  0.038702  0.157067  1
  O  O12  1  0.356942  0.322167  0.704325  1
  O  O13  1  0.643058  0.677833  0.204325  1
  O  O14  1  0.677833  0.643058  0.704325  1
  O  O15  1  0.322167  0.356942  0.204325  1
  O  O16  1  0.894014  0.424251  0.190285  1
  O  O17  1  0.105986  0.575749  0.690285  1
  O  O18  1  0.575749  0.105986  0.190285  1
  O  O19  1  0.424251  0.894014  0.690285  1
