# generated using pymatgen
data_Rb6Fe2O5
_symmetry_space_group_name_H-M   'P 1'
_cell_length_a   7.05061147
_cell_length_b   7.05061147
_cell_length_c   7.10451788
_cell_angle_alpha   87.80900924
_cell_angle_beta   92.19099076
_cell_angle_gamma   62.34979922
_symmetry_Int_Tables_number   1
_chemical_formula_structural   Rb6Fe2O5
_chemical_formula_sum   'Rb6 Fe2 O5'
_cell_volume   311.98584051
_cell_formula_units_Z   1
loop_
 _symmetry_equiv_pos_site_id
 _symmetry_equiv_pos_as_xyz
  1  'x, y, z'
loop_
 _atom_site_type_symbol
 _atom_site_label
 _atom_site_symmetry_multiplicity
 _atom_site_fract_x
 _atom_site_fract_y
 _atom_site_fract_z
 _atom_site_occupancy
  Rb  Rb0  1  0.211418  0.209570  0.003716  1
  Rb  Rb1  1  0.244375  0.242773  0.497709  1
  Rb  Rb2  1  0.639105  0.360895  0.825021  1
  Rb  Rb3  1  0.351999  0.648001  0.180405  1
  Rb  Rb4  1  0.757227  0.755625  0.497709  1
  Rb  Rb5  1  0.790430  0.788582  0.003716  1
  Fe  Fe6  1  0.811875  0.188125  0.305962  1
  Fe  Fe7  1  0.205350  0.794650  0.671184  1
  O  O8  1  0.562309  0.164836  0.228535  1
  O  O9  1  0.159343  0.568346  0.778827  1
  O  O10  1  0.835164  0.437691  0.228535  1
  O  O11  1  0.058250  0.941750  0.430855  1
  O  O12  1  0.431654  0.840657  0.778827  1
