# generated using pymatgen
data_PrMg12
_symmetry_space_group_name_H-M   'P 1'
_cell_length_a   7.88801368
_cell_length_b   7.88801368
_cell_length_c   7.88801368
_cell_angle_alpha   97.92466465
_cell_angle_beta   97.92466465
_cell_angle_gamma   136.40716925
_symmetry_Int_Tables_number   1
_chemical_formula_structural   PrMg12
_chemical_formula_sum   'Pr1 Mg12'
_cell_volume   314.22562574
_cell_formula_units_Z   1
loop_
 _symmetry_equiv_pos_site_id
 _symmetry_equiv_pos_as_xyz
  1  'x, y, z'
loop_
 _atom_site_type_symbol
 _atom_site_label
 _atom_site_symmetry_multiplicity
 _atom_site_fract_x
 _atom_site_fract_y
 _atom_site_fract_z
 _atom_site_occupancy
  Pr  Pr0  1  0.000000  0.000000  0.000000  1
  Mg  Mg1  1  1.000000  0.500000  0.000000  1
  Mg  Mg2  1  1.000000  1.000000  0.500000  1
  Mg  Mg3  1  0.500000  0.500000  0.500000  1
  Mg  Mg4  1  0.500000  0.000000  0.000000  1
  Mg  Mg5  1  1.000000  0.352483  0.352483  1
  Mg  Mg6  1  0.647517  1.000000  0.647517  1
  Mg  Mg7  1  0.352483  0.000000  0.352483  1
  Mg  Mg8  1  1.000000  0.647517  0.647517  1
  Mg  Mg9  1  0.500000  0.287321  0.787321  1
  Mg  Mg10  1  0.712679  0.500000  0.212679  1
  Mg  Mg11  1  0.287321  0.500000  0.787321  1
  Mg  Mg12  1  0.500000  0.712679  0.212679  1
