# generated using pymatgen
data_AlO3
_symmetry_space_group_name_H-M   'P 1'
_cell_length_a   5.31507011
_cell_length_b   5.31507011
_cell_length_c   5.31507011
_cell_angle_alpha   58.05498478
_cell_angle_beta   58.05498478
_cell_angle_gamma   58.05498478
_symmetry_Int_Tables_number   1
_chemical_formula_structural   AlO3
_chemical_formula_sum   'Al2 O6'
_cell_volume   101.43685792
_cell_formula_units_Z   2
loop_
 _symmetry_equiv_pos_site_id
 _symmetry_equiv_pos_as_xyz
  1  'x, y, z'
loop_
 _atom_site_type_symbol
 _atom_site_label
 _atom_site_symmetry_multiplicity
 _atom_site_fract_x
 _atom_site_fract_y
 _atom_site_fract_z
 _atom_site_occupancy
  Al  Al0  1  0.500000  0.500000  0.500000  1
  Al  Al1  1  0.000000  0.000000  0.000000  1
  O  O2  1  0.721751  0.778249  0.250000  1
  O  O3  1  0.250000  0.721751  0.778249  1
  O  O4  1  0.778249  0.250000  0.721751  1
  O  O5  1  0.278249  0.221751  0.750000  1
  O  O6  1  0.221751  0.750000  0.278249  1
  O  O7  1  0.750000  0.278249  0.221751  1
