# generated using pymatgen
data_Li6Br3N
_symmetry_space_group_name_H-M   'P 1'
_cell_length_a   5.82415042
_cell_length_b   5.82415042
_cell_length_c   6.81685358
_cell_angle_alpha   66.21534027
_cell_angle_beta   113.78465973
_cell_angle_gamma   92.11299635
_symmetry_Int_Tables_number   1
_chemical_formula_structural   Li6Br3N
_chemical_formula_sum   'Li6 Br3 N1'
_cell_volume   191.42547574
_cell_formula_units_Z   1
loop_
 _symmetry_equiv_pos_site_id
 _symmetry_equiv_pos_as_xyz
  1  'x, y, z'
loop_
 _atom_site_type_symbol
 _atom_site_label
 _atom_site_symmetry_multiplicity
 _atom_site_fract_x
 _atom_site_fract_y
 _atom_site_fract_z
 _atom_site_occupancy
  Li  Li0  1  0.854840  0.145160  0.144672  1
  Li  Li1  1  0.322306  0.030992  0.225578  1
  Li  Li2  1  0.030992  0.322306  0.774422  1
  Li  Li3  1  0.969008  0.677694  0.225578  1
  Li  Li4  1  0.677694  0.969008  0.774422  1
  Li  Li5  1  0.145160  0.854840  0.855328  1
  Br  Br6  1  0.232598  0.232598  0.500000  1
  Br  Br7  1  0.500000  0.500000  0.000000  1
  Br  Br8  1  0.767402  0.767402  0.500000  1
  N  N9  1  0.000000  0.000000  0.000000  1
