# generated using pymatgen
data_Mg2Hg
_symmetry_space_group_name_H-M   'P 1'
_cell_length_a   4.68969949
_cell_length_b   6.17943003
_cell_length_c   8.97172484
_cell_angle_alpha   90.00000000
_cell_angle_beta   90.00000000
_cell_angle_gamma   90.00000000
_symmetry_Int_Tables_number   1
_chemical_formula_structural   Mg2Hg
_chemical_formula_sum   'Mg8 Hg4'
_cell_volume   259.99762394
_cell_formula_units_Z   4
loop_
 _symmetry_equiv_pos_site_id
 _symmetry_equiv_pos_as_xyz
  1  'x, y, z'
loop_
 _atom_site_type_symbol
 _atom_site_label
 _atom_site_symmetry_multiplicity
 _atom_site_fract_x
 _atom_site_fract_y
 _atom_site_fract_z
 _atom_site_occupancy
  Mg  Mg0  1  0.250000  0.950095  0.290588  1
  Mg  Mg1  1  0.750000  0.049905  0.709412  1
  Mg  Mg2  1  0.250000  0.450095  0.209412  1
  Mg  Mg3  1  0.750000  0.549905  0.790588  1
  Mg  Mg4  1  0.750000  0.179474  0.056101  1
  Mg  Mg5  1  0.250000  0.820526  0.943899  1
  Mg  Mg6  1  0.750000  0.679474  0.443899  1
  Mg  Mg7  1  0.250000  0.320526  0.556101  1
  Hg  Hg8  1  0.250000  0.786055  0.620521  1
  Hg  Hg9  1  0.750000  0.213945  0.379479  1
  Hg  Hg10  1  0.250000  0.286055  0.879479  1
  Hg  Hg11  1  0.750000  0.713945  0.120521  1
