# generated using pymatgen
data_Nd2CdSe4
_symmetry_space_group_name_H-M   'P 1'
_cell_length_a   7.77410703
_cell_length_b   7.77410703
_cell_length_c   7.77410703
_cell_angle_alpha   110.82266516
_cell_angle_beta   110.82266516
_cell_angle_gamma   106.80088183
_symmetry_Int_Tables_number   1
_chemical_formula_structural   Nd2CdSe4
_chemical_formula_sum   'Nd4 Cd2 Se8'
_cell_volume   361.09853904
_cell_formula_units_Z   2
loop_
 _symmetry_equiv_pos_site_id
 _symmetry_equiv_pos_as_xyz
  1  'x, y, z'
loop_
 _atom_site_type_symbol
 _atom_site_label
 _atom_site_symmetry_multiplicity
 _atom_site_fract_x
 _atom_site_fract_y
 _atom_site_fract_z
 _atom_site_occupancy
  Nd  Nd0  1  0.740700  0.125000  0.115700  1
  Nd  Nd1  1  0.875000  0.990700  0.615700  1
  Nd  Nd2  1  0.009300  0.625000  0.884300  1
  Nd  Nd3  1  0.375000  0.259300  0.384300  1
  Cd  Cd4  1  0.250000  0.750000  0.500000  1
  Cd  Cd5  1  0.500000  0.500000  0.000000  1
  Se  Se6  1  0.630683  0.254300  0.762611  1
  Se  Se7  1  0.618072  0.741689  0.737389  1
  Se  Se8  1  0.119317  0.381928  0.123617  1
  Se  Se9  1  0.745700  0.508311  0.376383  1
  Se  Se10  1  0.004300  0.880683  0.262611  1
  Se  Se11  1  0.258311  0.995700  0.876383  1
  Se  Se12  1  0.131928  0.369317  0.623617  1
  Se  Se13  1  0.491689  0.868072  0.237389  1
