# generated using pymatgen
data_TlSbO3
_symmetry_space_group_name_H-M   'P 1'
_cell_length_a   8.14642333
_cell_length_b   8.14642333
_cell_length_c   8.14642333
_cell_angle_alpha   38.75211341
_cell_angle_beta   38.75211341
_cell_angle_gamma   38.75211341
_symmetry_Int_Tables_number   1
_chemical_formula_structural   TlSbO3
_chemical_formula_sum   'Tl2 Sb2 O6'
_cell_volume   190.41168755
_cell_formula_units_Z   2
loop_
 _symmetry_equiv_pos_site_id
 _symmetry_equiv_pos_as_xyz
  1  'x, y, z'
loop_
 _atom_site_type_symbol
 _atom_site_label
 _atom_site_symmetry_multiplicity
 _atom_site_fract_x
 _atom_site_fract_y
 _atom_site_fract_z
 _atom_site_occupancy
  Tl  Tl0  1  0.382175  0.382175  0.382175  1
  Tl  Tl1  1  0.617825  0.617825  0.617825  1
  Sb  Sb2  1  0.166997  0.166997  0.166997  1
  Sb  Sb3  1  0.833003  0.833003  0.833003  1
  O  O4  1  0.551186  0.931957  0.166937  1
  O  O5  1  0.166937  0.551186  0.931957  1
  O  O6  1  0.931957  0.166937  0.551186  1
  O  O7  1  0.448814  0.068043  0.833063  1
  O  O8  1  0.833063  0.448814  0.068043  1
  O  O9  1  0.068043  0.833063  0.448814  1
