# generated using pymatgen
data_Zn8Ag5
_symmetry_space_group_name_H-M   'P 1'
_cell_length_a   8.17663128
_cell_length_b   8.17663128
_cell_length_c   8.17663128
_cell_angle_alpha   109.47122063
_cell_angle_beta   109.47122063
_cell_angle_gamma   109.47122063
_symmetry_Int_Tables_number   1
_chemical_formula_structural   Zn8Ag5
_chemical_formula_sum   'Zn16 Ag10'
_cell_volume   420.82482439
_cell_formula_units_Z   2
loop_
 _symmetry_equiv_pos_site_id
 _symmetry_equiv_pos_as_xyz
  1  'x, y, z'
loop_
 _atom_site_type_symbol
 _atom_site_label
 _atom_site_symmetry_multiplicity
 _atom_site_fract_x
 _atom_site_fract_y
 _atom_site_fract_z
 _atom_site_occupancy
  Zn  Zn0  1  0.713781  0.713781  0.369987  1
  Zn  Zn1  1  0.343793  0.630013  0.343793  1
  Zn  Zn2  1  0.630013  0.343793  0.343793  1
  Zn  Zn3  1  1.000000  0.656207  0.286219  1
  Zn  Zn4  1  0.656207  1.000000  0.286219  1
  Zn  Zn5  1  0.286219  1.000000  0.656207  1
  Zn  Zn6  1  0.713781  0.369987  0.713781  1
  Zn  Zn7  1  0.369987  0.713781  0.713781  1
  Zn  Zn8  1  1.000000  0.286219  0.656207  1
  Zn  Zn9  1  0.286219  0.656207  0.000000  1
  Zn  Zn10  1  0.219480  0.219480  0.219480  1
  Zn  Zn11  1  0.780520  1.000000  1.000000  1
  Zn  Zn12  1  1.000000  0.780520  0.000000  1
  Zn  Zn13  1  1.000000  1.000000  0.780520  1
  Zn  Zn14  1  0.343793  0.343793  0.630013  1
  Zn  Zn15  1  0.656207  0.286219  0.000000  1
  Ag  Ag16  1  1.000000  0.646471  0.646471  1
  Ag  Ag17  1  0.646471  0.646471  0.000000  1
  Ag  Ag18  1  0.353529  0.353529  0.000000  1
  Ag  Ag19  1  0.353529  1.000000  0.353529  1
  Ag  Ag20  1  0.646471  1.000000  0.646471  1
  Ag  Ag21  1  1.000000  0.353529  0.353529  1
  Ag  Ag22  1  1.000000  1.000000  0.359445  1
  Ag  Ag23  1  0.000000  0.359445  0.000000  1
  Ag  Ag24  1  0.359445  0.000000  0.000000  1
  Ag  Ag25  1  0.640555  0.640555  0.640555  1
