# generated using pymatgen
data_CeMgSi2
_symmetry_space_group_name_H-M   'P 1'
_cell_length_a   18.77045955
_cell_length_b   18.77045955
_cell_length_c   18.77045955
_cell_angle_alpha   167.18219228
_cell_angle_beta   167.18219228
_cell_angle_gamma   18.16532537
_symmetry_Int_Tables_number   1
_chemical_formula_structural   CeMgSi2
_chemical_formula_sum   'Ce4 Mg4 Si8'
_cell_volume   325.47313404
_cell_formula_units_Z   4
loop_
 _symmetry_equiv_pos_site_id
 _symmetry_equiv_pos_as_xyz
  1  'x, y, z'
loop_
 _atom_site_type_symbol
 _atom_site_label
 _atom_site_symmetry_multiplicity
 _atom_site_fract_x
 _atom_site_fract_y
 _atom_site_fract_z
 _atom_site_occupancy
  Ce  Ce0  1  0.828148  0.328148  0.500000  1
  Ce  Ce1  1  0.078148  0.078148  0.000000  1
  Ce  Ce2  1  0.921852  0.921852  0.000000  1
  Ce  Ce3  1  0.671852  0.171852  0.500000  1
  Mg  Mg4  1  0.249921  0.249921  0.000000  1
  Mg  Mg5  1  0.500079  0.000079  0.500000  1
  Mg  Mg6  1  0.750079  0.750079  0.000000  1
  Mg  Mg7  1  0.999921  0.499921  0.500000  1
  Si  Si8  1  0.201697  0.701697  0.500000  1
  Si  Si9  1  0.298303  0.798303  0.500000  1
  Si  Si10  1  0.451697  0.451697  0.000000  1
  Si  Si11  1  0.548303  0.548303  0.000000  1
  Si  Si12  1  0.139253  0.639253  0.500000  1
  Si  Si13  1  0.389253  0.389253  0.000000  1
  Si  Si14  1  0.610747  0.610747  0.000000  1
  Si  Si15  1  0.360747  0.860747  0.500000  1
