# generated using pymatgen
data_La2Cd17
_symmetry_space_group_name_H-M   'P 1'
_cell_length_a   10.20251949
_cell_length_b   10.20251949
_cell_length_c   10.03542565
_cell_angle_alpha   90.00000000
_cell_angle_beta   90.00000000
_cell_angle_gamma   120.00000000
_symmetry_Int_Tables_number   1
_chemical_formula_structural   La2Cd17
_chemical_formula_sum   'La4 Cd34'
_cell_volume   904.65147502
_cell_formula_units_Z   2
loop_
 _symmetry_equiv_pos_site_id
 _symmetry_equiv_pos_as_xyz
  1  'x, y, z'
loop_
 _atom_site_type_symbol
 _atom_site_label
 _atom_site_symmetry_multiplicity
 _atom_site_fract_x
 _atom_site_fract_y
 _atom_site_fract_z
 _atom_site_occupancy
  La  La0  1  0.000000  0.000000  0.250000  1
  La  La1  1  0.000000  0.000000  0.750000  1
  La  La2  1  0.333333  0.666667  0.750000  1
  La  La3  1  0.666667  0.333333  0.250000  1
  Cd  Cd4  1  0.333333  0.666667  0.098542  1
  Cd  Cd5  1  0.666667  0.333333  0.598542  1
  Cd  Cd6  1  0.666667  0.333333  0.901458  1
  Cd  Cd7  1  0.333333  0.666667  0.401458  1
  Cd  Cd8  1  0.500000  0.000000  0.000000  1
  Cd  Cd9  1  0.500000  0.500000  0.500000  1
  Cd  Cd10  1  0.000000  0.500000  0.500000  1
  Cd  Cd11  1  0.000000  0.500000  0.000000  1
  Cd  Cd12  1  0.500000  0.500000  0.000000  1
  Cd  Cd13  1  0.500000  0.000000  0.500000  1
  Cd  Cd14  1  0.038639  0.672700  0.250000  1
  Cd  Cd15  1  0.365939  0.038639  0.750000  1
  Cd  Cd16  1  0.672700  0.634061  0.750000  1
  Cd  Cd17  1  0.327300  0.365939  0.250000  1
  Cd  Cd18  1  0.634061  0.961361  0.250000  1
  Cd  Cd19  1  0.365939  0.327300  0.750000  1
  Cd  Cd20  1  0.961361  0.634061  0.750000  1
  Cd  Cd21  1  0.961361  0.327300  0.750000  1
  Cd  Cd22  1  0.672700  0.038639  0.750000  1
  Cd  Cd23  1  0.327300  0.961361  0.250000  1
  Cd  Cd24  1  0.634061  0.672700  0.250000  1
  Cd  Cd25  1  0.038639  0.365939  0.250000  1
  Cd  Cd26  1  0.160192  0.320385  0.971330  1
  Cd  Cd27  1  0.839808  0.160192  0.471330  1
  Cd  Cd28  1  0.320385  0.160192  0.471330  1
  Cd  Cd29  1  0.679615  0.839808  0.971330  1
  Cd  Cd30  1  0.160192  0.839808  0.971330  1
  Cd  Cd31  1  0.839808  0.679615  0.028670  1
  Cd  Cd32  1  0.839808  0.160192  0.028670  1
  Cd  Cd33  1  0.839808  0.679615  0.471330  1
  Cd  Cd34  1  0.320385  0.160192  0.028670  1
  Cd  Cd35  1  0.679615  0.839808  0.528670  1
  Cd  Cd36  1  0.160192  0.320385  0.528670  1
  Cd  Cd37  1  0.160192  0.839808  0.528670  1
