# generated using pymatgen
data_Ta2FeO6
_symmetry_space_group_name_H-M   'P 1'
_cell_length_a   4.82484483
_cell_length_b   4.82484483
_cell_length_c   9.27804020
_cell_angle_alpha   90.00000000
_cell_angle_beta   90.00000000
_cell_angle_gamma   90.00000000
_symmetry_Int_Tables_number   1
_chemical_formula_structural   Ta2FeO6
_chemical_formula_sum   'Ta4 Fe2 O12'
_cell_volume   215.98468201
_cell_formula_units_Z   2
loop_
 _symmetry_equiv_pos_site_id
 _symmetry_equiv_pos_as_xyz
  1  'x, y, z'
loop_
 _atom_site_type_symbol
 _atom_site_label
 _atom_site_symmetry_multiplicity
 _atom_site_fract_x
 _atom_site_fract_y
 _atom_site_fract_z
 _atom_site_occupancy
  Ta  Ta0  1  0.000000  0.000000  0.669375  1
  Ta  Ta1  1  0.500000  0.500000  0.169375  1
  Ta  Ta2  1  0.500000  0.500000  0.830625  1
  Ta  Ta3  1  0.000000  0.000000  0.330625  1
  Fe  Fe4  1  0.500000  0.500000  0.500000  1
  Fe  Fe5  1  0.000000  0.000000  0.000000  1
  O  O6  1  0.687319  0.687319  0.000000  1
  O  O7  1  0.812681  0.187319  0.500000  1
  O  O8  1  0.187319  0.812681  0.500000  1
  O  O9  1  0.312681  0.312681  0.000000  1
  O  O10  1  0.706887  0.706887  0.680520  1
  O  O11  1  0.293113  0.293113  0.680520  1
  O  O12  1  0.293113  0.293113  0.319480  1
  O  O13  1  0.206887  0.793113  0.819480  1
  O  O14  1  0.793113  0.206887  0.819480  1
  O  O15  1  0.793113  0.206887  0.180520  1
  O  O16  1  0.206887  0.793113  0.180520  1
  O  O17  1  0.706887  0.706887  0.319480  1
