# generated using pymatgen
data_ZrAl3
_symmetry_space_group_name_H-M   'P 1'
_cell_length_a   9.12158045
_cell_length_b   9.12158045
_cell_length_c   9.12158045
_cell_angle_alpha   154.55304188
_cell_angle_beta   154.55304188
_cell_angle_gamma   36.29626322
_symmetry_Int_Tables_number   1
_chemical_formula_structural   ZrAl3
_chemical_formula_sum   'Zr2 Al6'
_cell_volume   139.93489133
_cell_formula_units_Z   2
loop_
 _symmetry_equiv_pos_site_id
 _symmetry_equiv_pos_as_xyz
  1  'x, y, z'
loop_
 _atom_site_type_symbol
 _atom_site_label
 _atom_site_symmetry_multiplicity
 _atom_site_fract_x
 _atom_site_fract_y
 _atom_site_fract_z
 _atom_site_occupancy
  Zr  Zr0  1  0.118745  0.118745  0.000000  1
  Zr  Zr1  1  0.881255  0.881255  0.000000  1
  Al  Al2  1  0.000000  0.500000  0.500000  1
  Al  Al3  1  0.500000  1.000000  0.500000  1
  Al  Al4  1  0.250000  0.750000  0.500000  1
  Al  Al5  1  0.750000  0.250000  0.500000  1
  Al  Al6  1  0.374807  0.374807  0.000000  1
  Al  Al7  1  0.625193  0.625193  0.000000  1
