# generated using pymatgen
data_HoCu2
_symmetry_space_group_name_H-M   'P 1'
_cell_length_a   5.43726992
_cell_length_b   5.43726992
_cell_length_c   5.43726992
_cell_angle_alpha   133.36091689
_cell_angle_beta   102.32423089
_cell_angle_gamma   95.73713764
_symmetry_Int_Tables_number   1
_chemical_formula_structural   HoCu2
_chemical_formula_sum   'Ho2 Cu4'
_cell_volume   107.07981599
_cell_formula_units_Z   2
loop_
 _symmetry_equiv_pos_site_id
 _symmetry_equiv_pos_as_xyz
  1  'x, y, z'
loop_
 _atom_site_type_symbol
 _atom_site_label
 _atom_site_symmetry_multiplicity
 _atom_site_fract_x
 _atom_site_fract_y
 _atom_site_fract_z
 _atom_site_occupancy
  Ho  Ho0  1  0.794358  0.544358  0.750000  1
  Ho  Ho1  1  0.205642  0.455642  0.250000  1
  Cu  Cu2  1  0.609249  0.163674  0.945575  1
  Cu  Cu3  1  0.390751  0.836326  0.054425  1
  Cu  Cu4  1  0.781900  0.836326  0.445575  1
  Cu  Cu5  1  0.218100  0.163674  0.554425  1
