# generated using pymatgen
data_ErP5O14
_symmetry_space_group_name_H-M   'P 1'
_cell_length_a   8.79497641
_cell_length_b   9.15260219
_cell_length_c   12.76523301
_cell_angle_alpha   90.00000000
_cell_angle_beta   90.00000000
_cell_angle_gamma   90.00000000
_symmetry_Int_Tables_number   1
_chemical_formula_structural   ErP5O14
_chemical_formula_sum   'Er4 P20 O56'
_cell_volume   1027.56194487
_cell_formula_units_Z   4
loop_
 _symmetry_equiv_pos_site_id
 _symmetry_equiv_pos_as_xyz
  1  'x, y, z'
loop_
 _atom_site_type_symbol
 _atom_site_label
 _atom_site_symmetry_multiplicity
 _atom_site_fract_x
 _atom_site_fract_y
 _atom_site_fract_z
 _atom_site_occupancy
  Er  Er0  1  0.021192  0.554831  0.750000  1
  Er  Er1  1  0.521192  0.945169  0.750000  1
  Er  Er2  1  0.478808  0.054831  0.250000  1
  Er  Er3  1  0.978808  0.445169  0.250000  1
  P  P4  1  0.426166  0.503125  0.750000  1
  P  P5  1  0.926166  0.996875  0.750000  1
  P  P6  1  0.073834  0.003125  0.250000  1
  P  P7  1  0.573834  0.496875  0.250000  1
  P  P8  1  0.009254  0.794991  0.081221  1
  P  P9  1  0.509254  0.705009  0.418779  1
  P  P10  1  0.490746  0.294991  0.918779  1
  P  P11  1  0.990746  0.205009  0.581221  1
  P  P12  1  0.990746  0.205009  0.918779  1
  P  P13  1  0.490746  0.294991  0.581221  1
  P  P14  1  0.509254  0.705009  0.081221  1
  P  P15  1  0.009254  0.794991  0.418779  1
  P  P16  1  0.757442  0.727501  0.928854  1
  P  P17  1  0.257442  0.772499  0.571146  1
  P  P18  1  0.742558  0.227501  0.071146  1
  P  P19  1  0.242558  0.272499  0.428854  1
  P  P20  1  0.242558  0.272499  0.071146  1
  P  P21  1  0.742558  0.227501  0.428854  1
  P  P22  1  0.257442  0.772499  0.928854  1
  P  P23  1  0.757442  0.727501  0.571146  1
  O  O24  1  0.829566  0.605919  0.869789  1
  O  O25  1  0.329566  0.894081  0.630211  1
  O  O26  1  0.670434  0.105919  0.130211  1
  O  O27  1  0.170434  0.394081  0.369789  1
  O  O28  1  0.170434  0.394081  0.130211  1
  O  O29  1  0.670434  0.105919  0.369789  1
  O  O30  1  0.329566  0.894081  0.869789  1
  O  O31  1  0.829566  0.605919  0.630211  1
  O  O32  1  0.268945  0.440528  0.750000  1
  O  O33  1  0.768945  0.059472  0.750000  1
  O  O34  1  0.231055  0.940528  0.250000  1
  O  O35  1  0.731055  0.559472  0.250000  1
  O  O36  1  0.976208  0.930892  0.153110  1
  O  O37  1  0.476208  0.569108  0.346890  1
  O  O38  1  0.523792  0.430892  0.846890  1
  O  O39  1  0.023792  0.069108  0.653110  1
  O  O40  1  0.023792  0.069108  0.846890  1
  O  O41  1  0.523792  0.430892  0.653110  1
  O  O42  1  0.476208  0.569108  0.153110  1
  O  O43  1  0.885316  0.818935  0.993713  1
  O  O44  1  0.976208  0.930892  0.346890  1
  O  O45  1  0.461271  0.661229  0.750000  1
  O  O46  1  0.538729  0.338771  0.250000  1
  O  O47  1  0.038729  0.161229  0.250000  1
  O  O48  1  0.841986  0.338820  0.378332  1
  O  O49  1  0.341986  0.161180  0.121668  1
  O  O50  1  0.658014  0.838820  0.621668  1
  O  O51  1  0.158014  0.661180  0.878332  1
  O  O52  1  0.158014  0.661180  0.621668  1
  O  O53  1  0.658014  0.838820  0.878332  1
  O  O54  1  0.341986  0.161180  0.378332  1
  O  O55  1  0.841986  0.338820  0.121668  1
  O  O56  1  0.163429  0.843041  0.473524  1
  O  O57  1  0.663429  0.656959  0.026476  1
  O  O58  1  0.336571  0.343041  0.526476  1
  O  O59  1  0.836571  0.156959  0.973524  1
  O  O60  1  0.836571  0.156959  0.526476  1
  O  O61  1  0.336571  0.343041  0.973524  1
  O  O62  1  0.663429  0.656959  0.473524  1
  O  O63  1  0.163429  0.843041  0.026476  1
  O  O64  1  0.009079  0.651674  0.365698  1
  O  O65  1  0.509079  0.848326  0.134302  1
  O  O66  1  0.490921  0.151674  0.634302  1
  O  O67  1  0.990921  0.348326  0.865698  1
  O  O68  1  0.990921  0.348326  0.634302  1
  O  O69  1  0.490921  0.151674  0.865698  1
  O  O70  1  0.509079  0.848326  0.365698  1
  O  O71  1  0.009079  0.651674  0.134302  1
  O  O72  1  0.885316  0.818935  0.506287  1
  O  O73  1  0.385316  0.681065  0.993713  1
  O  O74  1  0.614684  0.318935  0.493713  1
  O  O75  1  0.114684  0.181065  0.006287  1
  O  O76  1  0.114684  0.181065  0.493713  1
  O  O77  1  0.614684  0.318935  0.006287  1
  O  O78  1  0.385316  0.681065  0.506287  1
  O  O79  1  0.961271  0.838771  0.750000  1
