# generated using pymatgen
data_K2PSe3
_symmetry_space_group_name_H-M   'P 1'
_cell_length_a   8.95022772
_cell_length_b   12.61524133
_cell_length_c   14.05898689
_cell_angle_alpha   90.00000000
_cell_angle_beta   91.24541287
_cell_angle_gamma   90.00000000
_symmetry_Int_Tables_number   1
_chemical_formula_structural   K2PSe3
_chemical_formula_sum   'K16 P8 Se24'
_cell_volume   1587.01513664
_cell_formula_units_Z   8
loop_
 _symmetry_equiv_pos_site_id
 _symmetry_equiv_pos_as_xyz
  1  'x, y, z'
loop_
 _atom_site_type_symbol
 _atom_site_label
 _atom_site_symmetry_multiplicity
 _atom_site_fract_x
 _atom_site_fract_y
 _atom_site_fract_z
 _atom_site_occupancy
  K  K0  1  0.725321  0.264770  0.921752  1
  K  K1  1  0.321884  0.564880  0.812970  1
  K  K2  1  0.821884  0.935120  0.812970  1
  K  K3  1  0.668286  0.789547  0.438726  1
  K  K4  1  0.178116  0.064880  0.187030  1
  K  K5  1  0.774679  0.764770  0.078248  1
  K  K6  1  0.274679  0.735230  0.078248  1
  K  K7  1  0.225321  0.235230  0.921752  1
  K  K8  1  0.831714  0.289547  0.561274  1
  K  K9  1  0.331714  0.210453  0.561274  1
  K  K10  1  0.168286  0.710453  0.438726  1
  K  K11  1  0.284332  0.897158  0.705616  1
  K  K12  1  0.215668  0.397158  0.294384  1
  K  K13  1  0.715668  0.102842  0.294384  1
  K  K14  1  0.678116  0.435120  0.187030  1
  K  K15  1  0.784332  0.602842  0.705616  1
  P  P16  1  0.928867  0.992352  0.567852  1
  P  P17  1  0.071133  0.007648  0.432148  1
  P  P18  1  0.428867  0.507648  0.567852  1
  P  P19  1  0.937411  0.528538  0.931303  1
  P  P20  1  0.562589  0.028538  0.068697  1
  P  P21  1  0.062589  0.471462  0.068697  1
  P  P22  1  0.437411  0.971462  0.931303  1
  P  P23  1  0.571133  0.492352  0.432148  1
  Se  Se24  1  0.452915  0.676031  0.610343  1
  Se  Se25  1  0.047085  0.176031  0.389657  1
  Se  Se26  1  0.547085  0.323969  0.389657  1
  Se  Se27  1  0.952915  0.823969  0.610343  1
  Se  Se28  1  0.196505  0.465161  0.531324  1
  Se  Se29  1  0.303495  0.965161  0.468676  1
  Se  Se30  1  0.803495  0.534839  0.468676  1
  Se  Se31  1  0.696505  0.034839  0.531324  1
  Se  Se32  1  0.531346  0.400877  0.675959  1
  Se  Se33  1  0.968654  0.900877  0.324041  1
  Se  Se34  1  0.468654  0.599123  0.324041  1
  Se  Se35  1  0.031346  0.099123  0.675959  1
  Se  Se36  1  0.497467  0.083932  0.817493  1
  Se  Se37  1  0.002533  0.583932  0.182507  1
  Se  Se38  1  0.502533  0.916068  0.182507  1
  Se  Se39  1  0.997467  0.416068  0.817493  1
  Se  Se40  1  0.195411  0.970633  0.960089  1
  Se  Se41  1  0.304589  0.470633  0.039911  1
  Se  Se42  1  0.804589  0.029367  0.039911  1
  Se  Se43  1  0.695411  0.529367  0.960089  1
  Se  Se44  1  0.519736  0.809407  0.902139  1
  Se  Se45  1  0.980264  0.309407  0.097861  1
  Se  Se46  1  0.480264  0.190593  0.097861  1
  Se  Se47  1  0.019736  0.690593  0.902139  1
