# generated using pymatgen
data_Al2ZnO4
_symmetry_space_group_name_H-M   'P 1'
_cell_length_a   5.79491467
_cell_length_b   5.79491467
_cell_length_c   5.79491467
_cell_angle_alpha   120.96349177
_cell_angle_beta   119.55897117
_cell_angle_gamma   89.55246397
_symmetry_Int_Tables_number   1
_chemical_formula_structural   Al2ZnO4
_chemical_formula_sum   'Al4 Zn2 O8'
_cell_volume   137.02859725
_cell_formula_units_Z   2
loop_
 _symmetry_equiv_pos_site_id
 _symmetry_equiv_pos_as_xyz
  1  'x, y, z'
loop_
 _atom_site_type_symbol
 _atom_site_label
 _atom_site_symmetry_multiplicity
 _atom_site_fract_x
 _atom_site_fract_y
 _atom_site_fract_z
 _atom_site_occupancy
  Al  Al0  1  0.114688  0.864688  0.750000  1
  Al  Al1  1  0.500000  0.500000  0.500000  1
  Al  Al2  1  0.000000  0.500000  1.000000  1
  Al  Al3  1  0.885312  0.135312  0.250000  1
  Zn  Zn4  1  0.500000  0.500000  0.000000  1
  Zn  Zn5  1  0.500000  1.000000  0.500000  1
  O  O6  1  0.227421  0.731967  0.995454  1
  O  O7  1  0.242682  0.257787  0.015106  1
  O  O8  1  0.736514  0.731967  0.504546  1
  O  O9  1  0.242682  0.727576  0.484894  1
  O  O10  1  0.757318  0.272424  0.515106  1
  O  O11  1  0.263486  0.268033  0.495454  1
  O  O12  1  0.757318  0.742213  0.984894  1
  O  O13  1  0.772579  0.268033  0.004546  1
