# generated using pymatgen
data_Mg29Ir4
_symmetry_space_group_name_H-M   'P 1'
_cell_length_a   14.20899800
_cell_length_b   14.20899800
_cell_length_c   14.20899800
_cell_angle_alpha   60.00000000
_cell_angle_beta   60.00000000
_cell_angle_gamma   60.00000000
_symmetry_Int_Tables_number   1
_chemical_formula_structural   Mg29Ir4
_chemical_formula_sum   'Mg87 Ir12'
_cell_volume   2028.50163313
_cell_formula_units_Z   3
loop_
 _symmetry_equiv_pos_site_id
 _symmetry_equiv_pos_as_xyz
  1  'x, y, z'
loop_
 _atom_site_type_symbol
 _atom_site_label
 _atom_site_symmetry_multiplicity
 _atom_site_fract_x
 _atom_site_fract_y
 _atom_site_fract_z
 _atom_site_occupancy
  Mg  Mg0  1  0.840485  0.262208  0.840485  1
  Mg  Mg1  1  0.056822  0.840485  0.840485  1
  Mg  Mg2  1  0.840485  0.056822  0.262208  1
  Mg  Mg3  1  0.262208  0.056822  0.840485  1
  Mg  Mg4  1  0.840485  0.840485  0.056822  1
  Mg  Mg5  1  0.262208  0.840485  0.056822  1
  Mg  Mg6  1  0.056822  0.840485  0.262208  1
  Mg  Mg7  1  0.840485  0.262208  0.056822  1
  Mg  Mg8  1  0.056822  0.262208  0.840485  1
  Mg  Mg9  1  0.840485  0.840485  0.262208  1
  Mg  Mg10  1  0.262208  0.840485  0.840485  1
  Mg  Mg11  1  0.840485  0.056822  0.840485  1
  Mg  Mg12  1  0.231133  0.968906  0.231133  1
  Mg  Mg13  1  0.568829  0.231133  0.231133  1
  Mg  Mg14  1  0.231133  0.568829  0.968906  1
  Mg  Mg15  1  0.968906  0.568829  0.231133  1
  Mg  Mg16  1  0.231133  0.231133  0.568829  1
  Mg  Mg17  1  0.968906  0.231133  0.568829  1
  Mg  Mg18  1  0.568829  0.231133  0.968906  1
  Mg  Mg19  1  0.231133  0.968906  0.568829  1
  Mg  Mg20  1  0.568829  0.968906  0.231133  1
  Mg  Mg21  1  0.231133  0.231133  0.968906  1
  Mg  Mg22  1  0.968906  0.231133  0.231133  1
  Mg  Mg23  1  0.231133  0.568829  0.231133  1
  Mg  Mg24  1  0.716043  0.498518  0.716043  1
  Mg  Mg25  1  0.069395  0.716043  0.716043  1
  Mg  Mg26  1  0.716043  0.069395  0.498518  1
  Mg  Mg27  1  0.498518  0.069395  0.716043  1
  Mg  Mg28  1  0.716043  0.716043  0.069395  1
  Mg  Mg29  1  0.498518  0.716043  0.069395  1
  Mg  Mg30  1  0.069395  0.716043  0.498518  1
  Mg  Mg31  1  0.716043  0.498518  0.069395  1
  Mg  Mg32  1  0.069395  0.498518  0.716043  1
  Mg  Mg33  1  0.716043  0.716043  0.498518  1
  Mg  Mg34  1  0.498518  0.716043  0.716043  1
  Mg  Mg35  1  0.716043  0.069395  0.716043  1
  Mg  Mg36  1  0.479054  0.827359  0.479054  1
  Mg  Mg37  1  0.214534  0.479054  0.479054  1
  Mg  Mg38  1  0.479054  0.214534  0.827359  1
  Mg  Mg39  1  0.827359  0.214534  0.479054  1
  Mg  Mg40  1  0.479054  0.479054  0.214534  1
  Mg  Mg41  1  0.827359  0.479054  0.214534  1
  Mg  Mg42  1  0.214534  0.479054  0.827359  1
  Mg  Mg43  1  0.479054  0.827359  0.214534  1
  Mg  Mg44  1  0.214534  0.827359  0.479054  1
  Mg  Mg45  1  0.479054  0.479054  0.827359  1
  Mg  Mg46  1  0.827359  0.479054  0.479054  1
  Mg  Mg47  1  0.479054  0.214534  0.479054  1
  Mg  Mg48  1  0.980288  0.405655  0.980288  1
  Mg  Mg49  1  0.633769  0.980288  0.980288  1
  Mg  Mg50  1  0.980288  0.633769  0.405655  1
  Mg  Mg51  1  0.405655  0.633769  0.980288  1
  Mg  Mg52  1  0.980288  0.980288  0.633769  1
  Mg  Mg53  1  0.405655  0.980288  0.633769  1
  Mg  Mg54  1  0.633769  0.980288  0.405655  1
  Mg  Mg55  1  0.980288  0.405655  0.633769  1
  Mg  Mg56  1  0.633769  0.405655  0.980288  1
  Mg  Mg57  1  0.980288  0.980288  0.405655  1
  Mg  Mg58  1  0.405655  0.980288  0.980288  1
  Mg  Mg59  1  0.980288  0.633769  0.980288  1
  Mg  Mg60  1  0.856623  0.643377  0.643377  1
  Mg  Mg61  1  0.856623  0.643377  0.856623  1
  Mg  Mg62  1  0.643377  0.856623  0.643377  1
  Mg  Mg63  1  0.643377  0.856623  0.856623  1
  Mg  Mg64  1  0.643377  0.643377  0.856623  1
  Mg  Mg65  1  0.856623  0.856623  0.643377  1
  Mg  Mg66  1  0.366465  0.133535  0.133535  1
  Mg  Mg67  1  0.366465  0.133535  0.366465  1
  Mg  Mg68  1  0.133535  0.366465  0.133535  1
  Mg  Mg69  1  0.133535  0.366465  0.366465  1
  Mg  Mg70  1  0.133535  0.133535  0.366465  1
  Mg  Mg71  1  0.366465  0.366465  0.133535  1
  Mg  Mg72  1  0.680046  0.319954  0.319954  1
  Mg  Mg73  1  0.680046  0.319954  0.680046  1
  Mg  Mg74  1  0.319954  0.680046  0.319954  1
  Mg  Mg75  1  0.319954  0.680046  0.680046  1
  Mg  Mg76  1  0.319954  0.319954  0.680046  1
  Mg  Mg77  1  0.680046  0.680046  0.319954  1
  Mg  Mg78  1  0.448438  0.654687  0.448438  1
  Mg  Mg79  1  0.448438  0.448438  0.448438  1
  Mg  Mg80  1  0.448438  0.448438  0.654687  1
  Mg  Mg81  1  0.654687  0.448438  0.448438  1
  Mg  Mg82  1  0.084971  0.745088  0.084971  1
  Mg  Mg83  1  0.084971  0.084971  0.084971  1
  Mg  Mg84  1  0.084971  0.084971  0.745088  1
  Mg  Mg85  1  0.745088  0.084971  0.084971  1
  Mg  Mg86  1  0.000000  0.000000  1.000000  1
  Ir  Ir87  1  0.849583  0.451252  0.849583  1
  Ir  Ir88  1  0.849583  0.849583  0.849583  1
  Ir  Ir89  1  0.849583  0.849583  0.451252  1
  Ir  Ir90  1  0.451252  0.849583  0.849583  1
  Ir  Ir91  1  0.582317  0.253050  0.582317  1
  Ir  Ir92  1  0.582317  0.582317  0.582317  1
  Ir  Ir93  1  0.582317  0.582317  0.253050  1
  Ir  Ir94  1  0.253050  0.582317  0.582317  1
  Ir  Ir95  1  0.344992  0.965024  0.344992  1
  Ir  Ir96  1  0.344992  0.344992  0.344992  1
  Ir  Ir97  1  0.344992  0.344992  0.965024  1
  Ir  Ir98  1  0.965024  0.344992  0.344992  1
