# generated using pymatgen
data_Ca(SmS2)2
_symmetry_space_group_name_H-M   'P 1'
_cell_length_a   7.36281107
_cell_length_b   7.36281107
_cell_length_c   7.36281107
_cell_angle_alpha   109.59167164
_cell_angle_beta   109.59167164
_cell_angle_gamma   109.23058627
_symmetry_Int_Tables_number   1
_chemical_formula_structural   Ca(SmS2)2
_chemical_formula_sum   'Ca2 Sm4 S8'
_cell_volume   307.25809749
_cell_formula_units_Z   2
loop_
 _symmetry_equiv_pos_site_id
 _symmetry_equiv_pos_as_xyz
  1  'x, y, z'
loop_
 _atom_site_type_symbol
 _atom_site_label
 _atom_site_symmetry_multiplicity
 _atom_site_fract_x
 _atom_site_fract_y
 _atom_site_fract_z
 _atom_site_occupancy
  Ca  Ca0  1  0.750000  0.250000  0.500000  1
  Ca  Ca1  1  1.000000  1.000000  0.000000  1
  Sm  Sm2  1  0.246624  0.625000  0.121624  1
  Sm  Sm3  1  0.375000  0.496624  0.621624  1
  Sm  Sm4  1  0.503376  0.125000  0.878376  1
  Sm  Sm5  1  0.875000  0.753376  0.378376  1
  S  S6  1  0.129558  0.733502  0.751417  1
  S  S7  1  0.128141  0.232085  0.748583  1
  S  S8  1  0.620442  0.871859  0.103944  1
  S  S9  1  0.266498  0.017915  0.396056  1
  S  S10  1  0.483502  0.379558  0.251417  1
  S  S11  1  0.767915  0.516498  0.896056  1
  S  S12  1  0.621859  0.870442  0.603944  1
  S  S13  1  0.982085  0.378141  0.248583  1
