# generated using pymatgen
data_Zr5Te4
_symmetry_space_group_name_H-M   'P 1'
_cell_length_a   7.93749144
_cell_length_b   7.93749144
_cell_length_c   7.93749144
_cell_angle_alpha   93.40247621
_cell_angle_beta   93.40247621
_cell_angle_gamma   151.79969895
_symmetry_Int_Tables_number   1
_chemical_formula_structural   Zr5Te4
_chemical_formula_sum   'Zr5 Te4'
_cell_volume   229.20108941
_cell_formula_units_Z   1
loop_
 _symmetry_equiv_pos_site_id
 _symmetry_equiv_pos_as_xyz
  1  'x, y, z'
loop_
 _atom_site_type_symbol
 _atom_site_label
 _atom_site_symmetry_multiplicity
 _atom_site_fract_x
 _atom_site_fract_y
 _atom_site_fract_z
 _atom_site_occupancy
  Zr  Zr0  1  0.000000  0.000000  0.000000  1
  Zr  Zr1  1  0.690552  0.629868  0.320420  1
  Zr  Zr2  1  0.309448  0.370132  0.679580  1
  Zr  Zr3  1  0.629868  0.309448  0.939316  1
  Zr  Zr4  1  0.370132  0.690552  0.060684  1
  Te  Te5  1  0.946368  0.719194  0.665563  1
  Te  Te6  1  0.053632  0.280806  0.334437  1
  Te  Te7  1  0.719194  0.053632  0.772826  1
  Te  Te8  1  0.280806  0.946368  0.227174  1
