# generated using pymatgen
data_Mn(PO3)4
_symmetry_space_group_name_H-M   'P 1'
_cell_length_a   10.38986827
_cell_length_b   10.38986827
_cell_length_c   5.14682979
_cell_angle_alpha   83.04838376
_cell_angle_beta   96.95161624
_cell_angle_gamma   107.61191903
_symmetry_Int_Tables_number   1
_chemical_formula_structural   Mn(PO3)4
_chemical_formula_sum   'Mn2 P8 O24'
_cell_volume   523.56572759
_cell_formula_units_Z   2
loop_
 _symmetry_equiv_pos_site_id
 _symmetry_equiv_pos_as_xyz
  1  'x, y, z'
loop_
 _atom_site_type_symbol
 _atom_site_label
 _atom_site_symmetry_multiplicity
 _atom_site_fract_x
 _atom_site_fract_y
 _atom_site_fract_z
 _atom_site_occupancy
  Mn  Mn0  1  0.500000  1.000000  0.000000  1
  Mn  Mn1  1  0.000000  0.500000  0.000000  1
  P  P2  1  0.786302  0.635786  0.181789  1
  P  P3  1  0.941918  0.303577  0.528070  1
  P  P4  1  0.213698  0.364214  0.818211  1
  P  P5  1  0.364214  0.213698  0.181789  1
  P  P6  1  0.058082  0.696423  0.471930  1
  P  P7  1  0.696423  0.058082  0.528070  1
  P  P8  1  0.635786  0.786302  0.818211  1
  P  P9  1  0.303577  0.941918  0.471930  1
  O  O10  1  0.086666  0.284085  0.617813  1
  O  O11  1  0.841428  0.556367  0.012174  1
  O  O12  1  0.667053  0.076655  0.233459  1
  O  O13  1  0.556367  0.841428  0.987826  1
  O  O14  1  0.076655  0.667053  0.766541  1
  O  O15  1  0.439665  0.333168  0.321867  1
  O  O16  1  0.560335  0.666832  0.678133  1
  O  O17  1  0.598911  0.089879  0.689083  1
  O  O18  1  0.152856  0.847144  0.404652  1
  O  O19  1  0.769232  0.769232  0.000000  1
  O  O20  1  0.284085  0.086666  0.382187  1
  O  O21  1  0.443633  0.158572  0.012174  1
  O  O22  1  0.089879  0.598911  0.310917  1
  O  O23  1  0.715915  0.913334  0.617813  1
  O  O24  1  0.158572  0.443633  0.987826  1
  O  O25  1  0.910121  0.401089  0.689083  1
  O  O26  1  0.332947  0.923345  0.766541  1
  O  O27  1  0.923345  0.332947  0.233459  1
  O  O28  1  0.333168  0.439665  0.678133  1
  O  O29  1  0.230768  0.230768  0.000000  1
  O  O30  1  0.847144  0.152856  0.595348  1
  O  O31  1  0.666832  0.560335  0.321867  1
  O  O32  1  0.913334  0.715915  0.382187  1
  O  O33  1  0.401089  0.910121  0.310917  1
