# generated using pymatgen
data_NiP2O7
_symmetry_space_group_name_H-M   'P 1'
_cell_length_a   7.25523832
_cell_length_b   8.19452260
_cell_length_c   9.34331972
_cell_angle_alpha   90.00000000
_cell_angle_beta   108.85037762
_cell_angle_gamma   90.00000000
_symmetry_Int_Tables_number   1
_chemical_formula_structural   NiP2O7
_chemical_formula_sum   'Ni4 P8 O28'
_cell_volume   525.69696404
_cell_formula_units_Z   4
loop_
 _symmetry_equiv_pos_site_id
 _symmetry_equiv_pos_as_xyz
  1  'x, y, z'
loop_
 _atom_site_type_symbol
 _atom_site_label
 _atom_site_symmetry_multiplicity
 _atom_site_fract_x
 _atom_site_fract_y
 _atom_site_fract_z
 _atom_site_occupancy
  Ni  Ni0  1  0.230411  0.994361  0.752054  1
  Ni  Ni1  1  0.230411  0.505639  0.252054  1
  Ni  Ni2  1  0.769589  0.005639  0.247946  1
  Ni  Ni3  1  0.769589  0.494361  0.747946  1
  P  P4  1  0.829034  0.697913  0.062348  1
  P  P5  1  0.170966  0.197913  0.437652  1
  P  P6  1  0.829034  0.802087  0.562348  1
  P  P7  1  0.567605  0.262781  0.439219  1
  P  P8  1  0.567605  0.237219  0.939219  1
  P  P9  1  0.432395  0.737219  0.560781  1
  P  P10  1  0.170966  0.302087  0.937652  1
  P  P11  1  0.432395  0.762781  0.060781  1
  O  O12  1  0.037222  0.414754  0.818385  1
  O  O13  1  0.143060  0.379851  0.399719  1
  O  O14  1  0.660157  0.320525  0.602467  1
  O  O15  1  0.856940  0.620149  0.600281  1
  O  O16  1  0.159316  0.330991  0.096478  1
  O  O17  1  0.660157  0.179475  0.102467  1
  O  O18  1  0.491515  0.404079  0.327048  1
  O  O19  1  0.386006  0.147599  0.436858  1
  O  O20  1  0.508485  0.904079  0.172952  1
  O  O21  1  0.339843  0.679475  0.397533  1
  O  O22  1  0.856940  0.879851  0.100281  1
  O  O23  1  0.508485  0.595921  0.672952  1
  O  O24  1  0.159316  0.169009  0.596478  1
  O  O25  1  0.840684  0.669009  0.903522  1
  O  O26  1  0.491515  0.095921  0.827048  1
  O  O27  1  0.285608  0.654224  0.098684  1
  O  O28  1  0.714392  0.345776  0.901316  1
  O  O29  1  0.285608  0.845776  0.598684  1
  O  O30  1  0.714392  0.154224  0.401316  1
  O  O31  1  0.962778  0.914754  0.681615  1
  O  O32  1  0.386006  0.352401  0.936857  1
  O  O33  1  0.143060  0.120149  0.899719  1
  O  O34  1  0.840684  0.830991  0.403522  1
  O  O35  1  0.962778  0.585246  0.181615  1
  O  O36  1  0.613994  0.647599  0.063142  1
  O  O37  1  0.037222  0.085246  0.318385  1
  O  O38  1  0.613994  0.852401  0.563142  1
  O  O39  1  0.339843  0.820525  0.897533  1
