# generated using pymatgen
data_Co(PO3)4
_symmetry_space_group_name_H-M   'P 1'
_cell_length_a   5.19367099
_cell_length_b   13.63465274
_cell_length_c   7.20428573
_cell_angle_alpha   90.00000000
_cell_angle_beta   97.57119697
_cell_angle_gamma   90.00000000
_symmetry_Int_Tables_number   1
_chemical_formula_structural   Co(PO3)4
_chemical_formula_sum   'Co2 P8 O24'
_cell_volume   505.71591612
_cell_formula_units_Z   2
loop_
 _symmetry_equiv_pos_site_id
 _symmetry_equiv_pos_as_xyz
  1  'x, y, z'
loop_
 _atom_site_type_symbol
 _atom_site_label
 _atom_site_symmetry_multiplicity
 _atom_site_fract_x
 _atom_site_fract_y
 _atom_site_fract_z
 _atom_site_occupancy
  Co  Co0  1  0.515935  0.236338  0.507549  1
  Co  Co1  1  0.484065  0.736338  0.492451  1
  P  P2  1  0.856310  0.167647  0.897700  1
  P  P3  1  0.213857  0.322715  0.113519  1
  P  P4  1  0.003257  0.377122  0.460490  1
  P  P5  1  0.976525  0.597926  0.456052  1
  P  P6  1  0.143690  0.667647  0.102300  1
  P  P7  1  0.786143  0.822715  0.886481  1
  P  P8  1  0.023475  0.097926  0.543948  1
  P  P9  1  0.996743  0.877123  0.539510  1
  O  O10  1  0.733350  0.361674  0.507382  1
  O  O11  1  0.707023  0.609798  0.506692  1
  O  O12  1  0.356471  0.402766  0.024675  1
  O  O13  1  0.813910  0.164498  0.447034  1
  O  O14  1  0.292977  0.109798  0.493308  1
  O  O15  1  0.000244  0.366051  0.235908  1
  O  O16  1  0.033252  0.106719  0.768095  1
  O  O17  1  0.815754  0.108465  0.064983  1
  O  O18  1  0.377717  0.709695  0.225004  1
  O  O19  1  0.778276  0.816335  0.437058  1
  O  O20  1  0.602472  0.754011  0.766595  1
  O  O21  1  0.221724  0.316335  0.562942  1
  O  O22  1  0.999756  0.866051  0.764092  1
  O  O23  1  0.083385  0.489121  0.498518  1
  O  O24  1  0.957019  0.761037  0.042959  1
  O  O25  1  0.186090  0.664498  0.552966  1
  O  O26  1  0.916615  0.989121  0.501482  1
  O  O27  1  0.643529  0.902766  0.975325  1
  O  O28  1  0.042981  0.261037  0.957041  1
  O  O29  1  0.622283  0.209695  0.774996  1
  O  O30  1  0.397528  0.254011  0.233405  1
  O  O31  1  0.184246  0.608465  0.935017  1
  O  O32  1  0.266650  0.861674  0.492618  1
  O  O33  1  0.966748  0.606719  0.231905  1
