# generated using pymatgen
data_Sr(LaS2)2
_symmetry_space_group_name_H-M   'P 1'
_cell_length_a   7.63110084
_cell_length_b   7.63110084
_cell_length_c   7.63110084
_cell_angle_alpha   109.38452298
_cell_angle_beta   109.38452298
_cell_angle_gamma   109.64475544
_symmetry_Int_Tables_number   1
_chemical_formula_structural   Sr(LaS2)2
_chemical_formula_sum   'Sr2 La4 S8'
_cell_volume   342.08709990
_cell_formula_units_Z   2
loop_
 _symmetry_equiv_pos_site_id
 _symmetry_equiv_pos_as_xyz
  1  'x, y, z'
loop_
 _atom_site_type_symbol
 _atom_site_label
 _atom_site_symmetry_multiplicity
 _atom_site_fract_x
 _atom_site_fract_y
 _atom_site_fract_z
 _atom_site_occupancy
  Sr  Sr0  1  0.000000  0.000000  0.000000  1
  Sr  Sr1  1  0.250000  0.750000  0.500000  1
  La  La2  1  0.125000  0.503510  0.878510  1
  La  La3  1  0.496490  0.375000  0.621490  1
  La  La4  1  0.625000  0.246490  0.121490  1
  La  La5  1  0.753510  0.875000  0.378510  1
  S  S6  1  0.866779  0.617755  0.098249  1
  S  S7  1  0.018530  0.269505  0.401751  1
  S  S8  1  0.231470  0.133221  0.750975  1
  S  S9  1  0.383221  0.981470  0.250975  1
  S  S10  1  0.519505  0.768530  0.901751  1
  S  S11  1  0.382245  0.480495  0.249025  1
  S  S12  1  0.730495  0.132245  0.749025  1
  S  S13  1  0.867755  0.616779  0.598249  1
