# generated using pymatgen
data_Ho3(CuGe)4
_symmetry_space_group_name_H-M   'P 1'
_cell_length_a   7.97773709
_cell_length_b   7.97773709
_cell_length_c   7.97773709
_cell_angle_alpha   149.59749302
_cell_angle_beta   130.71343136
_cell_angle_gamma   59.01807530
_symmetry_Int_Tables_number   1
_chemical_formula_structural   Ho3(CuGe)4
_chemical_formula_sum   'Ho3 Cu4 Ge4'
_cell_volume   193.24539840
_cell_formula_units_Z   1
loop_
 _symmetry_equiv_pos_site_id
 _symmetry_equiv_pos_as_xyz
  1  'x, y, z'
loop_
 _atom_site_type_symbol
 _atom_site_label
 _atom_site_symmetry_multiplicity
 _atom_site_fract_x
 _atom_site_fract_y
 _atom_site_fract_z
 _atom_site_occupancy
  Ho  Ho0  1  0.870142  0.870142  0.000000  1
  Ho  Ho1  1  0.129858  0.129858  0.000000  1
  Ho  Ho2  1  0.500000  1.000000  0.500000  1
  Cu  Cu3  1  0.859286  0.669199  0.190087  1
  Cu  Cu4  1  0.140714  0.330801  0.809913  1
  Cu  Cu5  1  0.479112  0.669199  0.809913  1
  Cu  Cu6  1  0.520888  0.330801  0.190087  1
  Ge  Ge7  1  0.283136  0.783136  0.500000  1
  Ge  Ge8  1  0.808065  0.500000  0.308065  1
  Ge  Ge9  1  0.191935  0.500000  0.691935  1
  Ge  Ge10  1  0.716864  0.216864  0.500000  1
