# generated using pymatgen
data_K2GaSb2
_symmetry_space_group_name_H-M   'P 1'
_cell_length_a   9.27020784
_cell_length_b   10.55011216
_cell_length_c   15.29524415
_cell_angle_alpha   90.00000000
_cell_angle_beta   90.00000000
_cell_angle_gamma   90.00000000
_symmetry_Int_Tables_number   1
_chemical_formula_structural   K2GaSb2
_chemical_formula_sum   'K16 Ga8 Sb16'
_cell_volume   1495.90137625
_cell_formula_units_Z   8
loop_
 _symmetry_equiv_pos_site_id
 _symmetry_equiv_pos_as_xyz
  1  'x, y, z'
loop_
 _atom_site_type_symbol
 _atom_site_label
 _atom_site_symmetry_multiplicity
 _atom_site_fract_x
 _atom_site_fract_y
 _atom_site_fract_z
 _atom_site_occupancy
  K  K0  1  0.770342  0.026738  0.514810  1
  K  K1  1  0.729658  0.473262  0.014810  1
  K  K2  1  0.229658  0.526738  0.485190  1
  K  K3  1  0.270342  0.973262  0.985190  1
  K  K4  1  0.270342  0.526738  0.985190  1
  K  K5  1  0.770342  0.473262  0.514810  1
  K  K6  1  0.729658  0.026738  0.014810  1
  K  K7  1  0.229658  0.973262  0.485190  1
  K  K8  1  0.411251  0.529376  0.734202  1
  K  K9  1  0.911251  0.470624  0.765798  1
  K  K10  1  0.588749  0.029376  0.265798  1
  K  K11  1  0.911251  0.029376  0.765798  1
  K  K12  1  0.588749  0.470624  0.265798  1
  K  K13  1  0.088749  0.529376  0.234202  1
  K  K14  1  0.411251  0.970624  0.734202  1
  K  K15  1  0.088749  0.970624  0.234202  1
  Ga  Ga16  1  0.583991  0.750000  0.405094  1
  Ga  Ga17  1  0.276221  0.250000  0.321137  1
  Ga  Ga18  1  0.223779  0.250000  0.821137  1
  Ga  Ga19  1  0.723779  0.750000  0.678863  1
  Ga  Ga20  1  0.083991  0.250000  0.094906  1
  Ga  Ga21  1  0.916009  0.750000  0.905094  1
  Ga  Ga22  1  0.416009  0.250000  0.594906  1
  Ga  Ga23  1  0.776221  0.750000  0.178863  1
  Sb  Sb24  1  0.848903  0.750000  0.347812  1
  Sb  Sb25  1  0.002171  0.250000  0.931087  1
  Sb  Sb26  1  0.497829  0.250000  0.431087  1
  Sb  Sb27  1  0.997829  0.750000  0.068913  1
  Sb  Sb28  1  0.502171  0.750000  0.568913  1
  Sb  Sb29  1  0.348903  0.250000  0.152188  1
  Sb  Sb30  1  0.151097  0.250000  0.652188  1
  Sb  Sb31  1  0.651097  0.750000  0.847812  1
  Sb  Sb32  1  0.505228  0.750000  0.128310  1
  Sb  Sb33  1  0.005228  0.250000  0.371690  1
  Sb  Sb34  1  0.494772  0.250000  0.871690  1
  Sb  Sb35  1  0.994772  0.750000  0.628310  1
  Sb  Sb36  1  0.365403  0.750000  0.296955  1
  Sb  Sb37  1  0.865403  0.250000  0.203045  1
  Sb  Sb38  1  0.634597  0.250000  0.703045  1
  Sb  Sb39  1  0.134597  0.750000  0.796955  1
