# generated using pymatgen
data_Er2FeSi2
_symmetry_space_group_name_H-M   'P 1'
_cell_length_a   5.58527210
_cell_length_b   5.58527210
_cell_length_c   9.87514407
_cell_angle_alpha   63.09860247
_cell_angle_beta   116.90139753
_cell_angle_gamma   136.74851889
_symmetry_Int_Tables_number   1
_chemical_formula_structural   Er2FeSi2
_chemical_formula_sum   'Er4 Fe2 Si4'
_cell_volume   184.39261208
_cell_formula_units_Z   2
loop_
 _symmetry_equiv_pos_site_id
 _symmetry_equiv_pos_as_xyz
  1  'x, y, z'
loop_
 _atom_site_type_symbol
 _atom_site_label
 _atom_site_symmetry_multiplicity
 _atom_site_fract_x
 _atom_site_fract_y
 _atom_site_fract_z
 _atom_site_occupancy
  Er  Er0  1  0.811555  0.188445  0.890915  1
  Er  Er1  1  0.188445  0.811555  0.109085  1
  Er  Er2  1  0.000717  0.999283  0.672190  1
  Er  Er3  1  0.999283  0.000717  0.327810  1
  Fe  Fe4  1  0.271286  0.728714  0.624659  1
  Fe  Fe5  1  0.728714  0.271286  0.375341  1
  Si  Si6  1  0.501156  0.498844  0.873535  1
  Si  Si7  1  0.498844  0.501156  0.126465  1
  Si  Si8  1  0.653018  0.346982  0.563506  1
  Si  Si9  1  0.346982  0.653018  0.436494  1
