# generated using pymatgen
data_LiVP2O7
_symmetry_space_group_name_H-M   'P 1'
_cell_length_a   6.85454300
_cell_length_b   8.14505194
_cell_length_c   9.58186530
_cell_angle_alpha   90.00000000
_cell_angle_beta   109.11228008
_cell_angle_gamma   90.00000000
_symmetry_Int_Tables_number   1
_chemical_formula_structural   LiVP2O7
_chemical_formula_sum   'Li4 V4 P8 O28'
_cell_volume   505.47363755
_cell_formula_units_Z   4
loop_
 _symmetry_equiv_pos_site_id
 _symmetry_equiv_pos_as_xyz
  1  'x, y, z'
loop_
 _atom_site_type_symbol
 _atom_site_label
 _atom_site_symmetry_multiplicity
 _atom_site_fract_x
 _atom_site_fract_y
 _atom_site_fract_z
 _atom_site_occupancy
  Li  Li0  1  0.209792  0.870745  0.538142  1
  Li  Li1  1  0.790208  0.370745  0.961858  1
  Li  Li2  1  0.209792  0.629255  0.038142  1
  Li  Li3  1  0.790208  0.129255  0.461858  1
  V  V4  1  0.717287  0.725918  0.506633  1
  V  V5  1  0.717287  0.774082  0.006633  1
  V  V6  1  0.282713  0.274082  0.493367  1
  V  V7  1  0.282713  0.225918  0.993367  1
  P  P8  1  0.534723  0.082320  0.794341  1
  P  P9  1  0.943284  0.538212  0.294054  1
  P  P10  1  0.465277  0.582320  0.705659  1
  P  P11  1  0.534723  0.417680  0.294341  1
  P  P12  1  0.465277  0.917680  0.205659  1
  P  P13  1  0.056716  0.461788  0.705946  1
  P  P14  1  0.056716  0.038212  0.205946  1
  P  P15  1  0.943284  0.961788  0.794054  1
  O  O16  1  0.066186  0.179592  0.104017  1
  O  O17  1  0.515043  0.230977  0.887031  1
  O  O18  1  0.855920  0.559225  0.653213  1
  O  O19  1  0.230749  0.600145  0.710446  1
  O  O20  1  0.095872  0.410433  0.868876  1
  O  O21  1  0.144080  0.059225  0.846787  1
  O  O22  1  0.904128  0.910433  0.631124  1
  O  O23  1  0.521414  0.918216  0.867133  1
  O  O24  1  0.904128  0.589567  0.131124  1
  O  O25  1  0.933814  0.820408  0.895983  1
  O  O26  1  0.933814  0.679592  0.395983  1
  O  O27  1  0.484957  0.769023  0.112969  1
  O  O28  1  0.230749  0.899855  0.210446  1
  O  O29  1  0.855920  0.940775  0.153213  1
  O  O30  1  0.478586  0.418216  0.632867  1
  O  O31  1  0.769251  0.100145  0.789554  1
  O  O32  1  0.515043  0.269023  0.387031  1
  O  O33  1  0.769251  0.399855  0.289554  1
  O  O34  1  0.392539  0.080634  0.632718  1
  O  O35  1  0.521414  0.581784  0.367133  1
  O  O36  1  0.607461  0.580634  0.867282  1
  O  O37  1  0.392539  0.419366  0.132718  1
  O  O38  1  0.607461  0.919366  0.367282  1
  O  O39  1  0.484957  0.730977  0.612969  1
  O  O40  1  0.095872  0.089567  0.368876  1
  O  O41  1  0.066186  0.320408  0.604017  1
  O  O42  1  0.144080  0.440775  0.346787  1
  O  O43  1  0.478586  0.081784  0.132867  1
