# generated using pymatgen
data_Lu(SiPd)2
_symmetry_space_group_name_H-M   'P 1'
_cell_length_a   5.77056009
_cell_length_b   5.77056009
_cell_length_c   5.77056009
_cell_angle_alpha   138.17263424
_cell_angle_beta   138.17263424
_cell_angle_gamma   60.63870392
_symmetry_Int_Tables_number   1
_chemical_formula_structural   Lu(SiPd)2
_chemical_formula_sum   'Lu1 Si2 Pd2'
_cell_volume   84.54339890
_cell_formula_units_Z   1
loop_
 _symmetry_equiv_pos_site_id
 _symmetry_equiv_pos_as_xyz
  1  'x, y, z'
loop_
 _atom_site_type_symbol
 _atom_site_label
 _atom_site_symmetry_multiplicity
 _atom_site_fract_x
 _atom_site_fract_y
 _atom_site_fract_z
 _atom_site_occupancy
  Lu  Lu0  1  0.000000  0.000000  0.000000  1
  Si  Si1  1  0.614939  0.614939  0.000000  1
  Si  Si2  1  0.385061  0.385061  0.000000  1
  Pd  Pd3  1  0.250000  0.750000  0.500000  1
  Pd  Pd4  1  0.750000  0.250000  0.500000  1
