# generated using pymatgen
data_Zn36Ga5Ni8
_symmetry_space_group_name_H-M   'P 1'
_cell_length_a   8.87071107
_cell_length_b   8.87071107
_cell_length_c   8.87071107
_cell_angle_alpha   90.00000000
_cell_angle_beta   90.00000000
_cell_angle_gamma   90.00000000
_symmetry_Int_Tables_number   1
_chemical_formula_structural   Zn36Ga5Ni8
_chemical_formula_sum   'Zn36 Ga5 Ni8'
_cell_volume   698.03195080
_cell_formula_units_Z   1
loop_
 _symmetry_equiv_pos_site_id
 _symmetry_equiv_pos_as_xyz
  1  'x, y, z'
loop_
 _atom_site_type_symbol
 _atom_site_label
 _atom_site_symmetry_multiplicity
 _atom_site_fract_x
 _atom_site_fract_y
 _atom_site_fract_z
 _atom_site_occupancy
  Zn  Zn0  1  0.312026  0.000000  0.000000  1
  Zn  Zn1  1  0.687974  0.000000  0.000000  1
  Zn  Zn2  1  0.000000  0.000000  0.312026  1
  Zn  Zn3  1  0.000000  0.000000  0.687974  1
  Zn  Zn4  1  0.000000  0.687974  0.000000  1
  Zn  Zn5  1  0.000000  0.312026  0.000000  1
  Zn  Zn6  1  0.861570  0.500000  0.500000  1
  Zn  Zn7  1  0.138430  0.500000  0.500000  1
  Zn  Zn8  1  0.500000  0.500000  0.861570  1
  Zn  Zn9  1  0.500000  0.500000  0.138430  1
  Zn  Zn10  1  0.500000  0.138430  0.500000  1
  Zn  Zn11  1  0.500000  0.861570  0.500000  1
  Zn  Zn12  1  0.294046  0.294046  0.054701  1
  Zn  Zn13  1  0.705954  0.054701  0.705954  1
  Zn  Zn14  1  0.705954  0.945299  0.294046  1
  Zn  Zn15  1  0.945299  0.705954  0.294046  1
  Zn  Zn16  1  0.054701  0.705954  0.705954  1
  Zn  Zn17  1  0.294046  0.705954  0.945299  1
  Zn  Zn18  1  0.705954  0.294046  0.945299  1
  Zn  Zn19  1  0.054701  0.294046  0.294046  1
  Zn  Zn20  1  0.294046  0.054701  0.294046  1
  Zn  Zn21  1  0.945299  0.294046  0.705954  1
  Zn  Zn22  1  0.294046  0.945299  0.705954  1
  Zn  Zn23  1  0.705954  0.705954  0.054701  1
  Zn  Zn24  1  0.820500  0.820500  0.539110  1
  Zn  Zn25  1  0.179500  0.539110  0.179500  1
  Zn  Zn26  1  0.179500  0.460890  0.820500  1
  Zn  Zn27  1  0.460890  0.179500  0.820500  1
  Zn  Zn28  1  0.539110  0.179500  0.179500  1
  Zn  Zn29  1  0.820500  0.179500  0.460890  1
  Zn  Zn30  1  0.179500  0.820500  0.460890  1
  Zn  Zn31  1  0.539110  0.820500  0.820500  1
  Zn  Zn32  1  0.820500  0.539110  0.820500  1
  Zn  Zn33  1  0.460890  0.820500  0.179500  1
  Zn  Zn34  1  0.820500  0.460890  0.179500  1
  Zn  Zn35  1  0.179500  0.179500  0.539110  1
  Ga  Ga36  1  0.000000  0.000000  0.000000  1
  Ga  Ga37  1  0.615391  0.615391  0.615391  1
  Ga  Ga38  1  0.384609  0.615391  0.384609  1
  Ga  Ga39  1  0.384609  0.384609  0.615391  1
  Ga  Ga40  1  0.615391  0.384609  0.384609  1
  Ni  Ni41  1  0.335480  0.335480  0.335480  1
  Ni  Ni42  1  0.664520  0.335480  0.664520  1
  Ni  Ni43  1  0.664520  0.664520  0.335480  1
  Ni  Ni44  1  0.335480  0.664520  0.664520  1
  Ni  Ni45  1  0.824708  0.824708  0.824708  1
  Ni  Ni46  1  0.175292  0.824708  0.175292  1
  Ni  Ni47  1  0.175292  0.175292  0.824708  1
  Ni  Ni48  1  0.824708  0.175292  0.175292  1
