# generated using pymatgen
data_Nb4Cr2Si5
_symmetry_space_group_name_H-M   'P 1'
_cell_length_a   9.38583193
_cell_length_b   9.38583193
_cell_length_c   9.38583193
_cell_angle_alpha   149.36627248
_cell_angle_beta   130.27221458
_cell_angle_gamma   59.54496061
_symmetry_Int_Tables_number   1
_chemical_formula_structural   Nb4Cr2Si5
_chemical_formula_sum   'Nb8 Cr4 Si10'
_cell_volume   318.85337717
_cell_formula_units_Z   2
loop_
 _symmetry_equiv_pos_site_id
 _symmetry_equiv_pos_as_xyz
  1  'x, y, z'
loop_
 _atom_site_type_symbol
 _atom_site_label
 _atom_site_symmetry_multiplicity
 _atom_site_fract_x
 _atom_site_fract_y
 _atom_site_fract_z
 _atom_site_occupancy
  Nb  Nb0  1  0.192121  0.936356  0.255764  1
  Nb  Nb1  1  0.807879  0.063644  0.744236  1
  Nb  Nb2  1  0.319408  0.563644  0.755764  1
  Nb  Nb3  1  0.680592  0.436356  0.244236  1
  Nb  Nb4  1  0.029845  0.643402  0.386443  1
  Nb  Nb5  1  0.970155  0.356598  0.613557  1
  Nb  Nb6  1  0.743040  0.856598  0.886443  1
  Nb  Nb7  1  0.256960  0.143402  0.113557  1
  Cr  Cr8  1  0.693450  0.943450  0.250000  1
  Cr  Cr9  1  0.306550  0.556550  0.250000  1
  Cr  Cr10  1  0.306550  0.056550  0.750000  1
  Cr  Cr11  1  0.693450  0.443450  0.750000  1
  Si  Si12  1  0.000000  0.250000  0.250000  1
  Si  Si13  1  0.000000  0.750000  0.750000  1
  Si  Si14  1  0.652484  0.570424  0.082060  1
  Si  Si15  1  0.347516  0.429576  0.917940  1
  Si  Si16  1  0.511636  0.929576  0.582060  1
  Si  Si17  1  0.488364  0.070424  0.417940  1
  Si  Si18  1  0.988167  0.782056  0.206110  1
  Si  Si19  1  0.011833  0.217944  0.793890  1
  Si  Si20  1  0.575946  0.282056  0.293890  1
  Si  Si21  1  0.424054  0.717944  0.706110  1
