# generated using pymatgen
data_La(NO2)3
_symmetry_space_group_name_H-M   'P 1'
_cell_length_a   6.23070702
_cell_length_b   6.23070702
_cell_length_c   6.23070702
_cell_angle_alpha   114.82628922
_cell_angle_beta   114.82628922
_cell_angle_gamma   114.82628922
_symmetry_Int_Tables_number   1
_chemical_formula_structural   La(NO2)3
_chemical_formula_sum   'La1 N3 O6'
_cell_volume   137.49174139
_cell_formula_units_Z   1
loop_
 _symmetry_equiv_pos_site_id
 _symmetry_equiv_pos_as_xyz
  1  'x, y, z'
loop_
 _atom_site_type_symbol
 _atom_site_label
 _atom_site_symmetry_multiplicity
 _atom_site_fract_x
 _atom_site_fract_y
 _atom_site_fract_z
 _atom_site_occupancy
  La  La0  1  0.280847  0.280847  0.280847  1
  N  N1  1  0.874925  0.413459  0.874925  1
  N  N2  1  0.874925  0.874925  0.413459  1
  N  N3  1  0.413459  0.874925  0.874925  1
  O  O4  1  0.155006  0.155006  0.576741  1
  O  O5  1  0.155006  0.576741  0.155006  1
  O  O6  1  0.861042  0.861042  0.608006  1
  O  O7  1  0.861042  0.608006  0.861042  1
  O  O8  1  0.608006  0.861042  0.861042  1
  O  O9  1  0.576741  0.155006  0.155006  1
