# generated using pymatgen
data_LiNi2(PO4)3
_symmetry_space_group_name_H-M   'P 1'
_cell_length_a   8.73292130
_cell_length_b   8.73292130
_cell_length_c   6.50523722
_cell_angle_alpha   73.76219817
_cell_angle_beta   106.23780183
_cell_angle_gamma   87.98168643
_symmetry_Int_Tables_number   1
_chemical_formula_structural   LiNi2(PO4)3
_chemical_formula_sum   'Li2 Ni4 P6 O24'
_cell_volume   453.84944983
_cell_formula_units_Z   2
loop_
 _symmetry_equiv_pos_site_id
 _symmetry_equiv_pos_as_xyz
  1  'x, y, z'
loop_
 _atom_site_type_symbol
 _atom_site_label
 _atom_site_symmetry_multiplicity
 _atom_site_fract_x
 _atom_site_fract_y
 _atom_site_fract_z
 _atom_site_occupancy
  Li  Li0  1  0.500000  0.500000  0.500000  1
  Li  Li1  1  0.500000  0.500000  0.000000  1
  Ni  Ni2  1  0.619821  0.058780  0.864785  1
  Ni  Ni3  1  0.058780  0.619821  0.635215  1
  Ni  Ni4  1  0.380179  0.941220  0.135215  1
  Ni  Ni5  1  0.941220  0.380179  0.364785  1
  P  P6  1  0.711249  0.711249  0.250000  1
  P  P7  1  0.288751  0.288751  0.750000  1
  P  P8  1  0.349597  0.857203  0.646758  1
  P  P9  1  0.142797  0.650403  0.146758  1
  P  P10  1  0.650403  0.142797  0.353242  1
  P  P11  1  0.857203  0.349597  0.853242  1
  O  O12  1  0.360393  0.972497  0.422740  1
  O  O13  1  0.267813  0.457757  0.778818  1
  O  O14  1  0.180934  0.824437  0.115325  1
  O  O15  1  0.732187  0.542243  0.221182  1
  O  O16  1  0.689324  0.447815  0.783966  1
  O  O17  1  0.447815  0.689324  0.716034  1
  O  O18  1  0.163987  0.258693  0.547077  1
  O  O19  1  0.457757  0.267813  0.721182  1
  O  O20  1  0.588195  0.061856  0.168472  1
  O  O21  1  0.741307  0.836013  0.047077  1
  O  O22  1  0.552185  0.310676  0.283966  1
  O  O23  1  0.310676  0.552185  0.216034  1
  O  O24  1  0.836013  0.741307  0.452923  1
  O  O25  1  0.972497  0.360393  0.077260  1
  O  O26  1  0.542243  0.732187  0.278818  1
  O  O27  1  0.639607  0.027503  0.577260  1
  O  O28  1  0.824437  0.180934  0.384675  1
  O  O29  1  0.061856  0.588195  0.331528  1
  O  O30  1  0.027503  0.639607  0.922740  1
  O  O31  1  0.258693  0.163987  0.952923  1
  O  O32  1  0.175563  0.819066  0.615325  1
  O  O33  1  0.938144  0.411805  0.668472  1
  O  O34  1  0.411805  0.938144  0.831528  1
  O  O35  1  0.819066  0.175563  0.884675  1
