# generated using pymatgen
data_Al45Cr7
_symmetry_space_group_name_H-M   'P 1'
_cell_length_a   10.97133640
_cell_length_b   10.97133640
_cell_length_c   10.92766192
_cell_angle_alpha   73.73510872
_cell_angle_beta   106.26489128
_cell_angle_gamma   139.68907983
_symmetry_Int_Tables_number   1
_chemical_formula_structural   Al45Cr7
_chemical_formula_sum   'Al45 Cr7'
_cell_volume   812.20065239
_cell_formula_units_Z   1
loop_
 _symmetry_equiv_pos_site_id
 _symmetry_equiv_pos_as_xyz
  1  'x, y, z'
loop_
 _atom_site_type_symbol
 _atom_site_label
 _atom_site_symmetry_multiplicity
 _atom_site_fract_x
 _atom_site_fract_y
 _atom_site_fract_z
 _atom_site_occupancy
  Al  Al0  1  0.500000  0.500000  0.500000  1
  Al  Al1  1  0.615079  0.384921  0.229181  1
  Al  Al2  1  0.384921  0.615079  0.770819  1
  Al  Al3  1  0.292422  0.707578  0.513979  1
  Al  Al4  1  0.707578  0.292422  0.486021  1
  Al  Al5  1  0.374056  0.625944  0.365915  1
  Al  Al6  1  0.625944  0.374056  0.634085  1
  Al  Al7  1  0.522053  0.477947  0.756349  1
  Al  Al8  1  0.477947  0.522053  0.243651  1
  Al  Al9  1  0.080568  0.919432  0.439620  1
  Al  Al10  1  0.919432  0.080568  0.560380  1
  Al  Al11  1  0.128485  0.871515  0.112133  1
  Al  Al12  1  0.871515  0.128485  0.887867  1
  Al  Al13  1  0.090387  0.909613  0.842575  1
  Al  Al14  1  0.909613  0.090387  0.157425  1
  Al  Al15  1  0.223980  0.776020  0.990614  1
  Al  Al16  1  0.776020  0.223980  0.009386  1
  Al  Al17  1  0.368566  0.005169  0.354922  1
  Al  Al18  1  0.005169  0.368566  0.645078  1
  Al  Al19  1  0.631434  0.994831  0.645078  1
  Al  Al20  1  0.994831  0.631434  0.354922  1
  Al  Al21  1  0.386941  0.248378  0.990224  1
  Al  Al22  1  0.248378  0.386941  0.009776  1
  Al  Al23  1  0.613059  0.751622  0.009776  1
  Al  Al24  1  0.751622  0.613059  0.990224  1
  Al  Al25  1  0.152563  0.224351  0.794854  1
  Al  Al26  1  0.224351  0.152563  0.205146  1
  Al  Al27  1  0.847437  0.775649  0.205146  1
  Al  Al28  1  0.775649  0.847437  0.794854  1
  Al  Al29  1  0.624950  0.004504  0.380905  1
  Al  Al30  1  0.004504  0.624950  0.619095  1
  Al  Al31  1  0.375050  0.995496  0.619095  1
  Al  Al32  1  0.995496  0.375050  0.380905  1
  Al  Al33  1  0.242223  0.151049  0.621757  1
  Al  Al34  1  0.151049  0.242223  0.378243  1
  Al  Al35  1  0.757777  0.848951  0.378243  1
  Al  Al36  1  0.848951  0.757777  0.621757  1
  Al  Al37  1  0.472368  0.141523  0.854769  1
  Al  Al38  1  0.141523  0.472368  0.145231  1
  Al  Al39  1  0.527632  0.858477  0.145231  1
  Al  Al40  1  0.858477  0.527632  0.854769  1
  Al  Al41  1  0.519106  0.106136  0.134302  1
  Al  Al42  1  0.106136  0.519106  0.865698  1
  Al  Al43  1  0.480894  0.893864  0.865698  1
  Al  Al44  1  0.893864  0.480894  0.134302  1
  Cr  Cr45  1  0.000000  0.000000  0.000000  1
  Cr  Cr46  1  0.250206  0.749794  0.238273  1
  Cr  Cr47  1  0.749794  0.250206  0.761727  1
  Cr  Cr48  1  0.410496  0.240093  0.417887  1
  Cr  Cr49  1  0.240093  0.410496  0.582113  1
  Cr  Cr50  1  0.589504  0.759907  0.582113  1
  Cr  Cr51  1  0.759907  0.589504  0.417887  1
