# generated using pymatgen
data_Sr(CeS2)2
_symmetry_space_group_name_H-M   'P 1'
_cell_length_a   7.52804811
_cell_length_b   7.52804811
_cell_length_c   7.52804811
_cell_angle_alpha   109.49661871
_cell_angle_beta   109.49661871
_cell_angle_gamma   109.42043642
_symmetry_Int_Tables_number   1
_chemical_formula_structural   Sr(CeS2)2
_chemical_formula_sum   'Sr2 Ce4 S8'
_cell_volume   328.41653282
_cell_formula_units_Z   2
loop_
 _symmetry_equiv_pos_site_id
 _symmetry_equiv_pos_as_xyz
  1  'x, y, z'
loop_
 _atom_site_type_symbol
 _atom_site_label
 _atom_site_symmetry_multiplicity
 _atom_site_fract_x
 _atom_site_fract_y
 _atom_site_fract_z
 _atom_site_occupancy
  Sr  Sr0  1  0.000000  0.000000  0.000000  1
  Sr  Sr1  1  0.750000  0.250000  0.500000  1
  Ce  Ce2  1  0.500840  0.125000  0.875840  1
  Ce  Ce3  1  0.375000  0.499160  0.624160  1
  Ce  Ce4  1  0.249160  0.625000  0.124160  1
  Ce  Ce5  1  0.875000  0.750840  0.375840  1
  S  S6  1  0.615655  0.864428  0.096457  1
  S  S7  1  0.614428  0.865655  0.596457  1
  S  S8  1  0.480802  0.384345  0.248773  1
  S  S9  1  0.269198  0.017971  0.403543  1
  S  S10  1  0.135572  0.232029  0.751227  1
  S  S11  1  0.982029  0.385572  0.251227  1
  S  S12  1  0.767971  0.519198  0.903543  1
  S  S13  1  0.134345  0.730802  0.748773  1
