# generated using pymatgen
data_Ga2Te3
_symmetry_space_group_name_H-M   'P 1'
_cell_length_a   7.46779114
_cell_length_b   7.46779114
_cell_length_c   7.31824691
_cell_angle_alpha   80.99041819
_cell_angle_beta   99.00958181
_cell_angle_gamma   59.04275600
_symmetry_Int_Tables_number   1
_chemical_formula_structural   Ga2Te3
_chemical_formula_sum   'Ga4 Te6'
_cell_volume   331.84160309
_cell_formula_units_Z   2
loop_
 _symmetry_equiv_pos_site_id
 _symmetry_equiv_pos_as_xyz
  1  'x, y, z'
loop_
 _atom_site_type_symbol
 _atom_site_label
 _atom_site_symmetry_multiplicity
 _atom_site_fract_x
 _atom_site_fract_y
 _atom_site_fract_z
 _atom_site_occupancy
  Ga  Ga0  1  0.357556  0.475355  0.121852  1
  Ga  Ga1  1  0.719229  0.783181  0.122723  1
  Ga  Ga2  1  0.524645  0.642444  0.621852  1
  Ga  Ga3  1  0.216819  0.280771  0.622723  1
  Te  Te4  1  0.988137  0.848229  0.984093  1
  Te  Te5  1  0.687804  0.470832  0.008988  1
  Te  Te6  1  0.529168  0.312196  0.508988  1
  Te  Te7  1  0.320610  0.162402  0.012345  1
  Te  Te8  1  0.151771  0.011863  0.484093  1
  Te  Te9  1  0.837598  0.679390  0.512345  1
