# generated using pymatgen
data_Ba3P3I2
_symmetry_space_group_name_H-M   'P 1'
_cell_length_a   4.59361302
_cell_length_b   14.35229557
_cell_length_c   17.55787355
_cell_angle_alpha   90.00000000
_cell_angle_beta   90.00000000
_cell_angle_gamma   90.00000000
_symmetry_Int_Tables_number   1
_chemical_formula_structural   Ba3P3I2
_chemical_formula_sum   'Ba12 P12 I8'
_cell_volume   1157.57114547
_cell_formula_units_Z   4
loop_
 _symmetry_equiv_pos_site_id
 _symmetry_equiv_pos_as_xyz
  1  'x, y, z'
loop_
 _atom_site_type_symbol
 _atom_site_label
 _atom_site_symmetry_multiplicity
 _atom_site_fract_x
 _atom_site_fract_y
 _atom_site_fract_z
 _atom_site_occupancy
  Ba  Ba0  1  0.250000  0.458229  0.644195  1
  Ba  Ba1  1  0.750000  0.541771  0.355805  1
  Ba  Ba2  1  0.750000  0.958229  0.855805  1
  Ba  Ba3  1  0.250000  0.041771  0.144195  1
  Ba  Ba4  1  0.250000  0.711003  0.159564  1
  Ba  Ba5  1  0.750000  0.288997  0.840436  1
  Ba  Ba6  1  0.750000  0.211003  0.340436  1
  Ba  Ba7  1  0.250000  0.788997  0.659564  1
  Ba  Ba8  1  0.250000  0.615978  0.870129  1
  Ba  Ba9  1  0.750000  0.384022  0.129871  1
  Ba  Ba10  1  0.750000  0.115978  0.629871  1
  Ba  Ba11  1  0.250000  0.884022  0.370129  1
  P  P12  1  0.250000  0.373362  0.285647  1
  P  P13  1  0.750000  0.626638  0.714353  1
  P  P14  1  0.750000  0.873362  0.214353  1
  P  P15  1  0.250000  0.126638  0.785647  1
  P  P16  1  0.250000  0.253058  0.211106  1
  P  P17  1  0.750000  0.746942  0.788894  1
  P  P18  1  0.750000  0.753058  0.288894  1
  P  P19  1  0.250000  0.246942  0.711106  1
  P  P20  1  0.250000  0.503969  0.225176  1
  P  P21  1  0.750000  0.496031  0.774824  1
  P  P22  1  0.750000  0.003969  0.274824  1
  P  P23  1  0.250000  0.996031  0.725176  1
  I  I24  1  0.250000  0.113026  0.470083  1
  I  I25  1  0.750000  0.886974  0.529917  1
  I  I26  1  0.750000  0.613026  0.029917  1
  I  I27  1  0.250000  0.386974  0.970083  1
  I  I28  1  0.250000  0.634530  0.491427  1
  I  I29  1  0.750000  0.365470  0.508573  1
  I  I30  1  0.750000  0.134530  0.008573  1
  I  I31  1  0.250000  0.865470  0.991427  1
