# generated using pymatgen
data_Sm2Zn17
_symmetry_space_group_name_H-M   'P 1'
_cell_length_a   6.83415750
_cell_length_b   6.83415750
_cell_length_c   6.83415750
_cell_angle_alpha   82.60411413
_cell_angle_beta   82.60411413
_cell_angle_gamma   82.60411413
_symmetry_Int_Tables_number   1
_chemical_formula_structural   Sm2Zn17
_chemical_formula_sum   'Sm2 Zn17'
_cell_volume   311.85711668
_cell_formula_units_Z   1
loop_
 _symmetry_equiv_pos_site_id
 _symmetry_equiv_pos_as_xyz
  1  'x, y, z'
loop_
 _atom_site_type_symbol
 _atom_site_label
 _atom_site_symmetry_multiplicity
 _atom_site_fract_x
 _atom_site_fract_y
 _atom_site_fract_z
 _atom_site_occupancy
  Sm  Sm0  1  0.335319  0.335319  0.335319  1
  Sm  Sm1  1  0.664681  0.664681  0.664681  1
  Zn  Zn2  1  0.161458  0.649183  0.649183  1
  Zn  Zn3  1  0.649183  0.649183  0.161458  1
  Zn  Zn4  1  0.900784  0.900784  0.900784  1
  Zn  Zn5  1  0.099216  0.099216  0.099216  1
  Zn  Zn6  1  0.500000  0.000000  0.000000  1
  Zn  Zn7  1  0.000000  0.500000  0.000000  1
  Zn  Zn8  1  0.000000  0.000000  0.500000  1
  Zn  Zn9  1  0.000000  0.294817  0.705183  1
  Zn  Zn10  1  0.705183  0.000000  0.294817  1
  Zn  Zn11  1  0.294817  0.705183  0.000000  1
  Zn  Zn12  1  0.000000  0.705183  0.294817  1
  Zn  Zn13  1  0.294817  0.000000  0.705183  1
  Zn  Zn14  1  0.705183  0.294817  0.000000  1
  Zn  Zn15  1  0.350817  0.350817  0.838542  1
  Zn  Zn16  1  0.838542  0.350817  0.350817  1
  Zn  Zn17  1  0.350817  0.838542  0.350817  1
  Zn  Zn18  1  0.649183  0.161458  0.649183  1
