# generated using pymatgen
data_Ta9(FeS3)2
_symmetry_space_group_name_H-M   'P 1'
_cell_length_a   10.43576013
_cell_length_b   10.43576013
_cell_length_c   6.59228489
_cell_angle_alpha   90.00000000
_cell_angle_beta   90.00000000
_cell_angle_gamma   120.00000000
_symmetry_Int_Tables_number   1
_chemical_formula_structural   Ta9(FeS3)2
_chemical_formula_sum   'Ta18 Fe4 S12'
_cell_volume   621.74854158
_cell_formula_units_Z   2
loop_
 _symmetry_equiv_pos_site_id
 _symmetry_equiv_pos_as_xyz
  1  'x, y, z'
loop_
 _atom_site_type_symbol
 _atom_site_label
 _atom_site_symmetry_multiplicity
 _atom_site_fract_x
 _atom_site_fract_y
 _atom_site_fract_z
 _atom_site_occupancy
  Ta  Ta0  1  0.783062  0.527066  0.500000  1
  Ta  Ta1  1  0.744004  0.216938  0.500000  1
  Ta  Ta2  1  0.472934  0.255996  0.500000  1
  Ta  Ta3  1  0.255996  0.472934  0.500000  1
  Ta  Ta4  1  0.527066  0.783062  0.500000  1
  Ta  Ta5  1  0.216938  0.744004  0.500000  1
  Ta  Ta6  1  0.735318  0.190743  0.000000  1
  Ta  Ta7  1  0.809257  0.544575  0.000000  1
  Ta  Ta8  1  0.455425  0.264682  0.000000  1
  Ta  Ta9  1  0.264682  0.455425  0.000000  1
  Ta  Ta10  1  0.544575  0.809257  0.000000  1
  Ta  Ta11  1  0.190743  0.735318  0.000000  1
  Ta  Ta12  1  0.459890  0.000000  0.253986  1
  Ta  Ta13  1  0.540110  0.540110  0.746014  1
  Ta  Ta14  1  0.000000  0.459890  0.746014  1
  Ta  Ta15  1  0.000000  0.459890  0.253986  1
  Ta  Ta16  1  0.540110  0.540110  0.253986  1
  Ta  Ta17  1  0.459890  0.000000  0.746014  1
  Fe  Fe18  1  0.666667  0.333333  0.783163  1
  Fe  Fe19  1  0.666667  0.333333  0.216837  1
  Fe  Fe20  1  0.333333  0.666667  0.216837  1
  Fe  Fe21  1  0.333333  0.666667  0.783163  1
  S  S22  1  0.701160  0.000000  0.266458  1
  S  S23  1  0.298840  0.298840  0.733542  1
  S  S24  1  0.000000  0.701160  0.733542  1
  S  S25  1  0.000000  0.701160  0.266458  1
  S  S26  1  0.298840  0.298840  0.266458  1
  S  S27  1  0.701160  0.000000  0.733542  1
  S  S28  1  0.000000  0.279102  0.000000  1
  S  S29  1  0.720898  0.720898  0.000000  1
  S  S30  1  0.279102  0.000000  0.000000  1
  S  S31  1  0.000000  0.276733  0.500000  1
  S  S32  1  0.723267  0.723267  0.500000  1
  S  S33  1  0.276733  0.000000  0.500000  1
