# generated using pymatgen
data_Mn4(PO4)3
_symmetry_space_group_name_H-M   'P 1'
_cell_length_a   8.96051240
_cell_length_b   8.96051240
_cell_length_c   6.46573903
_cell_angle_alpha   73.00697086
_cell_angle_beta   106.99302914
_cell_angle_gamma   84.76328385
_symmetry_Int_Tables_number   1
_chemical_formula_structural   Mn4(PO4)3
_chemical_formula_sum   'Mn8 P6 O24'
_cell_volume   465.85388149
_cell_formula_units_Z   2
loop_
 _symmetry_equiv_pos_site_id
 _symmetry_equiv_pos_as_xyz
  1  'x, y, z'
loop_
 _atom_site_type_symbol
 _atom_site_label
 _atom_site_symmetry_multiplicity
 _atom_site_fract_x
 _atom_site_fract_y
 _atom_site_fract_z
 _atom_site_occupancy
  Mn  Mn0  1  0.058679  0.649507  0.612666  1
  Mn  Mn1  1  0.645773  0.056563  0.889970  1
  Mn  Mn2  1  0.524681  0.484245  0.956113  1
  Mn  Mn3  1  0.943437  0.354227  0.389970  1
  Mn  Mn4  1  0.732238  0.740782  0.741672  1
  Mn  Mn5  1  0.515755  0.475319  0.456113  1
  Mn  Mn6  1  0.259218  0.267762  0.241672  1
  Mn  Mn7  1  0.350493  0.941321  0.112666  1
  P  P8  1  0.300748  0.304022  0.749826  1
  P  P9  1  0.661770  0.128833  0.370799  1
  P  P10  1  0.695978  0.699252  0.249826  1
  P  P11  1  0.128104  0.656965  0.133884  1
  P  P12  1  0.343035  0.871896  0.633884  1
  P  P13  1  0.871167  0.338230  0.870799  1
  O  O14  1  0.173186  0.818167  0.120090  1
  O  O15  1  0.720484  0.806345  0.032984  1
  O  O16  1  0.181833  0.826814  0.620090  1
  O  O17  1  0.274612  0.473904  0.766936  1
  O  O18  1  0.040415  0.606522  0.313059  1
  O  O19  1  0.281026  0.189707  0.967633  1
  O  O20  1  0.337723  0.993154  0.399039  1
  O  O21  1  0.475985  0.720787  0.704366  1
  O  O22  1  0.530489  0.285718  0.296377  1
  O  O23  1  0.475740  0.285301  0.743258  1
  O  O24  1  0.662522  0.009744  0.602398  1
  O  O25  1  0.393478  0.959585  0.813059  1
  O  O26  1  0.609625  0.044280  0.190918  1
  O  O27  1  0.955720  0.390375  0.690918  1
  O  O28  1  0.279213  0.524015  0.204366  1
  O  O29  1  0.990256  0.337478  0.102398  1
  O  O30  1  0.193655  0.279516  0.532984  1
  O  O31  1  0.714699  0.524260  0.243258  1
  O  O32  1  0.825761  0.177147  0.887171  1
  O  O33  1  0.006846  0.662277  0.899039  1
  O  O34  1  0.714282  0.469511  0.796377  1
  O  O35  1  0.822853  0.174239  0.387171  1
  O  O36  1  0.810293  0.718974  0.467633  1
  O  O37  1  0.526096  0.725388  0.266936  1
