# generated using pymatgen
data_LiMo2(PO4)3
_symmetry_space_group_name_H-M   'P 1'
_cell_length_a   8.52757664
_cell_length_b   8.53336161
_cell_length_c   9.16390220
_cell_angle_alpha   62.29201397
_cell_angle_beta   62.57916575
_cell_angle_gamma   60.51849280
_symmetry_Int_Tables_number   1
_chemical_formula_structural   LiMo2(PO4)3
_chemical_formula_sum   'Li2 Mo4 P6 O24'
_cell_volume   490.15927145
_cell_formula_units_Z   2
loop_
 _symmetry_equiv_pos_site_id
 _symmetry_equiv_pos_as_xyz
  1  'x, y, z'
loop_
 _atom_site_type_symbol
 _atom_site_label
 _atom_site_symmetry_multiplicity
 _atom_site_fract_x
 _atom_site_fract_y
 _atom_site_fract_z
 _atom_site_occupancy
  Li  Li0  1  0.740974  0.073405  0.868719  1
  Li  Li1  1  0.259026  0.926595  0.131281  1
  Mo  Mo2  1  0.347123  0.357162  0.946439  1
  Mo  Mo3  1  0.652877  0.642838  0.053561  1
  Mo  Mo4  1  0.855397  0.850066  0.429687  1
  Mo  Mo5  1  0.144603  0.149934  0.570313  1
  P  P6  1  0.461481  0.034011  0.753972  1
  P  P7  1  0.033036  0.752920  0.746127  1
  P  P8  1  0.538519  0.965989  0.246028  1
  P  P9  1  0.966964  0.247080  0.253873  1
  P  P10  1  0.252894  0.536833  0.247925  1
  P  P11  1  0.747106  0.463167  0.752075  1
  O  O12  1  0.737647  0.878093  0.267329  1
  O  O13  1  0.511111  0.827421  0.199534  1
  O  O14  1  0.614832  0.995271  0.591059  1
  O  O15  1  0.462153  0.509061  0.201217  1
  O  O16  1  0.105961  0.899324  0.721129  1
  O  O17  1  0.127447  0.740998  0.255832  1
  O  O18  1  0.894039  0.100676  0.278871  1
  O  O19  1  0.220274  0.509057  0.109412  1
  O  O20  1  0.459334  0.853202  0.914976  1
  O  O21  1  0.262353  0.121907  0.732671  1
  O  O22  1  0.008415  0.791569  0.574773  1
  O  O23  1  0.165190  0.206684  0.112552  1
  O  O24  1  0.779726  0.490943  0.890588  1
  O  O25  1  0.488889  0.172579  0.800466  1
  O  O26  1  0.385168  0.004729  0.408941  1
  O  O27  1  0.537847  0.490939  0.798783  1
  O  O28  1  0.833912  0.450793  0.199541  1
  O  O29  1  0.166088  0.549207  0.800459  1
  O  O30  1  0.872553  0.259002  0.744168  1
  O  O31  1  0.834810  0.793316  0.887448  1
  O  O32  1  0.540666  0.146798  0.085024  1
  O  O33  1  0.195197  0.394290  0.423348  1
  O  O34  1  0.991585  0.208431  0.425227  1
  O  O35  1  0.804803  0.605710  0.576652  1
