# generated using pymatgen
data_Ce3(Al3Ru)4
_symmetry_space_group_name_H-M   'P 1'
_cell_length_a   8.89440579
_cell_length_b   8.89440579
_cell_length_c   9.55046273
_cell_angle_alpha   90.00000000
_cell_angle_beta   90.00000000
_cell_angle_gamma   120.00000000
_symmetry_Int_Tables_number   1
_chemical_formula_structural   Ce3(Al3Ru)4
_chemical_formula_sum   'Ce6 Al24 Ru8'
_cell_volume   654.31808621
_cell_formula_units_Z   2
loop_
 _symmetry_equiv_pos_site_id
 _symmetry_equiv_pos_as_xyz
  1  'x, y, z'
loop_
 _atom_site_type_symbol
 _atom_site_label
 _atom_site_symmetry_multiplicity
 _atom_site_fract_x
 _atom_site_fract_y
 _atom_site_fract_z
 _atom_site_occupancy
  Ce  Ce0  1  0.806198  0.612396  0.750000  1
  Ce  Ce1  1  0.193802  0.806198  0.250000  1
  Ce  Ce2  1  0.612396  0.806198  0.250000  1
  Ce  Ce3  1  0.387604  0.193802  0.750000  1
  Ce  Ce4  1  0.806198  0.193802  0.750000  1
  Ce  Ce5  1  0.193802  0.387604  0.250000  1
  Al  Al6  1  0.333333  0.666667  0.484490  1
  Al  Al7  1  0.666667  0.333333  0.984490  1
  Al  Al8  1  0.666667  0.333333  0.515510  1
  Al  Al9  1  0.333333  0.666667  0.015510  1
  Al  Al10  1  0.162322  0.324644  0.577480  1
  Al  Al11  1  0.675356  0.837678  0.577480  1
  Al  Al12  1  0.162322  0.837678  0.577480  1
  Al  Al13  1  0.837678  0.162322  0.077480  1
  Al  Al14  1  0.837678  0.162322  0.422520  1
  Al  Al15  1  0.837678  0.675356  0.077480  1
  Al  Al16  1  0.324644  0.162322  0.077480  1
  Al  Al17  1  0.675356  0.837678  0.922520  1
  Al  Al18  1  0.162322  0.324644  0.922520  1
  Al  Al19  1  0.837678  0.675356  0.422520  1
  Al  Al20  1  0.000000  0.000000  0.250000  1
  Al  Al21  1  0.000000  0.000000  0.750000  1
  Al  Al22  1  0.562081  0.124162  0.250000  1
  Al  Al23  1  0.437919  0.562081  0.750000  1
  Al  Al24  1  0.124162  0.562081  0.750000  1
  Al  Al25  1  0.875838  0.437919  0.250000  1
  Al  Al26  1  0.562081  0.437919  0.250000  1
  Al  Al27  1  0.437919  0.875838  0.750000  1
  Al  Al28  1  0.162322  0.837678  0.922520  1
  Al  Al29  1  0.324644  0.162322  0.422520  1
  Ru  Ru30  1  0.000000  0.000000  0.500000  1
  Ru  Ru31  1  0.000000  0.000000  0.000000  1
  Ru  Ru32  1  0.500000  0.000000  0.500000  1
  Ru  Ru33  1  0.500000  0.500000  0.000000  1
  Ru  Ru34  1  0.000000  0.500000  0.000000  1
  Ru  Ru35  1  0.000000  0.500000  0.500000  1
  Ru  Ru36  1  0.500000  0.500000  0.500000  1
  Ru  Ru37  1  0.500000  0.000000  0.000000  1
