# generated using pymatgen
data_Cd5Au3
_symmetry_space_group_name_H-M   'P 1'
_cell_length_a   8.23446697
_cell_length_b   8.23446697
_cell_length_c   8.23446697
_cell_angle_alpha   96.37638112
_cell_angle_beta   96.37638112
_cell_angle_gamma   141.06701204
_symmetry_Int_Tables_number   1
_chemical_formula_structural   Cd5Au3
_chemical_formula_sum   'Cd10 Au6'
_cell_volume   330.81612983
_cell_formula_units_Z   2
loop_
 _symmetry_equiv_pos_site_id
 _symmetry_equiv_pos_as_xyz
  1  'x, y, z'
loop_
 _atom_site_type_symbol
 _atom_site_label
 _atom_site_symmetry_multiplicity
 _atom_site_fract_x
 _atom_site_fract_y
 _atom_site_fract_z
 _atom_site_occupancy
  Cd  Cd0  1  0.724747  0.579360  0.304107  1
  Cd  Cd1  1  0.275253  0.420640  0.695893  1
  Cd  Cd2  1  0.420640  0.724747  0.145387  1
  Cd  Cd3  1  0.579360  0.275253  0.854613  1
  Cd  Cd4  1  0.224747  0.920640  0.145387  1
  Cd  Cd5  1  0.079360  0.224747  0.304107  1
  Cd  Cd6  1  0.750000  0.250000  0.500000  1
  Cd  Cd7  1  0.250000  0.750000  0.500000  1
  Cd  Cd8  1  0.775253  0.079360  0.854613  1
  Cd  Cd9  1  0.920640  0.775253  0.695893  1
  Au  Au10  1  0.665371  0.834629  0.500000  1
  Au  Au11  1  0.165371  0.665371  0.830742  1
  Au  Au12  1  0.834629  0.334629  0.169258  1
  Au  Au13  1  0.334629  0.165371  0.500000  1
  Au  Au14  1  0.750000  0.750000  0.000000  1
  Au  Au15  1  0.250000  0.250000  0.000000  1
