# generated using pymatgen
data_GaAu
_symmetry_space_group_name_H-M   'P 1'
_cell_length_a   3.59269373
_cell_length_b   6.38795317
_cell_length_c   6.45392340
_cell_angle_alpha   90.00000000
_cell_angle_beta   90.00000000
_cell_angle_gamma   90.00000000
_symmetry_Int_Tables_number   1
_chemical_formula_structural   GaAu
_chemical_formula_sum   'Ga4 Au4'
_cell_volume   148.11727936
_cell_formula_units_Z   4
loop_
 _symmetry_equiv_pos_site_id
 _symmetry_equiv_pos_as_xyz
  1  'x, y, z'
loop_
 _atom_site_type_symbol
 _atom_site_label
 _atom_site_symmetry_multiplicity
 _atom_site_fract_x
 _atom_site_fract_y
 _atom_site_fract_z
 _atom_site_occupancy
  Ga  Ga0  1  0.750000  0.316652  0.929759  1
  Ga  Ga1  1  0.750000  0.816652  0.570241  1
  Ga  Ga2  1  0.250000  0.183348  0.429759  1
  Ga  Ga3  1  0.250000  0.683348  0.070241  1
  Au  Au4  1  0.250000  0.006409  0.809187  1
  Au  Au5  1  0.750000  0.493591  0.309187  1
  Au  Au6  1  0.750000  0.993591  0.190813  1
  Au  Au7  1  0.250000  0.506409  0.690813  1
