# generated using pymatgen
data_YZrSb
_symmetry_space_group_name_H-M   'P 1'
_cell_length_a   8.86816704
_cell_length_b   8.86816704
_cell_length_c   8.86816704
_cell_angle_alpha   152.05480577
_cell_angle_beta   152.05480577
_cell_angle_gamma   39.93327320
_symmetry_Int_Tables_number   1
_chemical_formula_structural   YZrSb
_chemical_formula_sum   'Y2 Zr2 Sb2'
_cell_volume   152.86985608
_cell_formula_units_Z   2
loop_
 _symmetry_equiv_pos_site_id
 _symmetry_equiv_pos_as_xyz
  1  'x, y, z'
loop_
 _atom_site_type_symbol
 _atom_site_label
 _atom_site_symmetry_multiplicity
 _atom_site_fract_x
 _atom_site_fract_y
 _atom_site_fract_z
 _atom_site_occupancy
  Y  Y0  1  0.323381  0.323381  0.000000  1
  Y  Y1  1  0.676619  0.676619  0.000000  1
  Zr  Zr2  1  0.000000  0.500000  0.500000  1
  Zr  Zr3  1  0.500000  0.000000  0.500000  1
  Sb  Sb4  1  0.133109  0.133109  0.000000  1
  Sb  Sb5  1  0.866891  0.866891  0.000000  1
