# generated using pymatgen
data_Li3Cr(PO4)2
_symmetry_space_group_name_H-M   'P 1'
_cell_length_a   8.19655040
_cell_length_b   10.15117364
_cell_length_c   8.50648133
_cell_angle_alpha   90.00000000
_cell_angle_beta   108.70941401
_cell_angle_gamma   90.00000000
_symmetry_Int_Tables_number   1
_chemical_formula_structural   Li3Cr(PO4)2
_chemical_formula_sum   'Li12 Cr4 P8 O32'
_cell_volume   670.37771026
_cell_formula_units_Z   4
loop_
 _symmetry_equiv_pos_site_id
 _symmetry_equiv_pos_as_xyz
  1  'x, y, z'
loop_
 _atom_site_type_symbol
 _atom_site_label
 _atom_site_symmetry_multiplicity
 _atom_site_fract_x
 _atom_site_fract_y
 _atom_site_fract_z
 _atom_site_occupancy
  Li  Li0  1  0.614702  0.336259  0.349295  1
  Li  Li1  1  0.821621  0.343224  0.097084  1
  Li  Li2  1  0.637944  0.649248  0.928251  1
  Li  Li3  1  0.385298  0.836259  0.650705  1
  Li  Li4  1  0.178379  0.843224  0.902916  1
  Li  Li5  1  0.603083  0.155722  0.841589  1
  Li  Li6  1  0.362056  0.149248  0.071749  1
  Li  Li7  1  0.653506  0.843092  0.413427  1
  Li  Li8  1  0.346494  0.343092  0.586573  1
  Li  Li9  1  0.458324  0.580523  0.482714  1
  Li  Li10  1  0.541676  0.080523  0.517286  1
  Li  Li11  1  0.396917  0.655722  0.158411  1
  Cr  Cr12  1  0.119200  0.130591  0.357941  1
  Cr  Cr13  1  0.125927  0.353292  0.879451  1
  Cr  Cr14  1  0.874073  0.853292  0.120549  1
  Cr  Cr15  1  0.880800  0.630591  0.642059  1
  P  P16  1  0.211638  0.404362  0.204257  1
  P  P17  1  0.287915  0.589434  0.778830  1
  P  P18  1  0.712085  0.089434  0.221170  1
  P  P19  1  0.213081  0.090650  0.693105  1
  P  P20  1  0.280247  0.916712  0.275748  1
  P  P21  1  0.786919  0.590650  0.306895  1
  P  P22  1  0.788362  0.904362  0.795743  1
  P  P23  1  0.719753  0.416712  0.724252  1
  O  O24  1  0.041133  0.105794  0.548432  1
  O  O25  1  0.192611  0.317139  0.347714  1
  O  O26  1  0.797635  0.676596  0.158462  1
  O  O27  1  0.693520  0.332904  0.861103  1
  O  O28  1  0.349199  0.646395  0.641736  1
  O  O29  1  0.425140  0.894179  0.442935  1
  O  O30  1  0.966314  0.910799  0.940831  1
  O  O31  1  0.116782  0.655903  0.789969  1
  O  O32  1  0.580550  0.111018  0.049390  1
  O  O33  1  0.419450  0.611018  0.950610  1
  O  O34  1  0.749247  0.937470  0.256392  1
  O  O35  1  0.883218  0.155903  0.210031  1
  O  O36  1  0.807389  0.817139  0.652286  1
  O  O37  1  0.250753  0.437470  0.743608  1
  O  O38  1  0.958867  0.605794  0.451568  1
  O  O39  1  0.276938  0.069335  0.236192  1
  O  O40  1  0.677421  0.836604  0.893035  1
  O  O41  1  0.097777  0.901630  0.300960  1
  O  O42  1  0.257984  0.949983  0.753729  1
  O  O43  1  0.574860  0.394179  0.557065  1
  O  O44  1  0.647843  0.647537  0.381593  1
  O  O45  1  0.202365  0.176596  0.841538  1
  O  O46  1  0.352157  0.147537  0.618407  1
  O  O47  1  0.715758  0.037435  0.728080  1
  O  O48  1  0.723062  0.569335  0.763808  1
  O  O49  1  0.322579  0.336604  0.106965  1
  O  O50  1  0.033686  0.410799  0.059169  1
  O  O51  1  0.742016  0.449983  0.246271  1
  O  O52  1  0.306480  0.832904  0.138897  1
  O  O53  1  0.284242  0.537435  0.271920  1
  O  O54  1  0.902223  0.401630  0.699040  1
  O  O55  1  0.650801  0.146395  0.358264  1
