# generated using pymatgen
data_Hf2Bi2O7
_symmetry_space_group_name_H-M   'P 1'
_cell_length_a   7.68345899
_cell_length_b   7.68345899
_cell_length_c   7.71744643
_cell_angle_alpha   60.07844130
_cell_angle_beta   119.92155870
_cell_angle_gamma   90.16421911
_symmetry_Int_Tables_number   1
_chemical_formula_structural   Hf2Bi2O7
_chemical_formula_sum   'Hf4 Bi4 O14'
_cell_volume   323.37829175
_cell_formula_units_Z   2
loop_
 _symmetry_equiv_pos_site_id
 _symmetry_equiv_pos_as_xyz
  1  'x, y, z'
loop_
 _atom_site_type_symbol
 _atom_site_label
 _atom_site_symmetry_multiplicity
 _atom_site_fract_x
 _atom_site_fract_y
 _atom_site_fract_z
 _atom_site_occupancy
  Hf  Hf0  1  0.623513  0.120339  0.751062  1
  Hf  Hf1  1  0.121466  0.124535  0.248848  1
  Hf  Hf2  1  0.124535  0.121466  0.751152  1
  Hf  Hf3  1  0.120339  0.623513  0.248938  1
  Bi  Bi4  1  0.665832  0.563924  0.312065  1
  Bi  Bi5  1  0.124587  0.628637  0.799036  1
  Bi  Bi6  1  0.628637  0.124587  0.200964  1
  Bi  Bi7  1  0.563924  0.665832  0.687935  1
  O  O8  1  0.813522  0.813522  0.000000  1
  O  O9  1  0.488967  0.488967  0.000000  1
  O  O10  1  0.215961  0.796877  0.398367  1
  O  O11  1  0.442178  0.080498  0.889953  1
  O  O12  1  0.188317  0.795846  0.983299  1
  O  O13  1  0.443232  0.028609  0.526682  1
  O  O14  1  0.459974  0.459974  0.500000  1
  O  O15  1  0.038811  0.038811  0.500000  1
  O  O16  1  0.740449  0.740449  0.500000  1
  O  O17  1  0.028609  0.443232  0.473318  1
  O  O18  1  0.795846  0.188317  0.016701  1
  O  O19  1  0.080498  0.442178  0.110047  1
  O  O20  1  0.796877  0.215961  0.601633  1
  O  O21  1  0.186927  0.186927  0.000000  1
