# generated using pymatgen
data_Li3RuO4
_symmetry_space_group_name_H-M   'P 1'
_cell_length_a   5.13099424
_cell_length_b   5.94067557
_cell_length_c   5.18208967
_cell_angle_alpha   90.00000000
_cell_angle_beta   110.08237074
_cell_angle_gamma   90.00000000
_symmetry_Int_Tables_number   1
_chemical_formula_structural   Li3RuO4
_chemical_formula_sum   'Li6 Ru2 O8'
_cell_volume   148.35437098
_cell_formula_units_Z   2
loop_
 _symmetry_equiv_pos_site_id
 _symmetry_equiv_pos_as_xyz
  1  'x, y, z'
loop_
 _atom_site_type_symbol
 _atom_site_label
 _atom_site_symmetry_multiplicity
 _atom_site_fract_x
 _atom_site_fract_y
 _atom_site_fract_z
 _atom_site_occupancy
  Li  Li0  1  0.750000  0.867590  0.500000  1
  Li  Li1  1  0.750000  0.391020  0.500000  1
  Li  Li2  1  0.750000  0.621319  0.000000  1
  Li  Li3  1  0.250000  0.608980  0.500000  1
  Li  Li4  1  0.250000  0.132410  0.500000  1
  Li  Li5  1  0.250000  0.378681  0.000000  1
  Ru  Ru6  1  0.250000  0.857330  0.000000  1
  Ru  Ru7  1  0.750000  0.142670  0.000000  1
  O  O8  1  0.004877  0.886771  0.226919  1
  O  O9  1  0.504877  0.113229  0.226919  1
  O  O10  1  0.517664  0.360175  0.758317  1
  O  O11  1  0.982336  0.360175  0.241683  1
  O  O12  1  0.017664  0.639825  0.758317  1
  O  O13  1  0.482336  0.639825  0.241683  1
  O  O14  1  0.495123  0.886771  0.773081  1
  O  O15  1  0.995123  0.113229  0.773081  1
