# generated using pymatgen
data_CaLaMn2O6
_symmetry_space_group_name_H-M   'P 1'
_cell_length_a   5.49595266
_cell_length_b   5.51458844
_cell_length_c   7.71740178
_cell_angle_alpha   90.00000000
_cell_angle_beta   90.00000000
_cell_angle_gamma   90.00000000
_symmetry_Int_Tables_number   1
_chemical_formula_structural   CaLaMn2O6
_chemical_formula_sum   'Ca2 La2 Mn4 O12'
_cell_volume   233.89837265
_cell_formula_units_Z   2
loop_
 _symmetry_equiv_pos_site_id
 _symmetry_equiv_pos_as_xyz
  1  'x, y, z'
loop_
 _atom_site_type_symbol
 _atom_site_label
 _atom_site_symmetry_multiplicity
 _atom_site_fract_x
 _atom_site_fract_y
 _atom_site_fract_z
 _atom_site_occupancy
  Ca  Ca0  1  0.984607  0.211759  0.500000  1
  Ca  Ca1  1  0.484607  0.788241  0.000000  1
  La  La2  1  0.971990  0.276315  0.000000  1
  La  La3  1  0.471990  0.723685  0.500000  1
  Mn  Mn4  1  0.476817  0.250828  0.250519  1
  Mn  Mn5  1  0.476817  0.250828  0.749481  1
  Mn  Mn6  1  0.976817  0.749172  0.249481  1
  Mn  Mn7  1  0.976817  0.749172  0.750519  1
  O  O8  1  0.759673  0.033313  0.215599  1
  O  O9  1  0.759673  0.033313  0.784401  1
  O  O10  1  0.259673  0.966687  0.284401  1
  O  O11  1  0.259673  0.966687  0.715599  1
  O  O12  1  0.190331  0.463018  0.710456  1
  O  O13  1  0.190331  0.463018  0.289544  1
  O  O14  1  0.690331  0.536982  0.789544  1
  O  O15  1  0.690331  0.536982  0.210456  1
  O  O16  1  0.910072  0.767547  0.500000  1
  O  O17  1  0.410072  0.232453  0.000000  1
  O  O18  1  0.051788  0.734912  0.000000  1
  O  O19  1  0.551788  0.265088  0.500000  1
