# generated using pymatgen
data_NbP2O7
_symmetry_space_group_name_H-M   'P 1'
_cell_length_a   8.45771781
_cell_length_b   8.45771781
_cell_length_c   8.45771781
_cell_angle_alpha   90.00000000
_cell_angle_beta   90.00000000
_cell_angle_gamma   90.00000000
_symmetry_Int_Tables_number   1
_chemical_formula_structural   NbP2O7
_chemical_formula_sum   'Nb4 P8 O28'
_cell_volume   605.00584821
_cell_formula_units_Z   4
loop_
 _symmetry_equiv_pos_site_id
 _symmetry_equiv_pos_as_xyz
  1  'x, y, z'
loop_
 _atom_site_type_symbol
 _atom_site_label
 _atom_site_symmetry_multiplicity
 _atom_site_fract_x
 _atom_site_fract_y
 _atom_site_fract_z
 _atom_site_occupancy
  Nb  Nb0  1  0.000000  0.000000  0.000000  1
  Nb  Nb1  1  0.000000  0.500000  0.500000  1
  Nb  Nb2  1  0.500000  0.000000  0.500000  1
  Nb  Nb3  1  0.500000  0.500000  0.000000  1
  P  P4  1  0.108097  0.608097  0.891903  1
  P  P5  1  0.108097  0.891903  0.391903  1
  P  P6  1  0.391903  0.391903  0.391903  1
  P  P7  1  0.391903  0.108097  0.891903  1
  P  P8  1  0.608097  0.608097  0.608097  1
  P  P9  1  0.608097  0.891903  0.108097  1
  P  P10  1  0.891903  0.108097  0.608097  1
  P  P11  1  0.891903  0.391903  0.108097  1
  O  O12  1  0.059159  0.721969  0.423456  1
  O  O13  1  0.076544  0.940841  0.221969  1
  O  O14  1  0.278031  0.923456  0.440841  1
  O  O15  1  0.500000  0.000000  0.000000  1
  O  O16  1  0.559159  0.778031  0.576544  1
  O  O17  1  0.559159  0.721969  0.076544  1
  O  O18  1  0.576544  0.559159  0.778031  1
  O  O19  1  0.576544  0.940841  0.278031  1
  O  O20  1  0.721969  0.423456  0.059159  1
  O  O21  1  0.778031  0.576544  0.559159  1
  O  O22  1  0.778031  0.923456  0.059159  1
  O  O23  1  0.923456  0.440841  0.278031  1
  O  O24  1  0.940841  0.221969  0.076544  1
  O  O25  1  0.000000  0.500000  0.000000  1
  O  O26  1  0.059159  0.778031  0.923456  1
  O  O27  1  0.076544  0.559159  0.721969  1
  O  O28  1  0.221969  0.076544  0.940841  1
  O  O29  1  0.221969  0.423456  0.440841  1
  O  O30  1  0.278031  0.576544  0.940841  1
  O  O31  1  0.423456  0.059159  0.721969  1
  O  O32  1  0.423456  0.440841  0.221969  1
  O  O33  1  0.440841  0.278031  0.923456  1
  O  O34  1  0.440841  0.221969  0.423456  1
  O  O35  1  0.500000  0.500000  0.500000  1
  O  O36  1  0.721969  0.076544  0.559159  1
  O  O37  1  0.923456  0.059159  0.778031  1
  O  O38  1  0.940841  0.278031  0.576544  1
  O  O39  1  0.000000  0.000000  0.500000  1
