# generated using pymatgen
data_Al2FeO4
_symmetry_space_group_name_H-M   'P 1'
_cell_length_a   5.82512939
_cell_length_b   5.82512939
_cell_length_c   14.31696434
_cell_angle_alpha   90.00000000
_cell_angle_beta   90.00000000
_cell_angle_gamma   120.00000000
_symmetry_Int_Tables_number   1
_chemical_formula_structural   Al2FeO4
_chemical_formula_sum   'Al12 Fe6 O24'
_cell_volume   420.71958309
_cell_formula_units_Z   6
loop_
 _symmetry_equiv_pos_site_id
 _symmetry_equiv_pos_as_xyz
  1  'x, y, z'
loop_
 _atom_site_type_symbol
 _atom_site_label
 _atom_site_symmetry_multiplicity
 _atom_site_fract_x
 _atom_site_fract_y
 _atom_site_fract_z
 _atom_site_occupancy
  Al  Al0  1  0.830014  0.169986  0.168324  1
  Al  Al1  1  0.661953  0.830977  0.498666  1
  Al  Al2  1  0.339973  0.169986  0.168324  1
  Al  Al3  1  0.000000  0.000000  0.333469  1
  Al  Al4  1  0.830014  0.660027  0.168324  1
  Al  Al5  1  0.169023  0.830977  0.498666  1
  Al  Al6  1  0.497118  0.994237  0.831494  1
  Al  Al7  1  0.333333  0.666667  0.664601  1
  Al  Al8  1  0.169023  0.338047  0.498666  1
  Al  Al9  1  0.497118  0.502882  0.831494  1
  Al  Al10  1  0.005763  0.502882  0.831494  1
  Al  Al11  1  0.000000  0.000000  0.955312  1
  Fe  Fe12  1  0.333333  0.666667  0.043274  1
  Fe  Fe13  1  0.666667  0.333333  0.002237  1
  Fe  Fe14  1  0.666667  0.333333  0.376605  1
  Fe  Fe15  1  0.000000  0.000000  0.707867  1
  Fe  Fe16  1  0.333333  0.666667  0.287643  1
  Fe  Fe17  1  0.666667  0.333333  0.625689  1
  O  O18  1  0.510658  0.489342  0.100889  1
  O  O19  1  0.666667  0.333333  0.238285  1
  O  O20  1  0.978683  0.489342  0.100889  1
  O  O21  1  0.510658  0.021317  0.100889  1
  O  O22  1  0.854220  0.145780  0.422955  1
  O  O23  1  0.142728  0.285457  0.245290  1
  O  O24  1  0.714543  0.857272  0.245290  1
  O  O25  1  0.000000  0.000000  0.568002  1
  O  O26  1  0.291560  0.145780  0.422955  1
  O  O27  1  0.000000  0.000000  0.084008  1
  O  O28  1  0.854220  0.708440  0.422955  1
  O  O29  1  0.142728  0.857272  0.245290  1
  O  O30  1  0.187989  0.812011  0.753370  1
  O  O31  1  0.477694  0.955388  0.577308  1
  O  O32  1  0.044612  0.522306  0.577308  1
  O  O33  1  0.333333  0.666667  0.901195  1
  O  O34  1  0.624022  0.812011  0.753370  1
  O  O35  1  0.333333  0.666667  0.431193  1
  O  O36  1  0.187989  0.375978  0.753370  1
  O  O37  1  0.477694  0.522306  0.577308  1
  O  O38  1  0.832433  0.664867  0.905872  1
  O  O39  1  0.335133  0.167567  0.905872  1
  O  O40  1  0.666667  0.333333  0.770406  1
  O  O41  1  0.832433  0.167567  0.905872  1
