# generated using pymatgen
data_LiMo2(PO4)3
_symmetry_space_group_name_H-M   'P 1'
_cell_length_a   9.02878724
_cell_length_b   9.17952398
_cell_length_c   12.43258085
_cell_angle_alpha   90.00000000
_cell_angle_beta   90.00000000
_cell_angle_gamma   90.00000000
_symmetry_Int_Tables_number   1
_chemical_formula_structural   LiMo2(PO4)3
_chemical_formula_sum   'Li4 Mo8 P12 O48'
_cell_volume   1030.41191519
_cell_formula_units_Z   4
loop_
 _symmetry_equiv_pos_site_id
 _symmetry_equiv_pos_as_xyz
  1  'x, y, z'
loop_
 _atom_site_type_symbol
 _atom_site_label
 _atom_site_symmetry_multiplicity
 _atom_site_fract_x
 _atom_site_fract_y
 _atom_site_fract_z
 _atom_site_occupancy
  Li  Li0  1  0.148446  0.739116  0.750000  1
  Li  Li1  1  0.851554  0.260884  0.250000  1
  Li  Li2  1  0.148446  0.760884  0.250000  1
  Li  Li3  1  0.851554  0.239116  0.750000  1
  Mo  Mo4  1  0.754142  0.523834  0.400288  1
  Mo  Mo5  1  0.245858  0.476166  0.599712  1
  Mo  Mo6  1  0.245858  0.023834  0.099712  1
  Mo  Mo7  1  0.754142  0.523834  0.099712  1
  Mo  Mo8  1  0.754142  0.976166  0.900288  1
  Mo  Mo9  1  0.754142  0.976166  0.599712  1
  Mo  Mo10  1  0.245858  0.023834  0.400288  1
  Mo  Mo11  1  0.245858  0.476166  0.900288  1
  P  P12  1  0.036177  0.750000  0.500000  1
  P  P13  1  0.602167  0.624098  0.631941  1
  P  P14  1  0.397833  0.375902  0.368059  1
  P  P15  1  0.963823  0.250000  0.000000  1
  P  P16  1  0.397833  0.375902  0.131941  1
  P  P17  1  0.602167  0.875902  0.131941  1
  P  P18  1  0.397833  0.124098  0.631941  1
  P  P19  1  0.036177  0.750000  0.000000  1
  P  P20  1  0.397833  0.124098  0.868059  1
  P  P21  1  0.602167  0.624098  0.868059  1
  P  P22  1  0.602167  0.875902  0.368059  1
  P  P23  1  0.963823  0.250000  0.500000  1
  O  O24  1  0.363571  0.215297  0.118177  1
  O  O25  1  0.204709  0.482544  0.750000  1
  O  O26  1  0.363571  0.284703  0.881823  1
  O  O27  1  0.658906  0.574190  0.750000  1
  O  O28  1  0.054096  0.133925  0.059490  1
  O  O29  1  0.795291  0.517456  0.250000  1
  O  O30  1  0.636429  0.784703  0.881823  1
  O  O31  1  0.054096  0.133925  0.440510  1
  O  O32  1  0.864809  0.180063  0.910168  1
  O  O33  1  0.304175  0.024009  0.560131  1
  O  O34  1  0.636429  0.715297  0.118177  1
  O  O35  1  0.864809  0.319937  0.089832  1
  O  O36  1  0.563368  0.099740  0.874379  1
  O  O37  1  0.054096  0.366075  0.559490  1
  O  O38  1  0.341094  0.425810  0.250000  1
  O  O39  1  0.695825  0.524009  0.939869  1
  O  O40  1  0.436632  0.900260  0.125621  1
  O  O41  1  0.864809  0.319937  0.410168  1
  O  O42  1  0.436632  0.599740  0.625621  1
  O  O43  1  0.695825  0.975991  0.439869  1
  O  O44  1  0.563368  0.099740  0.625621  1
  O  O45  1  0.695825  0.524009  0.560131  1
  O  O46  1  0.135191  0.680063  0.589832  1
  O  O47  1  0.658906  0.925810  0.250000  1
  O  O48  1  0.563368  0.400260  0.374379  1
  O  O49  1  0.945904  0.866075  0.940510  1
  O  O50  1  0.795291  0.982544  0.750000  1
  O  O51  1  0.945904  0.866075  0.559490  1
  O  O52  1  0.135191  0.680063  0.910168  1
  O  O53  1  0.135191  0.819937  0.410168  1
  O  O54  1  0.341094  0.074190  0.750000  1
  O  O55  1  0.563368  0.400260  0.125621  1
  O  O56  1  0.436632  0.599740  0.874379  1
  O  O57  1  0.945904  0.633925  0.440510  1
  O  O58  1  0.304175  0.024009  0.939869  1
  O  O59  1  0.054096  0.366075  0.940510  1
  O  O60  1  0.304175  0.475991  0.060131  1
  O  O61  1  0.363571  0.215297  0.381823  1
  O  O62  1  0.436632  0.900260  0.374379  1
  O  O63  1  0.864809  0.180063  0.589832  1
  O  O64  1  0.636429  0.784703  0.618177  1
  O  O65  1  0.135191  0.819937  0.089832  1
  O  O66  1  0.945904  0.633925  0.059490  1
  O  O67  1  0.204709  0.017456  0.250000  1
  O  O68  1  0.695825  0.975991  0.060131  1
  O  O69  1  0.636429  0.715297  0.381823  1
  O  O70  1  0.304175  0.475991  0.439869  1
  O  O71  1  0.363571  0.284703  0.618177  1
