# generated using pymatgen
data_Ti3Zn2O8
_symmetry_space_group_name_H-M   'P 1'
_cell_length_a   5.92000884
_cell_length_b   5.92000884
_cell_length_c   5.92000884
_cell_angle_alpha   61.04571094
_cell_angle_beta   61.04571094
_cell_angle_gamma   61.04571094
_symmetry_Int_Tables_number   1
_chemical_formula_structural   Ti3Zn2O8
_chemical_formula_sum   'Ti3 Zn2 O8'
_cell_volume   150.16196653
_cell_formula_units_Z   1
loop_
 _symmetry_equiv_pos_site_id
 _symmetry_equiv_pos_as_xyz
  1  'x, y, z'
loop_
 _atom_site_type_symbol
 _atom_site_label
 _atom_site_symmetry_multiplicity
 _atom_site_fract_x
 _atom_site_fract_y
 _atom_site_fract_z
 _atom_site_occupancy
  Ti  Ti0  1  0.000000  0.000000  0.500000  1
  Ti  Ti1  1  0.500000  0.000000  0.000000  1
  Ti  Ti2  1  0.000000  0.500000  0.000000  1
  Zn  Zn3  1  0.384438  0.384438  0.384438  1
  Zn  Zn4  1  0.615562  0.615562  0.615562  1
  O  O5  1  0.747513  0.212604  0.747513  1
  O  O6  1  0.212604  0.747513  0.747513  1
  O  O7  1  0.747513  0.747513  0.212604  1
  O  O8  1  0.756785  0.756785  0.756785  1
  O  O9  1  0.243215  0.243215  0.243215  1
  O  O10  1  0.787396  0.252487  0.252487  1
  O  O11  1  0.252487  0.252487  0.787396  1
  O  O12  1  0.252487  0.787396  0.252487  1
