# generated using pymatgen
data_NbO2F
_symmetry_space_group_name_H-M   'P 1'
_cell_length_a   5.62498196
_cell_length_b   5.50551382
_cell_length_c   7.67630965
_cell_angle_alpha   90.00000000
_cell_angle_beta   91.65881104
_cell_angle_gamma   90.00000000
_symmetry_Int_Tables_number   1
_chemical_formula_structural   NbO2F
_chemical_formula_sum   'Nb4 O8 F4'
_cell_volume   237.62352717
_cell_formula_units_Z   4
loop_
 _symmetry_equiv_pos_site_id
 _symmetry_equiv_pos_as_xyz
  1  'x, y, z'
loop_
 _atom_site_type_symbol
 _atom_site_label
 _atom_site_symmetry_multiplicity
 _atom_site_fract_x
 _atom_site_fract_y
 _atom_site_fract_z
 _atom_site_occupancy
  Nb  Nb0  1  0.500000  0.000000  0.000000  1
  Nb  Nb1  1  0.000000  0.500000  0.500000  1
  Nb  Nb2  1  0.500000  0.000000  0.500000  1
  Nb  Nb3  1  0.000000  0.500000  0.000000  1
  O  O4  1  0.219770  0.219601  0.470078  1
  O  O5  1  0.500000  0.067998  0.750000  1
  O  O6  1  0.780230  0.219601  0.029922  1
  O  O7  1  0.000000  0.567934  0.250000  1
  O  O8  1  0.000000  0.432066  0.750000  1
  O  O9  1  0.219770  0.780399  0.970078  1
  O  O10  1  0.500000  0.932002  0.250000  1
  O  O11  1  0.780230  0.780399  0.529922  1
  F  F12  1  0.705112  0.294801  0.450322  1
  F  F13  1  0.705112  0.705199  0.950322  1
  F  F14  1  0.294888  0.294801  0.049678  1
  F  F15  1  0.294888  0.705199  0.549678  1
