# generated using pymatgen
data_Ni15O16
_symmetry_space_group_name_H-M   'P 1'
_cell_length_a   10.69415304
_cell_length_b   10.69415304
_cell_length_c   10.69415304
_cell_angle_alpha   32.04802076
_cell_angle_beta   32.04802076
_cell_angle_gamma   32.04802076
_symmetry_Int_Tables_number   1
_chemical_formula_structural   Ni15O16
_chemical_formula_sum   'Ni15 O16'
_cell_volume   305.99181080
_cell_formula_units_Z   1
loop_
 _symmetry_equiv_pos_site_id
 _symmetry_equiv_pos_as_xyz
  1  'x, y, z'
loop_
 _atom_site_type_symbol
 _atom_site_label
 _atom_site_symmetry_multiplicity
 _atom_site_fract_x
 _atom_site_fract_y
 _atom_site_fract_z
 _atom_site_occupancy
  Ni  Ni0  1  0.248385  0.750439  0.248385  1
  Ni  Ni1  1  0.500000  0.000000  0.000000  1
  Ni  Ni2  1  0.751615  0.249561  0.751615  1
  Ni  Ni3  1  0.751615  0.751615  0.249561  1
  Ni  Ni4  1  0.248385  0.248385  0.750439  1
  Ni  Ni5  1  0.500000  0.500000  0.500000  1
  Ni  Ni6  1  0.675621  0.675621  0.675621  1
  Ni  Ni7  1  0.750439  0.248385  0.248385  1
  Ni  Ni8  1  0.000000  0.500000  1.000000  1
  Ni  Ni9  1  0.249561  0.751615  0.751615  1
  Ni  Ni10  1  0.000000  0.000000  0.500000  1
  Ni  Ni11  1  0.243925  0.243925  0.243925  1
  Ni  Ni12  1  0.756075  0.756075  0.756075  1
  Ni  Ni13  1  0.324379  0.324379  0.324379  1
  Ni  Ni14  1  0.000000  0.000000  0.000000  1
  O  O15  1  0.613648  0.613648  0.613648  1
  O  O16  1  0.879737  0.879737  0.374987  1
  O  O17  1  0.124556  0.124556  0.124556  1
  O  O18  1  0.371433  0.371433  0.873440  1
  O  O19  1  0.625013  0.120263  0.120263  1
  O  O20  1  0.126560  0.628567  0.628567  1
  O  O21  1  0.879737  0.374987  0.879737  1
  O  O22  1  0.371433  0.873440  0.371433  1
  O  O23  1  0.386352  0.386352  0.386352  1
  O  O24  1  0.875444  0.875444  0.875444  1
  O  O25  1  0.120263  0.120263  0.625013  1
  O  O26  1  0.628567  0.628567  0.126560  1
  O  O27  1  0.120263  0.625013  0.120263  1
  O  O28  1  0.374987  0.879737  0.879737  1
  O  O29  1  0.628567  0.126560  0.628567  1
  O  O30  1  0.873440  0.371433  0.371433  1
