# generated using pymatgen
data_UNb3O10
_symmetry_space_group_name_H-M   'P 1'
_cell_length_a   10.39014038
_cell_length_b   8.92000775
_cell_length_c   7.53025294
_cell_angle_alpha   77.83189833
_cell_angle_beta   57.05776227
_cell_angle_gamma   45.11033940
_symmetry_Int_Tables_number   1
_chemical_formula_structural   UNb3O10
_chemical_formula_sum   'U2 Nb6 O20'
_cell_volume   396.99218477
_cell_formula_units_Z   2
loop_
 _symmetry_equiv_pos_site_id
 _symmetry_equiv_pos_as_xyz
  1  'x, y, z'
loop_
 _atom_site_type_symbol
 _atom_site_label
 _atom_site_symmetry_multiplicity
 _atom_site_fract_x
 _atom_site_fract_y
 _atom_site_fract_z
 _atom_site_occupancy
  U  U0  1  0.500000  0.500000  0.500000  1
  U  U1  1  0.750000  0.750000  0.750000  1
  Nb  Nb2  1  0.238735  0.238735  0.761265  1
  Nb  Nb3  1  0.761265  0.761265  0.238735  1
  Nb  Nb4  1  0.011265  0.011265  0.488735  1
  Nb  Nb5  1  0.488735  0.488735  0.011265  1
  Nb  Nb6  1  0.000000  0.000000  1.000000  1
  Nb  Nb7  1  0.250000  0.250000  0.250000  1
  O  O8  1  0.296929  0.703071  0.296929  1
  O  O9  1  0.703071  0.296929  0.703071  1
  O  O10  1  0.953071  0.546929  0.953071  1
  O  O11  1  0.546929  0.953071  0.546929  1
  O  O12  1  0.384211  0.384211  0.615789  1
  O  O13  1  0.615789  0.615789  0.384211  1
  O  O14  1  0.865789  0.865789  0.634211  1
  O  O15  1  0.634211  0.634211  0.865789  1
  O  O16  1  0.349993  0.154468  0.947927  1
  O  O17  1  0.547613  0.947927  0.154468  1
  O  O18  1  0.947927  0.547613  0.349993  1
  O  O19  1  0.154468  0.349993  0.547613  1
  O  O20  1  0.900007  0.095532  0.302073  1
  O  O21  1  0.702387  0.302073  0.095532  1
  O  O22  1  0.302073  0.702387  0.900007  1
  O  O23  1  0.095532  0.900007  0.702387  1
  O  O24  1  0.373935  0.373935  0.126065  1
  O  O25  1  0.126065  0.126065  0.373935  1
  O  O26  1  0.876065  0.876065  0.123935  1
  O  O27  1  0.123935  0.123935  0.876065  1
