# generated using pymatgen
data_FeP2O7
_symmetry_space_group_name_H-M   'P 1'
_cell_length_a   5.23609251
_cell_length_b   5.23609251
_cell_length_c   4.60804535
_cell_angle_alpha   81.79712531
_cell_angle_beta   98.20287469
_cell_angle_gamma   79.47961155
_symmetry_Int_Tables_number   1
_chemical_formula_structural   FeP2O7
_chemical_formula_sum   'Fe1 P2 O7'
_cell_volume   121.08053808
_cell_formula_units_Z   1
loop_
 _symmetry_equiv_pos_site_id
 _symmetry_equiv_pos_as_xyz
  1  'x, y, z'
loop_
 _atom_site_type_symbol
 _atom_site_label
 _atom_site_symmetry_multiplicity
 _atom_site_fract_x
 _atom_site_fract_y
 _atom_site_fract_z
 _atom_site_occupancy
  Fe  Fe0  1  0.889510  0.889510  0.000000  1
  P  P1  1  0.732643  0.337289  0.411503  1
  P  P2  1  0.337289  0.732643  0.588497  1
  O  O3  1  0.453105  0.453105  0.500000  1
  O  O4  1  0.150203  0.670349  0.803054  1
  O  O5  1  0.565819  0.841244  0.734313  1
  O  O6  1  0.670349  0.150203  0.196946  1
  O  O7  1  0.841244  0.565819  0.265687  1
  O  O8  1  0.915454  0.197649  0.702438  1
  O  O9  1  0.197649  0.915454  0.297562  1
