# generated using pymatgen
data_LiMn(PO3)4
_symmetry_space_group_name_H-M   'P 1'
_cell_length_a   8.26424211
_cell_length_b   8.26424211
_cell_length_c   7.75565006
_cell_angle_alpha   84.92297120
_cell_angle_beta   95.07702880
_cell_angle_gamma   69.44538194
_symmetry_Int_Tables_number   1
_chemical_formula_structural   LiMn(PO3)4
_chemical_formula_sum   'Li2 Mn2 P8 O24'
_cell_volume   489.94940396
_cell_formula_units_Z   2
loop_
 _symmetry_equiv_pos_site_id
 _symmetry_equiv_pos_as_xyz
  1  'x, y, z'
loop_
 _atom_site_type_symbol
 _atom_site_label
 _atom_site_symmetry_multiplicity
 _atom_site_fract_x
 _atom_site_fract_y
 _atom_site_fract_z
 _atom_site_occupancy
  Li  Li0  1  0.204407  0.494888  0.283157  1
  Li  Li1  1  0.505112  0.795593  0.783157  1
  Mn  Mn2  1  0.861155  0.869096  0.243885  1
  Mn  Mn3  1  0.130904  0.138845  0.743885  1
  P  P4  1  0.753754  0.564132  0.132100  1
  P  P5  1  0.059923  0.790097  0.663822  1
  P  P6  1  0.209903  0.940077  0.163822  1
  P  P7  1  0.945321  0.208216  0.321487  1
  P  P8  1  0.791784  0.054679  0.821487  1
  P  P9  1  0.238903  0.439950  0.887321  1
  P  P10  1  0.435868  0.246246  0.632100  1
  P  P11  1  0.560050  0.761097  0.387321  1
  O  O12  1  0.161628  0.646193  0.824838  1
  O  O13  1  0.353807  0.838372  0.324838  1
  O  O14  1  0.984008  0.280044  0.482886  1
  O  O15  1  0.919310  0.149057  0.837488  1
  O  O16  1  0.367703  0.100488  0.688997  1
  O  O17  1  0.121436  0.123413  0.234941  1
  O  O18  1  0.662325  0.622125  0.953669  1
  O  O19  1  0.850943  0.080690  0.337488  1
  O  O20  1  0.899512  0.632297  0.188997  1
  O  O21  1  0.107258  0.361794  0.818272  1
  O  O22  1  0.837653  0.356511  0.163324  1
  O  O23  1  0.081874  0.844061  0.157280  1
  O  O24  1  0.583071  0.704501  0.575968  1
  O  O25  1  0.643489  0.162348  0.663324  1
  O  O26  1  0.719956  0.015992  0.982886  1
  O  O27  1  0.876587  0.878564  0.734941  1
  O  O28  1  0.377875  0.337675  0.453669  1
  O  O29  1  0.402269  0.378587  0.777847  1
  O  O30  1  0.155939  0.918126  0.657280  1
  O  O31  1  0.638206  0.892742  0.318272  1
  O  O32  1  0.621413  0.597731  0.277847  1
  O  O33  1  0.035517  0.714980  0.500196  1
  O  O34  1  0.295499  0.416929  0.075968  1
  O  O35  1  0.285020  0.964483  0.000196  1
