# generated using pymatgen
data_YGa6
_symmetry_space_group_name_H-M   'P 1'
_cell_length_a   5.98257718
_cell_length_b   5.98257718
_cell_length_c   7.61682140
_cell_angle_alpha   90.00000000
_cell_angle_beta   90.00000000
_cell_angle_gamma   90.00000000
_symmetry_Int_Tables_number   1
_chemical_formula_structural   YGa6
_chemical_formula_sum   'Y2 Ga12'
_cell_volume   272.61540442
_cell_formula_units_Z   2
loop_
 _symmetry_equiv_pos_site_id
 _symmetry_equiv_pos_as_xyz
  1  'x, y, z'
loop_
 _atom_site_type_symbol
 _atom_site_label
 _atom_site_symmetry_multiplicity
 _atom_site_fract_x
 _atom_site_fract_y
 _atom_site_fract_z
 _atom_site_occupancy
  Y  Y0  1  0.000000  0.500000  0.000000  1
  Y  Y1  1  0.500000  0.000000  0.000000  1
  Ga  Ga2  1  0.000000  0.000000  0.160259  1
  Ga  Ga3  1  0.000000  0.000000  0.839741  1
  Ga  Ga4  1  0.500000  0.500000  0.839741  1
  Ga  Ga5  1  0.500000  0.500000  0.160259  1
  Ga  Ga6  1  0.683012  0.183012  0.349548  1
  Ga  Ga7  1  0.816988  0.683012  0.349548  1
  Ga  Ga8  1  0.183012  0.316988  0.349548  1
  Ga  Ga9  1  0.683012  0.816988  0.650452  1
  Ga  Ga10  1  0.316988  0.183012  0.650452  1
  Ga  Ga11  1  0.316988  0.816988  0.349548  1
  Ga  Ga12  1  0.183012  0.683012  0.650452  1
  Ga  Ga13  1  0.816988  0.316988  0.650452  1
