# generated using pymatgen
data_Er12Co7
_symmetry_space_group_name_H-M   'P 1'
_cell_length_a   8.20347448
_cell_length_b   11.07638444
_cell_length_c   10.93105002
_cell_angle_alpha   90.00000000
_cell_angle_beta   124.95707960
_cell_angle_gamma   90.00000000
_symmetry_Int_Tables_number   1
_chemical_formula_structural   Er12Co7
_chemical_formula_sum   'Er24 Co14'
_cell_volume   814.04773290
_cell_formula_units_Z   2
loop_
 _symmetry_equiv_pos_site_id
 _symmetry_equiv_pos_as_xyz
  1  'x, y, z'
loop_
 _atom_site_type_symbol
 _atom_site_label
 _atom_site_symmetry_multiplicity
 _atom_site_fract_x
 _atom_site_fract_y
 _atom_site_fract_z
 _atom_site_occupancy
  Er  Er0  1  0.235401  0.705134  0.462525  1
  Er  Er1  1  0.764599  0.205134  0.037475  1
  Er  Er2  1  0.501844  0.842188  0.341947  1
  Er  Er3  1  0.498156  0.342188  0.158053  1
  Er  Er4  1  0.498156  0.157812  0.658053  1
  Er  Er5  1  0.501844  0.657812  0.841947  1
  Er  Er6  1  0.847229  0.004784  0.645307  1
  Er  Er7  1  0.152771  0.504784  0.854693  1
  Er  Er8  1  0.152771  0.995216  0.354693  1
  Er  Er9  1  0.847229  0.495216  0.145307  1
  Er  Er10  1  0.235401  0.794866  0.962525  1
  Er  Er11  1  0.764599  0.294866  0.537475  1
  Er  Er12  1  0.770832  0.927742  0.913253  1
  Er  Er13  1  0.229168  0.427742  0.586747  1
  Er  Er14  1  0.229168  0.072258  0.086747  1
  Er  Er15  1  0.770832  0.572258  0.413253  1
  Er  Er16  1  0.249609  0.300625  0.325070  1
  Er  Er17  1  0.750391  0.800625  0.174930  1
  Er  Er18  1  0.750391  0.699375  0.674930  1
  Er  Er19  1  0.249609  0.199375  0.825070  1
  Er  Er20  1  0.269112  0.929091  0.696527  1
  Er  Er21  1  0.730888  0.429091  0.803473  1
  Er  Er22  1  0.730888  0.070909  0.303473  1
  Er  Er23  1  0.269112  0.570909  0.196527  1
  Co  Co24  1  0.500000  0.500000  0.500000  1
  Co  Co25  1  0.500000  0.000000  0.000000  1
  Co  Co26  1  0.910369  0.670971  0.969257  1
  Co  Co27  1  0.089631  0.170971  0.530743  1
  Co  Co28  1  0.089631  0.329029  0.030743  1
  Co  Co29  1  0.910369  0.829029  0.469257  1
  Co  Co30  1  0.492219  0.401804  0.900136  1
  Co  Co31  1  0.507781  0.901804  0.599864  1
  Co  Co32  1  0.507781  0.598196  0.099864  1
  Co  Co33  1  0.492219  0.098196  0.400136  1
  Co  Co34  1  0.097517  0.810635  0.156394  1
  Co  Co35  1  0.902483  0.310635  0.343606  1
  Co  Co36  1  0.902483  0.189365  0.843606  1
  Co  Co37  1  0.097517  0.689365  0.656394  1
