# generated using pymatgen
data_Dy11Sn10
_symmetry_space_group_name_H-M   'P 1'
_cell_length_a   11.86928807
_cell_length_b   11.86928807
_cell_length_c   11.86928807
_cell_angle_alpha   121.17282699
_cell_angle_beta   121.17282699
_cell_angle_gamma   87.98033097
_symmetry_Int_Tables_number   1
_chemical_formula_structural   Dy11Sn10
_chemical_formula_sum   'Dy22 Sn20'
_cell_volume   1160.64179312
_cell_formula_units_Z   2
loop_
 _symmetry_equiv_pos_site_id
 _symmetry_equiv_pos_as_xyz
  1  'x, y, z'
loop_
 _atom_site_type_symbol
 _atom_site_label
 _atom_site_symmetry_multiplicity
 _atom_site_fract_x
 _atom_site_fract_y
 _atom_site_fract_z
 _atom_site_occupancy
  Dy  Dy0  1  0.188562  0.936545  0.747983  1
  Dy  Dy1  1  0.188562  0.440580  0.252017  1
  Dy  Dy2  1  0.440580  0.188562  0.252017  1
  Dy  Dy3  1  0.936545  0.188562  0.747983  1
  Dy  Dy4  1  0.811438  0.063455  0.252017  1
  Dy  Dy5  1  0.811438  0.559420  0.747983  1
  Dy  Dy6  1  0.559420  0.811438  0.747983  1
  Dy  Dy7  1  0.063455  0.811438  0.252017  1
  Dy  Dy8  1  0.174511  0.825489  0.000000  1
  Dy  Dy9  1  0.825489  0.174511  1.000000  1
  Dy  Dy10  1  0.174511  0.174511  0.349022  1
  Dy  Dy11  1  0.825489  0.825489  0.650978  1
  Dy  Dy12  1  0.335839  0.335839  0.000000  1
  Dy  Dy13  1  0.664161  0.664161  0.000000  1
  Dy  Dy14  1  0.397940  0.068286  0.670347  1
  Dy  Dy15  1  0.397940  0.727593  0.329653  1
  Dy  Dy16  1  0.727593  0.397940  0.329653  1
  Dy  Dy17  1  0.068286  0.397940  0.670347  1
  Dy  Dy18  1  0.602060  0.931714  0.329653  1
  Dy  Dy19  1  0.602060  0.272407  0.670347  1
  Dy  Dy20  1  0.272407  0.602060  0.670347  1
  Dy  Dy21  1  0.931714  0.602060  0.329653  1
  Sn  Sn22  1  0.355974  0.000000  0.355974  1
  Sn  Sn23  1  0.644026  0.000000  0.644026  1
  Sn  Sn24  1  0.000000  0.355974  0.355974  1
  Sn  Sn25  1  0.000000  0.644026  0.644026  1
  Sn  Sn26  1  0.111892  0.111892  0.000000  1
  Sn  Sn27  1  0.888108  0.888108  0.000000  1
  Sn  Sn28  1  0.370471  0.629529  0.000000  1
  Sn  Sn29  1  0.629529  0.370471  0.000000  1
  Sn  Sn30  1  0.370471  0.370471  0.740942  1
  Sn  Sn31  1  0.629529  0.629529  0.259058  1
  Sn  Sn32  1  0.250000  0.750000  0.500000  1
  Sn  Sn33  1  0.750000  0.250000  0.500000  1
  Sn  Sn34  1  0.530559  0.117823  0.000000  1
  Sn  Sn35  1  0.117823  0.530559  0.000000  1
  Sn  Sn36  1  0.530559  0.530559  0.412737  1
  Sn  Sn37  1  0.117823  0.117823  0.587263  1
  Sn  Sn38  1  0.469441  0.882177  0.000000  1
  Sn  Sn39  1  0.882177  0.469441  0.000000  1
  Sn  Sn40  1  0.469441  0.469441  0.587263  1
  Sn  Sn41  1  0.882177  0.882177  0.412737  1
