# generated using pymatgen
data_Ce2Y2O7
_symmetry_space_group_name_H-M   'P 1'
_cell_length_a   9.38404803
_cell_length_b   9.39212069
_cell_length_c   9.41691718
_cell_angle_alpha   109.48554876
_cell_angle_beta   109.32648638
_cell_angle_gamma   109.33803737
_symmetry_Int_Tables_number   1
_chemical_formula_structural   Ce2Y2O7
_chemical_formula_sum   'Ce8 Y8 O28'
_cell_volume   640.98039197
_cell_formula_units_Z   4
loop_
 _symmetry_equiv_pos_site_id
 _symmetry_equiv_pos_as_xyz
  1  'x, y, z'
loop_
 _atom_site_type_symbol
 _atom_site_label
 _atom_site_symmetry_multiplicity
 _atom_site_fract_x
 _atom_site_fract_y
 _atom_site_fract_z
 _atom_site_occupancy
  Ce  Ce0  1  0.226386  0.251790  0.993344  1
  Ce  Ce1  1  0.262691  0.755414  0.510965  1
  Ce  Ce2  1  0.729272  0.228886  0.475713  1
  Ce  Ce3  1  0.998943  0.251802  0.251809  1
  Ce  Ce4  1  0.767337  0.519365  0.278030  1
  Ce  Ce5  1  0.000962  0.004759  0.505909  1
  Ce  Ce6  1  0.250281  0.992734  0.243529  1
  Ce  Ce7  1  0.765430  0.741692  0.014112  1
  Y  Y8  1  0.744797  0.027200  0.749463  1
  Y  Y9  1  0.499000  0.991826  0.991164  1
  Y  Y10  1  0.000534  0.503987  0.022192  1
  Y  Y11  1  0.032358  0.777170  0.759116  1
  Y  Y12  1  0.258184  0.481365  0.733752  1
  Y  Y13  1  0.506815  0.256710  0.729275  1
  Y  Y14  1  0.481593  0.480056  0.476546  1
  Y  Y15  1  0.497152  0.744512  0.272475  1
  O  O16  1  0.278230  0.035788  0.996181  1
  O  O17  1  0.242437  0.513410  0.982408  1
  O  O18  1  0.992199  0.737769  0.974688  1
  O  O19  1  0.504319  0.031361  0.768598  1
  O  O20  1  0.265222  0.244259  0.761911  1
  O  O21  1  0.979013  0.991369  0.754179  1
  O  O22  1  0.523247  0.529325  0.759030  1
  O  O23  1  0.257143  0.731338  0.768524  1
  O  O24  1  0.773082  0.283341  0.742776  1
  O  O25  1  0.243731  0.487237  0.486639  1
  O  O26  1  0.013943  0.766921  0.509236  1
  O  O27  1  0.490215  0.236073  0.475780  1
  O  O28  1  0.517832  0.751552  0.523557  1
  O  O29  1  0.249780  0.001523  0.491832  1
  O  O30  1  0.232638  0.237323  0.237128  1
  O  O31  1  0.996877  0.262415  0.511766  1
  O  O32  1  0.775378  0.521259  0.535936  1
  O  O33  1  0.251028  0.750442  0.264141  1
  O  O34  1  0.728845  0.250068  0.229235  1
  O  O35  1  0.495378  0.476227  0.232126  1
  O  O36  1  0.000465  0.996727  0.253798  1
  O  O37  1  0.747338  0.003851  0.498990  1
  O  O38  1  0.739052  0.753628  0.244327  1
  O  O39  1  0.492237  0.968198  0.223201  1
  O  O40  1  0.004519  0.508889  0.269030  1
  O  O41  1  0.988600  0.254890  0.008179  1
  O  O42  1  0.734389  0.482931  0.013501  1
  O  O43  1  0.724928  0.946415  0.975912  1
