# generated using pymatgen
data_LiMn(PO3)4
_symmetry_space_group_name_H-M   'P 1'
_cell_length_a   8.40922678
_cell_length_b   9.39196917
_cell_length_c   12.81822609
_cell_angle_alpha   90.00000000
_cell_angle_beta   90.00000000
_cell_angle_gamma   90.00000000
_symmetry_Int_Tables_number   1
_chemical_formula_structural   LiMn(PO3)4
_chemical_formula_sum   'Li4 Mn4 P16 O48'
_cell_volume   1012.37322485
_cell_formula_units_Z   4
loop_
 _symmetry_equiv_pos_site_id
 _symmetry_equiv_pos_as_xyz
  1  'x, y, z'
loop_
 _atom_site_type_symbol
 _atom_site_label
 _atom_site_symmetry_multiplicity
 _atom_site_fract_x
 _atom_site_fract_y
 _atom_site_fract_z
 _atom_site_occupancy
  Li  Li0  1  0.002207  0.750000  0.000000  1
  Li  Li1  1  0.502207  0.750000  0.500000  1
  Li  Li2  1  0.497793  0.250000  0.500000  1
  Li  Li3  1  0.997793  0.250000  0.000000  1
  Mn  Mn4  1  0.373795  0.750000  0.000000  1
  Mn  Mn5  1  0.126205  0.250000  0.500000  1
  Mn  Mn6  1  0.873795  0.750000  0.500000  1
  Mn  Mn7  1  0.626205  0.250000  0.000000  1
  P  P8  1  0.464405  0.006639  0.148415  1
  P  P9  1  0.320138  0.497910  0.638234  1
  P  P10  1  0.964405  0.493361  0.648415  1
  P  P11  1  0.179862  0.502090  0.138234  1
  P  P12  1  0.535595  0.993361  0.851585  1
  P  P13  1  0.679862  0.997910  0.638234  1
  P  P14  1  0.035595  0.993361  0.648415  1
  P  P15  1  0.820138  0.002090  0.138234  1
  P  P16  1  0.535595  0.506639  0.148415  1
  P  P17  1  0.820138  0.497910  0.861766  1
  P  P18  1  0.179862  0.997910  0.861766  1
  P  P19  1  0.679862  0.502090  0.361766  1
  P  P20  1  0.035595  0.506639  0.351585  1
  P  P21  1  0.964405  0.006639  0.351585  1
  P  P22  1  0.464405  0.493361  0.851585  1
  P  P23  1  0.320138  0.002090  0.361766  1
  O  O24  1  0.370804  0.872999  0.121253  1
  O  O25  1  0.960568  0.374643  0.570383  1
  O  O26  1  0.596739  0.371284  0.394651  1
  O  O27  1  0.903261  0.628716  0.894651  1
  O  O28  1  0.812447  0.369783  0.933634  1
  O  O29  1  0.629196  0.127001  0.878747  1
  O  O30  1  0.870804  0.872999  0.378747  1
  O  O31  1  0.357956  0.463079  0.178116  1
  O  O32  1  0.403261  0.628716  0.605349  1
  O  O33  1  0.857956  0.036921  0.678116  1
  O  O34  1  0.857956  0.463079  0.321884  1
  O  O35  1  0.357956  0.036921  0.821884  1
  O  O36  1  0.539432  0.874643  0.929617  1
  O  O37  1  0.460568  0.374643  0.929617  1
  O  O38  1  0.394088  0.066589  0.254574  1
  O  O39  1  0.370804  0.627001  0.878747  1
  O  O40  1  0.596739  0.128716  0.605349  1
  O  O41  1  0.105912  0.933411  0.754574  1
  O  O42  1  0.394088  0.433411  0.745426  1
  O  O43  1  0.539432  0.625357  0.070383  1
  O  O44  1  0.605912  0.566589  0.254574  1
  O  O45  1  0.870804  0.627001  0.621253  1
  O  O46  1  0.687553  0.630217  0.433634  1
  O  O47  1  0.129196  0.127001  0.621253  1
  O  O48  1  0.142044  0.963079  0.321884  1
  O  O49  1  0.105912  0.566589  0.245426  1
  O  O50  1  0.129196  0.372999  0.378747  1
  O  O51  1  0.142044  0.536921  0.678116  1
  O  O52  1  0.642044  0.963079  0.178116  1
  O  O53  1  0.687553  0.869783  0.566366  1
  O  O54  1  0.960568  0.125357  0.429617  1
  O  O55  1  0.403261  0.871284  0.394651  1
  O  O56  1  0.039432  0.874643  0.570383  1
  O  O57  1  0.096739  0.371284  0.105349  1
  O  O58  1  0.187553  0.869783  0.933634  1
  O  O59  1  0.039432  0.625357  0.429617  1
  O  O60  1  0.312447  0.130217  0.433634  1
  O  O61  1  0.903261  0.871284  0.105349  1
  O  O62  1  0.605912  0.933411  0.745426  1
  O  O63  1  0.460568  0.125357  0.070383  1
  O  O64  1  0.642044  0.536921  0.821884  1
  O  O65  1  0.894088  0.066589  0.245426  1
  O  O66  1  0.894088  0.433411  0.754574  1
  O  O67  1  0.312447  0.369783  0.566366  1
  O  O68  1  0.812447  0.130217  0.066366  1
  O  O69  1  0.096739  0.128716  0.894651  1
  O  O70  1  0.629196  0.372999  0.121253  1
  O  O71  1  0.187553  0.630217  0.066366  1
