# generated using pymatgen
data_LiVP2O7
_symmetry_space_group_name_H-M   'P 1'
_cell_length_a   5.05126292
_cell_length_b   6.82017563
_cell_length_c   8.30927538
_cell_angle_alpha   67.95047573
_cell_angle_beta   87.63716777
_cell_angle_gamma   87.64803013
_symmetry_Int_Tables_number   1
_chemical_formula_structural   LiVP2O7
_chemical_formula_sum   'Li2 V2 P4 O14'
_cell_volume   264.99506994
_cell_formula_units_Z   2
loop_
 _symmetry_equiv_pos_site_id
 _symmetry_equiv_pos_as_xyz
  1  'x, y, z'
loop_
 _atom_site_type_symbol
 _atom_site_label
 _atom_site_symmetry_multiplicity
 _atom_site_fract_x
 _atom_site_fract_y
 _atom_site_fract_z
 _atom_site_occupancy
  Li  Li0  1  0.777890  0.183233  0.433650  1
  Li  Li1  1  0.286080  0.829626  0.001663  1
  V  V2  1  0.240423  0.224680  0.727349  1
  V  V3  1  0.757452  0.793894  0.272727  1
  P  P4  1  0.281271  0.455672  0.305958  1
  P  P5  1  0.233969  0.115783  0.172454  1
  P  P6  1  0.718283  0.544088  0.689823  1
  P  P7  1  0.768033  0.887264  0.829480  1
  O  O8  1  0.286624  0.352999  0.159209  1
  O  O9  1  0.285577  0.124078  0.988438  1
  O  O10  1  0.119394  0.661991  0.221342  1
  O  O11  1  0.065258  0.931231  0.792909  1
  O  O12  1  0.427899  0.962787  0.300061  1
  O  O13  1  0.895064  0.347078  0.769290  1
  O  O14  1  0.680722  0.853021  0.016883  1
  O  O15  1  0.833835  0.704869  0.520224  1
  O  O16  1  0.942077  0.073389  0.235245  1
  O  O17  1  0.145890  0.296474  0.469395  1
  O  O18  1  0.572347  0.492587  0.329829  1
  O  O19  1  0.715488  0.656892  0.829306  1
  O  O20  1  0.430399  0.490847  0.676576  1
  O  O21  1  0.592831  0.051529  0.692088  1
