# generated using pymatgen
data_CaSnPd
_symmetry_space_group_name_H-M   'P 1'
_cell_length_a   4.63028017
_cell_length_b   7.38116070
_cell_length_c   8.13435712
_cell_angle_alpha   90.00000000
_cell_angle_beta   90.00000000
_cell_angle_gamma   90.00000000
_symmetry_Int_Tables_number   1
_chemical_formula_structural   CaSnPd
_chemical_formula_sum   'Ca4 Sn4 Pd4'
_cell_volume   278.00663823
_cell_formula_units_Z   4
loop_
 _symmetry_equiv_pos_site_id
 _symmetry_equiv_pos_as_xyz
  1  'x, y, z'
loop_
 _atom_site_type_symbol
 _atom_site_label
 _atom_site_symmetry_multiplicity
 _atom_site_fract_x
 _atom_site_fract_y
 _atom_site_fract_z
 _atom_site_occupancy
  Ca  Ca0  1  0.750000  0.479813  0.813972  1
  Ca  Ca1  1  0.250000  0.520187  0.186028  1
  Ca  Ca2  1  0.250000  0.020187  0.313972  1
  Ca  Ca3  1  0.750000  0.979813  0.686028  1
  Sn  Sn4  1  0.750000  0.334597  0.429199  1
  Sn  Sn5  1  0.250000  0.665403  0.570801  1
  Sn  Sn6  1  0.750000  0.834597  0.070801  1
  Sn  Sn7  1  0.250000  0.165403  0.929199  1
  Pd  Pd8  1  0.750000  0.212480  0.110674  1
  Pd  Pd9  1  0.750000  0.712480  0.389326  1
  Pd  Pd10  1  0.250000  0.787520  0.889326  1
  Pd  Pd11  1  0.250000  0.287520  0.610674  1
