# generated using pymatgen
data_NiSbS
_symmetry_space_group_name_H-M   'P 1'
_cell_length_a   5.93398979
_cell_length_b   5.93398979
_cell_length_c   5.93398979
_cell_angle_alpha   90.00000000
_cell_angle_beta   90.00000000
_cell_angle_gamma   90.00000000
_symmetry_Int_Tables_number   1
_chemical_formula_structural   NiSbS
_chemical_formula_sum   'Ni4 Sb4 S4'
_cell_volume   208.94904195
_cell_formula_units_Z   4
loop_
 _symmetry_equiv_pos_site_id
 _symmetry_equiv_pos_as_xyz
  1  'x, y, z'
loop_
 _atom_site_type_symbol
 _atom_site_label
 _atom_site_symmetry_multiplicity
 _atom_site_fract_x
 _atom_site_fract_y
 _atom_site_fract_z
 _atom_site_occupancy
  Ni  Ni0  1  0.479634  0.979634  0.520366  1
  Ni  Ni1  1  0.979634  0.520366  0.479634  1
  Ni  Ni2  1  0.520366  0.479634  0.979634  1
  Ni  Ni3  1  0.020366  0.020366  0.020366  1
  Sb  Sb4  1  0.131582  0.631582  0.868418  1
  Sb  Sb5  1  0.631582  0.868418  0.131582  1
  Sb  Sb6  1  0.868418  0.131582  0.631582  1
  Sb  Sb7  1  0.368418  0.368418  0.368418  1
  S  S8  1  0.881326  0.381326  0.118674  1
  S  S9  1  0.381326  0.118674  0.881326  1
  S  S10  1  0.118674  0.881326  0.381326  1
  S  S11  1  0.618674  0.618674  0.618674  1
