# generated using pymatgen
data_Ga2NiO4
_symmetry_space_group_name_H-M   'P 1'
_cell_length_a   5.90791938
_cell_length_b   5.90791938
_cell_length_c   5.90791938
_cell_angle_alpha   120.48678105
_cell_angle_beta   119.20077916
_cell_angle_gamma   90.27438542
_symmetry_Int_Tables_number   1
_chemical_formula_structural   Ga2NiO4
_chemical_formula_sum   'Ga4 Ni2 O8'
_cell_volume   146.13006856
_cell_formula_units_Z   2
loop_
 _symmetry_equiv_pos_site_id
 _symmetry_equiv_pos_as_xyz
  1  'x, y, z'
loop_
 _atom_site_type_symbol
 _atom_site_label
 _atom_site_symmetry_multiplicity
 _atom_site_fract_x
 _atom_site_fract_y
 _atom_site_fract_z
 _atom_site_occupancy
  Ga  Ga0  1  0.117437  0.867437  0.750000  1
  Ga  Ga1  1  0.882563  0.132563  0.250000  1
  Ga  Ga2  1  0.000000  0.500000  1.000000  1
  Ga  Ga3  1  0.500000  0.500000  0.500000  1
  Ni  Ni4  1  0.500000  0.500000  0.000000  1
  Ni  Ni5  1  0.500000  0.000000  0.500000  1
  O  O6  1  0.753938  0.261852  0.992086  1
  O  O7  1  0.269765  0.261852  0.507914  1
  O  O8  1  0.748766  0.733838  0.985073  1
  O  O9  1  0.748766  0.263693  0.514927  1
  O  O10  1  0.251234  0.736307  0.485073  1
  O  O11  1  0.251234  0.266162  0.014927  1
  O  O12  1  0.730235  0.738148  0.492086  1
  O  O13  1  0.246062  0.738148  0.007914  1
