# generated using pymatgen
data_KCO3
_symmetry_space_group_name_H-M   'P 1'
_cell_length_a   7.30505779
_cell_length_b   11.09566634
_cell_length_c   8.54106090
_cell_angle_alpha   90.00000000
_cell_angle_beta   111.34591096
_cell_angle_gamma   90.00000000
_symmetry_Int_Tables_number   1
_chemical_formula_structural   KCO3
_chemical_formula_sum   'K8 C8 O24'
_cell_volume   644.80000080
_cell_formula_units_Z   8
loop_
 _symmetry_equiv_pos_site_id
 _symmetry_equiv_pos_as_xyz
  1  'x, y, z'
loop_
 _atom_site_type_symbol
 _atom_site_label
 _atom_site_symmetry_multiplicity
 _atom_site_fract_x
 _atom_site_fract_y
 _atom_site_fract_z
 _atom_site_occupancy
  K  K0  1  0.716706  0.158980  0.700332  1
  K  K1  1  0.783294  0.658980  0.299668  1
  K  K2  1  0.283294  0.841020  0.299668  1
  K  K3  1  0.216706  0.341020  0.700332  1
  K  K4  1  0.300900  0.908480  0.802575  1
  K  K5  1  0.199100  0.408480  0.197425  1
  K  K6  1  0.699100  0.091520  0.197425  1
  K  K7  1  0.800900  0.591520  0.802575  1
  C  C8  1  0.274793  0.129445  0.445444  1
  C  C9  1  0.672174  0.375502  0.038143  1
  C  C10  1  0.827826  0.875502  0.961857  1
  C  C11  1  0.327826  0.624498  0.961857  1
  C  C12  1  0.172174  0.124498  0.038143  1
  C  C13  1  0.774793  0.370555  0.445444  1
  C  C14  1  0.725207  0.870555  0.554556  1
  C  C15  1  0.225207  0.629445  0.554556  1
  O  O16  1  0.072645  0.157324  0.149343  1
  O  O17  1  0.427355  0.657324  0.850657  1
  O  O18  1  0.927355  0.842676  0.850657  1
  O  O19  1  0.572645  0.342676  0.149343  1
  O  O20  1  0.127835  0.077498  0.300814  1
  O  O21  1  0.372165  0.577498  0.699186  1
  O  O22  1  0.872165  0.922502  0.699186  1
  O  O23  1  0.627835  0.422502  0.300814  1
  O  O24  1  0.818596  0.445816  0.563169  1
  O  O25  1  0.293589  0.040296  0.077648  1
  O  O26  1  0.206411  0.540296  0.922352  1
  O  O27  1  0.706411  0.959704  0.922352  1
  O  O28  1  0.337163  0.233353  0.439189  1
  O  O29  1  0.162837  0.733353  0.560811  1
  O  O30  1  0.662837  0.766647  0.560811  1
  O  O31  1  0.837163  0.266647  0.439189  1
  O  O32  1  0.793589  0.459704  0.077648  1
  O  O33  1  0.318596  0.054184  0.563169  1
  O  O34  1  0.181404  0.554184  0.436831  1
  O  O35  1  0.681404  0.945816  0.436831  1
  O  O36  1  0.112300  0.192991  0.912637  1
  O  O37  1  0.387700  0.692991  0.087363  1
  O  O38  1  0.887700  0.807009  0.087363  1
  O  O39  1  0.612300  0.307009  0.912637  1
