# generated using pymatgen
data_Ce2CdS4
_symmetry_space_group_name_H-M   'P 1'
_cell_length_a   7.42815450
_cell_length_b   7.42815450
_cell_length_c   7.42815450
_cell_angle_alpha   110.80503404
_cell_angle_beta   110.80503404
_cell_angle_gamma   106.83531566
_symmetry_Int_Tables_number   1
_chemical_formula_structural   Ce2CdS4
_chemical_formula_sum   'Ce4 Cd2 S8'
_cell_volume   315.01770637
_cell_formula_units_Z   2
loop_
 _symmetry_equiv_pos_site_id
 _symmetry_equiv_pos_as_xyz
  1  'x, y, z'
loop_
 _atom_site_type_symbol
 _atom_site_label
 _atom_site_symmetry_multiplicity
 _atom_site_fract_x
 _atom_site_fract_y
 _atom_site_fract_z
 _atom_site_occupancy
  Ce  Ce0  1  0.235959  0.625000  0.110959  1
  Ce  Ce1  1  0.375000  0.485959  0.610959  1
  Ce  Ce2  1  0.514041  0.125000  0.889041  1
  Ce  Ce3  1  0.875000  0.764041  0.389041  1
  Cd  Cd4  1  0.750000  0.250000  0.500000  1
  Cd  Cd5  1  1.000000  1.000000  0.000000  1
  S  S6  1  0.132515  0.754023  0.762883  1
  S  S7  1  0.119632  0.241139  0.737117  1
  S  S8  1  0.245977  0.008861  0.378493  1
  S  S9  1  0.504023  0.382515  0.262883  1
  S  S10  1  0.758861  0.495977  0.878493  1
  S  S11  1  0.617485  0.880368  0.121507  1
  S  S12  1  0.630368  0.867485  0.621507  1
  S  S13  1  0.991139  0.369632  0.237117  1
