# generated using pymatgen
data_TiNiO6
_symmetry_space_group_name_H-M   'P 1'
_cell_length_a   5.61493651
_cell_length_b   5.61493651
_cell_length_c   5.61493651
_cell_angle_alpha   52.47920930
_cell_angle_beta   52.47920930
_cell_angle_gamma   52.47920930
_symmetry_Int_Tables_number   1
_chemical_formula_structural   TiNiO6
_chemical_formula_sum   'Ti1 Ni1 O6'
_cell_volume   103.07349345
_cell_formula_units_Z   1
loop_
 _symmetry_equiv_pos_site_id
 _symmetry_equiv_pos_as_xyz
  1  'x, y, z'
loop_
 _atom_site_type_symbol
 _atom_site_label
 _atom_site_symmetry_multiplicity
 _atom_site_fract_x
 _atom_site_fract_y
 _atom_site_fract_z
 _atom_site_occupancy
  Ti  Ti0  1  0.137911  0.137911  0.137911  1
  Ni  Ni1  1  0.347793  0.347793  0.347793  1
  O  O2  1  0.254273  0.514355  0.999234  1
  O  O3  1  0.999234  0.254273  0.514355  1
  O  O4  1  0.514355  0.999234  0.254273  1
  O  O5  1  0.401891  0.118872  0.732871  1
  O  O6  1  0.118872  0.732871  0.401891  1
  O  O7  1  0.732871  0.401891  0.118872  1
