# generated using pymatgen
data_Ga(SbCl)4
_symmetry_space_group_name_H-M   'P 1'
_cell_length_a   10.13157373
_cell_length_b   13.52340165
_cell_length_c   18.30142323
_cell_angle_alpha   90.00000000
_cell_angle_beta   90.00000000
_cell_angle_gamma   90.00000000
_symmetry_Int_Tables_number   1
_chemical_formula_structural   Ga(SbCl)4
_chemical_formula_sum   'Ga8 Sb32 Cl32'
_cell_volume   2507.53913992
_cell_formula_units_Z   8
loop_
 _symmetry_equiv_pos_site_id
 _symmetry_equiv_pos_as_xyz
  1  'x, y, z'
loop_
 _atom_site_type_symbol
 _atom_site_label
 _atom_site_symmetry_multiplicity
 _atom_site_fract_x
 _atom_site_fract_y
 _atom_site_fract_z
 _atom_site_occupancy
  Ga  Ga0  1  0.536493  0.377871  0.819185  1
  Ga  Ga1  1  0.463507  0.877871  0.180815  1
  Ga  Ga2  1  0.963507  0.377871  0.319185  1
  Ga  Ga3  1  0.036493  0.877871  0.680815  1
  Ga  Ga4  1  0.512540  0.065403  0.502240  1
  Ga  Ga5  1  0.487460  0.565403  0.497760  1
  Ga  Ga6  1  0.987460  0.065403  0.002240  1
  Ga  Ga7  1  0.012540  0.565403  0.997760  1
  Sb  Sb8  1  0.889606  0.178145  0.676954  1
  Sb  Sb9  1  0.110394  0.678145  0.323046  1
  Sb  Sb10  1  0.610394  0.178145  0.176954  1
  Sb  Sb11  1  0.389606  0.678145  0.823046  1
  Sb  Sb12  1  0.061437  0.239572  0.550891  1
  Sb  Sb13  1  0.938563  0.739572  0.449109  1
  Sb  Sb14  1  0.438563  0.239572  0.050891  1
  Sb  Sb15  1  0.561437  0.739572  0.949109  1
  Sb  Sb16  1  0.967747  0.318780  0.791255  1
  Sb  Sb17  1  0.032253  0.818780  0.208745  1
  Sb  Sb18  1  0.532253  0.318780  0.291255  1
  Sb  Sb19  1  0.467747  0.818780  0.708745  1
  Sb  Sb20  1  0.050671  0.456090  0.565136  1
  Sb  Sb21  1  0.949329  0.956090  0.434864  1
  Sb  Sb22  1  0.449329  0.456090  0.065136  1
  Sb  Sb23  1  0.550671  0.956090  0.934864  1
  Sb  Sb24  1  0.179008  0.225702  0.696652  1
  Sb  Sb25  1  0.820992  0.725702  0.303348  1
  Sb  Sb26  1  0.320992  0.225702  0.196652  1
  Sb  Sb27  1  0.679008  0.725702  0.803348  1
  Sb  Sb28  1  0.874343  0.479391  0.695803  1
  Sb  Sb29  1  0.125657  0.979391  0.304197  1
  Sb  Sb30  1  0.625657  0.479391  0.195803  1
  Sb  Sb31  1  0.374343  0.979391  0.804197  1
  Sb  Sb32  1  0.798054  0.338444  0.582198  1
  Sb  Sb33  1  0.201946  0.838444  0.417802  1
  Sb  Sb34  1  0.701946  0.338444  0.082198  1
  Sb  Sb35  1  0.298054  0.838444  0.917802  1
  Sb  Sb36  1  0.168334  0.441013  0.710983  1
  Sb  Sb37  1  0.831666  0.941013  0.289017  1
  Sb  Sb38  1  0.331666  0.441013  0.210983  1
  Sb  Sb39  1  0.668334  0.941013  0.789017  1
  Cl  Cl40  1  0.538328  0.904359  0.497077  1
  Cl  Cl41  1  0.461672  0.404359  0.502923  1
  Cl  Cl42  1  0.961672  0.904359  0.997077  1
  Cl  Cl43  1  0.038328  0.404359  0.002923  1
  Cl  Cl44  1  0.346297  0.376635  0.877733  1
  Cl  Cl45  1  0.653703  0.876635  0.122267  1
  Cl  Cl46  1  0.153703  0.376635  0.377733  1
  Cl  Cl47  1  0.846297  0.876635  0.622267  1
  Cl  Cl48  1  0.601506  0.224917  0.801352  1
  Cl  Cl49  1  0.398494  0.724917  0.198648  1
  Cl  Cl50  1  0.898494  0.224917  0.301352  1
  Cl  Cl51  1  0.101506  0.724917  0.698648  1
  Cl  Cl52  1  0.325349  0.107717  0.447657  1
  Cl  Cl53  1  0.674651  0.607717  0.552343  1
  Cl  Cl54  1  0.174651  0.107717  0.947657  1
  Cl  Cl55  1  0.825349  0.607717  0.052343  1
  Cl  Cl56  1  0.510998  0.117312  0.616673  1
  Cl  Cl57  1  0.489002  0.617312  0.383327  1
  Cl  Cl58  1  0.989002  0.117312  0.116673  1
  Cl  Cl59  1  0.010998  0.617312  0.883327  1
  Cl  Cl60  1  0.679287  0.138447  0.445376  1
  Cl  Cl61  1  0.320713  0.638447  0.554624  1
  Cl  Cl62  1  0.820713  0.138447  0.945376  1
  Cl  Cl63  1  0.179287  0.638447  0.054624  1
  Cl  Cl64  1  0.511099  0.451714  0.712283  1
  Cl  Cl65  1  0.488901  0.951714  0.287717  1
  Cl  Cl66  1  0.988901  0.451714  0.212283  1
  Cl  Cl67  1  0.011099  0.951714  0.787717  1
  Cl  Cl68  1  0.683466  0.461568  0.882831  1
  Cl  Cl69  1  0.316534  0.961568  0.117169  1
  Cl  Cl70  1  0.816534  0.461568  0.382831  1
  Cl  Cl71  1  0.183466  0.961568  0.617169  1
