# generated using pymatgen
data_Na4TlAu
_symmetry_space_group_name_H-M   'P 1'
_cell_length_a   12.92631164
_cell_length_b   12.21714868
_cell_length_c   5.75867628
_cell_angle_alpha   83.74468707
_cell_angle_beta   69.96958027
_cell_angle_gamma   26.28573266
_symmetry_Int_Tables_number   1
_chemical_formula_structural   Na4TlAu
_chemical_formula_sum   'Na8 Tl2 Au2'
_cell_volume   332.71295340
_cell_formula_units_Z   2
loop_
 _symmetry_equiv_pos_site_id
 _symmetry_equiv_pos_as_xyz
  1  'x, y, z'
loop_
 _atom_site_type_symbol
 _atom_site_label
 _atom_site_symmetry_multiplicity
 _atom_site_fract_x
 _atom_site_fract_y
 _atom_site_fract_z
 _atom_site_occupancy
  Na  Na0  1  0.294508  0.294508  0.705492  1
  Na  Na1  1  0.836221  0.163779  0.836221  1
  Na  Na2  1  0.029300  0.695363  0.304637  1
  Na  Na3  1  0.970700  0.304637  0.695363  1
  Na  Na4  1  0.304637  0.970700  0.029300  1
  Na  Na5  1  0.695363  0.029300  0.970700  1
  Na  Na6  1  0.705492  0.705492  0.294508  1
  Na  Na7  1  0.163779  0.836221  0.163779  1
  Tl  Tl8  1  0.433704  0.433704  0.566296  1
  Tl  Tl9  1  0.566296  0.566296  0.433704  1
  Au  Au10  1  0.750000  0.750000  0.750000  1
  Au  Au11  1  0.250000  0.250000  0.250000  1
