# generated using pymatgen
data_La2CdSe4
_symmetry_space_group_name_H-M   'P 1'
_cell_length_a   7.87427850
_cell_length_b   7.87427850
_cell_length_c   7.87427850
_cell_angle_alpha   110.88918884
_cell_angle_beta   110.88918884
_cell_angle_gamma   106.67105258
_symmetry_Int_Tables_number   1
_chemical_formula_structural   La2CdSe4
_chemical_formula_sum   'La4 Cd2 Se8'
_cell_volume   375.17730725
_cell_formula_units_Z   2
loop_
 _symmetry_equiv_pos_site_id
 _symmetry_equiv_pos_as_xyz
  1  'x, y, z'
loop_
 _atom_site_type_symbol
 _atom_site_label
 _atom_site_symmetry_multiplicity
 _atom_site_fract_x
 _atom_site_fract_y
 _atom_site_fract_z
 _atom_site_occupancy
  La  La0  1  0.736957  0.125000  0.111957  1
  La  La1  1  0.875000  0.986957  0.611957  1
  La  La2  1  0.013043  0.625000  0.888043  1
  La  La3  1  0.375000  0.263043  0.388043  1
  Cd  Cd4  1  0.250000  0.750000  0.500000  1
  Cd  Cd5  1  0.500000  0.500000  0.000000  1
  Se  Se6  1  0.120043  0.384306  0.125476  1
  Se  Se7  1  0.744567  0.508831  0.374524  1
  Se  Se8  1  0.005433  0.879957  0.264263  1
  Se  Se9  1  0.258831  0.994567  0.874524  1
  Se  Se10  1  0.134306  0.370043  0.625476  1
  Se  Se11  1  0.629957  0.255433  0.764263  1
  Se  Se12  1  0.491169  0.865694  0.235737  1
  Se  Se13  1  0.615694  0.741169  0.735737  1
