# generated using pymatgen
data_Sr2Nb2O7
_symmetry_space_group_name_H-M   'P 1'
_cell_length_a   13.81770121
_cell_length_b   13.81770121
_cell_length_c   5.82777990
_cell_angle_alpha   90.00000000
_cell_angle_beta   90.00000000
_cell_angle_gamma   163.34848325
_symmetry_Int_Tables_number   1
_chemical_formula_structural   Sr2Nb2O7
_chemical_formula_sum   'Sr4 Nb4 O14'
_cell_volume   318.84162963
_cell_formula_units_Z   2
loop_
 _symmetry_equiv_pos_site_id
 _symmetry_equiv_pos_as_xyz
  1  'x, y, z'
loop_
 _atom_site_type_symbol
 _atom_site_label
 _atom_site_symmetry_multiplicity
 _atom_site_fract_x
 _atom_site_fract_y
 _atom_site_fract_z
 _atom_site_occupancy
  Sr  Sr0  1  0.709129  0.290871  0.960208  1
  Sr  Sr1  1  0.290871  0.709129  0.460208  1
  Sr  Sr2  1  0.550935  0.449065  0.524184  1
  Sr  Sr3  1  0.449065  0.550935  0.024184  1
  Nb  Nb4  1  0.161176  0.838824  0.495643  1
  Nb  Nb5  1  0.838824  0.161176  0.995643  1
  Nb  Nb6  1  0.941525  0.058475  0.527207  1
  Nb  Nb7  1  0.058475  0.941525  0.027207  1
  O  O8  1  0.548399  0.451601  0.061275  1
  O  O9  1  0.451601  0.548399  0.561275  1
  O  O10  1  0.092235  0.907765  0.336427  1
  O  O11  1  0.907765  0.092235  0.836427  1
  O  O12  1  0.199271  0.800729  0.233009  1
  O  O13  1  0.800729  0.199271  0.733009  1
  O  O14  1  0.785522  0.214478  0.207394  1
  O  O15  1  0.214478  0.785522  0.707394  1
  O  O16  1  0.008517  0.991483  0.782569  1
  O  O17  1  0.991483  0.008517  0.282569  1
  O  O18  1  0.111191  0.888809  0.828535  1
  O  O19  1  0.888809  0.111191  0.328535  1
  O  O20  1  0.650475  0.349525  0.533429  1
  O  O21  1  0.349525  0.650475  0.033429  1
