# generated using pymatgen
data_Tb3ReO7
_symmetry_space_group_name_H-M   'P 1'
_cell_length_a   6.48227995
_cell_length_b   6.48227995
_cell_length_c   7.46541035
_cell_angle_alpha   90.00000000
_cell_angle_beta   90.00000000
_cell_angle_gamma   109.91978994
_symmetry_Int_Tables_number   1
_chemical_formula_structural   Tb3ReO7
_chemical_formula_sum   'Tb6 Re2 O14'
_cell_volume   294.92790952
_cell_formula_units_Z   2
loop_
 _symmetry_equiv_pos_site_id
 _symmetry_equiv_pos_as_xyz
  1  'x, y, z'
loop_
 _atom_site_type_symbol
 _atom_site_label
 _atom_site_symmetry_multiplicity
 _atom_site_fract_x
 _atom_site_fract_y
 _atom_site_fract_z
 _atom_site_occupancy
  Tb  Tb0  1  0.500000  0.500000  1.000000  1
  Tb  Tb1  1  0.500000  0.500000  0.500000  1
  Tb  Tb2  1  0.445108  0.980501  0.750000  1
  Tb  Tb3  1  0.554892  0.019499  0.250000  1
  Tb  Tb4  1  0.980501  0.445108  0.750000  1
  Tb  Tb5  1  0.019499  0.554892  0.250000  1
  Re  Re6  1  0.000000  0.000000  0.000000  1
  Re  Re7  1  0.000000  0.000000  0.500000  1
  O  O8  1  0.612228  0.345235  0.750000  1
  O  O9  1  0.387772  0.654765  0.250000  1
  O  O10  1  0.345235  0.612228  0.750000  1
  O  O11  1  0.654765  0.387772  0.250000  1
  O  O12  1  0.323132  0.069588  0.028927  1
  O  O13  1  0.676868  0.930412  0.528927  1
  O  O14  1  0.069588  0.323132  0.471073  1
  O  O15  1  0.930412  0.676868  0.971073  1
  O  O16  1  0.950177  0.950177  0.250000  1
  O  O17  1  0.049823  0.049823  0.750000  1
  O  O18  1  0.069588  0.323132  0.028927  1
  O  O19  1  0.930412  0.676868  0.528927  1
  O  O20  1  0.323132  0.069588  0.471073  1
  O  O21  1  0.676868  0.930412  0.971073  1
