# generated using pymatgen
data_Be(CN)2
_symmetry_space_group_name_H-M   'P 1'
_cell_length_a   5.36482135
_cell_length_b   5.36482135
_cell_length_c   5.37336555
_cell_angle_alpha   90.00000000
_cell_angle_beta   90.00000000
_cell_angle_gamma   90.00000000
_symmetry_Int_Tables_number   1
_chemical_formula_structural   Be(CN)2
_chemical_formula_sum   'Be2 C4 N4'
_cell_volume   154.65248952
_cell_formula_units_Z   2
loop_
 _symmetry_equiv_pos_site_id
 _symmetry_equiv_pos_as_xyz
  1  'x, y, z'
loop_
 _atom_site_type_symbol
 _atom_site_label
 _atom_site_symmetry_multiplicity
 _atom_site_fract_x
 _atom_site_fract_y
 _atom_site_fract_z
 _atom_site_occupancy
  Be  Be0  1  0.000000  0.000000  0.243634  1
  Be  Be1  1  0.500000  0.500000  0.743634  1
  C  C2  1  0.807737  0.807737  0.438817  1
  C  C3  1  0.192263  0.192263  0.438817  1
  C  C4  1  0.307737  0.692263  0.938817  1
  C  C5  1  0.692263  0.307737  0.938817  1
  N  N6  1  0.817432  0.182568  0.064366  1
  N  N7  1  0.182568  0.817432  0.064366  1
  N  N8  1  0.317432  0.317432  0.564366  1
  N  N9  1  0.682568  0.682568  0.564366  1
