# generated using pymatgen
data_LiTiO2
_symmetry_space_group_name_H-M   'P 1'
_cell_length_a   5.13127518
_cell_length_b   5.13127518
_cell_length_c   5.13127518
_cell_angle_alpha   133.03278782
_cell_angle_beta   133.03278782
_cell_angle_gamma   68.60266122
_symmetry_Int_Tables_number   1
_chemical_formula_structural   LiTiO2
_chemical_formula_sum   'Li2 Ti2 O4'
_cell_volume   70.89054566
_cell_formula_units_Z   2
loop_
 _symmetry_equiv_pos_site_id
 _symmetry_equiv_pos_as_xyz
  1  'x, y, z'
loop_
 _atom_site_type_symbol
 _atom_site_label
 _atom_site_symmetry_multiplicity
 _atom_site_fract_x
 _atom_site_fract_y
 _atom_site_fract_z
 _atom_site_occupancy
  Li  Li0  1  0.000000  0.000000  0.000000  1
  Li  Li1  1  0.750000  0.250000  0.500000  1
  Ti  Ti2  1  0.500000  0.500000  0.000000  1
  Ti  Ti3  1  0.250000  0.750000  0.500000  1
  O  O4  1  0.750194  0.750194  0.000000  1
  O  O5  1  0.999806  0.499806  0.500000  1
  O  O6  1  0.500194  0.000194  0.500000  1
  O  O7  1  0.249806  0.249806  0.000000  1
