# generated using pymatgen
data_Ca3(GaPt)2
_symmetry_space_group_name_H-M   'P 1'
_cell_length_a   5.80857676
_cell_length_b   7.92890988
_cell_length_c   13.91376711
_cell_angle_alpha   90.00000000
_cell_angle_beta   90.00000000
_cell_angle_gamma   90.00000000
_symmetry_Int_Tables_number   1
_chemical_formula_structural   Ca3(GaPt)2
_chemical_formula_sum   'Ca12 Ga8 Pt8'
_cell_volume   640.80802872
_cell_formula_units_Z   4
loop_
 _symmetry_equiv_pos_site_id
 _symmetry_equiv_pos_as_xyz
  1  'x, y, z'
loop_
 _atom_site_type_symbol
 _atom_site_label
 _atom_site_symmetry_multiplicity
 _atom_site_fract_x
 _atom_site_fract_y
 _atom_site_fract_z
 _atom_site_occupancy
  Ca  Ca0  1  0.143026  0.606865  0.098438  1
  Ca  Ca1  1  0.143026  0.893135  0.901562  1
  Ca  Ca2  1  0.856974  0.106865  0.401562  1
  Ca  Ca3  1  0.856974  0.393135  0.598438  1
  Ca  Ca4  1  0.856974  0.393135  0.901562  1
  Ca  Ca5  1  0.856974  0.106865  0.098438  1
  Ca  Ca6  1  0.143026  0.893135  0.598438  1
  Ca  Ca7  1  0.143026  0.606865  0.401562  1
  Ca  Ca8  1  0.370924  0.257277  0.250000  1
  Ca  Ca9  1  0.370924  0.242723  0.750000  1
  Ca  Ca10  1  0.629076  0.757277  0.250000  1
  Ca  Ca11  1  0.629076  0.742723  0.750000  1
  Ga  Ga12  1  0.378043  0.250000  0.000000  1
  Ga  Ga13  1  0.621957  0.750000  0.500000  1
  Ga  Ga14  1  0.621957  0.750000  0.000000  1
  Ga  Ga15  1  0.378043  0.250000  0.500000  1
  Ga  Ga16  1  0.858142  0.408352  0.250000  1
  Ga  Ga17  1  0.858142  0.091648  0.750000  1
  Ga  Ga18  1  0.141858  0.908352  0.250000  1
  Ga  Ga19  1  0.141858  0.591648  0.750000  1
  Pt  Pt20  1  0.639009  0.468467  0.094080  1
  Pt  Pt21  1  0.639009  0.031533  0.905920  1
  Pt  Pt22  1  0.360991  0.968467  0.405920  1
  Pt  Pt23  1  0.360991  0.531533  0.594080  1
  Pt  Pt24  1  0.360991  0.531533  0.905920  1
  Pt  Pt25  1  0.360991  0.968467  0.094080  1
  Pt  Pt26  1  0.639009  0.031533  0.594080  1
  Pt  Pt27  1  0.639009  0.468467  0.405920  1
