# generated using pymatgen
data_DyBiRh
_symmetry_space_group_name_H-M   'P 1'
_cell_length_a   7.68152311
_cell_length_b   7.68152311
_cell_length_c   3.99006181
_cell_angle_alpha   90.00000000
_cell_angle_beta   90.00000000
_cell_angle_gamma   120.00000000
_symmetry_Int_Tables_number   1
_chemical_formula_structural   DyBiRh
_chemical_formula_sum   'Dy3 Bi3 Rh3'
_cell_volume   203.89423089
_cell_formula_units_Z   3
loop_
 _symmetry_equiv_pos_site_id
 _symmetry_equiv_pos_as_xyz
  1  'x, y, z'
loop_
 _atom_site_type_symbol
 _atom_site_label
 _atom_site_symmetry_multiplicity
 _atom_site_fract_x
 _atom_site_fract_y
 _atom_site_fract_z
 _atom_site_occupancy
  Dy  Dy0  1  0.600756  0.000000  0.000000  1
  Dy  Dy1  1  0.399244  0.399244  0.000000  1
  Dy  Dy2  1  0.000000  0.600756  0.000000  1
  Bi  Bi3  1  0.265646  0.000000  0.500000  1
  Bi  Bi4  1  0.734354  0.734354  0.500000  1
  Bi  Bi5  1  0.000000  0.265646  0.500000  1
  Rh  Rh6  1  0.666667  0.333333  0.500000  1
  Rh  Rh7  1  0.000000  0.000000  0.000000  1
  Rh  Rh8  1  0.333333  0.666667  0.500000  1
