# generated using pymatgen
data_Ag2S
_symmetry_space_group_name_H-M   'P 1'
_cell_length_a   4.43547600
_cell_length_b   4.61998912
_cell_length_c   9.80554118
_cell_angle_alpha   99.78439153
_cell_angle_beta   98.19773159
_cell_angle_gamma   94.86924124
_symmetry_Int_Tables_number   1
_chemical_formula_structural   Ag2S
_chemical_formula_sum   'Ag6 S3'
_cell_volume   194.75746272
_cell_formula_units_Z   3
loop_
 _symmetry_equiv_pos_site_id
 _symmetry_equiv_pos_as_xyz
  1  'x, y, z'
loop_
 _atom_site_type_symbol
 _atom_site_label
 _atom_site_symmetry_multiplicity
 _atom_site_fract_x
 _atom_site_fract_y
 _atom_site_fract_z
 _atom_site_occupancy
  Ag  Ag0  1  0.225664  0.681364  0.815919  1
  Ag  Ag1  1  0.756021  0.117128  0.782545  1
  Ag  Ag2  1  0.894279  0.475461  0.097427  1
  Ag  Ag3  1  0.559990  0.008446  0.471780  1
  Ag  Ag4  1  0.101909  0.450941  0.446061  1
  Ag  Ag5  1  0.487155  0.929713  0.158789  1
  S  S6  1  0.258376  0.219408  0.657446  1
  S  S7  1  0.606223  0.537256  0.315732  1
  S  S8  1  0.985384  0.955282  0.004301  1
