# generated using pymatgen
data_Al(MoS2)4
_symmetry_space_group_name_H-M   'P 1'
_cell_length_a   6.93850977
_cell_length_b   6.93850977
_cell_length_c   6.93850977
_cell_angle_alpha   60.00000000
_cell_angle_beta   60.00000000
_cell_angle_gamma   60.00000000
_symmetry_Int_Tables_number   1
_chemical_formula_structural   Al(MoS2)4
_chemical_formula_sum   'Al1 Mo4 S8'
_cell_volume   236.20202396
_cell_formula_units_Z   1
loop_
 _symmetry_equiv_pos_site_id
 _symmetry_equiv_pos_as_xyz
  1  'x, y, z'
loop_
 _atom_site_type_symbol
 _atom_site_label
 _atom_site_symmetry_multiplicity
 _atom_site_fract_x
 _atom_site_fract_y
 _atom_site_fract_z
 _atom_site_occupancy
  Al  Al0  1  0.000000  0.000000  0.000000  1
  Mo  Mo1  1  0.192867  0.602378  0.602378  1
  Mo  Mo2  1  0.602378  0.602378  0.192867  1
  Mo  Mo3  1  0.602378  0.602378  0.602378  1
  Mo  Mo4  1  0.602378  0.192867  0.602378  1
  S  S5  1  0.403600  0.865467  0.865467  1
  S  S6  1  0.865467  0.865467  0.403600  1
  S  S7  1  0.865467  0.865467  0.865467  1
  S  S8  1  0.366541  0.900378  0.366541  1
  S  S9  1  0.366541  0.366541  0.366541  1
  S  S10  1  0.366541  0.366541  0.900378  1
  S  S11  1  0.900378  0.366541  0.366541  1
  S  S12  1  0.865467  0.403600  0.865467  1
