# generated using pymatgen
data_Li2Fe(PO3)4
_symmetry_space_group_name_H-M   'P 1'
_cell_length_a   8.51873489
_cell_length_b   8.51873489
_cell_length_c   7.47816237
_cell_angle_alpha   85.72954351
_cell_angle_beta   94.27045649
_cell_angle_gamma   65.65888772
_symmetry_Int_Tables_number   1
_chemical_formula_structural   Li2Fe(PO3)4
_chemical_formula_sum   'Li4 Fe2 P8 O24'
_cell_volume   489.75518642
_cell_formula_units_Z   2
loop_
 _symmetry_equiv_pos_site_id
 _symmetry_equiv_pos_as_xyz
  1  'x, y, z'
loop_
 _atom_site_type_symbol
 _atom_site_label
 _atom_site_symmetry_multiplicity
 _atom_site_fract_x
 _atom_site_fract_y
 _atom_site_fract_z
 _atom_site_occupancy
  Li  Li0  1  0.485900  0.814523  0.789834  1
  Li  Li1  1  0.514100  0.185477  0.210166  1
  Li  Li2  1  0.814523  0.485900  0.710166  1
  Li  Li3  1  0.185477  0.514100  0.289834  1
  Fe  Fe4  1  0.865126  0.865126  0.250000  1
  Fe  Fe5  1  0.134874  0.134874  0.750000  1
  P  P6  1  0.442927  0.231114  0.619095  1
  P  P7  1  0.789579  0.065241  0.831685  1
  P  P8  1  0.065241  0.789579  0.668315  1
  P  P9  1  0.768886  0.557073  0.119095  1
  P  P10  1  0.231114  0.442927  0.880905  1
  P  P11  1  0.934759  0.210421  0.331685  1
  P  P12  1  0.557073  0.768886  0.380905  1
  P  P13  1  0.210421  0.934759  0.168315  1
  O  O14  1  0.612897  0.909733  0.319408  1
  O  O15  1  0.167903  0.646790  0.838844  1
  O  O16  1  0.293213  0.964823  0.005994  1
  O  O17  1  0.706787  0.035177  0.994006  1
  O  O18  1  0.381669  0.381669  0.750000  1
  O  O19  1  0.964823  0.293213  0.494006  1
  O  O20  1  0.353210  0.832097  0.338844  1
  O  O21  1  0.909733  0.612897  0.180592  1
  O  O22  1  0.035177  0.706787  0.505994  1
  O  O23  1  0.095525  0.840505  0.152815  1
  O  O24  1  0.090267  0.387103  0.819408  1
  O  O25  1  0.618331  0.618331  0.250000  1
  O  O26  1  0.688134  0.605803  0.926401  1
  O  O27  1  0.605803  0.688134  0.573599  1
  O  O28  1  0.832097  0.353210  0.161156  1
  O  O29  1  0.904475  0.159495  0.847185  1
  O  O30  1  0.311866  0.394197  0.073599  1
  O  O31  1  0.387103  0.090267  0.680592  1
  O  O32  1  0.116337  0.116337  0.250000  1
  O  O33  1  0.840505  0.095525  0.347185  1
  O  O34  1  0.883663  0.883663  0.750000  1
  O  O35  1  0.159495  0.904475  0.652815  1
  O  O36  1  0.646790  0.167903  0.661156  1
  O  O37  1  0.394197  0.311866  0.426401  1
