# generated using pymatgen
data_Mn2SnO4
_symmetry_space_group_name_H-M   'P 1'
_cell_length_a   6.39578968
_cell_length_b   6.39578968
_cell_length_c   6.39578968
_cell_angle_alpha   120.79387435
_cell_angle_beta   119.71208538
_cell_angle_gamma   89.56495436
_symmetry_Int_Tables_number   1
_chemical_formula_structural   Mn2SnO4
_chemical_formula_sum   'Mn4 Sn2 O8'
_cell_volume   184.26433337
_cell_formula_units_Z   2
loop_
 _symmetry_equiv_pos_site_id
 _symmetry_equiv_pos_as_xyz
  1  'x, y, z'
loop_
 _atom_site_type_symbol
 _atom_site_label
 _atom_site_symmetry_multiplicity
 _atom_site_fract_x
 _atom_site_fract_y
 _atom_site_fract_z
 _atom_site_occupancy
  Mn  Mn0  1  0.889568  0.639568  0.750000  1
  Mn  Mn1  1  0.110432  0.360432  0.250000  1
  Mn  Mn2  1  0.500000  0.000000  0.500000  1
  Mn  Mn3  1  0.500000  0.500000  0.000000  1
  Sn  Sn4  1  0.000000  0.000000  0.500000  1
  Sn  Sn5  1  0.500000  0.000000  1.000000  1
  O  O6  1  0.250717  0.774753  0.524036  1
  O  O7  1  0.250717  0.226681  0.975964  1
  O  O8  1  0.242770  0.227314  0.515456  1
  O  O9  1  0.711858  0.227314  0.984544  1
  O  O10  1  0.288142  0.772686  0.015456  1
  O  O11  1  0.757230  0.772686  0.484544  1
  O  O12  1  0.749283  0.773319  0.024036  1
  O  O13  1  0.749283  0.225247  0.475964  1
