# generated using pymatgen
data_Zr2Ga3
_symmetry_space_group_name_H-M   'P 1'
_cell_length_a   8.40206525
_cell_length_b   7.46169823
_cell_length_c   5.51056161
_cell_angle_alpha   79.17234799
_cell_angle_beta   60.72331316
_cell_angle_gamma   40.10433885
_symmetry_Int_Tables_number   1
_chemical_formula_structural   Zr2Ga3
_chemical_formula_sum   'Zr4 Ga6'
_cell_volume   183.15661969
_cell_formula_units_Z   2
loop_
 _symmetry_equiv_pos_site_id
 _symmetry_equiv_pos_as_xyz
  1  'x, y, z'
loop_
 _atom_site_type_symbol
 _atom_site_label
 _atom_site_symmetry_multiplicity
 _atom_site_fract_x
 _atom_site_fract_y
 _atom_site_fract_z
 _atom_site_occupancy
  Zr  Zr0  1  0.137368  0.467215  0.001193  1
  Zr  Zr1  1  0.394223  0.001193  0.467215  1
  Zr  Zr2  1  0.248807  0.855777  0.112632  1
  Zr  Zr3  1  0.782785  0.112632  0.855777  1
  Ga  Ga4  1  0.646681  0.853319  0.853319  1
  Ga  Ga5  1  0.396681  0.603319  0.603319  1
  Ga  Ga6  1  0.731217  0.038957  0.409315  1
  Ga  Ga7  1  0.820511  0.409315  0.038957  1
  Ga  Ga8  1  0.840685  0.429489  0.518783  1
  Ga  Ga9  1  0.211043  0.518783  0.429489  1
