# generated using pymatgen
data_CoP2O7
_symmetry_space_group_name_H-M   'P 1'
_cell_length_a   6.81432643
_cell_length_b   7.82543679
_cell_length_c   9.21354836
_cell_angle_alpha   90.00000000
_cell_angle_beta   109.46079017
_cell_angle_gamma   90.00000000
_symmetry_Int_Tables_number   1
_chemical_formula_structural   CoP2O7
_chemical_formula_sum   'Co4 P8 O28'
_cell_volume   463.24434279
_cell_formula_units_Z   4
loop_
 _symmetry_equiv_pos_site_id
 _symmetry_equiv_pos_as_xyz
  1  'x, y, z'
loop_
 _atom_site_type_symbol
 _atom_site_label
 _atom_site_symmetry_multiplicity
 _atom_site_fract_x
 _atom_site_fract_y
 _atom_site_fract_z
 _atom_site_occupancy
  Co  Co0  1  0.280581  0.222409  0.995156  1
  Co  Co1  1  0.280581  0.277591  0.495156  1
  Co  Co2  1  0.719419  0.722409  0.504844  1
  Co  Co3  1  0.719419  0.777591  0.004844  1
  P  P4  1  0.930141  0.536945  0.295960  1
  P  P5  1  0.467455  0.905325  0.204092  1
  P  P6  1  0.069859  0.036945  0.204040  1
  P  P7  1  0.532545  0.405325  0.295908  1
  P  P8  1  0.532545  0.094675  0.795908  1
  P  P9  1  0.467455  0.594675  0.704092  1
  P  P10  1  0.069859  0.463055  0.704040  1
  P  P11  1  0.930141  0.963055  0.795960  1
  O  O12  1  0.517011  0.741155  0.610909  1
  O  O13  1  0.896848  0.605077  0.134218  1
  O  O14  1  0.517011  0.758845  0.110909  1
  O  O15  1  0.482989  0.258845  0.389091  1
  O  O16  1  0.768747  0.385114  0.297115  1
  O  O17  1  0.231253  0.885114  0.202885  1
  O  O18  1  0.103152  0.394923  0.865782  1
  O  O19  1  0.146137  0.047231  0.849262  1
  O  O20  1  0.916050  0.680063  0.408698  1
  O  O21  1  0.853863  0.952769  0.150738  1
  O  O22  1  0.853863  0.547231  0.650738  1
  O  O23  1  0.916050  0.819937  0.908698  1
  O  O24  1  0.480405  0.417750  0.635064  1
  O  O25  1  0.231253  0.614886  0.702885  1
  O  O26  1  0.083950  0.180063  0.091302  1
  O  O27  1  0.603813  0.907691  0.376484  1
  O  O28  1  0.519595  0.917750  0.864936  1
  O  O29  1  0.480405  0.082250  0.135064  1
  O  O30  1  0.083950  0.319937  0.591302  1
  O  O31  1  0.519595  0.582250  0.364936  1
  O  O32  1  0.396187  0.407691  0.123516  1
  O  O33  1  0.896848  0.894923  0.634218  1
  O  O34  1  0.603813  0.592309  0.876484  1
  O  O35  1  0.146137  0.452769  0.349262  1
  O  O36  1  0.396187  0.092309  0.623516  1
  O  O37  1  0.103152  0.105077  0.365782  1
  O  O38  1  0.768747  0.114886  0.797115  1
  O  O39  1  0.482989  0.241155  0.889091  1
