# generated using pymatgen
data_LiMoP4O13
_symmetry_space_group_name_H-M   'P 1'
_cell_length_a   5.20805737
_cell_length_b   8.04758720
_cell_length_c   14.39408676
_cell_angle_alpha   81.71016419
_cell_angle_beta   82.37524812
_cell_angle_gamma   80.36415475
_symmetry_Int_Tables_number   1
_chemical_formula_structural   LiMoP4O13
_chemical_formula_sum   'Li2 Mo2 P8 O26'
_cell_volume   584.90847682
_cell_formula_units_Z   2
loop_
 _symmetry_equiv_pos_site_id
 _symmetry_equiv_pos_as_xyz
  1  'x, y, z'
loop_
 _atom_site_type_symbol
 _atom_site_label
 _atom_site_symmetry_multiplicity
 _atom_site_fract_x
 _atom_site_fract_y
 _atom_site_fract_z
 _atom_site_occupancy
  Li  Li0  1  0.413432  0.481661  0.496555  1
  Li  Li1  1  0.988989  0.626526  0.010447  1
  Mo  Mo2  1  0.420652  0.058687  0.256042  1
  Mo  Mo3  1  0.574691  0.941058  0.739048  1
  P  P4  1  0.352599  0.578158  0.813867  1
  P  P5  1  0.987207  0.100102  0.848574  1
  P  P6  1  0.712194  0.331090  0.704746  1
  P  P7  1  0.838491  0.225145  0.356902  1
  P  P8  1  0.000628  0.887047  0.154519  1
  P  P9  1  0.280392  0.668216  0.298706  1
  P  P10  1  0.157431  0.772595  0.637187  1
  P  P11  1  0.647548  0.427520  0.182131  1
  O  O12  1  0.478709  0.601221  0.211878  1
  O  O13  1  0.702250  0.962404  0.166967  1
  O  O14  1  0.589775  0.181281  0.680376  1
  O  O15  1  0.834215  0.961534  0.824715  1
  O  O16  1  0.167959  0.634104  0.730870  1
  O  O17  1  0.796962  0.470030  0.090459  1
  O  O18  1  0.393659  0.822609  0.320922  1
  O  O19  1  0.459356  0.294706  0.190181  1
  O  O20  1  0.509252  0.398339  0.791452  1
  O  O21  1  0.021791  0.743161  0.248060  1
  O  O22  1  0.553702  0.703025  0.802350  1
  O  O23  1  0.963711  0.249956  0.757907  1
  O  O24  1  0.317214  0.912112  0.652183  1
  O  O25  1  0.082282  0.808315  0.066933  1
  O  O26  1  0.862025  0.857703  0.647553  1
  O  O27  1  0.905789  0.160803  0.940516  1
  O  O28  1  0.764029  0.463377  0.625917  1
  O  O29  1  0.285819  0.023386  0.829048  1
  O  O30  1  0.731186  0.297003  0.444962  1
  O  O31  1  0.238254  0.533510  0.377460  1
  O  O32  1  0.139021  0.148695  0.347915  1
  O  O33  1  0.155357  0.026760  0.172971  1
  O  O34  1  0.197090  0.555074  0.906226  1
  O  O35  1  0.834954  0.367014  0.264350  1
  O  O36  1  0.694812  0.081580  0.335018  1
  O  O37  1  0.239821  0.690573  0.550584  1
