# generated using pymatgen
data_LiCoPO4
_symmetry_space_group_name_H-M   'P 1'
_cell_length_a   7.46812654
_cell_length_b   7.46812654
_cell_length_c   9.51014213
_cell_angle_alpha   90.00000000
_cell_angle_beta   90.00000000
_cell_angle_gamma   120.00000000
_symmetry_Int_Tables_number   1
_chemical_formula_structural   LiCoPO4
_chemical_formula_sum   'Li6 Co6 P6 O24'
_cell_volume   459.34709652
_cell_formula_units_Z   6
loop_
 _symmetry_equiv_pos_site_id
 _symmetry_equiv_pos_as_xyz
  1  'x, y, z'
loop_
 _atom_site_type_symbol
 _atom_site_label
 _atom_site_symmetry_multiplicity
 _atom_site_fract_x
 _atom_site_fract_y
 _atom_site_fract_z
 _atom_site_occupancy
  Li  Li0  1  0.047717  0.256697  0.252174  1
  Li  Li1  1  0.743303  0.791020  0.252174  1
  Li  Li2  1  0.208980  0.952283  0.252174  1
  Li  Li3  1  0.952283  0.208980  0.752174  1
  Li  Li4  1  0.256697  0.047717  0.752174  1
  Li  Li5  1  0.791020  0.743303  0.752174  1
  Co  Co6  1  0.591660  0.050004  0.978565  1
  Co  Co7  1  0.949996  0.541657  0.978565  1
  Co  Co8  1  0.408340  0.458343  0.478565  1
  Co  Co9  1  0.050004  0.591660  0.478565  1
  Co  Co10  1  0.458343  0.408340  0.978565  1
  Co  Co11  1  0.541657  0.949996  0.478565  1
  P  P12  1  0.666667  0.333333  0.676384  1
  P  P13  1  0.000000  0.000000  0.999951  1
  P  P14  1  0.333333  0.666667  0.176384  1
  P  P15  1  0.333333  0.666667  0.772531  1
  P  P16  1  0.000000  0.000000  0.499951  1
  P  P17  1  0.666667  0.333333  0.272531  1
  O  O18  1  0.885820  0.389438  0.321384  1
  O  O19  1  0.831927  0.550369  0.624049  1
  O  O20  1  0.449631  0.281558  0.624049  1
  O  O21  1  0.333333  0.666667  0.603763  1
  O  O22  1  0.666667  0.333333  0.842428  1
  O  O23  1  0.168073  0.718442  0.124049  1
  O  O24  1  0.123231  0.224838  0.441447  1
  O  O25  1  0.101607  0.876769  0.441447  1
  O  O26  1  0.000000  0.000000  0.162051  1
  O  O27  1  0.503618  0.114180  0.321384  1
  O  O28  1  0.876769  0.101607  0.941447  1
  O  O29  1  0.718442  0.168073  0.624049  1
  O  O30  1  0.610562  0.496382  0.321384  1
  O  O31  1  0.666667  0.333333  0.103763  1
  O  O32  1  0.114180  0.503618  0.821384  1
  O  O33  1  0.224838  0.123231  0.941447  1
  O  O34  1  0.550369  0.831927  0.124049  1
  O  O35  1  0.496382  0.610562  0.821384  1
  O  O36  1  0.000000  0.000000  0.662051  1
  O  O37  1  0.281558  0.449631  0.124049  1
  O  O38  1  0.898393  0.775162  0.941447  1
  O  O39  1  0.333333  0.666667  0.342428  1
  O  O40  1  0.389438  0.885820  0.821384  1
  O  O41  1  0.775162  0.898393  0.441447  1
