# generated using pymatgen
data_Li7Sn3
_symmetry_space_group_name_H-M   'P 1'
_cell_length_a   8.53177719
_cell_length_b   4.74320225
_cell_length_c   9.46156768
_cell_angle_alpha   90.00000000
_cell_angle_beta   106.10448396
_cell_angle_gamma   90.00000000
_symmetry_Int_Tables_number   1
_chemical_formula_structural   Li7Sn3
_chemical_formula_sum   'Li14 Sn6'
_cell_volume   367.86460983
_cell_formula_units_Z   2
loop_
 _symmetry_equiv_pos_site_id
 _symmetry_equiv_pos_as_xyz
  1  'x, y, z'
loop_
 _atom_site_type_symbol
 _atom_site_label
 _atom_site_symmetry_multiplicity
 _atom_site_fract_x
 _atom_site_fract_y
 _atom_site_fract_z
 _atom_site_occupancy
  Li  Li0  1  0.396302  0.750000  0.724898  1
  Li  Li1  1  0.603698  0.250000  0.275102  1
  Li  Li2  1  0.006967  0.750000  0.127303  1
  Li  Li3  1  0.993033  0.250000  0.872697  1
  Li  Li4  1  0.994431  0.750000  0.620750  1
  Li  Li5  1  0.005569  0.250000  0.379250  1
  Li  Li6  1  0.800375  0.750000  0.318273  1
  Li  Li7  1  0.199625  0.250000  0.681727  1
  Li  Li8  1  0.812173  0.750000  0.830178  1
  Li  Li9  1  0.187827  0.250000  0.169822  1
  Li  Li10  1  0.599822  0.750000  0.533750  1
  Li  Li11  1  0.400178  0.250000  0.466250  1
  Li  Li12  1  0.601715  0.750000  0.014444  1
  Li  Li13  1  0.398285  0.250000  0.985556  1
  Sn  Sn14  1  0.404202  0.750000  0.223992  1
  Sn  Sn15  1  0.595798  0.250000  0.776008  1
  Sn  Sn16  1  0.193984  0.750000  0.914392  1
  Sn  Sn17  1  0.806016  0.250000  0.085608  1
  Sn  Sn18  1  0.197131  0.750000  0.432334  1
  Sn  Sn19  1  0.802869  0.250000  0.567666  1
