# generated using pymatgen
data_NaCe5S8
_symmetry_space_group_name_H-M   'P 1'
_cell_length_a   7.40560568
_cell_length_b   7.40560568
_cell_length_c   7.40560568
_cell_angle_alpha   109.55125339
_cell_angle_beta   109.55125339
_cell_angle_gamma   109.31127343
_symmetry_Int_Tables_number   1
_chemical_formula_structural   NaCe5S8
_chemical_formula_sum   'Na1 Ce5 S8'
_cell_volume   312.64920132
_cell_formula_units_Z   1
loop_
 _symmetry_equiv_pos_site_id
 _symmetry_equiv_pos_as_xyz
  1  'x, y, z'
loop_
 _atom_site_type_symbol
 _atom_site_label
 _atom_site_symmetry_multiplicity
 _atom_site_fract_x
 _atom_site_fract_y
 _atom_site_fract_z
 _atom_site_occupancy
  Na  Na0  1  1.000000  1.000000  0.000000  1
  Ce  Ce1  1  0.499134  0.118655  0.877959  1
  Ce  Ce2  1  0.750000  0.250000  0.500000  1
  Ce  Ce3  1  0.378825  0.500866  0.619521  1
  Ce  Ce4  1  0.240696  0.621175  0.122041  1
  Ce  Ce5  1  0.881345  0.759304  0.380479  1
  S  S6  1  0.279854  0.026054  0.401925  1
  S  S7  1  0.130194  0.233299  0.742697  1
  S  S8  1  0.766701  0.509398  0.896896  1
  S  S9  1  0.973946  0.375871  0.253800  1
  S  S10  1  0.490602  0.387497  0.257303  1
  S  S11  1  0.612503  0.869806  0.103104  1
  S  S12  1  0.122071  0.720146  0.746200  1
  S  S13  1  0.624129  0.877929  0.598075  1
