# generated using pymatgen
data_RbHfF5
_symmetry_space_group_name_H-M   'P 1'
_cell_length_a   7.87229140
_cell_length_b   7.87229140
_cell_length_c   7.99580646
_cell_angle_alpha   90.00000000
_cell_angle_beta   90.00000000
_cell_angle_gamma   118.90241330
_symmetry_Int_Tables_number   1
_chemical_formula_structural   RbHfF5
_chemical_formula_sum   'Rb4 Hf4 F20'
_cell_volume   433.80349953
_cell_formula_units_Z   4
loop_
 _symmetry_equiv_pos_site_id
 _symmetry_equiv_pos_as_xyz
  1  'x, y, z'
loop_
 _atom_site_type_symbol
 _atom_site_label
 _atom_site_symmetry_multiplicity
 _atom_site_fract_x
 _atom_site_fract_y
 _atom_site_fract_z
 _atom_site_occupancy
  Rb  Rb0  1  0.795096  0.204904  0.500000  1
  Rb  Rb1  1  0.704904  0.295096  0.000000  1
  Rb  Rb2  1  0.204904  0.795096  0.500000  1
  Rb  Rb3  1  0.295096  0.704904  0.000000  1
  Hf  Hf4  1  0.661528  0.661528  0.660938  1
  Hf  Hf5  1  0.838472  0.838472  0.160938  1
  Hf  Hf6  1  0.338472  0.338472  0.339062  1
  Hf  Hf7  1  0.161528  0.161528  0.839062  1
  F  F8  1  0.087012  0.912988  0.000000  1
  F  F9  1  0.412988  0.587012  0.500000  1
  F  F10  1  0.912988  0.087012  0.000000  1
  F  F11  1  0.587012  0.412988  0.500000  1
  F  F12  1  0.289188  0.289188  0.062975  1
  F  F13  1  0.210812  0.210812  0.562975  1
  F  F14  1  0.710812  0.710812  0.937025  1
  F  F15  1  0.789188  0.789188  0.437025  1
  F  F16  1  0.570982  0.855993  0.709504  1
  F  F17  1  0.929018  0.644007  0.209504  1
  F  F18  1  0.429018  0.144007  0.290496  1
  F  F19  1  0.070982  0.355993  0.790496  1
  F  F20  1  0.855993  0.570982  0.709504  1
  F  F21  1  0.644007  0.929018  0.209504  1
  F  F22  1  0.144007  0.429018  0.290496  1
  F  F23  1  0.355993  0.070982  0.790496  1
  F  F24  1  0.438686  0.438686  0.789805  1
  F  F25  1  0.061314  0.061314  0.289805  1
  F  F26  1  0.561314  0.561314  0.210195  1
  F  F27  1  0.938686  0.938686  0.710195  1
