# generated using pymatgen
data_GaAsO4
_symmetry_space_group_name_H-M   'P 1'
_cell_length_a   5.11197318
_cell_length_b   5.11197318
_cell_length_c   11.64506554
_cell_angle_alpha   90.00000000
_cell_angle_beta   90.00000000
_cell_angle_gamma   120.00000000
_symmetry_Int_Tables_number   1
_chemical_formula_structural   GaAsO4
_chemical_formula_sum   'Ga3 As3 O12'
_cell_volume   263.54191799
_cell_formula_units_Z   3
loop_
 _symmetry_equiv_pos_site_id
 _symmetry_equiv_pos_as_xyz
  1  'x, y, z'
loop_
 _atom_site_type_symbol
 _atom_site_label
 _atom_site_symmetry_multiplicity
 _atom_site_fract_x
 _atom_site_fract_y
 _atom_site_fract_z
 _atom_site_occupancy
  Ga  Ga0  1  0.454849  0.000000  0.333333  1
  Ga  Ga1  1  0.000000  0.454849  0.666667  1
  Ga  Ga2  1  0.545151  0.545151  0.000000  1
  As  As3  1  0.454056  0.000000  0.833333  1
  As  As4  1  0.000000  0.454056  0.166667  1
  As  As5  1  0.545944  0.545944  0.500000  1
  O  O6  1  0.292478  0.399404  0.127095  1
  O  O7  1  0.600596  0.893074  0.460428  1
  O  O8  1  0.106926  0.707522  0.793762  1
  O  O9  1  0.893074  0.600596  0.539572  1
  O  O10  1  0.707522  0.106926  0.206238  1
  O  O11  1  0.399404  0.292478  0.872905  1
  O  O12  1  0.397022  0.311453  0.383207  1
  O  O13  1  0.688547  0.085569  0.716540  1
  O  O14  1  0.914431  0.602978  0.049874  1
  O  O15  1  0.085569  0.688547  0.283460  1
  O  O16  1  0.602978  0.914431  0.950126  1
  O  O17  1  0.311453  0.397022  0.616793  1
