# generated using pymatgen
data_ThFe3
_symmetry_space_group_name_H-M   'P 1'
_cell_length_a   8.84044155
_cell_length_b   8.84044155
_cell_length_c   8.84044155
_cell_angle_alpha   33.81798383
_cell_angle_beta   33.81798383
_cell_angle_gamma   33.81798383
_symmetry_Int_Tables_number   1
_chemical_formula_structural   ThFe3
_chemical_formula_sum   'Th3 Fe9'
_cell_volume   190.70848704
_cell_formula_units_Z   3
loop_
 _symmetry_equiv_pos_site_id
 _symmetry_equiv_pos_as_xyz
  1  'x, y, z'
loop_
 _atom_site_type_symbol
 _atom_site_label
 _atom_site_symmetry_multiplicity
 _atom_site_fract_x
 _atom_site_fract_y
 _atom_site_fract_z
 _atom_site_occupancy
  Th  Th0  1  0.858824  0.858824  0.858824  1
  Th  Th1  1  0.141176  0.141176  0.141176  1
  Th  Th2  1  0.000000  1.000000  0.000000  1
  Fe  Fe3  1  0.419680  0.916850  0.419680  1
  Fe  Fe4  1  0.419680  0.419680  0.916850  1
  Fe  Fe5  1  0.916850  0.419680  0.419680  1
  Fe  Fe6  1  0.580320  0.083150  0.580320  1
  Fe  Fe7  1  0.580320  0.580320  0.083150  1
  Fe  Fe8  1  0.083150  0.580320  0.580320  1
  Fe  Fe9  1  0.667436  0.667436  0.667436  1
  Fe  Fe10  1  0.332564  0.332564  0.332564  1
  Fe  Fe11  1  0.500000  0.500000  0.500000  1
