# generated using pymatgen
data_Dy2Zn17
_symmetry_space_group_name_H-M   'P 1'
_cell_length_a   6.79974291
_cell_length_b   6.79974291
_cell_length_c   6.79974291
_cell_angle_alpha   82.51178012
_cell_angle_beta   82.51178012
_cell_angle_gamma   82.51178012
_symmetry_Int_Tables_number   1
_chemical_formula_structural   Dy2Zn17
_chemical_formula_sum   'Dy2 Zn17'
_cell_volume   306.99559252
_cell_formula_units_Z   1
loop_
 _symmetry_equiv_pos_site_id
 _symmetry_equiv_pos_as_xyz
  1  'x, y, z'
loop_
 _atom_site_type_symbol
 _atom_site_label
 _atom_site_symmetry_multiplicity
 _atom_site_fract_x
 _atom_site_fract_y
 _atom_site_fract_z
 _atom_site_occupancy
  Dy  Dy0  1  0.334877  0.334877  0.334877  1
  Dy  Dy1  1  0.665123  0.665123  0.665123  1
  Zn  Zn2  1  0.161928  0.648140  0.648140  1
  Zn  Zn3  1  0.648140  0.648140  0.161928  1
  Zn  Zn4  1  0.900050  0.900050  0.900050  1
  Zn  Zn5  1  0.099950  0.099950  0.099950  1
  Zn  Zn6  1  0.500000  0.000000  0.000000  1
  Zn  Zn7  1  0.000000  0.500000  0.000000  1
  Zn  Zn8  1  0.000000  0.000000  0.500000  1
  Zn  Zn9  1  0.000000  0.297486  0.702514  1
  Zn  Zn10  1  0.702514  0.000000  0.297486  1
  Zn  Zn11  1  0.297486  0.702514  0.000000  1
  Zn  Zn12  1  0.000000  0.702514  0.297486  1
  Zn  Zn13  1  0.297486  0.000000  0.702514  1
  Zn  Zn14  1  0.702514  0.297486  0.000000  1
  Zn  Zn15  1  0.351860  0.351860  0.838072  1
  Zn  Zn16  1  0.838072  0.351860  0.351860  1
  Zn  Zn17  1  0.351860  0.838072  0.351860  1
  Zn  Zn18  1  0.648140  0.161928  0.648140  1
