# generated using pymatgen
data_Zr9Pt11
_symmetry_space_group_name_H-M   'P 1'
_cell_length_a   8.17528289
_cell_length_b   8.17528289
_cell_length_c   8.17528289
_cell_angle_alpha   100.13868861
_cell_angle_beta   100.13868861
_cell_angle_gamma   130.38624569
_symmetry_Int_Tables_number   1
_chemical_formula_structural   Zr9Pt11
_chemical_formula_sum   'Zr9 Pt11'
_cell_volume   377.78450759
_cell_formula_units_Z   1
loop_
 _symmetry_equiv_pos_site_id
 _symmetry_equiv_pos_as_xyz
  1  'x, y, z'
loop_
 _atom_site_type_symbol
 _atom_site_label
 _atom_site_symmetry_multiplicity
 _atom_site_fract_x
 _atom_site_fract_y
 _atom_site_fract_z
 _atom_site_occupancy
  Zr  Zr0  1  0.246792  0.582086  0.828879  1
  Zr  Zr1  1  0.417914  0.246792  0.664706  1
  Zr  Zr2  1  0.582086  0.753208  0.335294  1
  Zr  Zr3  1  0.753208  0.417914  0.171121  1
  Zr  Zr4  1  0.307321  0.904584  0.211905  1
  Zr  Zr5  1  0.095416  0.307321  0.402738  1
  Zr  Zr6  1  0.904584  0.692679  0.597262  1
  Zr  Zr7  1  0.692679  0.095416  0.788095  1
  Zr  Zr8  1  1.000000  0.000000  1.000000  1
  Pt  Pt9  1  0.563030  0.675995  0.658173  1
  Pt  Pt10  1  0.675995  0.017822  0.112965  1
  Pt  Pt11  1  0.017822  0.904857  0.341827  1
  Pt  Pt12  1  0.904857  0.563030  0.887035  1
  Pt  Pt13  1  0.324005  0.982178  0.887035  1
  Pt  Pt14  1  0.436970  0.324005  0.341827  1
  Pt  Pt15  1  0.982178  0.095143  0.658173  1
  Pt  Pt16  1  0.095143  0.436970  0.112965  1
  Pt  Pt17  1  0.250000  0.750000  0.500000  1
  Pt  Pt18  1  0.750000  0.250000  0.500000  1
  Pt  Pt19  1  0.500000  0.500000  0.000000  1
