# generated using pymatgen
data_Li3TaO4
_symmetry_space_group_name_H-M   'P 1'
_cell_length_a   6.07952854
_cell_length_b   6.07952854
_cell_length_c   9.39920043
_cell_angle_alpha   71.31977042
_cell_angle_beta   108.68022958
_cell_angle_gamma   89.92311684
_symmetry_Int_Tables_number   1
_chemical_formula_structural   Li3TaO4
_chemical_formula_sum   'Li12 Ta4 O16'
_cell_volume   309.66569940
_cell_formula_units_Z   4
loop_
 _symmetry_equiv_pos_site_id
 _symmetry_equiv_pos_as_xyz
  1  'x, y, z'
loop_
 _atom_site_type_symbol
 _atom_site_label
 _atom_site_symmetry_multiplicity
 _atom_site_fract_x
 _atom_site_fract_y
 _atom_site_fract_z
 _atom_site_occupancy
  Li  Li0  1  0.305463  0.942516  0.864437  1
  Li  Li1  1  0.694537  0.057484  0.135563  1
  Li  Li2  1  0.057484  0.694537  0.364437  1
  Li  Li3  1  0.942516  0.305463  0.635563  1
  Li  Li4  1  0.432354  0.807247  0.614619  1
  Li  Li5  1  0.807247  0.432354  0.885381  1
  Li  Li6  1  0.567646  0.192753  0.385381  1
  Li  Li7  1  0.192753  0.567646  0.114619  1
  Li  Li8  1  0.644866  0.560994  0.125097  1
  Li  Li9  1  0.560994  0.644866  0.374903  1
  Li  Li10  1  0.355134  0.439006  0.874903  1
  Li  Li11  1  0.439006  0.355134  0.625097  1
  Ta  Ta12  1  0.938152  0.780171  0.624789  1
  Ta  Ta13  1  0.780171  0.938152  0.875211  1
  Ta  Ta14  1  0.061848  0.219829  0.375211  1
  Ta  Ta15  1  0.219829  0.061848  0.124789  1
  O  O16  1  0.052248  0.167015  0.888353  1
  O  O17  1  0.832985  0.947752  0.388353  1
  O  O18  1  0.167015  0.052248  0.611647  1
  O  O19  1  0.947752  0.832985  0.111647  1
  O  O20  1  0.288215  0.958325  0.361590  1
  O  O21  1  0.958325  0.288215  0.138410  1
  O  O22  1  0.711785  0.041675  0.638410  1
  O  O23  1  0.041675  0.711785  0.861590  1
  O  O24  1  0.578504  0.698634  0.882454  1
  O  O25  1  0.698634  0.578504  0.617546  1
  O  O26  1  0.421496  0.301366  0.117546  1
  O  O27  1  0.301366  0.421496  0.382454  1
  O  O28  1  0.821364  0.428137  0.367536  1
  O  O29  1  0.428137  0.821364  0.132464  1
  O  O30  1  0.178636  0.571863  0.632464  1
  O  O31  1  0.571863  0.178636  0.867536  1
