# generated using pymatgen
data_Nd2SmS4
_symmetry_space_group_name_H-M   'P 1'
_cell_length_a   7.40124152
_cell_length_b   7.40124152
_cell_length_c   7.40124152
_cell_angle_alpha   109.49830452
_cell_angle_beta   109.49830452
_cell_angle_gamma   109.41706644
_symmetry_Int_Tables_number   1
_chemical_formula_structural   Nd2SmS4
_chemical_formula_sum   'Nd4 Sm2 S8'
_cell_volume   312.09840346
_cell_formula_units_Z   2
loop_
 _symmetry_equiv_pos_site_id
 _symmetry_equiv_pos_as_xyz
  1  'x, y, z'
loop_
 _atom_site_type_symbol
 _atom_site_label
 _atom_site_symmetry_multiplicity
 _atom_site_fract_x
 _atom_site_fract_y
 _atom_site_fract_z
 _atom_site_occupancy
  Nd  Nd0  1  0.499931  0.125000  0.874931  1
  Nd  Nd1  1  0.250069  0.625000  0.125069  1
  Nd  Nd2  1  0.375000  0.500069  0.625069  1
  Nd  Nd3  1  0.875000  0.749931  0.374931  1
  Sm  Sm4  1  0.000000  0.000000  0.000000  1
  Sm  Sm5  1  0.750000  0.250000  0.500000  1
  S  S6  1  0.627620  0.878096  0.102798  1
  S  S7  1  0.628096  0.877620  0.602798  1
  S  S8  1  0.475177  0.372380  0.250476  1
  S  S9  1  0.274823  0.025299  0.397202  1
  S  S10  1  0.121904  0.224701  0.749524  1
  S  S11  1  0.974701  0.371904  0.249524  1
  S  S12  1  0.775299  0.524823  0.897202  1
  S  S13  1  0.122380  0.725177  0.750476  1
