# generated using pymatgen
data_Sm3GaO6
_symmetry_space_group_name_H-M   'P 1'
_cell_length_a   7.33408263
_cell_length_b   7.33408263
_cell_length_c   5.56792286
_cell_angle_alpha   90.00000000
_cell_angle_beta   90.00000000
_cell_angle_gamma   102.83756517
_symmetry_Int_Tables_number   1
_chemical_formula_structural   Sm3GaO6
_chemical_formula_sum   'Sm6 Ga2 O12'
_cell_volume   292.00558308
_cell_formula_units_Z   2
loop_
 _symmetry_equiv_pos_site_id
 _symmetry_equiv_pos_as_xyz
  1  'x, y, z'
loop_
 _atom_site_type_symbol
 _atom_site_label
 _atom_site_symmetry_multiplicity
 _atom_site_fract_x
 _atom_site_fract_y
 _atom_site_fract_z
 _atom_site_occupancy
  Sm  Sm0  1  0.397220  0.602780  0.922985  1
  Sm  Sm1  1  0.602780  0.397220  0.422985  1
  Sm  Sm2  1  0.299029  0.087456  0.968562  1
  Sm  Sm3  1  0.700971  0.912544  0.468562  1
  Sm  Sm4  1  0.912544  0.700971  0.968562  1
  Sm  Sm5  1  0.087456  0.299029  0.468562  1
  Ga  Ga6  1  0.193028  0.806972  0.501182  1
  Ga  Ga7  1  0.806972  0.193028  0.001182  1
  O  O8  1  0.215100  0.784900  0.169902  1
  O  O9  1  0.784900  0.215100  0.669902  1
  O  O10  1  0.041145  0.958855  0.635243  1
  O  O11  1  0.958855  0.041145  0.135243  1
  O  O12  1  0.354668  0.325789  0.697541  1
  O  O13  1  0.645332  0.674211  0.197541  1
  O  O14  1  0.674211  0.645332  0.697541  1
  O  O15  1  0.325789  0.354668  0.197541  1
  O  O16  1  0.893127  0.418126  0.173436  1
  O  O17  1  0.106873  0.581874  0.673436  1
  O  O18  1  0.581874  0.106873  0.173436  1
  O  O19  1  0.418126  0.893127  0.673436  1
