# generated using pymatgen
data_Li4Ni7(PO4)6
_symmetry_space_group_name_H-M   'P 1'
_cell_length_a   8.68616573
_cell_length_b   8.68616573
_cell_length_c   6.50899529
_cell_angle_alpha   80.41945314
_cell_angle_beta   99.58054686
_cell_angle_gamma   72.55543818
_symmetry_Int_Tables_number   1
_chemical_formula_structural   Li4Ni7(PO4)6
_chemical_formula_sum   'Li4 Ni7 P6 O24'
_cell_volume   449.59729518
_cell_formula_units_Z   1
loop_
 _symmetry_equiv_pos_site_id
 _symmetry_equiv_pos_as_xyz
  1  'x, y, z'
loop_
 _atom_site_type_symbol
 _atom_site_label
 _atom_site_symmetry_multiplicity
 _atom_site_fract_x
 _atom_site_fract_y
 _atom_site_fract_z
 _atom_site_occupancy
  Li  Li0  1  0.545412  0.674183  0.511716  1
  Li  Li1  1  0.007971  0.992029  0.502294  1
  Li  Li2  1  0.325817  0.454588  0.511716  1
  Li  Li3  1  0.645109  0.354891  0.417560  1
  Ni  Ni4  1  0.991486  0.365388  0.184133  1
  Ni  Ni5  1  0.996295  0.640434  0.810320  1
  Ni  Ni6  1  0.634612  0.008514  0.184133  1
  Ni  Ni7  1  0.359566  0.003705  0.810320  1
  Ni  Ni8  1  0.997473  0.002527  0.000475  1
  Ni  Ni9  1  0.672197  0.682367  0.998298  1
  Ni  Ni10  1  0.317633  0.327803  0.998298  1
  P  P11  1  0.662780  0.337220  0.910501  1
  P  P12  1  0.276951  0.094016  0.300898  1
  P  P13  1  0.077253  0.283618  0.695491  1
  P  P14  1  0.716382  0.922747  0.695491  1
  P  P15  1  0.327867  0.672133  0.076608  1
  P  P16  1  0.905984  0.723049  0.300898  1
  O  O17  1  0.798414  0.201586  0.860373  1
  O  O18  1  0.719004  0.737606  0.294570  1
  O  O19  1  0.262394  0.280996  0.294570  1
  O  O20  1  0.547217  0.452783  0.700867  1
  O  O21  1  0.245484  0.573622  0.936119  1
  O  O22  1  0.089143  0.108764  0.236423  1
  O  O23  1  0.741837  0.435129  0.057252  1
  O  O24  1  0.907046  0.895051  0.766240  1
  O  O25  1  0.035447  0.641152  0.510512  1
  O  O26  1  0.647105  0.052739  0.484045  1
  O  O27  1  0.719047  0.739137  0.696987  1
  O  O28  1  0.426378  0.754516  0.936119  1
  O  O29  1  0.358848  0.964553  0.510512  1
  O  O30  1  0.891236  0.910857  0.236423  1
  O  O31  1  0.376534  0.054186  0.122657  1
  O  O32  1  0.615361  0.965786  0.870597  1
  O  O33  1  0.945814  0.623466  0.122657  1
  O  O34  1  0.564871  0.258163  0.057252  1
  O  O35  1  0.195066  0.804934  0.134463  1
  O  O36  1  0.034214  0.384639  0.870597  1
  O  O37  1  0.446755  0.553245  0.283537  1
  O  O38  1  0.104949  0.092954  0.766240  1
  O  O39  1  0.260863  0.280953  0.696987  1
  O  O40  1  0.947261  0.352895  0.484045  1
