# generated using pymatgen
data_ZrNi2Sb
_symmetry_space_group_name_H-M   'P 1'
_cell_length_a   4.23521648
_cell_length_b   4.23521648
_cell_length_c   8.30677169
_cell_angle_alpha   90.00000000
_cell_angle_beta   90.00000000
_cell_angle_gamma   120.00000000
_symmetry_Int_Tables_number   1
_chemical_formula_structural   ZrNi2Sb
_chemical_formula_sum   'Zr2 Ni4 Sb2'
_cell_volume   129.03696312
_cell_formula_units_Z   2
loop_
 _symmetry_equiv_pos_site_id
 _symmetry_equiv_pos_as_xyz
  1  'x, y, z'
loop_
 _atom_site_type_symbol
 _atom_site_label
 _atom_site_symmetry_multiplicity
 _atom_site_fract_x
 _atom_site_fract_y
 _atom_site_fract_z
 _atom_site_occupancy
  Zr  Zr0  1  0.666667  0.333333  0.750000  1
  Zr  Zr1  1  0.333333  0.666667  0.250000  1
  Ni  Ni2  1  0.666667  0.333333  0.404184  1
  Ni  Ni3  1  0.333333  0.666667  0.904184  1
  Ni  Ni4  1  0.666667  0.333333  0.095816  1
  Ni  Ni5  1  0.333333  0.666667  0.595816  1
  Sb  Sb6  1  0.000000  0.000000  0.000000  1
  Sb  Sb7  1  0.000000  0.000000  0.500000  1
