# generated using pymatgen
data_SrLaMnWO6
_symmetry_space_group_name_H-M   'P 1'
_cell_length_a   5.76094039
_cell_length_b   5.76094039
_cell_length_c   5.76094039
_cell_angle_alpha   119.60901977
_cell_angle_beta   119.60901977
_cell_angle_gamma   90.67854222
_symmetry_Int_Tables_number   1
_chemical_formula_structural   SrLaMnWO6
_chemical_formula_sum   'Sr1 La1 Mn1 W1 O6'
_cell_volume   135.98504596
_cell_formula_units_Z   1
loop_
 _symmetry_equiv_pos_site_id
 _symmetry_equiv_pos_as_xyz
  1  'x, y, z'
loop_
 _atom_site_type_symbol
 _atom_site_label
 _atom_site_symmetry_multiplicity
 _atom_site_fract_x
 _atom_site_fract_y
 _atom_site_fract_z
 _atom_site_occupancy
  Sr  Sr0  1  0.000000  0.000000  0.000000  1
  La  La1  1  0.500000  0.500000  0.000000  1
  Mn  Mn2  1  0.250000  0.750000  0.500000  1
  W  W3  1  0.750000  0.250000  0.500000  1
  O  O4  1  0.988731  0.488731  0.500000  1
  O  O5  1  0.067514  0.442394  0.982598  1
  O  O6  1  0.915084  0.932486  0.374880  1
  O  O7  1  0.511269  0.011269  0.500000  1
  O  O8  1  0.557606  0.540204  0.625120  1
  O  O9  1  0.459796  0.084916  0.017402  1
