# generated using pymatgen
data_Cu2P2O7
_symmetry_space_group_name_H-M   'P 1'
_cell_length_a   5.45423950
_cell_length_b   5.45423950
_cell_length_c   9.37708915
_cell_angle_alpha   76.09873020
_cell_angle_beta   103.90126980
_cell_angle_gamma   82.38808108
_symmetry_Int_Tables_number   1
_chemical_formula_structural   Cu2P2O7
_chemical_formula_sum   'Cu4 P4 O14'
_cell_volume   257.44562744
_cell_formula_units_Z   2
loop_
 _symmetry_equiv_pos_site_id
 _symmetry_equiv_pos_as_xyz
  1  'x, y, z'
loop_
 _atom_site_type_symbol
 _atom_site_label
 _atom_site_symmetry_multiplicity
 _atom_site_fract_x
 _atom_site_fract_y
 _atom_site_fract_z
 _atom_site_occupancy
  Cu  Cu0  1  0.288758  0.338326  0.008676  1
  Cu  Cu1  1  0.338326  0.288758  0.491324  1
  Cu  Cu2  1  0.711242  0.661674  0.991324  1
  Cu  Cu3  1  0.661674  0.711242  0.508676  1
  P  P4  1  0.200767  0.821727  0.707056  1
  P  P5  1  0.821727  0.200767  0.792944  1
  P  P6  1  0.799233  0.178273  0.292944  1
  P  P7  1  0.178273  0.799233  0.207056  1
  O  O8  1  0.011559  0.689905  0.623011  1
  O  O9  1  0.689905  0.011559  0.876989  1
  O  O10  1  0.988441  0.310095  0.376989  1
  O  O11  1  0.310095  0.988441  0.123011  1
  O  O12  1  0.375683  0.935438  0.614082  1
  O  O13  1  0.935438  0.375683  0.885918  1
  O  O14  1  0.624317  0.064562  0.385918  1
  O  O15  1  0.064562  0.624317  0.114082  1
  O  O16  1  0.939490  0.939490  0.250000  1
  O  O17  1  0.060510  0.060510  0.750000  1
  O  O18  1  0.370010  0.628531  0.362215  1
  O  O19  1  0.628531  0.370010  0.137785  1
  O  O20  1  0.629990  0.371469  0.637785  1
  O  O21  1  0.371469  0.629990  0.862215  1
