# generated using pymatgen
data_Er2Ni17
_symmetry_space_group_name_H-M   'P 1'
_cell_length_a   8.24818115
_cell_length_b   8.24818115
_cell_length_c   7.99383672
_cell_angle_alpha   90.00000000
_cell_angle_beta   90.00000000
_cell_angle_gamma   120.00000000
_symmetry_Int_Tables_number   1
_chemical_formula_structural   Er2Ni17
_chemical_formula_sum   'Er4 Ni34'
_cell_volume   470.97980559
_cell_formula_units_Z   2
loop_
 _symmetry_equiv_pos_site_id
 _symmetry_equiv_pos_as_xyz
  1  'x, y, z'
loop_
 _atom_site_type_symbol
 _atom_site_label
 _atom_site_symmetry_multiplicity
 _atom_site_fract_x
 _atom_site_fract_y
 _atom_site_fract_z
 _atom_site_occupancy
  Er  Er0  1  0.666667  0.333333  0.250000  1
  Er  Er1  1  0.333333  0.666667  0.750000  1
  Er  Er2  1  0.000000  0.000000  0.750000  1
  Er  Er3  1  0.000000  0.000000  0.250000  1
  Ni  Ni4  1  0.165393  0.834607  0.521477  1
  Ni  Ni5  1  0.165393  0.330785  0.521477  1
  Ni  Ni6  1  0.669215  0.834607  0.521477  1
  Ni  Ni7  1  0.330785  0.165393  0.021477  1
  Ni  Ni8  1  0.333333  0.666667  0.101379  1
  Ni  Ni9  1  0.666667  0.333333  0.601379  1
  Ni  Ni10  1  0.666667  0.333333  0.898621  1
  Ni  Ni11  1  0.333333  0.666667  0.398621  1
  Ni  Ni12  1  0.500000  0.000000  0.000000  1
  Ni  Ni13  1  0.500000  0.500000  0.500000  1
  Ni  Ni14  1  0.000000  0.500000  0.500000  1
  Ni  Ni15  1  0.000000  0.500000  0.000000  1
  Ni  Ni16  1  0.500000  0.500000  0.000000  1
  Ni  Ni17  1  0.500000  0.000000  0.500000  1
  Ni  Ni18  1  0.327606  0.957791  0.250000  1
  Ni  Ni19  1  0.369815  0.327606  0.750000  1
  Ni  Ni20  1  0.957791  0.630185  0.750000  1
  Ni  Ni21  1  0.042209  0.369815  0.250000  1
  Ni  Ni22  1  0.630185  0.672394  0.250000  1
  Ni  Ni23  1  0.369815  0.042209  0.750000  1
  Ni  Ni24  1  0.672394  0.630185  0.750000  1
  Ni  Ni25  1  0.672394  0.042209  0.750000  1
  Ni  Ni26  1  0.957791  0.327606  0.750000  1
  Ni  Ni27  1  0.042209  0.672394  0.250000  1
  Ni  Ni28  1  0.630185  0.957791  0.250000  1
  Ni  Ni29  1  0.327606  0.369815  0.250000  1
  Ni  Ni30  1  0.165393  0.330785  0.978523  1
  Ni  Ni31  1  0.834607  0.165393  0.478523  1
  Ni  Ni32  1  0.330785  0.165393  0.478523  1
  Ni  Ni33  1  0.669215  0.834607  0.978523  1
  Ni  Ni34  1  0.165393  0.834607  0.978523  1
  Ni  Ni35  1  0.834607  0.669215  0.021477  1
  Ni  Ni36  1  0.834607  0.165393  0.021477  1
  Ni  Ni37  1  0.834607  0.669215  0.478523  1
