# generated using pymatgen
data_ErSn2
_symmetry_space_group_name_H-M   'P 1'
_cell_length_a   8.42856540
_cell_length_b   8.42856540
_cell_length_c   4.35474363
_cell_angle_alpha   90.00000000
_cell_angle_beta   90.00000000
_cell_angle_gamma   149.71782379
_symmetry_Int_Tables_number   1
_chemical_formula_structural   ErSn2
_chemical_formula_sum   'Er2 Sn4'
_cell_volume   155.99963495
_cell_formula_units_Z   2
loop_
 _symmetry_equiv_pos_site_id
 _symmetry_equiv_pos_as_xyz
  1  'x, y, z'
loop_
 _atom_site_type_symbol
 _atom_site_label
 _atom_site_symmetry_multiplicity
 _atom_site_fract_x
 _atom_site_fract_y
 _atom_site_fract_z
 _atom_site_occupancy
  Er  Er0  1  0.098631  0.901369  0.250000  1
  Er  Er1  1  0.901369  0.098631  0.750000  1
  Sn  Sn2  1  0.749954  0.250046  0.250000  1
  Sn  Sn3  1  0.250046  0.749954  0.750000  1
  Sn  Sn4  1  0.564122  0.435878  0.750000  1
  Sn  Sn5  1  0.435878  0.564122  0.250000  1
