# generated using pymatgen
data_NdO3
_symmetry_space_group_name_H-M   'P 1'
_cell_length_a   5.43820368
_cell_length_b   5.43820368
_cell_length_c   8.04634268
_cell_angle_alpha   54.32968609
_cell_angle_beta   125.67031391
_cell_angle_gamma   143.46207082
_symmetry_Int_Tables_number   1
_chemical_formula_structural   NdO3
_chemical_formula_sum   'Nd2 O6'
_cell_volume   111.81491320
_cell_formula_units_Z   2
loop_
 _symmetry_equiv_pos_site_id
 _symmetry_equiv_pos_as_xyz
  1  'x, y, z'
loop_
 _atom_site_type_symbol
 _atom_site_label
 _atom_site_symmetry_multiplicity
 _atom_site_fract_x
 _atom_site_fract_y
 _atom_site_fract_z
 _atom_site_occupancy
  Nd  Nd0  1  0.706612  0.293388  0.237171  1
  Nd  Nd1  1  0.293388  0.706612  0.762829  1
  O  O2  1  0.651072  0.348928  0.496615  1
  O  O3  1  0.000000  0.000000  0.500000  1
  O  O4  1  0.286507  0.713493  0.051986  1
  O  O5  1  0.713493  0.286507  0.948014  1
  O  O6  1  0.000000  0.000000  0.000000  1
  O  O7  1  0.348928  0.651072  0.503385  1
