# generated using pymatgen
data_KCe5S8
_symmetry_space_group_name_H-M   'P 1'
_cell_length_a   7.47079479
_cell_length_b   7.47079479
_cell_length_c   7.47079479
_cell_angle_alpha   109.27261929
_cell_angle_beta   109.27261929
_cell_angle_gamma   109.86915768
_symmetry_Int_Tables_number   1
_chemical_formula_structural   KCe5S8
_chemical_formula_sum   'K1 Ce5 S8'
_cell_volume   320.96879069
_cell_formula_units_Z   1
loop_
 _symmetry_equiv_pos_site_id
 _symmetry_equiv_pos_as_xyz
  1  'x, y, z'
loop_
 _atom_site_type_symbol
 _atom_site_label
 _atom_site_symmetry_multiplicity
 _atom_site_fract_x
 _atom_site_fract_y
 _atom_site_fract_z
 _atom_site_occupancy
  K  K0  1  1.000000  1.000000  0.000000  1
  Ce  Ce1  1  0.118936  0.499498  0.877021  1
  Ce  Ce2  1  0.250000  0.750000  0.500000  1
  Ce  Ce3  1  0.622477  0.241915  0.122979  1
  Ce  Ce4  1  0.500502  0.377523  0.619438  1
  Ce  Ce5  1  0.758085  0.881064  0.380562  1
  S  S6  1  0.871203  0.612936  0.107110  1
  S  S7  1  0.870322  0.611707  0.585961  1
  S  S8  1  0.388293  0.974254  0.258615  1
  S  S9  1  0.025746  0.284361  0.414039  1
  S  S10  1  0.235906  0.128797  0.741732  1
  S  S11  1  0.505826  0.764094  0.892890  1
  S  S12  1  0.387064  0.494174  0.258268  1
  S  S13  1  0.715639  0.129678  0.741385  1
