# generated using pymatgen
data_LiMnO2
_symmetry_space_group_name_H-M   'P 1'
_cell_length_a   5.76717478
_cell_length_b   5.76717478
_cell_length_c   6.12119696
_cell_angle_alpha   63.87118195
_cell_angle_beta   116.12881805
_cell_angle_gamma   91.15958503
_symmetry_Int_Tables_number   1
_chemical_formula_structural   LiMnO2
_chemical_formula_sum   'Li4 Mn4 O8'
_cell_volume   160.25127872
_cell_formula_units_Z   4
loop_
 _symmetry_equiv_pos_site_id
 _symmetry_equiv_pos_as_xyz
  1  'x, y, z'
loop_
 _atom_site_type_symbol
 _atom_site_label
 _atom_site_symmetry_multiplicity
 _atom_site_fract_x
 _atom_site_fract_y
 _atom_site_fract_z
 _atom_site_occupancy
  Li  Li0  1  0.500000  0.000000  0.500000  1
  Li  Li1  1  1.000000  0.500000  0.000000  1
  Li  Li2  1  0.553672  0.553672  0.750000  1
  Li  Li3  1  0.446328  0.446328  0.250000  1
  Mn  Mn4  1  0.000000  0.000000  0.500000  1
  Mn  Mn5  1  0.000000  0.500000  0.500000  1
  Mn  Mn6  1  0.000000  0.000000  0.000000  1
  Mn  Mn7  1  0.500000  0.000000  0.000000  1
  O  O8  1  0.769579  0.211321  0.027654  1
  O  O9  1  0.772622  0.733661  0.517861  1
  O  O10  1  0.211321  0.769579  0.472346  1
  O  O11  1  0.266339  0.227378  0.017861  1
  O  O12  1  0.733661  0.772622  0.982139  1
  O  O13  1  0.788679  0.230421  0.527654  1
  O  O14  1  0.227378  0.266339  0.482139  1
  O  O15  1  0.230421  0.788679  0.972346  1
