# generated using pymatgen
data_Sr(Mo3S4)2
_symmetry_space_group_name_H-M   'P 1'
_cell_length_a   6.61934367
_cell_length_b   6.61934367
_cell_length_c   6.61934367
_cell_angle_alpha   89.11382106
_cell_angle_beta   89.11382106
_cell_angle_gamma   89.11382106
_symmetry_Int_Tables_number   1
_chemical_formula_structural   Sr(Mo3S4)2
_chemical_formula_sum   'Sr1 Mo6 S8'
_cell_volume   289.92823767
_cell_formula_units_Z   1
loop_
 _symmetry_equiv_pos_site_id
 _symmetry_equiv_pos_as_xyz
  1  'x, y, z'
loop_
 _atom_site_type_symbol
 _atom_site_label
 _atom_site_symmetry_multiplicity
 _atom_site_fract_x
 _atom_site_fract_y
 _atom_site_fract_z
 _atom_site_occupancy
  Sr  Sr0  1  0.000000  0.000000  0.000000  1
  Mo  Mo1  1  0.562137  0.228606  0.417284  1
  Mo  Mo2  1  0.417284  0.562137  0.228606  1
  Mo  Mo3  1  0.228606  0.417284  0.562137  1
  Mo  Mo4  1  0.771394  0.582716  0.437863  1
  Mo  Mo5  1  0.582716  0.437863  0.771394  1
  Mo  Mo6  1  0.437863  0.771394  0.582716  1
  S  S7  1  0.245315  0.245315  0.245315  1
  S  S8  1  0.384298  0.126310  0.739654  1
  S  S9  1  0.126310  0.739654  0.384298  1
  S  S10  1  0.739654  0.384298  0.126310  1
  S  S11  1  0.615702  0.873690  0.260346  1
  S  S12  1  0.873690  0.260346  0.615702  1
  S  S13  1  0.754685  0.754685  0.754685  1
  S  S14  1  0.260346  0.615702  0.873690  1
