# generated using pymatgen
data_Cr2CuSe4
_symmetry_space_group_name_H-M   'P 1'
_cell_length_a   7.36756972
_cell_length_b   7.36756972
_cell_length_c   7.36756972
_cell_angle_alpha   60.00000000
_cell_angle_beta   60.00000000
_cell_angle_gamma   60.00000000
_symmetry_Int_Tables_number   1
_chemical_formula_structural   Cr2CuSe4
_chemical_formula_sum   'Cr4 Cu2 Se8'
_cell_volume   282.78590901
_cell_formula_units_Z   2
loop_
 _symmetry_equiv_pos_site_id
 _symmetry_equiv_pos_as_xyz
  1  'x, y, z'
loop_
 _atom_site_type_symbol
 _atom_site_label
 _atom_site_symmetry_multiplicity
 _atom_site_fract_x
 _atom_site_fract_y
 _atom_site_fract_z
 _atom_site_occupancy
  Cr  Cr0  1  0.625000  0.625000  0.625000  1
  Cr  Cr1  1  0.125000  0.625000  0.625000  1
  Cr  Cr2  1  0.625000  0.625000  0.125000  1
  Cr  Cr3  1  0.625000  0.125000  0.625000  1
  Cu  Cu4  1  0.250000  0.250000  0.250000  1
  Cu  Cu5  1  0.000000  0.000000  0.000000  1
  Se  Se6  1  0.382573  0.382573  0.382573  1
  Se  Se7  1  0.852282  0.382573  0.382573  1
  Se  Se8  1  0.382573  0.382573  0.852282  1
  Se  Se9  1  0.382573  0.852282  0.382573  1
  Se  Se10  1  0.867427  0.867427  0.867427  1
  Se  Se11  1  0.397718  0.867427  0.867427  1
  Se  Se12  1  0.867427  0.867427  0.397718  1
  Se  Se13  1  0.867427  0.397718  0.867427  1
