# generated using pymatgen
data_LiNiP2O7
_symmetry_space_group_name_H-M   'P 1'
_cell_length_a   5.29673927
_cell_length_b   5.29673927
_cell_length_c   4.58207032
_cell_angle_alpha   81.51952065
_cell_angle_beta   98.48047935
_cell_angle_gamma   78.01832694
_symmetry_Int_Tables_number   1
_chemical_formula_structural   LiNiP2O7
_chemical_formula_sum   'Li1 Ni1 P2 O7'
_cell_volume   122.25134009
_cell_formula_units_Z   1
loop_
 _symmetry_equiv_pos_site_id
 _symmetry_equiv_pos_as_xyz
  1  'x, y, z'
loop_
 _atom_site_type_symbol
 _atom_site_label
 _atom_site_symmetry_multiplicity
 _atom_site_fract_x
 _atom_site_fract_y
 _atom_site_fract_z
 _atom_site_occupancy
  Li  Li0  1  0.488242  0.488242  0.000000  1
  Ni  Ni1  1  0.118544  0.118544  0.000000  1
  P  P2  1  0.571987  0.997380  0.580681  1
  P  P3  1  0.997380  0.571987  0.419319  1
  O  O4  1  0.428590  0.173331  0.284900  1
  O  O5  1  0.395783  0.894644  0.788223  1
  O  O6  1  0.762075  0.129277  0.751800  1
  O  O7  1  0.129277  0.762075  0.248200  1
  O  O8  1  0.173331  0.428590  0.715100  1
  O  O9  1  0.727636  0.727636  0.500000  1
  O  O10  1  0.894644  0.395783  0.211777  1
