# generated using pymatgen
data_P2Pb8O13
_symmetry_space_group_name_H-M   'P 1'
_cell_length_a   7.56432161
_cell_length_b   7.56432161
_cell_length_c   14.69033951
_cell_angle_alpha   84.10290785
_cell_angle_beta   95.89709215
_cell_angle_gamma   92.32650940
_symmetry_Int_Tables_number   1
_chemical_formula_structural   P2Pb8O13
_chemical_formula_sum   'P4 Pb16 O26'
_cell_volume   831.30966345
_cell_formula_units_Z   2
loop_
 _symmetry_equiv_pos_site_id
 _symmetry_equiv_pos_as_xyz
  1  'x, y, z'
loop_
 _atom_site_type_symbol
 _atom_site_label
 _atom_site_symmetry_multiplicity
 _atom_site_fract_x
 _atom_site_fract_y
 _atom_site_fract_z
 _atom_site_occupancy
  P  P0  1  0.252518  0.252518  0.000000  1
  P  P1  1  0.747482  0.747482  0.000000  1
  P  P2  1  0.158887  0.841113  0.599837  1
  P  P3  1  0.841113  0.158887  0.400163  1
  Pb  Pb4  1  0.074478  0.454779  0.203498  1
  Pb  Pb5  1  0.454779  0.074478  0.796502  1
  Pb  Pb6  1  0.925522  0.545221  0.796502  1
  Pb  Pb7  1  0.545221  0.925522  0.203498  1
  Pb  Pb8  1  0.154287  0.324330  0.594335  1
  Pb  Pb9  1  0.324330  0.154287  0.405665  1
  Pb  Pb10  1  0.845713  0.675670  0.405665  1
  Pb  Pb11  1  0.675670  0.845713  0.594335  1
  Pb  Pb12  1  0.432481  0.567519  0.784443  1
  Pb  Pb13  1  0.567519  0.432481  0.215557  1
  Pb  Pb14  1  0.734304  0.265696  0.987007  1
  Pb  Pb15  1  0.265696  0.734304  0.012993  1
  Pb  Pb16  1  0.332696  0.667304  0.384214  1
  Pb  Pb17  1  0.667304  0.332696  0.615786  1
  Pb  Pb18  1  0.928023  0.071977  0.805453  1
  Pb  Pb19  1  0.071977  0.928023  0.194547  1
  O  O20  1  0.926071  0.736945  0.063290  1
  O  O21  1  0.736945  0.926071  0.936710  1
  O  O22  1  0.073929  0.263055  0.936710  1
  O  O23  1  0.263055  0.073929  0.063290  1
  O  O24  1  0.299378  0.700622  0.639689  1
  O  O25  1  0.700622  0.299378  0.360311  1
  O  O26  1  0.023345  0.220955  0.363412  1
  O  O27  1  0.220955  0.023345  0.636588  1
  O  O28  1  0.976655  0.779045  0.636588  1
  O  O29  1  0.779045  0.976655  0.363412  1
  O  O30  1  0.146247  0.853753  0.493164  1
  O  O31  1  0.853753  0.146247  0.506836  1
  O  O32  1  0.326600  0.390564  0.292955  1
  O  O33  1  0.390564  0.326600  0.707045  1
  O  O34  1  0.673400  0.609436  0.707045  1
  O  O35  1  0.609436  0.673400  0.292955  1
  O  O36  1  0.727219  0.272781  0.836781  1
  O  O37  1  0.272781  0.727219  0.163219  1
  O  O38  1  0.267921  0.411705  0.061604  1
  O  O39  1  0.411705  0.267921  0.938396  1
  O  O40  1  0.329687  0.953487  0.304913  1
  O  O41  1  0.953487  0.329687  0.695087  1
  O  O42  1  0.670313  0.046513  0.695087  1
  O  O43  1  0.046513  0.670313  0.304913  1
  O  O44  1  0.588295  0.732079  0.061604  1
  O  O45  1  0.732079  0.588295  0.938396  1
