# generated using pymatgen
data_Mg(BC)2
_symmetry_space_group_name_H-M   'P 1'
_cell_length_a   7.22843569
_cell_length_b   7.22843569
_cell_length_c   7.46189931
_cell_angle_alpha   90.00000000
_cell_angle_beta   90.00000000
_cell_angle_gamma   98.18275268
_symmetry_Int_Tables_number   1
_chemical_formula_structural   Mg(BC)2
_chemical_formula_sum   'Mg8 B16 C16'
_cell_volume   385.91696141
_cell_formula_units_Z   8
loop_
 _symmetry_equiv_pos_site_id
 _symmetry_equiv_pos_as_xyz
  1  'x, y, z'
loop_
 _atom_site_type_symbol
 _atom_site_label
 _atom_site_symmetry_multiplicity
 _atom_site_fract_x
 _atom_site_fract_y
 _atom_site_fract_z
 _atom_site_occupancy
  Mg  Mg0  1  0.720952  0.720952  0.010245  1
  Mg  Mg1  1  0.779048  0.779048  0.510245  1
  Mg  Mg2  1  0.220952  0.220952  0.489755  1
  Mg  Mg3  1  0.279048  0.279048  0.989755  1
  Mg  Mg4  1  0.347565  0.652435  0.500000  1
  Mg  Mg5  1  0.152435  0.847565  1.000000  1
  Mg  Mg6  1  0.652435  0.347565  0.500000  1
  Mg  Mg7  1  0.847565  0.152435  1.000000  1
  B  B8  1  0.787116  0.531818  0.754720  1
  B  B9  1  0.468182  0.212884  0.245280  1
  B  B10  1  0.031818  0.287116  0.745280  1
  B  B11  1  0.712884  0.968182  0.254720  1
  B  B12  1  0.531818  0.787116  0.754720  1
  B  B13  1  0.968182  0.712884  0.254720  1
  B  B14  1  0.287116  0.031818  0.745280  1
  B  B15  1  0.212884  0.468182  0.245280  1
  B  B16  1  0.843750  0.343750  0.250000  1
  B  B17  1  0.656250  0.156250  0.750000  1
  B  B18  1  0.156250  0.656250  0.750000  1
  B  B19  1  0.343750  0.843750  0.250000  1
  B  B20  1  0.588199  0.588199  0.275498  1
  B  B21  1  0.911801  0.911801  0.775498  1
  B  B22  1  0.088199  0.088199  0.224502  1
  B  B23  1  0.411801  0.411801  0.724502  1
  C  C24  1  0.049799  0.298939  0.224779  1
  C  C25  1  0.450201  0.201061  0.724779  1
  C  C26  1  0.798939  0.549799  0.275221  1
  C  C27  1  0.701061  0.950201  0.775221  1
  C  C28  1  0.298939  0.049799  0.224779  1
  C  C29  1  0.950201  0.701061  0.775221  1
  C  C30  1  0.549799  0.798939  0.275221  1
  C  C31  1  0.201061  0.450201  0.724779  1
  C  C32  1  0.676397  0.176397  0.250000  1
  C  C33  1  0.823603  0.323603  0.750000  1
  C  C34  1  0.323603  0.823603  0.750000  1
  C  C35  1  0.176397  0.676397  0.250000  1
  C  C36  1  0.920430  0.920430  0.230698  1
  C  C37  1  0.579570  0.579570  0.730698  1
  C  C38  1  0.420430  0.420430  0.269302  1
  C  C39  1  0.079570  0.079570  0.769302  1
