# generated using pymatgen
data_Nd2UTe4
_symmetry_space_group_name_H-M   'P 1'
_cell_length_a   8.20592252
_cell_length_b   8.20592252
_cell_length_c   8.20592252
_cell_angle_alpha   109.34249445
_cell_angle_beta   109.34249445
_cell_angle_gamma   109.72898089
_symmetry_Int_Tables_number   1
_chemical_formula_structural   Nd2UTe4
_chemical_formula_sum   'Nd4 U2 Te8'
_cell_volume   425.35716126
_cell_formula_units_Z   2
loop_
 _symmetry_equiv_pos_site_id
 _symmetry_equiv_pos_as_xyz
  1  'x, y, z'
loop_
 _atom_site_type_symbol
 _atom_site_label
 _atom_site_symmetry_multiplicity
 _atom_site_fract_x
 _atom_site_fract_y
 _atom_site_fract_z
 _atom_site_occupancy
  Nd  Nd0  1  0.125000  0.500424  0.875424  1
  Nd  Nd1  1  0.625000  0.249576  0.124576  1
  Nd  Nd2  1  0.499576  0.375000  0.624576  1
  Nd  Nd3  1  0.750424  0.875000  0.375424  1
  U  U4  1  0.000000  0.000000  0.000000  1
  U  U5  1  0.250000  0.750000  0.500000  1
  Te  Te6  1  0.879522  0.628972  0.099625  1
  Te  Te7  1  0.878972  0.629522  0.599625  1
  Te  Te8  1  0.371028  0.470652  0.250550  1
  Te  Te9  1  0.029898  0.279348  0.400375  1
  Te  Te10  1  0.220102  0.120478  0.749450  1
  Te  Te11  1  0.370478  0.970102  0.249450  1
  Te  Te12  1  0.529348  0.779898  0.900375  1
  Te  Te13  1  0.720652  0.121028  0.750550  1
