# generated using pymatgen
data_Sc(TiN)9
_symmetry_space_group_name_H-M   'P 1'
_cell_length_a   5.22843220
_cell_length_b   6.04335480
_cell_length_c   6.76975659
_cell_angle_alpha   77.18209858
_cell_angle_beta   75.01532528
_cell_angle_gamma   73.21759269
_symmetry_Int_Tables_number   1
_chemical_formula_structural   Sc(TiN)9
_chemical_formula_sum   'Sc1 Ti9 N9'
_cell_volume   195.30943354
_cell_formula_units_Z   1
loop_
 _symmetry_equiv_pos_site_id
 _symmetry_equiv_pos_as_xyz
  1  'x, y, z'
loop_
 _atom_site_type_symbol
 _atom_site_label
 _atom_site_symmetry_multiplicity
 _atom_site_fract_x
 _atom_site_fract_y
 _atom_site_fract_z
 _atom_site_occupancy
  Sc  Sc0  1  0.500000  0.000000  0.000000  1
  Ti  Ti1  1  0.892043  0.603866  0.189754  1
  Ti  Ti2  1  0.104006  0.897788  0.793350  1
  Ti  Ti3  1  0.895994  0.102212  0.206650  1
  Ti  Ti4  1  0.107957  0.396134  0.810246  1
  Ti  Ti5  1  0.314894  0.702726  0.398839  1
  Ti  Ti6  1  0.307914  0.191739  0.394460  1
  Ti  Ti7  1  0.685106  0.297274  0.601161  1
  Ti  Ti8  1  0.500000  0.500000  0.000000  1
  Ti  Ti9  1  0.692086  0.808261  0.605540  1
  N  N10  1  0.806459  0.692939  0.898493  1
  N  N11  1  0.806297  0.205595  0.895512  1
  N  N12  1  0.193703  0.794405  0.104488  1
  N  N13  1  0.000000  0.000000  0.500000  1
  N  N14  1  0.397793  0.102261  0.693799  1
  N  N15  1  0.193541  0.307061  0.101507  1
  N  N16  1  0.597226  0.401157  0.301377  1
  N  N17  1  0.402774  0.598843  0.698623  1
  N  N18  1  0.602207  0.897739  0.306201  1
