# generated using pymatgen
data_Tb4SiBr6
_symmetry_space_group_name_H-M   'P 1'
_cell_length_a   4.07918402
_cell_length_b   13.31256035
_cell_length_c   14.08290938
_cell_angle_alpha   90.00000000
_cell_angle_beta   90.00000000
_cell_angle_gamma   90.00000000
_symmetry_Int_Tables_number   1
_chemical_formula_structural   Tb4SiBr6
_chemical_formula_sum   'Tb8 Si2 Br12'
_cell_volume   764.76371099
_cell_formula_units_Z   2
loop_
 _symmetry_equiv_pos_site_id
 _symmetry_equiv_pos_as_xyz
  1  'x, y, z'
loop_
 _atom_site_type_symbol
 _atom_site_label
 _atom_site_symmetry_multiplicity
 _atom_site_fract_x
 _atom_site_fract_y
 _atom_site_fract_z
 _atom_site_occupancy
  Tb  Tb0  1  0.500000  0.118392  0.340897  1
  Tb  Tb1  1  0.500000  0.881608  0.659103  1
  Tb  Tb2  1  0.500000  0.618392  0.159103  1
  Tb  Tb3  1  0.500000  0.381608  0.840897  1
  Tb  Tb4  1  0.000000  0.117998  0.578199  1
  Tb  Tb5  1  0.000000  0.882002  0.421801  1
  Tb  Tb6  1  0.000000  0.617998  0.921801  1
  Tb  Tb7  1  0.000000  0.382002  0.078199  1
  Si  Si8  1  0.500000  0.000000  0.500000  1
  Si  Si9  1  0.500000  0.500000  0.000000  1
  Br  Br10  1  0.500000  0.243705  0.162313  1
  Br  Br11  1  0.500000  0.756295  0.837687  1
  Br  Br12  1  0.500000  0.743705  0.337687  1
  Br  Br13  1  0.500000  0.256295  0.662313  1
  Br  Br14  1  0.000000  0.255079  0.411437  1
  Br  Br15  1  0.000000  0.744921  0.588563  1
  Br  Br16  1  0.000000  0.755079  0.088563  1
  Br  Br17  1  0.000000  0.244921  0.911437  1
  Br  Br18  1  0.000000  0.001537  0.243480  1
  Br  Br19  1  0.000000  0.998463  0.756520  1
  Br  Br20  1  0.000000  0.501537  0.256520  1
  Br  Br21  1  0.000000  0.498463  0.743480  1
