# generated using pymatgen
data_Sr(FeO2)2
_symmetry_space_group_name_H-M   'P 1'
_cell_length_a   8.24690648
_cell_length_b   11.03096055
_cell_length_c   12.24303864
_cell_angle_alpha   90.00000000
_cell_angle_beta   130.26304934
_cell_angle_gamma   90.00000000
_symmetry_Int_Tables_number   1
_chemical_formula_structural   Sr(FeO2)2
_chemical_formula_sum   'Sr8 Fe16 O32'
_cell_volume   849.89779862
_cell_formula_units_Z   8
loop_
 _symmetry_equiv_pos_site_id
 _symmetry_equiv_pos_as_xyz
  1  'x, y, z'
loop_
 _atom_site_type_symbol
 _atom_site_label
 _atom_site_symmetry_multiplicity
 _atom_site_fract_x
 _atom_site_fract_y
 _atom_site_fract_z
 _atom_site_occupancy
  Sr  Sr0  1  0.221074  0.390192  0.726793  1
  Sr  Sr1  1  0.778926  0.890192  0.773207  1
  Sr  Sr2  1  0.778926  0.609808  0.273207  1
  Sr  Sr3  1  0.221074  0.109808  0.226793  1
  Sr  Sr4  1  0.202937  0.846562  0.701569  1
  Sr  Sr5  1  0.797063  0.346562  0.798431  1
  Sr  Sr6  1  0.797063  0.153438  0.298431  1
  Sr  Sr7  1  0.202937  0.653438  0.201569  1
  Fe  Fe8  1  0.163319  0.612079  0.905620  1
  Fe  Fe9  1  0.836681  0.112079  0.594380  1
  Fe  Fe10  1  0.836681  0.387921  0.094380  1
  Fe  Fe11  1  0.163319  0.887921  0.405620  1
  Fe  Fe12  1  0.257970  0.387104  0.431108  1
  Fe  Fe13  1  0.742030  0.887104  0.068892  1
  Fe  Fe14  1  0.742030  0.612896  0.568892  1
  Fe  Fe15  1  0.257970  0.112896  0.931108  1
  Fe  Fe16  1  0.603482  0.636047  0.907687  1
  Fe  Fe17  1  0.396518  0.136047  0.592313  1
  Fe  Fe18  1  0.396518  0.363953  0.092313  1
  Fe  Fe19  1  0.603482  0.863953  0.407687  1
  Fe  Fe20  1  0.344946  0.639120  0.567782  1
  Fe  Fe21  1  0.655054  0.139120  0.932218  1
  Fe  Fe22  1  0.655054  0.360880  0.432218  1
  Fe  Fe23  1  0.344946  0.860880  0.067782  1
  O  O24  1  0.246513  0.480210  0.557511  1
  O  O25  1  0.753487  0.980210  0.942489  1
  O  O26  1  0.753487  0.519790  0.442489  1
  O  O27  1  0.246513  0.019790  0.057511  1
  O  O28  1  0.299838  0.523786  0.079501  1
  O  O29  1  0.700162  0.023786  0.420499  1
  O  O30  1  0.700162  0.476214  0.920499  1
  O  O31  1  0.299838  0.976214  0.579501  1
  O  O32  1  0.180298  0.216576  0.412112  1
  O  O33  1  0.819702  0.716576  0.087888  1
  O  O34  1  0.819702  0.783424  0.587888  1
  O  O35  1  0.180298  0.283424  0.912112  1
  O  O36  1  0.097203  0.759092  0.953609  1
  O  O37  1  0.902797  0.259092  0.546391  1
  O  O38  1  0.902797  0.240908  0.046391  1
  O  O39  1  0.097203  0.740908  0.453609  1
  O  O40  1  0.917008  0.530383  0.747996  1
  O  O41  1  0.082992  0.030383  0.752004  1
  O  O42  1  0.082992  0.469617  0.252004  1
  O  O43  1  0.917008  0.969617  0.247996  1
  O  O44  1  0.534138  0.724064  0.747169  1
  O  O45  1  0.465862  0.224064  0.752831  1
  O  O46  1  0.465862  0.275936  0.252831  1
  O  O47  1  0.534138  0.775936  0.247169  1
  O  O48  1  0.449073  0.864248  0.969480  1
  O  O49  1  0.550927  0.364248  0.530520  1
  O  O50  1  0.550927  0.135752  0.030520  1
  O  O51  1  0.449073  0.635752  0.469480  1
  O  O52  1  0.324178  0.889465  0.344018  1
  O  O53  1  0.675822  0.389465  0.155982  1
  O  O54  1  0.675822  0.110535  0.655982  1
  O  O55  1  0.324178  0.610535  0.844018  1
