# generated using pymatgen
data_Tl(MoSe)3
_symmetry_space_group_name_H-M   'P 1'
_cell_length_a   9.23612811
_cell_length_b   9.23612811
_cell_length_c   4.52868563
_cell_angle_alpha   90.00000000
_cell_angle_beta   90.00000000
_cell_angle_gamma   120.00000000
_symmetry_Int_Tables_number   1
_chemical_formula_structural   Tl(MoSe)3
_chemical_formula_sum   'Tl2 Mo6 Se6'
_cell_volume   334.56669196
_cell_formula_units_Z   2
loop_
 _symmetry_equiv_pos_site_id
 _symmetry_equiv_pos_as_xyz
  1  'x, y, z'
loop_
 _atom_site_type_symbol
 _atom_site_label
 _atom_site_symmetry_multiplicity
 _atom_site_fract_x
 _atom_site_fract_y
 _atom_site_fract_z
 _atom_site_occupancy
  Tl  Tl0  1  0.333333  0.666667  0.750000  1
  Tl  Tl1  1  0.666667  0.333333  0.250000  1
  Mo  Mo2  1  0.968370  0.819580  0.250000  1
  Mo  Mo3  1  0.819580  0.851210  0.750000  1
  Mo  Mo4  1  0.031630  0.180420  0.750000  1
  Mo  Mo5  1  0.180420  0.148790  0.250000  1
  Mo  Mo6  1  0.851210  0.031630  0.250000  1
  Mo  Mo7  1  0.148790  0.968370  0.750000  1
  Se  Se8  1  0.935859  0.642583  0.750000  1
  Se  Se9  1  0.293276  0.935859  0.250000  1
  Se  Se10  1  0.706724  0.064141  0.750000  1
  Se  Se11  1  0.064141  0.357417  0.250000  1
  Se  Se12  1  0.642583  0.706724  0.250000  1
  Se  Se13  1  0.357417  0.293276  0.750000  1
