# generated using pymatgen
data_Li2(LuGe)3
_symmetry_space_group_name_H-M   'P 1'
_cell_length_a   5.95466825
_cell_length_b   5.95466825
_cell_length_c   13.88789068
_cell_angle_alpha   90.00000000
_cell_angle_beta   90.00000000
_cell_angle_gamma   139.39348113
_symmetry_Int_Tables_number   1
_chemical_formula_structural   Li2(LuGe)3
_chemical_formula_sum   'Li4 Lu6 Ge6'
_cell_volume   320.50839785
_cell_formula_units_Z   2
loop_
 _symmetry_equiv_pos_site_id
 _symmetry_equiv_pos_as_xyz
  1  'x, y, z'
loop_
 _atom_site_type_symbol
 _atom_site_label
 _atom_site_symmetry_multiplicity
 _atom_site_fract_x
 _atom_site_fract_y
 _atom_site_fract_z
 _atom_site_occupancy
  Li  Li0  1  0.721796  0.278204  0.421468  1
  Li  Li1  1  0.278204  0.721796  0.578532  1
  Li  Li2  1  0.721796  0.278204  0.078532  1
  Li  Li3  1  0.278204  0.721796  0.921469  1
  Lu  Lu4  1  0.861201  0.138799  0.750000  1
  Lu  Lu5  1  0.138799  0.861201  0.250000  1
  Lu  Lu6  1  0.569577  0.430423  0.881231  1
  Lu  Lu7  1  0.430423  0.569577  0.118769  1
  Lu  Lu8  1  0.430423  0.569577  0.381231  1
  Lu  Lu9  1  0.569577  0.430423  0.618769  1
  Ge  Ge10  1  0.167825  0.832175  0.750000  1
  Ge  Ge11  1  0.900508  0.099492  0.545192  1
  Ge  Ge12  1  0.099492  0.900508  0.045192  1
  Ge  Ge13  1  0.900508  0.099492  0.954808  1
  Ge  Ge14  1  0.832175  0.167825  0.250000  1
  Ge  Ge15  1  0.099492  0.900508  0.454808  1
