# generated using pymatgen
data_Zr4N2O5
_symmetry_space_group_name_H-M   'P 1'
_cell_length_a   8.87455512
_cell_length_b   8.89683554
_cell_length_c   8.90605523
_cell_angle_alpha   109.33436359
_cell_angle_beta   109.54704112
_cell_angle_gamma   109.25406229
_symmetry_Int_Tables_number   1
_chemical_formula_structural   Zr4N2O5
_chemical_formula_sum   'Zr16 N8 O20'
_cell_volume   543.15717674
_cell_formula_units_Z   4
loop_
 _symmetry_equiv_pos_site_id
 _symmetry_equiv_pos_as_xyz
  1  'x, y, z'
loop_
 _atom_site_type_symbol
 _atom_site_label
 _atom_site_symmetry_multiplicity
 _atom_site_fract_x
 _atom_site_fract_y
 _atom_site_fract_z
 _atom_site_occupancy
  Zr  Zr0  1  0.524469  0.794246  0.794291  1
  Zr  Zr1  1  0.257093  0.507335  0.298332  1
  Zr  Zr2  1  0.542789  0.501879  0.035361  1
  Zr  Zr3  1  0.741820  0.740432  0.524827  1
  Zr  Zr4  1  0.288435  0.047336  0.797366  1
  Zr  Zr5  1  0.999194  0.005203  0.999601  1
  Zr  Zr6  1  0.774471  0.259656  0.987115  1
  Zr  Zr7  1  0.012721  0.731527  0.219900  1
  Zr  Zr8  1  0.225313  0.216545  0.498536  1
  Zr  Zr9  1  0.757578  0.957983  0.248984  1
  Zr  Zr10  1  0.492550  0.986764  0.493762  1
  Zr  Zr11  1  0.992800  0.206853  0.722318  1
  Zr  Zr12  1  0.285296  0.786062  0.023765  1
  Zr  Zr13  1  0.794983  0.497238  0.753933  1
  Zr  Zr14  1  0.499360  0.267909  0.285361  1
  Zr  Zr15  1  0.035681  0.493971  0.542967  1
  N  N16  1  0.999705  0.968668  0.739204  1
  N  N17  1  0.287779  0.283037  0.785038  1
  N  N18  1  0.266119  0.732299  0.235537  1
  N  N19  1  0.754784  0.500737  0.981106  1
  N  N20  1  0.501124  0.719568  0.002932  1
  N  N21  1  0.979337  0.227211  0.480215  1
  N  N22  1  0.782535  0.497319  0.499067  1
  N  N23  1  0.771588  0.033718  0.032292  1
  O  O24  1  0.250795  0.769612  0.747723  1
  O  O25  1  0.275208  0.027915  0.028144  1
  O  O26  1  0.798520  0.737270  0.298948  1
  O  O27  1  0.560348  0.263784  0.063017  1
  O  O28  1  0.004615  0.499078  0.288667  1
  O  O29  1  0.501135  0.757941  0.529709  1
  O  O30  1  0.227242  0.964087  0.504645  1
  O  O31  1  0.728905  0.964349  0.485467  1
  O  O32  1  0.476569  0.498960  0.248743  1
  O  O33  1  0.517506  0.029020  0.762879  1
  O  O34  1  0.002049  0.970688  0.240926  1
  O  O35  1  0.042814  0.286829  0.009619  1
  O  O36  1  0.019990  0.759342  0.987112  1
  O  O37  1  0.765751  0.237718  0.734462  1
  O  O38  1  0.500180  0.265660  0.534037  1
  O  O39  1  0.722911  0.717480  0.761602  1
  O  O40  1  0.058921  0.503261  0.797484  1
  O  O41  1  0.539215  0.039207  0.271359  1
  O  O42  1  0.294774  0.499942  0.553814  1
  O  O43  1  0.239629  0.244364  0.264431  1
