# generated using pymatgen
data_NaSbSe2
_symmetry_space_group_name_H-M   'P 1'
_cell_length_a   7.29969372
_cell_length_b   7.29969372
_cell_length_c   7.29969372
_cell_angle_alpha   132.93484004
_cell_angle_beta   132.93484004
_cell_angle_gamma   68.75649614
_symmetry_Int_Tables_number   1
_chemical_formula_structural   NaSbSe2
_chemical_formula_sum   'Na2 Sb2 Se4'
_cell_volume   204.70800669
_cell_formula_units_Z   2
loop_
 _symmetry_equiv_pos_site_id
 _symmetry_equiv_pos_as_xyz
  1  'x, y, z'
loop_
 _atom_site_type_symbol
 _atom_site_label
 _atom_site_symmetry_multiplicity
 _atom_site_fract_x
 _atom_site_fract_y
 _atom_site_fract_z
 _atom_site_occupancy
  Na  Na0  1  0.250000  0.750000  0.500000  1
  Na  Na1  1  0.500000  0.500000  0.000000  1
  Sb  Sb2  1  0.000000  0.000000  0.000000  1
  Sb  Sb3  1  0.750000  0.250000  0.500000  1
  Se  Se4  1  0.510879  0.010879  0.500000  1
  Se  Se5  1  0.989121  0.489121  0.500000  1
  Se  Se6  1  0.760879  0.760879  0.000000  1
  Se  Se7  1  0.239121  0.239121  0.000000  1
