# generated using pymatgen
data_Li2V(PO4)2
_symmetry_space_group_name_H-M   'P 1'
_cell_length_a   6.27347356
_cell_length_b   12.62441928
_cell_length_c   7.55313952
_cell_angle_alpha   90.00000000
_cell_angle_beta   97.90166413
_cell_angle_gamma   90.00000000
_symmetry_Int_Tables_number   1
_chemical_formula_structural   Li2V(PO4)2
_chemical_formula_sum   'Li8 V4 P8 O32'
_cell_volume   592.52116418
_cell_formula_units_Z   4
loop_
 _symmetry_equiv_pos_site_id
 _symmetry_equiv_pos_as_xyz
  1  'x, y, z'
loop_
 _atom_site_type_symbol
 _atom_site_label
 _atom_site_symmetry_multiplicity
 _atom_site_fract_x
 _atom_site_fract_y
 _atom_site_fract_z
 _atom_site_occupancy
  Li  Li0  1  0.543294  0.884912  0.444640  1
  Li  Li1  1  0.196032  0.727676  0.092560  1
  Li  Li2  1  0.043294  0.615088  0.444640  1
  Li  Li3  1  0.456706  0.115088  0.555360  1
  Li  Li4  1  0.696032  0.772324  0.092560  1
  Li  Li5  1  0.803968  0.272324  0.907440  1
  Li  Li6  1  0.303968  0.227676  0.907440  1
  Li  Li7  1  0.956706  0.384912  0.555360  1
  V  V8  1  0.251714  0.420145  0.225815  1
  V  V9  1  0.748286  0.579855  0.774185  1
  V  V10  1  0.751714  0.079855  0.225815  1
  V  V11  1  0.248286  0.920145  0.774185  1
  P  P12  1  0.461991  0.357695  0.639240  1
  P  P13  1  0.740118  0.474590  0.171943  1
  P  P14  1  0.961991  0.142305  0.639240  1
  P  P15  1  0.038009  0.857695  0.360760  1
  P  P16  1  0.240118  0.025410  0.171943  1
  P  P17  1  0.759882  0.974590  0.828057  1
  P  P18  1  0.538009  0.642305  0.360760  1
  P  P19  1  0.259882  0.525410  0.828057  1
  O  O20  1  0.511429  0.246933  0.714048  1
  O  O21  1  0.545551  0.961983  0.699917  1
  O  O22  1  0.337826  0.406388  0.798757  1
  O  O23  1  0.771273  0.465709  0.975640  1
  O  O24  1  0.169252  0.317686  0.096976  1
  O  O25  1  0.340010  0.573954  0.373454  1
  O  O26  1  0.931417  0.900566  0.774232  1
  O  O27  1  0.662174  0.593612  0.201243  1
  O  O28  1  0.988571  0.746933  0.285952  1
  O  O29  1  0.330748  0.817686  0.903024  1
  O  O30  1  0.840010  0.926046  0.373454  1
  O  O31  1  0.431417  0.599434  0.774232  1
  O  O32  1  0.045551  0.538017  0.699917  1
  O  O33  1  0.954449  0.461983  0.300083  1
  O  O34  1  0.454449  0.038017  0.300083  1
  O  O35  1  0.488571  0.753067  0.285952  1
  O  O36  1  0.837826  0.093612  0.798757  1
  O  O37  1  0.789751  0.141601  0.473004  1
  O  O38  1  0.659990  0.426046  0.626546  1
  O  O39  1  0.271273  0.034291  0.975640  1
  O  O40  1  0.710249  0.641601  0.526996  1
  O  O41  1  0.011429  0.253067  0.714048  1
  O  O42  1  0.210249  0.858399  0.526996  1
  O  O43  1  0.669252  0.182314  0.096976  1
  O  O44  1  0.568583  0.400566  0.225768  1
  O  O45  1  0.728727  0.965709  0.024360  1
  O  O46  1  0.228727  0.534291  0.024360  1
  O  O47  1  0.830748  0.682314  0.903024  1
  O  O48  1  0.159990  0.073954  0.626546  1
  O  O49  1  0.162174  0.906388  0.201243  1
  O  O50  1  0.068583  0.099434  0.225768  1
  O  O51  1  0.289751  0.358399  0.473004  1
