# generated using pymatgen
data_Ca(PrS2)2
_symmetry_space_group_name_H-M   'P 1'
_cell_length_a   7.47414050
_cell_length_b   7.47414050
_cell_length_c   7.47414050
_cell_angle_alpha   109.63547719
_cell_angle_beta   109.63547719
_cell_angle_gamma   109.14320463
_symmetry_Int_Tables_number   1
_chemical_formula_structural   Ca(PrS2)2
_chemical_formula_sum   'Ca2 Pr4 S8'
_cell_volume   321.40395304
_cell_formula_units_Z   2
loop_
 _symmetry_equiv_pos_site_id
 _symmetry_equiv_pos_as_xyz
  1  'x, y, z'
loop_
 _atom_site_type_symbol
 _atom_site_label
 _atom_site_symmetry_multiplicity
 _atom_site_fract_x
 _atom_site_fract_y
 _atom_site_fract_z
 _atom_site_occupancy
  Ca  Ca0  1  0.250000  0.750000  0.500000  1
  Ca  Ca1  1  0.500000  0.500000  0.000000  1
  Pr  Pr2  1  0.745695  0.125000  0.120695  1
  Pr  Pr3  1  0.875000  0.995695  0.620695  1
  Pr  Pr4  1  0.004305  0.625000  0.879305  1
  Pr  Pr5  1  0.375000  0.254305  0.379305  1
  S  S6  1  0.627157  0.231998  0.752041  1
  S  S7  1  0.122843  0.374884  0.104841  1
  S  S8  1  0.768002  0.520043  0.395159  1
  S  S9  1  0.981998  0.877157  0.252041  1
  S  S10  1  0.270043  0.018002  0.895159  1
  S  S11  1  0.124884  0.372843  0.604841  1
  S  S12  1  0.479957  0.875116  0.247959  1
  S  S13  1  0.625116  0.729957  0.747959  1
