# generated using pymatgen
data_Zn3Mo2O9
_symmetry_space_group_name_H-M   'P 1'
_cell_length_a   7.87236019
_cell_length_b   7.21451327
_cell_length_c   8.21929146
_cell_angle_alpha   90.00000000
_cell_angle_beta   116.44622257
_cell_angle_gamma   90.00000000
_symmetry_Int_Tables_number   1
_chemical_formula_structural   Zn3Mo2O9
_chemical_formula_sum   'Zn6 Mo4 O18'
_cell_volume   417.96561347
_cell_formula_units_Z   2
loop_
 _symmetry_equiv_pos_site_id
 _symmetry_equiv_pos_as_xyz
  1  'x, y, z'
loop_
 _atom_site_type_symbol
 _atom_site_label
 _atom_site_symmetry_multiplicity
 _atom_site_fract_x
 _atom_site_fract_y
 _atom_site_fract_z
 _atom_site_occupancy
  Zn  Zn0  1  0.500000  0.000000  0.500000  1
  Zn  Zn1  1  0.500000  0.500000  0.500000  1
  Zn  Zn2  1  0.673969  0.250000  0.305639  1
  Zn  Zn3  1  0.326031  0.750000  0.694361  1
  Zn  Zn4  1  0.831163  0.250000  0.752063  1
  Zn  Zn5  1  0.168837  0.750000  0.247937  1
  Mo  Mo6  1  0.329446  0.250000  0.811336  1
  Mo  Mo7  1  0.670554  0.750000  0.188664  1
  Mo  Mo8  1  0.063193  0.250000  0.233590  1
  Mo  Mo9  1  0.936807  0.750000  0.766410  1
  O  O10  1  0.103121  0.250000  0.813419  1
  O  O11  1  0.896879  0.750000  0.186581  1
  O  O12  1  0.505067  0.250000  0.041138  1
  O  O13  1  0.494933  0.750000  0.958862  1
  O  O14  1  0.212905  0.047789  0.273888  1
  O  O15  1  0.787095  0.547789  0.726112  1
  O  O16  1  0.787095  0.952211  0.726112  1
  O  O17  1  0.212905  0.452211  0.273888  1
  O  O18  1  0.954389  0.250000  0.385209  1
  O  O19  1  0.045611  0.750000  0.614791  1
  O  O20  1  0.874893  0.250000  0.010359  1
  O  O21  1  0.125107  0.750000  0.989641  1
  O  O22  1  0.358729  0.048244  0.695285  1
  O  O23  1  0.641271  0.548244  0.304715  1
  O  O24  1  0.641271  0.951756  0.304715  1
  O  O25  1  0.358729  0.451756  0.695285  1
  O  O26  1  0.603290  0.250000  0.512423  1
  O  O27  1  0.396710  0.750000  0.487577  1
