# generated using pymatgen
data_BPO4
_symmetry_space_group_name_H-M   'P 1'
_cell_length_a   4.59577508
_cell_length_b   4.59577508
_cell_length_c   4.59577508
_cell_angle_alpha   122.20170374
_cell_angle_beta   122.20170374
_cell_angle_gamma   86.22704674
_symmetry_Int_Tables_number   1
_chemical_formula_structural   BPO4
_chemical_formula_sum   'B1 P1 O4'
_cell_volume   66.19699425
_cell_formula_units_Z   1
loop_
 _symmetry_equiv_pos_site_id
 _symmetry_equiv_pos_as_xyz
  1  'x, y, z'
loop_
 _atom_site_type_symbol
 _atom_site_label
 _atom_site_symmetry_multiplicity
 _atom_site_fract_x
 _atom_site_fract_y
 _atom_site_fract_z
 _atom_site_occupancy
  B  B0  1  0.250000  0.750000  0.500000  1
  P  P1  1  0.000000  0.000000  0.000000  1
  O  O2  1  0.131554  0.003605  0.388912  1
  O  O3  1  0.257357  0.868446  0.872051  1
  O  O4  1  0.614694  0.742643  0.611088  1
  O  O5  1  0.996394  0.385306  0.127949  1
