# generated using pymatgen
data_VP2O7
_symmetry_space_group_name_H-M   'P 1'
_cell_length_a   6.29171833
_cell_length_b   6.29171833
_cell_length_c   13.38142350
_cell_angle_alpha   74.37262828
_cell_angle_beta   105.62737172
_cell_angle_gamma   100.61689920
_symmetry_Int_Tables_number   1
_chemical_formula_structural   VP2O7
_chemical_formula_sum   'V4 P8 O28'
_cell_volume   487.69974340
_cell_formula_units_Z   4
loop_
 _symmetry_equiv_pos_site_id
 _symmetry_equiv_pos_as_xyz
  1  'x, y, z'
loop_
 _atom_site_type_symbol
 _atom_site_label
 _atom_site_symmetry_multiplicity
 _atom_site_fract_x
 _atom_site_fract_y
 _atom_site_fract_z
 _atom_site_occupancy
  V  V0  1  0.598339  0.886967  0.357057  1
  V  V1  1  0.113033  0.401661  0.857057  1
  V  V2  1  0.401661  0.113033  0.642943  1
  V  V3  1  0.886967  0.598339  0.142943  1
  P  P4  1  0.584357  0.335991  0.431123  1
  P  P5  1  0.751933  0.088932  0.135608  1
  P  P6  1  0.248067  0.911068  0.864392  1
  P  P7  1  0.664009  0.415643  0.931123  1
  P  P8  1  0.335991  0.584357  0.068877  1
  P  P9  1  0.088932  0.751933  0.364392  1
  P  P10  1  0.415643  0.664009  0.568877  1
  P  P11  1  0.911068  0.248067  0.635608  1
  O  O12  1  0.608715  0.198228  0.019935  1
  O  O13  1  0.801772  0.391285  0.519935  1
  O  O14  1  0.214139  0.399033  0.012583  1
  O  O15  1  0.126107  0.082211  0.881731  1
  O  O16  1  0.022500  0.417573  0.703504  1
  O  O17  1  0.417573  0.022500  0.796496  1
  O  O18  1  0.785861  0.600967  0.987417  1
  O  O19  1  0.460590  0.436152  0.642089  1
  O  O20  1  0.436152  0.460590  0.857911  1
  O  O21  1  0.198228  0.608715  0.480065  1
  O  O22  1  0.600967  0.785861  0.512583  1
  O  O23  1  0.399033  0.214139  0.487417  1
  O  O24  1  0.720028  0.093169  0.677222  1
  O  O25  1  0.355485  0.813597  0.629303  1
  O  O26  1  0.644515  0.186403  0.370697  1
  O  O27  1  0.906831  0.279972  0.177222  1
  O  O28  1  0.279972  0.906831  0.322778  1
  O  O29  1  0.813597  0.355485  0.870697  1
  O  O30  1  0.917789  0.873893  0.381731  1
  O  O31  1  0.582427  0.977500  0.203504  1
  O  O32  1  0.391285  0.801772  0.980065  1
  O  O33  1  0.873893  0.917789  0.118269  1
  O  O34  1  0.539410  0.563848  0.357911  1
  O  O35  1  0.093169  0.720028  0.822778  1
  O  O36  1  0.977500  0.582427  0.296496  1
  O  O37  1  0.186403  0.644515  0.129303  1
  O  O38  1  0.563848  0.539410  0.142089  1
  O  O39  1  0.082211  0.126107  0.618269  1
