# generated using pymatgen
data_Mg(TiS2)8
_symmetry_space_group_name_H-M   'P 1'
_cell_length_a   7.01572606
_cell_length_b   9.90539839
_cell_length_c   14.00967295
_cell_angle_alpha   90.00000000
_cell_angle_beta   90.00000000
_cell_angle_gamma   90.00000000
_symmetry_Int_Tables_number   1
_chemical_formula_structural   Mg(TiS2)8
_chemical_formula_sum   'Mg2 Ti16 S32'
_cell_volume   973.58206990
_cell_formula_units_Z   2
loop_
 _symmetry_equiv_pos_site_id
 _symmetry_equiv_pos_as_xyz
  1  'x, y, z'
loop_
 _atom_site_type_symbol
 _atom_site_label
 _atom_site_symmetry_multiplicity
 _atom_site_fract_x
 _atom_site_fract_y
 _atom_site_fract_z
 _atom_site_occupancy
  Mg  Mg0  1  0.500000  0.500000  0.500000  1
  Mg  Mg1  1  0.000000  0.000000  0.000000  1
  Ti  Ti2  1  0.742084  0.254537  0.872440  1
  Ti  Ti3  1  0.500000  0.994502  0.743299  1
  Ti  Ti4  1  0.242084  0.754537  0.627560  1
  Ti  Ti5  1  0.257916  0.254537  0.872440  1
  Ti  Ti6  1  0.000000  0.494502  0.756701  1
  Ti  Ti7  1  0.000000  0.500000  0.500000  1
  Ti  Ti8  1  0.757916  0.245463  0.372440  1
  Ti  Ti9  1  0.757916  0.754537  0.627560  1
  Ti  Ti10  1  0.742084  0.745463  0.127560  1
  Ti  Ti11  1  0.500000  0.000000  0.500000  1
  Ti  Ti12  1  0.500000  0.005498  0.256701  1
  Ti  Ti13  1  0.257916  0.745463  0.127560  1
  Ti  Ti14  1  0.242084  0.245463  0.372440  1
  Ti  Ti15  1  0.000000  0.505498  0.243299  1
  Ti  Ti16  1  0.000000  0.500000  0.000000  1
  Ti  Ti17  1  0.500000  0.000000  0.000000  1
  S  S18  1  0.000000  0.253968  0.753774  1
  S  S19  1  0.742926  0.003760  0.873776  1
  S  S20  1  0.743905  0.998230  0.624130  1
  S  S21  1  0.500000  0.246020  0.752102  1
  S  S22  1  0.500000  0.753968  0.746226  1
  S  S23  1  0.500000  0.754486  0.503698  1
  S  S24  1  0.256095  0.998230  0.624130  1
  S  S25  1  0.257074  0.003760  0.873776  1
  S  S26  1  0.242926  0.503760  0.626224  1
  S  S27  1  0.242926  0.496240  0.373776  1
  S  S28  1  0.000000  0.747167  0.503887  1
  S  S29  1  0.000000  0.746020  0.747898  1
  S  S30  1  0.000000  0.253980  0.252102  1
  S  S31  1  0.000000  0.252833  0.496113  1
  S  S32  1  0.757074  0.496240  0.373776  1
  S  S33  1  0.757074  0.503760  0.626224  1
  S  S34  1  0.743905  0.001770  0.375870  1
  S  S35  1  0.742926  0.996240  0.126224  1
  S  S36  1  0.500000  0.245514  0.496302  1
  S  S37  1  0.500000  0.246032  0.253774  1
  S  S38  1  0.500000  0.753980  0.247898  1
  S  S39  1  0.500000  0.752833  0.003887  1
  S  S40  1  0.257074  0.996240  0.126224  1
  S  S41  1  0.256095  0.001770  0.375870  1
  S  S42  1  0.243905  0.501770  0.124130  1
  S  S43  1  0.243905  0.498230  0.875870  1
  S  S44  1  0.000000  0.746032  0.246226  1
  S  S45  1  0.000000  0.745514  0.003698  1
  S  S46  1  0.000000  0.254486  0.996302  1
  S  S47  1  0.756095  0.501770  0.124130  1
  S  S48  1  0.756095  0.498230  0.875870  1
  S  S49  1  0.500000  0.247167  0.996113  1
