# generated using pymatgen
data_SrLaMnRuO6
_symmetry_space_group_name_H-M   'P 1'
_cell_length_a   5.66261552
_cell_length_b   5.66261552
_cell_length_c   5.66261552
_cell_angle_alpha   61.18483294
_cell_angle_beta   61.18483294
_cell_angle_gamma   61.18483294
_symmetry_Int_Tables_number   1
_chemical_formula_structural   SrLaMnRuO6
_chemical_formula_sum   'Sr1 La1 Mn1 Ru1 O6'
_cell_volume   131.81371385
_cell_formula_units_Z   1
loop_
 _symmetry_equiv_pos_site_id
 _symmetry_equiv_pos_as_xyz
  1  'x, y, z'
loop_
 _atom_site_type_symbol
 _atom_site_label
 _atom_site_symmetry_multiplicity
 _atom_site_fract_x
 _atom_site_fract_y
 _atom_site_fract_z
 _atom_site_occupancy
  Sr  Sr0  1  0.751977  0.751977  0.751977  1
  La  La1  1  0.252452  0.252452  0.252452  1
  Mn  Mn2  1  0.501214  0.501214  0.501214  1
  Ru  Ru3  1  0.000555  0.000555  0.000555  1
  O  O4  1  0.845420  0.233079  0.674124  1
  O  O5  1  0.674124  0.845420  0.233079  1
  O  O6  1  0.761942  0.305735  0.173502  1
  O  O7  1  0.233079  0.674124  0.845420  1
  O  O8  1  0.305735  0.173502  0.761942  1
  O  O9  1  0.173502  0.761942  0.305735  1
