# generated using pymatgen
data_MgAl2O4
_symmetry_space_group_name_H-M   'P 1'
_cell_length_a   19.18593371
_cell_length_b   19.18593371
_cell_length_c   19.18593371
_cell_angle_alpha   17.29148079
_cell_angle_beta   17.29148079
_cell_angle_gamma   17.29148079
_symmetry_Int_Tables_number   1
_chemical_formula_structural   MgAl2O4
_chemical_formula_sum   'Mg8 Al16 O32'
_cell_volume   544.44818126
_cell_formula_units_Z   8
loop_
 _symmetry_equiv_pos_site_id
 _symmetry_equiv_pos_as_xyz
  1  'x, y, z'
loop_
 _atom_site_type_symbol
 _atom_site_label
 _atom_site_symmetry_multiplicity
 _atom_site_fract_x
 _atom_site_fract_y
 _atom_site_fract_z
 _atom_site_occupancy
  Mg  Mg0  1  0.155226  0.155226  0.155226  1
  Mg  Mg1  1  0.405218  0.405218  0.405218  1
  Mg  Mg2  1  0.499547  0.499547  0.499547  1
  Mg  Mg3  1  0.655924  0.655924  0.655924  1
  Mg  Mg4  1  0.749318  0.749318  0.749318  1
  Mg  Mg5  1  0.906394  0.906394  0.906394  1
  Mg  Mg6  1  0.344745  0.344745  0.344745  1
  Mg  Mg7  1  0.593519  0.593519  0.593519  1
  Al  Al8  1  0.620332  0.620332  0.134881  1
  Al  Al9  1  0.134881  0.620332  0.620332  1
  Al  Al10  1  0.620332  0.134881  0.620332  1
  Al  Al11  1  0.872069  0.872069  0.380218  1
  Al  Al12  1  0.380218  0.872069  0.872069  1
  Al  Al13  1  0.872069  0.380218  0.872069  1
  Al  Al14  1  0.124965  0.124965  0.625829  1
  Al  Al15  1  0.625829  0.124965  0.124965  1
  Al  Al16  1  0.095223  0.095223  0.095223  1
  Al  Al17  1  0.000175  0.000175  0.000175  1
  Al  Al18  1  0.124965  0.625829  0.124965  1
  Al  Al19  1  0.372609  0.372609  0.880530  1
  Al  Al20  1  0.880530  0.372609  0.372609  1
  Al  Al21  1  0.250552  0.250552  0.250552  1
  Al  Al22  1  0.372609  0.880530  0.372609  1
  Al  Al23  1  0.844166  0.844166  0.844166  1
  O  O24  1  0.323737  0.782465  0.323737  1
  O  O25  1  0.439997  0.439997  0.439997  1
  O  O26  1  0.782465  0.323737  0.323737  1
  O  O27  1  0.323737  0.323737  0.782465  1
  O  O28  1  0.932654  0.932654  0.453311  1
  O  O29  1  0.572078  0.033490  0.572078  1
  O  O30  1  0.453311  0.932654  0.932654  1
  O  O31  1  0.689934  0.689934  0.689934  1
  O  O32  1  0.033490  0.572078  0.572078  1
  O  O33  1  0.811358  0.811358  0.811358  1
  O  O34  1  0.932654  0.453311  0.932654  1
  O  O35  1  0.572078  0.572078  0.033490  1
  O  O36  1  0.167860  0.167860  0.730600  1
  O  O37  1  0.829539  0.274626  0.829539  1
  O  O38  1  0.940846  0.940846  0.940846  1
  O  O39  1  0.730600  0.167860  0.167860  1
  O  O40  1  0.274626  0.829539  0.829539  1
  O  O41  1  0.062498  0.062498  0.062498  1
  O  O42  1  0.167860  0.730600  0.167860  1
  O  O43  1  0.829539  0.829539  0.274626  1
  O  O44  1  0.420821  0.420821  0.974320  1
  O  O45  1  0.080794  0.523558  0.080794  1
  O  O46  1  0.190729  0.190729  0.190729  1
  O  O47  1  0.974320  0.420821  0.420821  1
  O  O48  1  0.309385  0.309385  0.309385  1
  O  O49  1  0.523558  0.080794  0.080794  1
  O  O50  1  0.420821  0.974320  0.420821  1
  O  O51  1  0.080794  0.080794  0.523558  1
  O  O52  1  0.686578  0.686578  0.195351  1
  O  O53  1  0.195351  0.686578  0.686578  1
  O  O54  1  0.557998  0.557998  0.557998  1
  O  O55  1  0.686578  0.195351  0.686578  1
