# generated using pymatgen
data_CrP2O7
_symmetry_space_group_name_H-M   'P 1'
_cell_length_a   6.48139510
_cell_length_b   6.48139510
_cell_length_c   6.79353688
_cell_angle_alpha   69.35864578
_cell_angle_beta   110.64135422
_cell_angle_gamma   100.08113512
_symmetry_Int_Tables_number   1
_chemical_formula_structural   CrP2O7
_chemical_formula_sum   'Cr2 P4 O14'
_cell_volume   249.50128357
_cell_formula_units_Z   2
loop_
 _symmetry_equiv_pos_site_id
 _symmetry_equiv_pos_as_xyz
  1  'x, y, z'
loop_
 _atom_site_type_symbol
 _atom_site_label
 _atom_site_symmetry_multiplicity
 _atom_site_fract_x
 _atom_site_fract_y
 _atom_site_fract_z
 _atom_site_occupancy
  Cr  Cr0  1  0.313890  0.313890  0.500000  1
  Cr  Cr1  1  0.686110  0.686110  0.500000  1
  P  P2  1  0.223815  0.776185  0.558650  1
  P  P3  1  0.306094  0.693906  0.054837  1
  P  P4  1  0.776185  0.223815  0.441350  1
  P  P5  1  0.693906  0.306094  0.945163  1
  O  O6  1  0.855698  0.144302  0.978622  1
  O  O7  1  0.688183  0.311817  0.175892  1
  O  O8  1  0.638559  0.361441  0.496403  1
  O  O9  1  0.545139  0.764933  0.172756  1
  O  O10  1  0.235067  0.454861  0.172756  1
  O  O11  1  0.454861  0.235067  0.827244  1
  O  O12  1  0.019733  0.285155  0.525814  1
  O  O13  1  0.144302  0.855698  0.021378  1
  O  O14  1  0.361441  0.638559  0.503597  1
  O  O15  1  0.311817  0.688183  0.824108  1
  O  O16  1  0.980267  0.714845  0.474186  1
  O  O17  1  0.714845  0.980267  0.525814  1
  O  O18  1  0.285155  0.019733  0.474186  1
  O  O19  1  0.764933  0.545139  0.827244  1
