# generated using pymatgen
data_La2PbSe4
_symmetry_space_group_name_H-M   'P 1'
_cell_length_a   7.94095919
_cell_length_b   7.94095919
_cell_length_c   7.94095919
_cell_angle_alpha   109.41512072
_cell_angle_beta   109.41512072
_cell_angle_gamma   109.58347881
_symmetry_Int_Tables_number   1
_chemical_formula_structural   La2PbSe4
_chemical_formula_sum   'La4 Pb2 Se8'
_cell_volume   385.47458686
_cell_formula_units_Z   2
loop_
 _symmetry_equiv_pos_site_id
 _symmetry_equiv_pos_as_xyz
  1  'x, y, z'
loop_
 _atom_site_type_symbol
 _atom_site_label
 _atom_site_symmetry_multiplicity
 _atom_site_fract_x
 _atom_site_fract_y
 _atom_site_fract_z
 _atom_site_occupancy
  La  La0  1  0.125000  0.507468  0.882468  1
  La  La1  1  0.625000  0.242532  0.117532  1
  La  La2  1  0.492532  0.375000  0.617532  1
  La  La3  1  0.757468  0.875000  0.382468  1
  Pb  Pb4  1  1.000000  1.000000  0.000000  1
  Pb  Pb5  1  0.250000  0.750000  0.500000  1
  Se  Se6  1  0.866111  0.618256  0.097472  1
  Se  Se7  1  0.018638  0.270784  0.402528  1
  Se  Se8  1  0.231362  0.133889  0.752145  1
  Se  Se9  1  0.383889  0.981362  0.252145  1
  Se  Se10  1  0.520784  0.768638  0.902528  1
  Se  Se11  1  0.381744  0.479216  0.247855  1
  Se  Se12  1  0.729216  0.131744  0.747855  1
  Se  Se13  1  0.868256  0.616111  0.597472  1
