# generated using pymatgen
data_Ta2MnZn2O8
_symmetry_space_group_name_H-M   'P 1'
_cell_length_a   10.27173459
_cell_length_b   10.27173459
_cell_length_c   5.31981237
_cell_angle_alpha   89.83280394
_cell_angle_beta   90.16719606
_cell_angle_gamma   146.16559353
_symmetry_Int_Tables_number   1
_chemical_formula_structural   Ta2MnZn2O8
_chemical_formula_sum   'Ta4 Mn2 Zn4 O16'
_cell_volume   312.51929120
_cell_formula_units_Z   2
loop_
 _symmetry_equiv_pos_site_id
 _symmetry_equiv_pos_as_xyz
  1  'x, y, z'
loop_
 _atom_site_type_symbol
 _atom_site_label
 _atom_site_symmetry_multiplicity
 _atom_site_fract_x
 _atom_site_fract_y
 _atom_site_fract_z
 _atom_site_occupancy
  Ta  Ta0  1  0.039634  0.273646  0.269246  1
  Ta  Ta1  1  0.273646  0.039634  0.230754  1
  Ta  Ta2  1  0.960366  0.726354  0.730754  1
  Ta  Ta3  1  0.726354  0.960366  0.769246  1
  Mn  Mn4  1  0.654285  0.654285  0.250000  1
  Mn  Mn5  1  0.345715  0.345715  0.750000  1
  Zn  Zn6  1  0.871108  0.433781  0.229874  1
  Zn  Zn7  1  0.433781  0.871108  0.270126  1
  Zn  Zn8  1  0.128892  0.566219  0.770126  1
  Zn  Zn9  1  0.566219  0.128892  0.729874  1
  O  O10  1  0.038312  0.182108  0.937313  1
  O  O11  1  0.182108  0.038312  0.562687  1
  O  O12  1  0.961688  0.817892  0.062687  1
  O  O13  1  0.817892  0.961688  0.437313  1
  O  O14  1  0.312039  0.433122  0.405050  1
  O  O15  1  0.433122  0.312039  0.094950  1
  O  O16  1  0.687961  0.566878  0.594950  1
  O  O17  1  0.566878  0.687961  0.905050  1
  O  O18  1  0.926291  0.283306  0.569653  1
  O  O19  1  0.283306  0.926291  0.930347  1
  O  O20  1  0.455100  0.843621  0.640929  1
  O  O21  1  0.843621  0.455100  0.859071  1
  O  O22  1  0.544900  0.156379  0.359071  1
  O  O23  1  0.156379  0.544900  0.140929  1
  O  O24  1  0.716694  0.073709  0.069653  1
  O  O25  1  0.073709  0.716694  0.430347  1
