# generated using pymatgen
data_Yb3Sn13Rh4
_symmetry_space_group_name_H-M   'P 1'
_cell_length_a   9.79410961
_cell_length_b   9.79410961
_cell_length_c   9.79410961
_cell_angle_alpha   90.00000000
_cell_angle_beta   90.00000000
_cell_angle_gamma   90.00000000
_symmetry_Int_Tables_number   1
_chemical_formula_structural   Yb3Sn13Rh4
_chemical_formula_sum   'Yb6 Sn26 Rh8'
_cell_volume   939.49588071
_cell_formula_units_Z   2
loop_
 _symmetry_equiv_pos_site_id
 _symmetry_equiv_pos_as_xyz
  1  'x, y, z'
loop_
 _atom_site_type_symbol
 _atom_site_label
 _atom_site_symmetry_multiplicity
 _atom_site_fract_x
 _atom_site_fract_y
 _atom_site_fract_z
 _atom_site_occupancy
  Yb  Yb0  1  0.000000  0.500000  0.750000  1
  Yb  Yb1  1  0.500000  0.250000  0.000000  1
  Yb  Yb2  1  0.750000  0.000000  0.500000  1
  Yb  Yb3  1  0.000000  0.500000  0.250000  1
  Yb  Yb4  1  0.500000  0.750000  0.000000  1
  Yb  Yb5  1  0.250000  0.000000  0.500000  1
  Sn  Sn6  1  0.500000  0.500000  0.500000  1
  Sn  Sn7  1  0.000000  0.000000  0.000000  1
  Sn  Sn8  1  0.805682  0.346939  0.500000  1
  Sn  Sn9  1  0.653061  0.500000  0.805682  1
  Sn  Sn10  1  0.500000  0.194318  0.653061  1
  Sn  Sn11  1  0.194318  0.653061  0.500000  1
  Sn  Sn12  1  0.346939  0.500000  0.194318  1
  Sn  Sn13  1  0.500000  0.805682  0.346939  1
  Sn  Sn14  1  0.805682  0.653061  0.500000  1
  Sn  Sn15  1  0.653061  0.500000  0.194318  1
  Sn  Sn16  1  0.194318  0.346939  0.500000  1
  Sn  Sn17  1  0.346939  0.500000  0.805682  1
  Sn  Sn18  1  0.500000  0.805682  0.653061  1
  Sn  Sn19  1  0.500000  0.194318  0.346939  1
  Sn  Sn20  1  0.305682  0.000000  0.846939  1
  Sn  Sn21  1  0.153061  0.305682  0.000000  1
  Sn  Sn22  1  0.000000  0.153061  0.694318  1
  Sn  Sn23  1  0.694318  0.000000  0.153061  1
  Sn  Sn24  1  0.846939  0.694318  0.000000  1
  Sn  Sn25  1  0.000000  0.846939  0.305682  1
  Sn  Sn26  1  0.305682  0.000000  0.153061  1
  Sn  Sn27  1  0.153061  0.694318  0.000000  1
  Sn  Sn28  1  0.694318  0.000000  0.846939  1
  Sn  Sn29  1  0.846939  0.305682  0.000000  1
  Sn  Sn30  1  0.000000  0.153061  0.305682  1
  Sn  Sn31  1  0.000000  0.846939  0.694318  1
  Rh  Rh32  1  0.750000  0.250000  0.750000  1
  Rh  Rh33  1  0.250000  0.750000  0.250000  1
  Rh  Rh34  1  0.750000  0.750000  0.250000  1
  Rh  Rh35  1  0.250000  0.250000  0.750000  1
  Rh  Rh36  1  0.250000  0.750000  0.750000  1
  Rh  Rh37  1  0.750000  0.250000  0.250000  1
  Rh  Rh38  1  0.250000  0.250000  0.250000  1
  Rh  Rh39  1  0.750000  0.750000  0.750000  1
