# generated using pymatgen
data_Tb2FeSi2
_symmetry_space_group_name_H-M   'P 1'
_cell_length_a   5.69023733
_cell_length_b   5.69023733
_cell_length_c   10.02398786
_cell_angle_alpha   62.64003827
_cell_angle_beta   117.35996173
_cell_angle_gamma   137.24179867
_symmetry_Int_Tables_number   1
_chemical_formula_structural   Tb2FeSi2
_chemical_formula_sum   'Tb4 Fe2 Si4'
_cell_volume   191.64246533
_cell_formula_units_Z   2
loop_
 _symmetry_equiv_pos_site_id
 _symmetry_equiv_pos_as_xyz
  1  'x, y, z'
loop_
 _atom_site_type_symbol
 _atom_site_label
 _atom_site_symmetry_multiplicity
 _atom_site_fract_x
 _atom_site_fract_y
 _atom_site_fract_z
 _atom_site_occupancy
  Tb  Tb0  1  0.811176  0.188824  0.891581  1
  Tb  Tb1  1  0.188824  0.811176  0.108419  1
  Tb  Tb2  1  0.001442  0.998558  0.672395  1
  Tb  Tb3  1  0.998558  0.001442  0.327605  1
  Fe  Fe4  1  0.272365  0.727635  0.623163  1
  Fe  Fe5  1  0.727635  0.272365  0.376837  1
  Si  Si6  1  0.498067  0.501933  0.872680  1
  Si  Si7  1  0.501933  0.498067  0.127320  1
  Si  Si8  1  0.657371  0.342629  0.564253  1
  Si  Si9  1  0.342629  0.657371  0.435747  1
