# generated using pymatgen
data_PHN2
_symmetry_space_group_name_H-M   'P 1'
_cell_length_a   4.90314024
_cell_length_b   4.90314024
_cell_length_c   4.90314024
_cell_angle_alpha   121.71820417
_cell_angle_beta   121.17421766
_cell_angle_gamma   87.51349942
_symmetry_Int_Tables_number   1
_chemical_formula_structural   PHN2
_chemical_formula_sum   'P2 H2 N4'
_cell_volume   81.44268910
_cell_formula_units_Z   2
loop_
 _symmetry_equiv_pos_site_id
 _symmetry_equiv_pos_as_xyz
  1  'x, y, z'
loop_
 _atom_site_type_symbol
 _atom_site_label
 _atom_site_symmetry_multiplicity
 _atom_site_fract_x
 _atom_site_fract_y
 _atom_site_fract_z
 _atom_site_occupancy
  P  P0  1  0.864646  0.614646  0.250000  1
  P  P1  1  0.635354  0.885354  0.750000  1
  H  H2  1  0.250000  0.105984  0.855984  1
  H  H3  1  0.750000  0.394016  0.644016  1
  N  N4  1  0.608638  0.750000  0.358638  1
  N  N5  1  0.250000  0.890919  0.640919  1
  N  N6  1  0.891362  0.250000  0.141362  1
  N  N7  1  0.750000  0.609081  0.859081  1
