# generated using pymatgen
data_Tm2MgS4
_symmetry_space_group_name_H-M   'P 1'
_cell_length_a   7.11790532
_cell_length_b   7.11790532
_cell_length_c   7.11790532
_cell_angle_alpha   110.43438717
_cell_angle_beta   110.43438717
_cell_angle_gamma   107.56159921
_symmetry_Int_Tables_number   1
_chemical_formula_structural   Tm2MgS4
_chemical_formula_sum   'Tm4 Mg2 S8'
_cell_volume   277.37942935
_cell_formula_units_Z   2
loop_
 _symmetry_equiv_pos_site_id
 _symmetry_equiv_pos_as_xyz
  1  'x, y, z'
loop_
 _atom_site_type_symbol
 _atom_site_label
 _atom_site_symmetry_multiplicity
 _atom_site_fract_x
 _atom_site_fract_y
 _atom_site_fract_z
 _atom_site_occupancy
  Tm  Tm0  1  0.742194  0.125000  0.117194  1
  Tm  Tm1  1  0.875000  0.992194  0.617194  1
  Tm  Tm2  1  0.007806  0.625000  0.882806  1
  Tm  Tm3  1  0.375000  0.257806  0.382806  1
  Mg  Mg4  1  0.250000  0.750000  0.500000  1
  Mg  Mg5  1  0.500000  0.500000  0.000000  1
  S  S6  1  0.630008  0.259877  0.761320  1
  S  S7  1  0.119992  0.381311  0.129869  1
  S  S8  1  0.740123  0.501442  0.370131  1
  S  S9  1  0.009877  0.880008  0.261320  1
  S  S10  1  0.251442  0.990123  0.870131  1
  S  S11  1  0.131311  0.369992  0.629869  1
  S  S12  1  0.498558  0.868689  0.238680  1
  S  S13  1  0.618689  0.748558  0.738680  1
