# generated using pymatgen
data_H30S2O21
_symmetry_space_group_name_H-M   'P 1'
_cell_length_a   13.88083986
_cell_length_b   13.88083986
_cell_length_c   5.93278522
_cell_angle_alpha   85.04430262
_cell_angle_beta   94.95569738
_cell_angle_gamma   26.27360600
_symmetry_Int_Tables_number   1
_chemical_formula_structural   H30S2O21
_chemical_formula_sum   'H30 S2 O21'
_cell_volume   468.03337256
_cell_formula_units_Z   1
loop_
 _symmetry_equiv_pos_site_id
 _symmetry_equiv_pos_as_xyz
  1  'x, y, z'
loop_
 _atom_site_type_symbol
 _atom_site_label
 _atom_site_symmetry_multiplicity
 _atom_site_fract_x
 _atom_site_fract_y
 _atom_site_fract_z
 _atom_site_occupancy
  H  H0  1  0.589277  0.248964  0.160322  1
  H  H1  1  0.751036  0.410723  0.160322  1
  H  H2  1  0.788378  0.020249  0.089749  1
  H  H3  1  0.979751  0.211622  0.089749  1
  H  H4  1  0.076168  0.923832  0.559819  1
  H  H5  1  0.906399  0.026599  0.300715  1
  H  H6  1  0.973401  0.093601  0.300715  1
  H  H7  1  0.177948  0.762850  0.935170  1
  H  H8  1  0.237150  0.822052  0.935170  1
  H  H9  1  0.315157  0.477623  0.660397  1
  H  H10  1  0.522377  0.684843  0.660397  1
  H  H11  1  0.342874  0.500108  0.412867  1
  H  H12  1  0.499892  0.657126  0.412867  1
  H  H13  1  0.562297  0.372086  0.708705  1
  H  H14  1  0.627914  0.437703  0.708705  1
  H  H15  1  0.849520  0.150480  0.815650  1
  H  H16  1  0.421936  0.230988  0.410427  1
  H  H17  1  0.769012  0.578064  0.410427  1
  H  H18  1  0.675053  0.014252  0.622567  1
  H  H19  1  0.985748  0.324947  0.622567  1
  H  H20  1  0.074724  0.490629  0.828590  1
  H  H21  1  0.509371  0.925276  0.828590  1
  H  H22  1  0.974671  0.479112  0.720012  1
  H  H23  1  0.296675  0.091830  0.247156  1
  H  H24  1  0.908170  0.703325  0.247156  1
  H  H25  1  0.094175  0.310307  0.352067  1
  H  H26  1  0.689693  0.905825  0.352067  1
  H  H27  1  0.101942  0.361693  0.069430  1
  H  H28  1  0.638307  0.898058  0.069430  1
  H  H29  1  0.520888  0.025329  0.720012  1
  S  S30  1  0.120430  0.621486  0.001062  1
  S  S31  1  0.378514  0.879570  0.001062  1
  O  O32  1  0.758985  0.079798  0.218621  1
  O  O33  1  0.920202  0.241015  0.218621  1
  O  O34  1  0.028809  0.971191  0.376123  1
  O  O35  1  0.119279  0.880721  0.847520  1
  O  O36  1  0.402425  0.445820  0.592098  1
  O  O37  1  0.554180  0.597575  0.592098  1
  O  O38  1  0.682149  0.317851  0.794375  1
  O  O39  1  0.571150  0.061717  0.514245  1
  O  O40  1  0.938283  0.428850  0.514245  1
  O  O41  1  0.992231  0.505618  0.854392  1
  O  O42  1  0.494382  0.007769  0.854392  1
  O  O43  1  0.763586  0.800980  0.257971  1
  O  O44  1  0.199020  0.236414  0.257971  1
  O  O45  1  0.184714  0.514005  0.821541  1
  O  O46  1  0.485995  0.815286  0.821541  1
  O  O47  1  0.876854  0.881528  0.889530  1
  O  O48  1  0.118472  0.123146  0.889530  1
  O  O49  1  0.143994  0.530751  0.217466  1
  O  O50  1  0.469249  0.856006  0.217466  1
  O  O51  1  0.286824  0.553161  0.090747  1
  O  O52  1  0.446839  0.713176  0.090747  1
