# generated using pymatgen
data_BaBi2O5
_symmetry_space_group_name_H-M   'P 1'
_cell_length_a   4.21076612
_cell_length_b   4.21076612
_cell_length_c   9.42318807
_cell_angle_alpha   90.00000000
_cell_angle_beta   90.00000000
_cell_angle_gamma   90.00000000
_symmetry_Int_Tables_number   1
_chemical_formula_structural   BaBi2O5
_chemical_formula_sum   'Ba1 Bi2 O5'
_cell_volume   167.07831965
_cell_formula_units_Z   1
loop_
 _symmetry_equiv_pos_site_id
 _symmetry_equiv_pos_as_xyz
  1  'x, y, z'
loop_
 _atom_site_type_symbol
 _atom_site_label
 _atom_site_symmetry_multiplicity
 _atom_site_fract_x
 _atom_site_fract_y
 _atom_site_fract_z
 _atom_site_occupancy
  Ba  Ba0  1  0.000000  0.000000  0.500000  1
  Bi  Bi1  1  0.500000  0.500000  0.222919  1
  Bi  Bi2  1  0.500000  0.500000  0.777081  1
  O  O3  1  0.000000  0.500000  0.307281  1
  O  O4  1  0.500000  0.500000  0.000000  1
  O  O5  1  0.500000  0.000000  0.307281  1
  O  O6  1  0.500000  0.000000  0.692719  1
  O  O7  1  0.000000  0.500000  0.692719  1
