# generated using pymatgen
data_Nd2Co17
_symmetry_space_group_name_H-M   'P 1'
_cell_length_a   6.32029156
_cell_length_b   6.32029156
_cell_length_c   6.32029156
_cell_angle_alpha   83.10366418
_cell_angle_beta   83.10366418
_cell_angle_gamma   83.10366418
_symmetry_Int_Tables_number   1
_chemical_formula_structural   Nd2Co17
_chemical_formula_sum   'Nd2 Co17'
_cell_volume   247.39695053
_cell_formula_units_Z   1
loop_
 _symmetry_equiv_pos_site_id
 _symmetry_equiv_pos_as_xyz
  1  'x, y, z'
loop_
 _atom_site_type_symbol
 _atom_site_label
 _atom_site_symmetry_multiplicity
 _atom_site_fract_x
 _atom_site_fract_y
 _atom_site_fract_z
 _atom_site_occupancy
  Nd  Nd0  1  0.655363  0.655363  0.655363  1
  Nd  Nd1  1  0.344637  0.344637  0.344637  1
  Co  Co2  1  0.904220  0.904220  0.904220  1
  Co  Co3  1  0.095780  0.095780  0.095780  1
  Co  Co4  1  0.500000  0.000000  0.000000  1
  Co  Co5  1  0.000000  0.500000  0.000000  1
  Co  Co6  1  1.000000  1.000000  0.500000  1
  Co  Co7  1  0.000000  0.715031  0.284969  1
  Co  Co8  1  0.284969  0.000000  0.715031  1
  Co  Co9  1  0.715031  0.284969  0.000000  1
  Co  Co10  1  0.000000  0.284969  0.715031  1
  Co  Co11  1  0.715031  0.000000  0.284969  1
  Co  Co12  1  0.284969  0.715031  0.000000  1
  Co  Co13  1  0.342990  0.342990  0.851576  1
  Co  Co14  1  0.851576  0.342990  0.342990  1
  Co  Co15  1  0.342990  0.851576  0.342990  1
  Co  Co16  1  0.657010  0.148424  0.657010  1
  Co  Co17  1  0.657010  0.657010  0.148424  1
  Co  Co18  1  0.148424  0.657010  0.657010  1
