# generated using pymatgen
data_SrSeO3
_symmetry_space_group_name_H-M   'P 1'
_cell_length_a   4.49308003
_cell_length_b   5.59508632
_cell_length_c   6.74076418
_cell_angle_alpha   90.00000000
_cell_angle_beta   108.14677121
_cell_angle_gamma   90.00000000
_symmetry_Int_Tables_number   1
_chemical_formula_structural   SrSeO3
_chemical_formula_sum   'Sr2 Se2 O6'
_cell_volume   161.02872448
_cell_formula_units_Z   2
loop_
 _symmetry_equiv_pos_site_id
 _symmetry_equiv_pos_as_xyz
  1  'x, y, z'
loop_
 _atom_site_type_symbol
 _atom_site_label
 _atom_site_symmetry_multiplicity
 _atom_site_fract_x
 _atom_site_fract_y
 _atom_site_fract_z
 _atom_site_occupancy
  Sr  Sr0  1  0.654037  0.750000  0.304433  1
  Sr  Sr1  1  0.345963  0.250000  0.695567  1
  Se  Se2  1  0.935450  0.750000  0.842114  1
  Se  Se3  1  0.064550  0.250000  0.157886  1
  O  O4  1  0.173244  0.011184  0.329649  1
  O  O5  1  0.826756  0.511184  0.670351  1
  O  O6  1  0.826756  0.988816  0.670351  1
  O  O7  1  0.173244  0.488816  0.329649  1
  O  O8  1  0.663215  0.250000  0.101051  1
  O  O9  1  0.336785  0.750000  0.898949  1
