# generated using pymatgen
data_Ga2CuO4
_symmetry_space_group_name_H-M   'P 1'
_cell_length_a   6.03773582
_cell_length_b   6.03773582
_cell_length_c   6.03773582
_cell_angle_alpha   123.43040419
_cell_angle_beta   121.79098486
_cell_angle_gamma   85.54099746
_symmetry_Int_Tables_number   1
_chemical_formula_structural   Ga2CuO4
_chemical_formula_sum   'Ga4 Cu2 O8'
_cell_volume   148.95935968
_cell_formula_units_Z   2
loop_
 _symmetry_equiv_pos_site_id
 _symmetry_equiv_pos_as_xyz
  1  'x, y, z'
loop_
 _atom_site_type_symbol
 _atom_site_label
 _atom_site_symmetry_multiplicity
 _atom_site_fract_x
 _atom_site_fract_y
 _atom_site_fract_z
 _atom_site_occupancy
  Ga  Ga0  1  0.610895  0.360895  0.250000  1
  Ga  Ga1  1  0.389105  0.639105  0.750000  1
  Ga  Ga2  1  0.500000  0.000000  0.500000  1
  Ga  Ga3  1  0.000000  0.000000  0.000000  1
  Cu  Cu4  1  0.000000  0.500000  0.000000  1
  Cu  Cu5  1  0.000000  0.000000  0.500000  1
  O  O6  1  0.261694  0.776437  0.014744  1
  O  O7  1  0.253398  0.766441  0.486958  1
  O  O8  1  0.261694  0.246950  0.485256  1
  O  O9  1  0.779483  0.766441  0.013042  1
  O  O10  1  0.220517  0.233559  0.986958  1
  O  O11  1  0.738306  0.753050  0.514744  1
  O  O12  1  0.746602  0.233559  0.513042  1
  O  O13  1  0.738306  0.223563  0.985256  1
