# generated using pymatgen
data_Fe3(PO4)4
_symmetry_space_group_name_H-M   'P 1'
_cell_length_a   10.07232741
_cell_length_b   10.07232741
_cell_length_c   10.95585346
_cell_angle_alpha   88.09240609
_cell_angle_beta   91.90759391
_cell_angle_gamma   143.10785899
_symmetry_Int_Tables_number   1
_chemical_formula_structural   Fe3(PO4)4
_chemical_formula_sum   'Fe6 P8 O32'
_cell_volume   666.82872183
_cell_formula_units_Z   2
loop_
 _symmetry_equiv_pos_site_id
 _symmetry_equiv_pos_as_xyz
  1  'x, y, z'
loop_
 _atom_site_type_symbol
 _atom_site_label
 _atom_site_symmetry_multiplicity
 _atom_site_fract_x
 _atom_site_fract_y
 _atom_site_fract_z
 _atom_site_occupancy
  Fe  Fe0  1  0.370939  0.672296  0.750550  1
  Fe  Fe1  1  0.629061  0.327704  0.249450  1
  Fe  Fe2  1  0.500000  0.000000  0.000000  1
  Fe  Fe3  1  0.327704  0.629061  0.250550  1
  Fe  Fe4  1  0.672296  0.370939  0.749450  1
  Fe  Fe5  1  0.000000  0.500000  0.500000  1
  P  P6  1  0.423817  0.253661  0.991861  1
  P  P7  1  0.181605  0.778914  0.244621  1
  P  P8  1  0.253661  0.423817  0.508139  1
  P  P9  1  0.778914  0.181605  0.255379  1
  P  P10  1  0.746339  0.576183  0.491861  1
  P  P11  1  0.818395  0.221086  0.755379  1
  P  P12  1  0.221086  0.818395  0.744621  1
  P  P13  1  0.576183  0.746339  0.008139  1
  O  O14  1  0.190960  0.227022  0.535906  1
  O  O15  1  0.629621  0.943170  0.279195  1
  O  O16  1  0.761959  0.272576  0.361298  1
  O  O17  1  0.227022  0.190960  0.964094  1
  O  O18  1  0.413927  0.588436  0.113546  1
  O  O19  1  0.673414  0.985822  0.731375  1
  O  O20  1  0.346256  0.045471  0.991730  1
  O  O21  1  0.238041  0.727424  0.638702  1
  O  O22  1  0.727424  0.238041  0.861298  1
  O  O23  1  0.985822  0.673414  0.768625  1
  O  O24  1  0.772978  0.809040  0.035906  1
  O  O25  1  0.205319  0.690186  0.354702  1
  O  O26  1  0.056830  0.370379  0.779195  1
  O  O27  1  0.809040  0.772978  0.464094  1
  O  O28  1  0.370379  0.056830  0.720805  1
  O  O29  1  0.586073  0.411564  0.886454  1
  O  O30  1  0.631894  0.473152  0.616030  1
  O  O31  1  0.794681  0.309814  0.645298  1
  O  O32  1  0.411564  0.586073  0.613546  1
  O  O33  1  0.473152  0.631894  0.883970  1
  O  O34  1  0.690186  0.205319  0.145298  1
  O  O35  1  0.943170  0.629621  0.220805  1
  O  O36  1  0.526848  0.368106  0.116030  1
  O  O37  1  0.368106  0.526848  0.383970  1
  O  O38  1  0.014178  0.326586  0.231375  1
  O  O39  1  0.954529  0.653744  0.491730  1
  O  O40  1  0.588436  0.413927  0.386454  1
  O  O41  1  0.653744  0.954529  0.008270  1
  O  O42  1  0.326586  0.014178  0.268625  1
  O  O43  1  0.309814  0.794681  0.854702  1
  O  O44  1  0.045471  0.346256  0.508270  1
  O  O45  1  0.272576  0.761959  0.138702  1
