# generated using pymatgen
data_Rb4SnS4
_symmetry_space_group_name_H-M   'P 1'
_cell_length_a   13.67538555
_cell_length_b   13.67538555
_cell_length_c   13.67538555
_cell_angle_alpha   90.00000000
_cell_angle_beta   90.00000000
_cell_angle_gamma   90.00000000
_symmetry_Int_Tables_number   1
_chemical_formula_structural   Rb4SnS4
_chemical_formula_sum   'Rb32 Sn8 S32'
_cell_volume   2557.51822803
_cell_formula_units_Z   8
loop_
 _symmetry_equiv_pos_site_id
 _symmetry_equiv_pos_as_xyz
  1  'x, y, z'
loop_
 _atom_site_type_symbol
 _atom_site_label
 _atom_site_symmetry_multiplicity
 _atom_site_fract_x
 _atom_site_fract_y
 _atom_site_fract_z
 _atom_site_occupancy
  Rb  Rb0  1  0.915924  0.863424  0.652607  1
  Rb  Rb1  1  0.915924  0.136576  0.347393  1
  Rb  Rb2  1  0.863424  0.652607  0.915924  1
  Rb  Rb3  1  0.136576  0.652607  0.084076  1
  Rb  Rb4  1  0.652607  0.915924  0.863424  1
  Rb  Rb5  1  0.347393  0.084076  0.863424  1
  Rb  Rb6  1  0.584076  0.847393  0.363424  1
  Rb  Rb7  1  0.584076  0.152607  0.636576  1
  Rb  Rb8  1  0.415924  0.847393  0.636576  1
  Rb  Rb9  1  0.152607  0.636576  0.584076  1
  Rb  Rb10  1  0.636576  0.415924  0.847393  1
  Rb  Rb11  1  0.636576  0.584076  0.152607  1
  Rb  Rb12  1  0.847393  0.363424  0.584076  1
  Rb  Rb13  1  0.363424  0.584076  0.847393  1
  Rb  Rb14  1  0.847393  0.636576  0.415924  1
  Rb  Rb15  1  0.152607  0.363424  0.415924  1
  Rb  Rb16  1  0.363424  0.415924  0.152607  1
  Rb  Rb17  1  0.347393  0.915924  0.136576  1
  Rb  Rb18  1  0.652607  0.084076  0.136576  1
  Rb  Rb19  1  0.863424  0.347393  0.084076  1
  Rb  Rb20  1  0.136576  0.347393  0.915924  1
  Rb  Rb21  1  0.084076  0.136576  0.652607  1
  Rb  Rb22  1  0.084076  0.863424  0.347393  1
  Rb  Rb23  1  0.415924  0.152607  0.363424  1
  Rb  Rb24  1  0.154048  0.154048  0.154048  1
  Rb  Rb25  1  0.345952  0.654048  0.345952  1
  Rb  Rb26  1  0.654048  0.345952  0.345952  1
  Rb  Rb27  1  0.345952  0.345952  0.654048  1
  Rb  Rb28  1  0.154048  0.845952  0.845952  1
  Rb  Rb29  1  0.845952  0.845952  0.154048  1
  Rb  Rb30  1  0.845952  0.154048  0.845952  1
  Rb  Rb31  1  0.654048  0.654048  0.654048  1
  Sn  Sn32  1  0.750000  0.000000  0.500000  1
  Sn  Sn33  1  0.500000  0.750000  0.000000  1
  Sn  Sn34  1  0.500000  0.250000  0.000000  1
  Sn  Sn35  1  0.000000  0.500000  0.250000  1
  Sn  Sn36  1  0.000000  0.500000  0.750000  1
  Sn  Sn37  1  0.250000  0.000000  0.500000  1
  Sn  Sn38  1  0.500000  0.500000  0.500000  1
  Sn  Sn39  1  0.000000  0.000000  0.000000  1
  S  S40  1  0.653467  0.901875  0.611747  1
  S  S41  1  0.653467  0.098125  0.388253  1
  S  S42  1  0.901875  0.611747  0.653467  1
  S  S43  1  0.098125  0.611747  0.346533  1
  S  S44  1  0.611747  0.653467  0.901875  1
  S  S45  1  0.388253  0.346533  0.901875  1
  S  S46  1  0.846533  0.888253  0.401875  1
  S  S47  1  0.846533  0.111747  0.598125  1
  S  S48  1  0.153467  0.888253  0.598125  1
  S  S49  1  0.111747  0.598125  0.846533  1
  S  S50  1  0.598125  0.153467  0.888253  1
  S  S51  1  0.598125  0.846533  0.111747  1
  S  S52  1  0.888253  0.401875  0.846533  1
  S  S53  1  0.401875  0.846533  0.888253  1
  S  S54  1  0.888253  0.598125  0.153467  1
  S  S55  1  0.111747  0.401875  0.153467  1
  S  S56  1  0.401875  0.153467  0.111747  1
  S  S57  1  0.388253  0.653467  0.098125  1
  S  S58  1  0.611747  0.346533  0.098125  1
  S  S59  1  0.901875  0.388253  0.346533  1
  S  S60  1  0.098125  0.388253  0.653467  1
  S  S61  1  0.346533  0.098125  0.611747  1
  S  S62  1  0.346533  0.901875  0.388253  1
  S  S63  1  0.153467  0.111747  0.401875  1
  S  S64  1  0.897867  0.897867  0.897867  1
  S  S65  1  0.602133  0.397867  0.602133  1
  S  S66  1  0.397867  0.602133  0.602133  1
  S  S67  1  0.602133  0.602133  0.397867  1
  S  S68  1  0.897867  0.102133  0.102133  1
  S  S69  1  0.102133  0.102133  0.897867  1
  S  S70  1  0.102133  0.897867  0.102133  1
  S  S71  1  0.397867  0.397867  0.397867  1
