# generated using pymatgen
data_Na3UO4
_symmetry_space_group_name_H-M   'P 1'
_cell_length_a   5.81000472
_cell_length_b   5.81000472
_cell_length_c   3.49933327
_cell_angle_alpha   90.00000000
_cell_angle_beta   90.00000000
_cell_angle_gamma   107.82750726
_symmetry_Int_Tables_number   1
_chemical_formula_structural   Na3UO4
_chemical_formula_sum   'Na3 U1 O4'
_cell_volume   112.45201726
_cell_formula_units_Z   1
loop_
 _symmetry_equiv_pos_site_id
 _symmetry_equiv_pos_as_xyz
  1  'x, y, z'
loop_
 _atom_site_type_symbol
 _atom_site_label
 _atom_site_symmetry_multiplicity
 _atom_site_fract_x
 _atom_site_fract_y
 _atom_site_fract_z
 _atom_site_occupancy
  Na  Na0  1  1.000000  0.500000  0.500000  1
  Na  Na1  1  0.500000  1.000000  0.500000  1
  Na  Na2  1  0.500000  0.500000  0.000000  1
  U  U3  1  0.000000  0.000000  0.000000  1
  O  O4  1  0.783993  0.216007  0.000000  1
  O  O5  1  0.786751  0.786751  0.500000  1
  O  O6  1  0.213249  0.213249  0.500000  1
  O  O7  1  0.216007  0.783993  0.000000  1
