# generated using pymatgen
data_B5H11
_symmetry_space_group_name_H-M   'P 1'
_cell_length_a   7.00706045
_cell_length_b   8.87340123
_cell_length_c   12.21103164
_cell_angle_alpha   90.00000000
_cell_angle_beta   120.07171068
_cell_angle_gamma   90.00000000
_symmetry_Int_Tables_number   1
_chemical_formula_structural   B5H11
_chemical_formula_sum   'B20 H44'
_cell_volume   657.04436502
_cell_formula_units_Z   4
loop_
 _symmetry_equiv_pos_site_id
 _symmetry_equiv_pos_as_xyz
  1  'x, y, z'
loop_
 _atom_site_type_symbol
 _atom_site_label
 _atom_site_symmetry_multiplicity
 _atom_site_fract_x
 _atom_site_fract_y
 _atom_site_fract_z
 _atom_site_occupancy
  B  B0  1  0.488698  0.289599  0.875037  1
  B  B1  1  0.511302  0.789599  0.624963  1
  B  B2  1  0.511302  0.710401  0.124963  1
  B  B3  1  0.488698  0.210401  0.375037  1
  B  B4  1  0.316991  0.338779  0.709867  1
  B  B5  1  0.683009  0.838779  0.790133  1
  B  B6  1  0.683009  0.661221  0.290133  1
  B  B7  1  0.316991  0.161221  0.209867  1
  B  B8  1  0.291560  0.450011  0.819200  1
  B  B9  1  0.708440  0.950011  0.680800  1
  B  B10  1  0.708440  0.549989  0.180800  1
  B  B11  1  0.291560  0.049989  0.319200  1
  B  B12  1  0.054062  0.395619  0.683786  1
  B  B13  1  0.945938  0.895619  0.816214  1
  B  B14  1  0.945938  0.604381  0.316214  1
  B  B15  1  0.054062  0.104381  0.183786  1
  B  B16  1  0.033584  0.397588  0.819998  1
  B  B17  1  0.966416  0.897588  0.680002  1
  B  B18  1  0.966416  0.602412  0.180002  1
  B  B19  1  0.033584  0.102412  0.319998  1
  H  H20  1  0.362813  0.371356  0.918900  1
  H  H21  1  0.637187  0.871356  0.581100  1
  H  H22  1  0.637187  0.628644  0.081100  1
  H  H23  1  0.362813  0.128644  0.418900  1
  H  H24  1  0.412208  0.213328  0.761913  1
  H  H25  1  0.587792  0.713328  0.738087  1
  H  H26  1  0.587792  0.786672  0.238087  1
  H  H27  1  0.412208  0.286672  0.261913  1
  H  H28  1  0.119816  0.274772  0.641765  1
  H  H29  1  0.880184  0.774772  0.858235  1
  H  H30  1  0.880184  0.725228  0.358235  1
  H  H31  1  0.119816  0.225228  0.141765  1
  H  H32  1  0.922199  0.318438  0.709033  1
  H  H33  1  0.077801  0.818438  0.790967  1
  H  H34  1  0.077801  0.681562  0.290967  1
  H  H35  1  0.459342  0.182022  0.925466  1
  H  H36  1  0.922199  0.181562  0.209033  1
  H  H37  1  0.324386  0.826543  0.587137  1
  H  H38  1  0.324386  0.673457  0.087137  1
  H  H39  1  0.675614  0.173457  0.412863  1
  H  H40  1  0.910489  0.005092  0.314531  1
  H  H41  1  0.089511  0.505092  0.185469  1
  H  H42  1  0.089511  0.994908  0.685469  1
  H  H43  1  0.910489  0.494908  0.814531  1
  H  H44  1  0.069525  0.204443  0.392219  1
  H  H45  1  0.930475  0.704443  0.107781  1
  H  H46  1  0.930475  0.795557  0.607781  1
  H  H47  1  0.069525  0.295557  0.892219  1
  H  H48  1  0.954387  0.019884  0.097807  1
  H  H49  1  0.045613  0.519884  0.402193  1
  H  H50  1  0.045613  0.980116  0.902193  1
  H  H51  1  0.954387  0.480116  0.597807  1
  H  H52  1  0.357681  0.923280  0.335748  1
  H  H53  1  0.642319  0.423280  0.164252  1
  H  H54  1  0.642319  0.076720  0.664252  1
  H  H55  1  0.357681  0.576720  0.835748  1
  H  H56  1  0.378167  0.116926  0.140664  1
  H  H57  1  0.621833  0.616926  0.359336  1
  H  H58  1  0.621833  0.883074  0.859336  1
  H  H59  1  0.378167  0.383074  0.640664  1
  H  H60  1  0.459342  0.317978  0.425466  1
  H  H61  1  0.540658  0.817978  0.074534  1
  H  H62  1  0.540658  0.682022  0.574534  1
  H  H63  1  0.675614  0.326543  0.912863  1
