# generated using pymatgen
data_Ho12InPt7
_symmetry_space_group_name_H-M   'P 1'
_cell_length_a   10.91414706
_cell_length_b   10.91414706
_cell_length_c   10.91414706
_cell_angle_alpha   116.03078366
_cell_angle_beta   116.03078366
_cell_angle_gamma   97.02440077
_symmetry_Int_Tables_number   1
_chemical_formula_structural   Ho12InPt7
_chemical_formula_sum   'Ho24 In2 Pt14'
_cell_volume   966.57443984
_cell_formula_units_Z   2
loop_
 _symmetry_equiv_pos_site_id
 _symmetry_equiv_pos_as_xyz
  1  'x, y, z'
loop_
 _atom_site_type_symbol
 _atom_site_label
 _atom_site_symmetry_multiplicity
 _atom_site_fract_x
 _atom_site_fract_y
 _atom_site_fract_z
 _atom_site_occupancy
  Ho  Ho0  1  0.571710  0.438009  0.719259  1
  Ho  Ho1  1  0.281249  0.147549  0.719259  1
  Ho  Ho2  1  0.428290  0.561991  0.280741  1
  Ho  Ho3  1  0.071710  0.352451  0.133701  1
  Ho  Ho4  1  0.147549  0.428290  0.866299  1
  Ho  Ho5  1  0.561991  0.281249  0.133701  1
  Ho  Ho6  1  0.781249  0.061991  0.133701  1
  Ho  Ho7  1  0.061991  0.928290  0.280741  1
  Ho  Ho8  1  0.647549  0.781249  0.719259  1
  Ho  Ho9  1  0.718751  0.852451  0.280741  1
  Ho  Ho10  1  0.177117  0.322883  0.500000  1
  Ho  Ho11  1  0.928290  0.647549  0.866299  1
  Ho  Ho12  1  0.852451  0.571710  0.133701  1
  Ho  Ho13  1  0.438009  0.718751  0.866299  1
  Ho  Ho14  1  0.133281  0.633281  0.500000  1
  Ho  Ho15  1  0.633281  0.133281  0.500000  1
  Ho  Ho16  1  0.366719  0.866719  0.500000  1
  Ho  Ho17  1  0.866719  0.366719  0.500000  1
  Ho  Ho18  1  0.322883  0.822883  0.145765  1
  Ho  Ho19  1  0.938009  0.071710  0.719259  1
  Ho  Ho20  1  0.677117  0.177117  0.854235  1
  Ho  Ho21  1  0.822883  0.677117  0.500000  1
  Ho  Ho22  1  0.218751  0.938009  0.866299  1
  Ho  Ho23  1  0.352451  0.218751  0.280741  1
  In  In24  1  0.500000  0.500000  0.000000  1
  In  In25  1  0.000000  0.000000  0.000000  1
  Pt  Pt26  1  0.863785  0.363785  0.843000  1
  Pt  Pt27  1  0.136215  0.636215  0.157000  1
  Pt  Pt28  1  0.479215  0.979215  0.843000  1
  Pt  Pt29  1  0.020785  0.863785  0.500000  1
  Pt  Pt30  1  0.636215  0.479215  0.500000  1
  Pt  Pt31  1  0.979215  0.136215  0.500000  1
  Pt  Pt32  1  0.628323  0.871677  0.500000  1
  Pt  Pt33  1  0.871677  0.371677  0.243354  1
  Pt  Pt34  1  0.128323  0.628323  0.756646  1
  Pt  Pt35  1  0.371677  0.128323  0.500000  1
  Pt  Pt36  1  0.250000  0.250000  0.000000  1
  Pt  Pt37  1  0.750000  0.750000  0.000000  1
  Pt  Pt38  1  0.520785  0.020785  0.157000  1
  Pt  Pt39  1  0.363785  0.520785  0.500000  1
