# generated using pymatgen
data_Fe2CoO4
_symmetry_space_group_name_H-M   'P 1'
_cell_length_a   6.03930700
_cell_length_b   6.03930700
_cell_length_c   14.72946450
_cell_angle_alpha   90.00000000
_cell_angle_beta   90.00000000
_cell_angle_gamma   120.00000000
_symmetry_Int_Tables_number   1
_chemical_formula_structural   Fe2CoO4
_chemical_formula_sum   'Fe12 Co6 O24'
_cell_volume   465.25580886
_cell_formula_units_Z   6
loop_
 _symmetry_equiv_pos_site_id
 _symmetry_equiv_pos_as_xyz
  1  'x, y, z'
loop_
 _atom_site_type_symbol
 _atom_site_label
 _atom_site_symmetry_multiplicity
 _atom_site_fract_x
 _atom_site_fract_y
 _atom_site_fract_z
 _atom_site_occupancy
  Fe  Fe0  1  0.336331  0.333728  0.623563  1
  Fe  Fe1  1  0.332770  0.833681  0.500718  1
  Fe  Fe2  1  0.997396  0.663669  0.290230  1
  Fe  Fe3  1  0.833681  0.332770  0.499282  1
  Fe  Fe4  1  0.499089  0.166319  0.165948  1
  Fe  Fe5  1  0.666272  0.002604  0.956896  1
  Fe  Fe6  1  0.500911  0.667230  0.167385  1
  Fe  Fe7  1  0.333728  0.336331  0.376437  1
  Fe  Fe8  1  0.667230  0.500911  0.832615  1
  Fe  Fe9  1  0.002604  0.666272  0.043104  1
  Fe  Fe10  1  0.166319  0.499089  0.834052  1
  Fe  Fe11  1  0.663669  0.997396  0.709770  1
  Co  Co12  1  0.000000  0.670014  0.666667  1
  Co  Co13  1  0.670014  0.000000  0.333333  1
  Co  Co14  1  0.000000  0.166565  0.166667  1
  Co  Co15  1  0.833435  0.833435  0.500000  1
  Co  Co16  1  0.329986  0.329986  0.000000  1
  Co  Co17  1  0.166565  0.000000  0.833333  1
  O  O18  1  0.167092  0.987835  0.579795  1
  O  O19  1  0.683024  0.501311  0.580135  1
  O  O20  1  0.005296  0.661854  0.422576  1
  O  O21  1  0.159751  0.507360  0.577750  1
  O  O22  1  0.507360  0.159751  0.422250  1
  O  O23  1  0.818287  0.316976  0.246802  1
  O  O24  1  0.661854  0.005296  0.577424  1
  O  O25  1  0.987835  0.167092  0.420205  1
  O  O26  1  0.347609  0.840249  0.244416  1
  O  O27  1  0.656558  0.994704  0.089243  1
  O  O28  1  0.501311  0.683024  0.419865  1
  O  O29  1  0.820744  0.832908  0.246462  1
  O  O30  1  0.181713  0.498689  0.086531  1
  O  O31  1  0.492640  0.652391  0.911083  1
  O  O32  1  0.652391  0.492640  0.088917  1
  O  O33  1  0.343442  0.338146  0.244090  1
  O  O34  1  0.012165  0.179256  0.913128  1
  O  O35  1  0.338146  0.343442  0.755910  1
  O  O36  1  0.179256  0.012165  0.086872  1
  O  O37  1  0.498689  0.181713  0.913469  1
  O  O38  1  0.832908  0.820744  0.753538  1
  O  O39  1  0.994704  0.656558  0.910757  1
  O  O40  1  0.316976  0.818287  0.753198  1
  O  O41  1  0.840249  0.347609  0.755584  1
