# generated using pymatgen
data_Na3(WO3)10
_symmetry_space_group_name_H-M   'P 1'
_cell_length_a   6.73615352
_cell_length_b   5.50430136
_cell_length_c   16.03167964
_cell_angle_alpha   90.00000000
_cell_angle_beta   98.01307532
_cell_angle_gamma   90.00000000
_symmetry_Int_Tables_number   1
_chemical_formula_structural   Na3(WO3)10
_chemical_formula_sum   'Na3 W10 O30'
_cell_volume   588.61596996
_cell_formula_units_Z   1
loop_
 _symmetry_equiv_pos_site_id
 _symmetry_equiv_pos_as_xyz
  1  'x, y, z'
loop_
 _atom_site_type_symbol
 _atom_site_label
 _atom_site_symmetry_multiplicity
 _atom_site_fract_x
 _atom_site_fract_y
 _atom_site_fract_z
 _atom_site_occupancy
  Na  Na0  1  0.000000  0.000000  0.000000  1
  Na  Na1  1  0.100118  0.500000  0.300122  1
  Na  Na2  1  0.899882  0.500000  0.699878  1
  W  W3  1  0.204104  0.500000  0.100315  1
  W  W4  1  0.500000  0.000000  0.000000  1
  W  W5  1  0.599126  0.500000  0.301469  1
  W  W6  1  0.896524  0.000000  0.200869  1
  W  W7  1  0.000000  0.500000  0.500000  1
  W  W8  1  0.301855  0.000000  0.401770  1
  W  W9  1  0.400874  0.500000  0.698531  1
  W  W10  1  0.698145  0.000000  0.598230  1
  W  W11  1  0.795896  0.500000  0.899685  1
  W  W12  1  0.103476  0.000000  0.799131  1
  O  O13  1  0.346956  0.752156  0.049517  1
  O  O14  1  0.346956  0.247844  0.049517  1
  O  O15  1  0.702190  0.000000  0.098891  1
  O  O16  1  0.000000  0.500000  0.000000  1
  O  O17  1  0.752864  0.747761  0.250329  1
  O  O18  1  0.049889  0.750169  0.149879  1
  O  O19  1  0.752864  0.252239  0.250329  1
  O  O20  1  0.049889  0.249831  0.149879  1
  O  O21  1  0.397418  0.500000  0.200642  1
  O  O22  1  0.099253  0.000000  0.299631  1
  O  O23  1  0.447187  0.747658  0.349472  1
  O  O24  1  0.149622  0.747678  0.448729  1
  O  O25  1  0.447187  0.252342  0.349472  1
  O  O26  1  0.149622  0.252322  0.448729  1
  O  O27  1  0.802462  0.500000  0.398888  1
  O  O28  1  0.500000  0.000000  0.500000  1
  O  O29  1  0.552813  0.252342  0.650528  1
  O  O30  1  0.850378  0.252322  0.551271  1
  O  O31  1  0.850378  0.747678  0.551271  1
  O  O32  1  0.552813  0.747658  0.650528  1
  O  O33  1  0.900747  0.000000  0.700369  1
  O  O34  1  0.197538  0.500000  0.601112  1
  O  O35  1  0.950111  0.249831  0.850121  1
  O  O36  1  0.950111  0.750169  0.850121  1
  O  O37  1  0.247136  0.252239  0.749671  1
  O  O38  1  0.247136  0.747761  0.749671  1
  O  O39  1  0.297810  0.000000  0.901109  1
  O  O40  1  0.602582  0.500000  0.799358  1
  O  O41  1  0.653044  0.247844  0.950483  1
  O  O42  1  0.653044  0.752156  0.950483  1
