# generated using pymatgen
data_Ag3AuS2
_symmetry_space_group_name_H-M   'P 1'
_cell_length_a   4.73718404
_cell_length_b   4.87211159
_cell_length_c   5.84495941
_cell_angle_alpha   88.53241700
_cell_angle_beta   84.99392915
_cell_angle_gamma   80.95959030
_symmetry_Int_Tables_number   1
_chemical_formula_structural   Ag3AuS2
_chemical_formula_sum   'Ag3 Au1 S2'
_cell_volume   132.70849141
_cell_formula_units_Z   1
loop_
 _symmetry_equiv_pos_site_id
 _symmetry_equiv_pos_as_xyz
  1  'x, y, z'
loop_
 _atom_site_type_symbol
 _atom_site_label
 _atom_site_symmetry_multiplicity
 _atom_site_fract_x
 _atom_site_fract_y
 _atom_site_fract_z
 _atom_site_occupancy
  Ag  Ag0  1  0.816351  0.544508  0.043537  1
  Ag  Ag1  1  0.437588  0.985143  0.268457  1
  Ag  Ag2  1  0.011717  0.283947  0.602534  1
  Au  Au3  1  0.302150  0.734042  0.740635  1
  S  S4  1  0.015264  0.011173  0.023582  1
  S  S5  1  0.541931  0.441187  0.446256  1
