# generated using pymatgen
data_Li3Fe3(PO4)4
_symmetry_space_group_name_H-M   'P 1'
_cell_length_a   10.10666910
_cell_length_b   10.10666910
_cell_length_c   10.61628808
_cell_angle_alpha   88.95794035
_cell_angle_beta   91.04205965
_cell_angle_gamma   143.05801826
_symmetry_Int_Tables_number   1
_chemical_formula_structural   Li3Fe3(PO4)4
_chemical_formula_sum   'Li6 Fe6 P8 O32'
_cell_volume   651.61001991
_cell_formula_units_Z   2
loop_
 _symmetry_equiv_pos_site_id
 _symmetry_equiv_pos_as_xyz
  1  'x, y, z'
loop_
 _atom_site_type_symbol
 _atom_site_label
 _atom_site_symmetry_multiplicity
 _atom_site_fract_x
 _atom_site_fract_y
 _atom_site_fract_z
 _atom_site_occupancy
  Li  Li0  1  0.588548  0.588548  0.250000  1
  Li  Li1  1  0.210493  0.069109  0.466554  1
  Li  Li2  1  0.411452  0.411452  0.750000  1
  Li  Li3  1  0.930891  0.789507  0.966554  1
  Li  Li4  1  0.789507  0.930891  0.533446  1
  Li  Li5  1  0.069109  0.210493  0.033446  1
  Fe  Fe6  1  0.675882  0.369794  0.749008  1
  Fe  Fe7  1  0.630206  0.324118  0.249008  1
  Fe  Fe8  1  1.000000  0.500000  0.500000  1
  Fe  Fe9  1  0.324118  0.630206  0.250992  1
  Fe  Fe10  1  0.369794  0.675882  0.750992  1
  Fe  Fe11  1  0.500000  0.000000  0.000000  1
  P  P12  1  0.220115  0.820834  0.743810  1
  P  P13  1  0.744432  0.582884  0.492156  1
  P  P14  1  0.820834  0.220115  0.756190  1
  P  P15  1  0.255568  0.417116  0.507844  1
  P  P16  1  0.417116  0.255568  0.992156  1
  P  P17  1  0.779885  0.179166  0.256190  1
  P  P18  1  0.582884  0.744432  0.007844  1
  P  P19  1  0.179166  0.779885  0.243810  1
  O  O20  1  0.988354  0.681778  0.777562  1
  O  O21  1  0.053333  0.349125  0.506052  1
  O  O22  1  0.782857  0.820287  0.040347  1
  O  O23  1  0.365845  0.056609  0.714397  1
  O  O24  1  0.597039  0.424324  0.887610  1
  O  O25  1  0.650875  0.946667  0.006052  1
  O  O26  1  0.796842  0.308984  0.645822  1
  O  O27  1  0.424324  0.597039  0.612390  1
  O  O28  1  0.308984  0.796842  0.854178  1
  O  O29  1  0.634155  0.943391  0.285603  1
  O  O30  1  0.233531  0.726302  0.635603  1
  O  O31  1  0.179713  0.217143  0.540347  1
  O  O32  1  0.726302  0.233531  0.864397  1
  O  O33  1  0.349125  0.053333  0.993948  1
  O  O34  1  0.056609  0.365845  0.785603  1
  O  O35  1  0.217143  0.179713  0.959653  1
  O  O36  1  0.575676  0.402961  0.387610  1
  O  O37  1  0.011646  0.318222  0.222438  1
  O  O38  1  0.820287  0.782857  0.459653  1
  O  O39  1  0.376274  0.528130  0.378225  1
  O  O40  1  0.943391  0.634155  0.214397  1
  O  O41  1  0.273698  0.766469  0.135603  1
  O  O42  1  0.471870  0.623726  0.878225  1
  O  O43  1  0.766469  0.273698  0.364397  1
  O  O44  1  0.318222  0.011646  0.277562  1
  O  O45  1  0.528130  0.376274  0.121775  1
  O  O46  1  0.691016  0.203158  0.145822  1
  O  O47  1  0.623726  0.471870  0.621775  1
  O  O48  1  0.946667  0.650875  0.493948  1
  O  O49  1  0.681777  0.988354  0.722438  1
  O  O50  1  0.203158  0.691016  0.354178  1
  O  O51  1  0.402961  0.575676  0.112390  1
