# generated using pymatgen
data_BaCd11
_symmetry_space_group_name_H-M   'P 1'
_cell_length_a   9.52102912
_cell_length_b   9.52102912
_cell_length_c   9.52102912
_cell_angle_alpha   99.91404189
_cell_angle_beta   99.91404189
_cell_angle_gamma   130.96963423
_symmetry_Int_Tables_number   1
_chemical_formula_structural   BaCd11
_chemical_formula_sum   'Ba2 Cd22'
_cell_volume   592.92800358
_cell_formula_units_Z   2
loop_
 _symmetry_equiv_pos_site_id
 _symmetry_equiv_pos_as_xyz
  1  'x, y, z'
loop_
 _atom_site_type_symbol
 _atom_site_label
 _atom_site_symmetry_multiplicity
 _atom_site_fract_x
 _atom_site_fract_y
 _atom_site_fract_z
 _atom_site_occupancy
  Ba  Ba0  1  0.500000  0.500000  0.000000  1
  Ba  Ba1  1  0.750000  0.250000  0.500000  1
  Cd  Cd2  1  0.569622  0.744041  0.416319  1
  Cd  Cd3  1  0.327723  0.153303  0.583681  1
  Cd  Cd4  1  0.000000  0.000000  0.000000  1
  Cd  Cd5  1  0.250000  0.750000  0.500000  1
  Cd  Cd6  1  0.625000  0.875000  0.750000  1
  Cd  Cd7  1  0.125000  0.375000  0.250000  1
  Cd  Cd8  1  0.125000  0.875000  0.750000  1
  Cd  Cd9  1  0.125000  0.875000  0.250000  1
  Cd  Cd10  1  0.569622  0.153303  0.825581  1
  Cd  Cd11  1  0.994041  0.319622  0.916319  1
  Cd  Cd12  1  0.403303  0.077723  0.083681  1
  Cd  Cd13  1  0.327723  0.744041  0.174419  1
  Cd  Cd14  1  0.255959  0.672277  0.825581  1
  Cd  Cd15  1  0.846697  0.430378  0.174419  1
  Cd  Cd16  1  0.922277  0.596697  0.916319  1
  Cd  Cd17  1  0.680378  0.005959  0.083681  1
  Cd  Cd18  1  0.680378  0.596697  0.674419  1
  Cd  Cd19  1  0.255959  0.430378  0.583681  1
  Cd  Cd20  1  0.846697  0.672277  0.416319  1
  Cd  Cd21  1  0.922277  0.005959  0.325581  1
  Cd  Cd22  1  0.994041  0.077723  0.674419  1
  Cd  Cd23  1  0.403303  0.319622  0.325581  1
