# generated using pymatgen
data_Sr(La2Se3)4
_symmetry_space_group_name_H-M   'P 1'
_cell_length_a   9.12462893
_cell_length_b   9.12462893
_cell_length_c   15.14228857
_cell_angle_alpha   72.47625269
_cell_angle_beta   107.52374731
_cell_angle_gamma   89.97697863
_symmetry_Int_Tables_number   1
_chemical_formula_structural   Sr(La2Se3)4
_chemical_formula_sum   'Sr2 La16 Se24'
_cell_volume   1140.66649484
_cell_formula_units_Z   2
loop_
 _symmetry_equiv_pos_site_id
 _symmetry_equiv_pos_as_xyz
  1  'x, y, z'
loop_
 _atom_site_type_symbol
 _atom_site_label
 _atom_site_symmetry_multiplicity
 _atom_site_fract_x
 _atom_site_fract_y
 _atom_site_fract_z
 _atom_site_occupancy
  Sr  Sr0  1  0.125243  0.249909  0.500071  1
  Sr  Sr1  1  0.750091  0.874757  0.000071  1
  La  La2  1  0.250303  0.626607  0.000035  1
  La  La3  1  0.457870  0.290037  0.916667  1
  La  La4  1  0.042399  0.082852  0.833287  1
  La  La5  1  0.083271  0.541916  0.666410  1
  La  La6  1  0.375096  0.875186  0.750130  1
  La  La7  1  0.792282  0.584584  0.833528  1
  La  La8  1  0.582228  0.291302  0.666935  1
  La  La9  1  0.792765  0.958773  0.583524  1
  La  La10  1  0.373393  0.749697  0.500035  1
  La  La11  1  0.415416  0.207718  0.333528  1
  La  La12  1  0.709963  0.542130  0.416667  1
  La  La13  1  0.917148  0.957601  0.333287  1
  La  La14  1  0.124814  0.624904  0.250130  1
  La  La15  1  0.708698  0.417772  0.166935  1
  La  La16  1  0.041227  0.207235  0.083524  1
  La  La17  1  0.458084  0.916729  0.166410  1
  Se  Se18  1  0.547307  0.596619  0.949137  1
  Se  Se19  1  0.766944  0.237823  0.881536  1
  Se  Se20  1  0.396238  0.950614  0.949728  1
  Se  Se21  1  0.284972  0.216347  0.719623  1
  Se  Se22  1  0.433708  0.567195  0.716039  1
  Se  Se23  1  0.117911  0.383372  0.883752  1
  Se  Se24  1  0.716116  0.934118  0.780708  1
  Se  Se25  1  0.880000  0.266733  0.617877  1
  Se  Se26  1  0.066262  0.782531  0.783288  1
  Se  Se27  1  0.100301  0.895865  0.551071  1
  Se  Se28  1  0.732993  0.617375  0.616668  1
  Se  Se29  1  0.616628  0.882089  0.383752  1
  Se  Se30  1  0.762177  0.233056  0.381536  1
  Se  Se31  1  0.453659  0.048112  0.549986  1
  Se  Se32  1  0.049386  0.603762  0.449728  1
  Se  Se33  1  0.217469  0.933738  0.283288  1
  Se  Se34  1  0.403381  0.452693  0.449137  1
  Se  Se35  1  0.432805  0.566292  0.216039  1
  Se  Se36  1  0.065882  0.283884  0.280708  1
  Se  Se37  1  0.951888  0.546341  0.049986  1
  Se  Se38  1  0.104135  0.899699  0.051071  1
  Se  Se39  1  0.382625  0.267007  0.116668  1
  Se  Se40  1  0.783653  0.715028  0.219623  1
  Se  Se41  1  0.733267  0.120000  0.117877  1
