# generated using pymatgen
data_ThZr2H7
_symmetry_space_group_name_H-M   'P 1'
_cell_length_a   6.61413575
_cell_length_b   6.61413575
_cell_length_c   6.61413575
_cell_angle_alpha   60.00000000
_cell_angle_beta   60.00000000
_cell_angle_gamma   60.00000000
_symmetry_Int_Tables_number   1
_chemical_formula_structural   ThZr2H7
_chemical_formula_sum   'Th2 Zr4 H14'
_cell_volume   204.59938050
_cell_formula_units_Z   2
loop_
 _symmetry_equiv_pos_site_id
 _symmetry_equiv_pos_as_xyz
  1  'x, y, z'
loop_
 _atom_site_type_symbol
 _atom_site_label
 _atom_site_symmetry_multiplicity
 _atom_site_fract_x
 _atom_site_fract_y
 _atom_site_fract_z
 _atom_site_occupancy
  Th  Th0  1  0.500000  0.500000  0.500000  1
  Th  Th1  1  0.750000  0.750000  0.750000  1
  Zr  Zr2  1  0.625000  0.125000  0.125000  1
  Zr  Zr3  1  0.125000  0.125000  0.625000  1
  Zr  Zr4  1  0.125000  0.125000  0.125000  1
  Zr  Zr5  1  0.125000  0.625000  0.125000  1
  H  H6  1  0.998196  0.501804  0.501804  1
  H  H7  1  0.748196  0.251804  0.251804  1
  H  H8  1  0.501804  0.501804  0.998196  1
  H  H9  1  0.998196  0.501804  0.998196  1
  H  H10  1  0.501804  0.998196  0.501804  1
  H  H11  1  0.998196  0.998196  0.501804  1
  H  H12  1  0.250000  0.250000  0.250000  1
  H  H13  1  0.000000  0.000000  0.000000  1
  H  H14  1  0.501804  0.998196  0.998196  1
  H  H15  1  0.748196  0.251804  0.748196  1
  H  H16  1  0.251804  0.748196  0.251804  1
  H  H17  1  0.251804  0.748196  0.748196  1
  H  H18  1  0.251804  0.251804  0.748196  1
  H  H19  1  0.748196  0.748196  0.251804  1
