# generated using pymatgen
data_Ag7NO11
_symmetry_space_group_name_H-M   'P 1'
_cell_length_a   7.03314067
_cell_length_b   7.03314067
_cell_length_c   7.03314067
_cell_angle_alpha   61.94093147
_cell_angle_beta   61.94093147
_cell_angle_gamma   61.94093147
_symmetry_Int_Tables_number   1
_chemical_formula_structural   Ag7NO11
_chemical_formula_sum   'Ag7 N1 O11'
_cell_volume   256.68309277
_cell_formula_units_Z   1
loop_
 _symmetry_equiv_pos_site_id
 _symmetry_equiv_pos_as_xyz
  1  'x, y, z'
loop_
 _atom_site_type_symbol
 _atom_site_label
 _atom_site_symmetry_multiplicity
 _atom_site_fract_x
 _atom_site_fract_y
 _atom_site_fract_z
 _atom_site_occupancy
  Ag  Ag0  1  0.999311  0.999311  0.999311  1
  Ag  Ag1  1  0.001083  0.498051  0.001083  1
  Ag  Ag2  1  0.000284  0.500154  0.500154  1
  Ag  Ag3  1  0.500154  0.500154  0.000284  1
  Ag  Ag4  1  0.498051  0.001083  0.001083  1
  Ag  Ag5  1  0.500154  0.000284  0.500154  1
  Ag  Ag6  1  0.001083  0.001083  0.498051  1
  N  N7  1  0.500047  0.500047  0.500047  1
  O  O8  1  0.144781  0.580652  0.144781  1
  O  O9  1  0.144781  0.144781  0.580652  1
  O  O10  1  0.137271  0.137271  0.137271  1
  O  O11  1  0.580652  0.144781  0.144781  1
  O  O12  1  0.298444  0.600878  0.600878  1
  O  O13  1  0.600878  0.600878  0.298444  1
  O  O14  1  0.600878  0.298444  0.600878  1
  O  O15  1  0.417552  0.856151  0.856151  1
  O  O16  1  0.856151  0.856151  0.417552  1
  O  O17  1  0.862293  0.862293  0.862293  1
  O  O18  1  0.856151  0.417552  0.856151  1
