# generated using pymatgen
data_Sn3Pt2
_symmetry_space_group_name_H-M   'P 1'
_cell_length_a   4.41405151
_cell_length_b   4.41405151
_cell_length_c   13.21001902
_cell_angle_alpha   90.00000000
_cell_angle_beta   90.00000000
_cell_angle_gamma   120.00000000
_symmetry_Int_Tables_number   1
_chemical_formula_structural   Sn3Pt2
_chemical_formula_sum   'Sn6 Pt4'
_cell_volume   222.89938412
_cell_formula_units_Z   2
loop_
 _symmetry_equiv_pos_site_id
 _symmetry_equiv_pos_as_xyz
  1  'x, y, z'
loop_
 _atom_site_type_symbol
 _atom_site_label
 _atom_site_symmetry_multiplicity
 _atom_site_fract_x
 _atom_site_fract_y
 _atom_site_fract_z
 _atom_site_occupancy
  Sn  Sn0  1  0.333333  0.666667  0.570720  1
  Sn  Sn1  1  0.666667  0.333333  0.070720  1
  Sn  Sn2  1  0.666667  0.333333  0.429280  1
  Sn  Sn3  1  0.333333  0.666667  0.929280  1
  Sn  Sn4  1  0.000000  0.000000  0.250000  1
  Sn  Sn5  1  0.000000  0.000000  0.750000  1
  Pt  Pt6  1  0.333333  0.666667  0.356607  1
  Pt  Pt7  1  0.666667  0.333333  0.856607  1
  Pt  Pt8  1  0.666667  0.333333  0.643393  1
  Pt  Pt9  1  0.333333  0.666667  0.143393  1
