# generated using pymatgen
data_Si3(Cl4O)2
_symmetry_space_group_name_H-M   'P 1'
_cell_length_a   6.65462288
_cell_length_b   11.39995447
_cell_length_c   21.10507637
_cell_angle_alpha   90.00000000
_cell_angle_beta   90.00000000
_cell_angle_gamma   90.00000000
_symmetry_Int_Tables_number   1
_chemical_formula_structural   Si3(Cl4O)2
_chemical_formula_sum   'Si12 Cl32 O8'
_cell_volume   1601.08170017
_cell_formula_units_Z   4
loop_
 _symmetry_equiv_pos_site_id
 _symmetry_equiv_pos_as_xyz
  1  'x, y, z'
loop_
 _atom_site_type_symbol
 _atom_site_label
 _atom_site_symmetry_multiplicity
 _atom_site_fract_x
 _atom_site_fract_y
 _atom_site_fract_z
 _atom_site_occupancy
  Si  Si0  1  0.477897  0.297385  0.250000  1
  Si  Si1  1  0.109955  0.912376  0.116783  1
  Si  Si2  1  0.022103  0.797385  0.250000  1
  Si  Si3  1  0.977897  0.202615  0.750000  1
  Si  Si4  1  0.609955  0.587624  0.883217  1
  Si  Si5  1  0.390045  0.412376  0.383217  1
  Si  Si6  1  0.890045  0.087624  0.616783  1
  Si  Si7  1  0.890045  0.087624  0.883217  1
  Si  Si8  1  0.390045  0.412376  0.116783  1
  Si  Si9  1  0.609955  0.587624  0.616783  1
  Si  Si10  1  0.522103  0.702615  0.750000  1
  Si  Si11  1  0.109955  0.912376  0.383217  1
  Cl  Cl12  1  0.964359  0.069088  0.119464  1
  Cl  Cl13  1  0.459804  0.699371  0.558502  1
  Cl  Cl14  1  0.540196  0.300629  0.058502  1
  Cl  Cl15  1  0.040196  0.199371  0.941498  1
  Cl  Cl16  1  0.040196  0.199371  0.558502  1
  Cl  Cl17  1  0.540196  0.300629  0.441498  1
  Cl  Cl18  1  0.959804  0.800629  0.441498  1
  Cl  Cl19  1  0.959804  0.800629  0.058502  1
  Cl  Cl20  1  0.394174  0.935756  0.415605  1
  Cl  Cl21  1  0.894174  0.564244  0.584395  1
  Cl  Cl22  1  0.105826  0.435756  0.084395  1
  Cl  Cl23  1  0.605826  0.064244  0.915605  1
  Cl  Cl24  1  0.605826  0.064244  0.584395  1
  Cl  Cl25  1  0.105826  0.435756  0.415605  1
  Cl  Cl26  1  0.894174  0.564244  0.915605  1
  Cl  Cl27  1  0.394174  0.935756  0.084395  1
  Cl  Cl28  1  0.719168  0.821614  0.250000  1
  Cl  Cl29  1  0.219168  0.678386  0.750000  1
  Cl  Cl30  1  0.780832  0.321614  0.250000  1
  Cl  Cl31  1  0.280832  0.178386  0.750000  1
  Cl  Cl32  1  0.083092  0.622994  0.250000  1
  Cl  Cl33  1  0.583092  0.877006  0.750000  1
  Cl  Cl34  1  0.416908  0.122994  0.250000  1
  Cl  Cl35  1  0.916908  0.377006  0.750000  1
  Cl  Cl36  1  0.464359  0.430912  0.880536  1
  Cl  Cl37  1  0.535641  0.569088  0.380536  1
  Cl  Cl38  1  0.035641  0.930912  0.619464  1
  Cl  Cl39  1  0.035641  0.930912  0.880536  1
  Cl  Cl40  1  0.535641  0.569088  0.119464  1
  Cl  Cl41  1  0.464359  0.430912  0.619464  1
  Cl  Cl42  1  0.964359  0.069088  0.380536  1
  Cl  Cl43  1  0.459804  0.699371  0.941498  1
  O  O44  1  0.122958  0.857612  0.187927  1
  O  O45  1  0.622958  0.642388  0.687927  1
  O  O46  1  0.377042  0.357612  0.187927  1
  O  O47  1  0.877042  0.142388  0.812073  1
  O  O48  1  0.877042  0.142388  0.687927  1
  O  O49  1  0.377042  0.357612  0.312073  1
  O  O50  1  0.622958  0.642388  0.812073  1
  O  O51  1  0.122958  0.857612  0.312073  1
