# generated using pymatgen
data_ZrTlF5
_symmetry_space_group_name_H-M   'P 1'
_cell_length_a   7.62900318
_cell_length_b   8.09064445
_cell_length_c   8.08783138
_cell_angle_alpha   90.00000000
_cell_angle_beta   116.67084276
_cell_angle_gamma   90.00000000
_symmetry_Int_Tables_number   1
_chemical_formula_structural   ZrTlF5
_chemical_formula_sum   'Zr4 Tl4 F20'
_cell_volume   446.09373577
_cell_formula_units_Z   4
loop_
 _symmetry_equiv_pos_site_id
 _symmetry_equiv_pos_as_xyz
  1  'x, y, z'
loop_
 _atom_site_type_symbol
 _atom_site_label
 _atom_site_symmetry_multiplicity
 _atom_site_fract_x
 _atom_site_fract_y
 _atom_site_fract_z
 _atom_site_occupancy
  Zr  Zr0  1  0.507961  0.838018  0.339555  1
  Zr  Zr1  1  0.492039  0.338018  0.160445  1
  Zr  Zr2  1  0.492039  0.161982  0.660445  1
  Zr  Zr3  1  0.507961  0.661982  0.839555  1
  Tl  Tl4  1  0.929655  0.470014  0.705102  1
  Tl  Tl5  1  0.070345  0.970014  0.794898  1
  Tl  Tl6  1  0.070345  0.529986  0.294898  1
  Tl  Tl7  1  0.929655  0.029986  0.205102  1
  F  F8  1  0.495438  0.064063  0.208961  1
  F  F9  1  0.504562  0.564063  0.291039  1
  F  F10  1  0.504562  0.935937  0.791039  1
  F  F11  1  0.495438  0.435937  0.708961  1
  F  F12  1  0.796814  0.794178  0.410247  1
  F  F13  1  0.203186  0.294178  0.089753  1
  F  F14  1  0.203186  0.205822  0.589753  1
  F  F15  1  0.796814  0.705822  0.910247  1
  F  F16  1  0.780779  0.209447  0.837851  1
  F  F17  1  0.219221  0.709447  0.662149  1
  F  F18  1  0.219221  0.790553  0.162149  1
  F  F19  1  0.780779  0.290553  0.337851  1
  F  F20  1  0.512819  0.710417  0.566230  1
  F  F21  1  0.487181  0.210417  0.933770  1
  F  F22  1  0.487181  0.289583  0.433770  1
  F  F23  1  0.512819  0.789583  0.066230  1
  F  F24  1  0.675547  0.494707  0.071851  1
  F  F25  1  0.324453  0.994707  0.428149  1
  F  F26  1  0.324453  0.505293  0.928149  1
  F  F27  1  0.675547  0.005293  0.571851  1
