# generated using pymatgen
data_Ta6Be15Cu8
_symmetry_space_group_name_H-M   'P 1'
_cell_length_a   7.64634851
_cell_length_b   7.64634851
_cell_length_c   7.64634851
_cell_angle_alpha   60.00000000
_cell_angle_beta   60.00000000
_cell_angle_gamma   60.00000000
_symmetry_Int_Tables_number   1
_chemical_formula_structural   Ta6Be15Cu8
_chemical_formula_sum   'Ta6 Be15 Cu8'
_cell_volume   316.11657568
_cell_formula_units_Z   1
loop_
 _symmetry_equiv_pos_site_id
 _symmetry_equiv_pos_as_xyz
  1  'x, y, z'
loop_
 _atom_site_type_symbol
 _atom_site_label
 _atom_site_symmetry_multiplicity
 _atom_site_fract_x
 _atom_site_fract_y
 _atom_site_fract_z
 _atom_site_occupancy
  Ta  Ta0  1  0.808025  0.191975  0.191975  1
  Ta  Ta1  1  0.191975  0.808025  0.191975  1
  Ta  Ta2  1  0.808025  0.191975  0.808025  1
  Ta  Ta3  1  0.808025  0.808025  0.191975  1
  Ta  Ta4  1  0.191975  0.191975  0.808025  1
  Ta  Ta5  1  0.191975  0.808025  0.808025  1
  Be  Be6  1  0.500000  0.500000  0.500000  1
  Be  Be7  1  0.000000  0.500000  0.500000  1
  Be  Be8  1  0.000000  0.500000  1.000000  1
  Be  Be9  1  0.500000  0.000000  0.500000  1
  Be  Be10  1  0.500000  1.000000  0.000000  1
  Be  Be11  1  0.500000  0.500000  0.000000  1
  Be  Be12  1  1.000000  1.000000  0.500000  1
  Be  Be13  1  0.827029  0.518914  0.827029  1
  Be  Be14  1  0.172971  0.172971  0.172971  1
  Be  Be15  1  0.172971  0.172971  0.481086  1
  Be  Be16  1  0.481086  0.172971  0.172971  1
  Be  Be17  1  0.827029  0.827029  0.518914  1
  Be  Be18  1  0.518914  0.827029  0.827029  1
  Be  Be19  1  0.827029  0.827029  0.827029  1
  Be  Be20  1  0.172971  0.481086  0.172971  1
  Cu  Cu21  1  0.622977  0.131068  0.622977  1
  Cu  Cu22  1  0.377023  0.377023  0.377023  1
  Cu  Cu23  1  0.377023  0.377023  0.868932  1
  Cu  Cu24  1  0.868932  0.377023  0.377023  1
  Cu  Cu25  1  0.622977  0.622977  0.131068  1
  Cu  Cu26  1  0.131068  0.622977  0.622977  1
  Cu  Cu27  1  0.622977  0.622977  0.622977  1
  Cu  Cu28  1  0.377023  0.868932  0.377023  1
