# generated using pymatgen
data_Sm2O
_symmetry_space_group_name_H-M   'P 1'
_cell_length_a   6.48050202
_cell_length_b   6.48050202
_cell_length_c   6.48050202
_cell_angle_alpha   135.48486698
_cell_angle_beta   135.48486698
_cell_angle_gamma   64.77775236
_symmetry_Int_Tables_number   1
_chemical_formula_structural   Sm2O
_chemical_formula_sum   'Sm4 O2'
_cell_volume   131.88751087
_cell_formula_units_Z   2
loop_
 _symmetry_equiv_pos_site_id
 _symmetry_equiv_pos_as_xyz
  1  'x, y, z'
loop_
 _atom_site_type_symbol
 _atom_site_label
 _atom_site_symmetry_multiplicity
 _atom_site_fract_x
 _atom_site_fract_y
 _atom_site_fract_z
 _atom_site_occupancy
  Sm  Sm0  1  0.734693  0.734693  0.000000  1
  Sm  Sm1  1  0.265307  0.265307  0.000000  1
  Sm  Sm2  1  0.015307  0.515307  0.500000  1
  Sm  Sm3  1  0.484693  0.984693  0.500000  1
  O  O4  1  0.500000  0.500000  0.000000  1
  O  O5  1  0.250000  0.750000  0.500000  1
