# generated using pymatgen
data_Sr4Ti3O10
_symmetry_space_group_name_H-M   'P 1'
_cell_length_a   14.46952951
_cell_length_b   14.46952951
_cell_length_c   14.46952951
_cell_angle_alpha   164.33792654
_cell_angle_beta   164.33792654
_cell_angle_gamma   22.21959425
_symmetry_Int_Tables_number   1
_chemical_formula_structural   Sr4Ti3O10
_chemical_formula_sum   'Sr4 Ti3 O10'
_cell_volume   220.74682163
_cell_formula_units_Z   1
loop_
 _symmetry_equiv_pos_site_id
 _symmetry_equiv_pos_as_xyz
  1  'x, y, z'
loop_
 _atom_site_type_symbol
 _atom_site_label
 _atom_site_symmetry_multiplicity
 _atom_site_fract_x
 _atom_site_fract_y
 _atom_site_fract_z
 _atom_site_occupancy
  Sr  Sr0  1  0.568332  0.568332  0.000000  1
  Sr  Sr1  1  0.431668  0.431668  0.000000  1
  Sr  Sr2  1  0.297738  0.297738  0.000000  1
  Sr  Sr3  1  0.702262  0.702262  0.000000  1
  Ti  Ti4  1  0.000000  0.000000  0.000000  1
  Ti  Ti5  1  0.859846  0.859846  0.000000  1
  Ti  Ti6  1  0.140154  0.140154  0.000000  1
  O  O7  1  0.638887  0.138887  0.500000  1
  O  O8  1  0.790666  0.790666  0.000000  1
  O  O9  1  0.209334  0.209334  0.000000  1
  O  O10  1  0.000000  0.500000  0.500000  1
  O  O11  1  0.500000  0.000000  0.500000  1
  O  O12  1  0.069410  0.069410  0.000000  1
  O  O13  1  0.930590  0.930590  0.000000  1
  O  O14  1  0.138887  0.638887  0.500000  1
  O  O15  1  0.861113  0.361113  0.500000  1
  O  O16  1  0.361113  0.861113  0.500000  1
