# generated using pymatgen
data_Si3CCl7
_symmetry_space_group_name_H-M   'P 1'
_cell_length_a   9.36733501
_cell_length_b   9.36733501
_cell_length_c   18.16618993
_cell_angle_alpha   77.26527365
_cell_angle_beta   102.73472635
_cell_angle_gamma   122.44557471
_symmetry_Int_Tables_number   1
_chemical_formula_structural   Si3CCl7
_chemical_formula_sum   'Si12 C4 Cl28'
_cell_volume   1301.96486844
_cell_formula_units_Z   4
loop_
 _symmetry_equiv_pos_site_id
 _symmetry_equiv_pos_as_xyz
  1  'x, y, z'
loop_
 _atom_site_type_symbol
 _atom_site_label
 _atom_site_symmetry_multiplicity
 _atom_site_fract_x
 _atom_site_fract_y
 _atom_site_fract_z
 _atom_site_occupancy
  Si  Si0  1  0.614133  0.361665  0.907033  1
  Si  Si1  1  0.151784  0.241263  0.687112  1
  Si  Si2  1  0.758737  0.848216  0.187112  1
  Si  Si3  1  0.598071  0.470241  0.221484  1
  Si  Si4  1  0.241263  0.151784  0.812888  1
  Si  Si5  1  0.361665  0.614133  0.592967  1
  Si  Si6  1  0.385867  0.638335  0.092967  1
  Si  Si7  1  0.638335  0.385867  0.407033  1
  Si  Si8  1  0.470241  0.598071  0.278516  1
  Si  Si9  1  0.401929  0.529759  0.778516  1
  Si  Si10  1  0.848216  0.758737  0.312888  1
  Si  Si11  1  0.529759  0.401929  0.721484  1
  C  C12  1  0.641757  0.538695  0.320598  1
  C  C13  1  0.358243  0.461305  0.679402  1
  C  C14  1  0.538695  0.641757  0.179402  1
  C  C15  1  0.461305  0.358243  0.820598  1
  Cl  Cl16  1  0.405069  0.223200  0.215793  1
  Cl  Cl17  1  0.206274  0.511355  0.819524  1
  Cl  Cl18  1  0.488645  0.793726  0.319524  1
  Cl  Cl19  1  0.793726  0.488645  0.180476  1
  Cl  Cl20  1  0.260258  0.939640  0.825203  1
  Cl  Cl21  1  0.939640  0.260258  0.674797  1
  Cl  Cl22  1  0.511355  0.206274  0.680476  1
  Cl  Cl23  1  0.060360  0.739742  0.325203  1
  Cl  Cl24  1  0.085609  0.099818  0.890860  1
  Cl  Cl25  1  0.099818  0.085609  0.609140  1
  Cl  Cl26  1  0.914391  0.900182  0.109140  1
  Cl  Cl27  1  0.900182  0.914391  0.390860  1
  Cl  Cl28  1  0.799158  0.602386  0.930320  1
  Cl  Cl29  1  0.602386  0.799158  0.569680  1
  Cl  Cl30  1  0.200842  0.397614  0.069680  1
  Cl  Cl31  1  0.397614  0.200842  0.430320  1
  Cl  Cl32  1  0.733256  0.242915  0.890328  1
  Cl  Cl33  1  0.242915  0.733256  0.609672  1
  Cl  Cl34  1  0.266744  0.757085  0.109672  1
  Cl  Cl35  1  0.757085  0.266744  0.390328  1
  Cl  Cl36  1  0.491847  0.235648  0.001596  1
  Cl  Cl37  1  0.235648  0.491847  0.498404  1
  Cl  Cl38  1  0.508153  0.764352  0.998404  1
  Cl  Cl39  1  0.764352  0.508153  0.501596  1
  Cl  Cl40  1  0.223200  0.405069  0.284207  1
  Cl  Cl41  1  0.594931  0.776800  0.784207  1
  Cl  Cl42  1  0.776800  0.594931  0.715793  1
  Cl  Cl43  1  0.739742  0.060360  0.174797  1
