# generated using pymatgen
data_TaBi3O7
_symmetry_space_group_name_H-M   'P 1'
_cell_length_a   3.76927864
_cell_length_b   3.92543461
_cell_length_c   12.88223269
_cell_angle_alpha   81.59719631
_cell_angle_beta   81.66709960
_cell_angle_gamma   61.92589727
_symmetry_Int_Tables_number   1
_chemical_formula_structural   TaBi3O7
_chemical_formula_sum   'Ta1 Bi3 O7'
_cell_volume   165.73967973
_cell_formula_units_Z   1
loop_
 _symmetry_equiv_pos_site_id
 _symmetry_equiv_pos_as_xyz
  1  'x, y, z'
loop_
 _atom_site_type_symbol
 _atom_site_label
 _atom_site_symmetry_multiplicity
 _atom_site_fract_x
 _atom_site_fract_y
 _atom_site_fract_z
 _atom_site_occupancy
  Ta  Ta0  1  0.450807  0.540898  0.505927  1
  Bi  Bi1  1  0.004716  0.946278  0.015493  1
  Bi  Bi2  1  0.757251  0.715012  0.737685  1
  Bi  Bi3  1  0.253122  0.186695  0.275069  1
  O  O4  1  0.474640  0.355561  0.659489  1
  O  O5  1  0.198603  0.111035  0.469487  1
  O  O6  1  0.086739  0.970586  0.824747  1
  O  O7  1  0.949443  0.873837  0.198287  1
  O  O8  1  0.847363  0.725904  0.545480  1
  O  O9  1  0.559205  0.503587  0.353468  1
  O  O10  1  0.327811  0.289107  0.031367  1
