# generated using pymatgen
data_Tm2Zn17
_symmetry_space_group_name_H-M   'P 1'
_cell_length_a   6.77889987
_cell_length_b   6.77889987
_cell_length_c   6.77889987
_cell_angle_alpha   82.45922860
_cell_angle_beta   82.45922860
_cell_angle_gamma   82.45922860
_symmetry_Int_Tables_number   1
_chemical_formula_structural   Tm2Zn17
_chemical_formula_sum   'Tm2 Zn17'
_cell_volume   304.08221925
_cell_formula_units_Z   1
loop_
 _symmetry_equiv_pos_site_id
 _symmetry_equiv_pos_as_xyz
  1  'x, y, z'
loop_
 _atom_site_type_symbol
 _atom_site_label
 _atom_site_symmetry_multiplicity
 _atom_site_fract_x
 _atom_site_fract_y
 _atom_site_fract_z
 _atom_site_occupancy
  Tm  Tm0  1  0.334759  0.334759  0.334759  1
  Tm  Tm1  1  0.665241  0.665241  0.665241  1
  Zn  Zn2  1  0.162213  0.647428  0.647428  1
  Zn  Zn3  1  0.647428  0.647428  0.162213  1
  Zn  Zn4  1  0.899528  0.899528  0.899528  1
  Zn  Zn5  1  0.100472  0.100472  0.100472  1
  Zn  Zn6  1  0.500000  0.000000  0.000000  1
  Zn  Zn7  1  1.000000  0.500000  0.000000  1
  Zn  Zn8  1  0.000000  0.000000  0.500000  1
  Zn  Zn9  1  0.000000  0.299029  0.700971  1
  Zn  Zn10  1  0.700971  0.000000  0.299029  1
  Zn  Zn11  1  0.299029  0.700971  0.000000  1
  Zn  Zn12  1  0.000000  0.700971  0.299029  1
  Zn  Zn13  1  0.299029  0.000000  0.700971  1
  Zn  Zn14  1  0.700971  0.299029  0.000000  1
  Zn  Zn15  1  0.352572  0.352572  0.837787  1
  Zn  Zn16  1  0.837787  0.352572  0.352572  1
  Zn  Zn17  1  0.352572  0.837787  0.352572  1
  Zn  Zn18  1  0.647428  0.162213  0.647428  1
