# generated using pymatgen
data_Pr6Fe13Ag
_symmetry_space_group_name_H-M   'P 1'
_cell_length_a   13.04773127
_cell_length_b   13.04773127
_cell_length_c   13.04773127
_cell_angle_alpha   143.94721165
_cell_angle_beta   143.94721165
_cell_angle_gamma   51.90623668
_symmetry_Int_Tables_number   1
_chemical_formula_structural   Pr6Fe13Ag
_chemical_formula_sum   'Pr12 Fe26 Ag2'
_cell_volume   765.05659182
_cell_formula_units_Z   2
loop_
 _symmetry_equiv_pos_site_id
 _symmetry_equiv_pos_as_xyz
  1  'x, y, z'
loop_
 _atom_site_type_symbol
 _atom_site_label
 _atom_site_symmetry_multiplicity
 _atom_site_fract_x
 _atom_site_fract_y
 _atom_site_fract_z
 _atom_site_occupancy
  Pr  Pr0  1  0.847219  0.347219  0.825524  1
  Pr  Pr1  1  0.978305  0.152781  0.500000  1
  Pr  Pr2  1  0.652781  0.478305  0.500000  1
  Pr  Pr3  1  0.478305  0.978305  0.825524  1
  Pr  Pr4  1  0.152781  0.652781  0.174476  1
  Pr  Pr5  1  0.021695  0.847219  0.500000  1
  Pr  Pr6  1  0.521695  0.021695  0.174476  1
  Pr  Pr7  1  0.347219  0.521695  0.500000  1
  Pr  Pr8  1  0.605130  0.605130  0.000000  1
  Pr  Pr9  1  0.894870  0.894870  0.000000  1
  Pr  Pr10  1  0.394870  0.394870  0.000000  1
  Pr  Pr11  1  0.105130  0.105130  0.000000  1
  Fe  Fe12  1  0.709993  0.433479  0.143472  1
  Fe  Fe13  1  0.620471  0.120471  0.857314  1
  Fe  Fe14  1  0.707008  0.979640  0.500000  1
  Fe  Fe15  1  0.292992  0.020360  0.500000  1
  Fe  Fe16  1  0.520360  0.792992  0.500000  1
  Fe  Fe17  1  0.792992  0.292992  0.272632  1
  Fe  Fe18  1  0.020360  0.520360  0.727368  1
  Fe  Fe19  1  0.979640  0.479640  0.272632  1
  Fe  Fe20  1  0.207008  0.707008  0.727368  1
  Fe  Fe21  1  0.479640  0.207008  0.500000  1
  Fe  Fe22  1  0.879529  0.736842  0.500000  1
  Fe  Fe23  1  0.120471  0.263158  0.500000  1
  Fe  Fe24  1  0.000000  0.500000  0.500000  1
  Fe  Fe25  1  0.263158  0.763158  0.142686  1
  Fe  Fe26  1  0.066521  0.790007  0.856528  1
  Fe  Fe27  1  0.790007  0.933479  0.723486  1
  Fe  Fe28  1  0.209993  0.066521  0.276514  1
  Fe  Fe29  1  0.433479  0.290007  0.723486  1
  Fe  Fe30  1  0.566521  0.709993  0.276514  1
  Fe  Fe31  1  0.290007  0.566521  0.856528  1
  Fe  Fe32  1  0.500000  0.000000  0.500000  1
  Fe  Fe33  1  0.933479  0.209993  0.143472  1
  Fe  Fe34  1  0.236842  0.379529  0.500000  1
  Fe  Fe35  1  0.379529  0.879529  0.142686  1
  Fe  Fe36  1  0.736842  0.236842  0.857314  1
  Fe  Fe37  1  0.763158  0.620471  0.500000  1
  Ag  Ag38  1  0.250000  0.250000  0.000000  1
  Ag  Ag39  1  0.750000  0.750000  0.000000  1
