# generated using pymatgen
data_Sr2AuN
_symmetry_space_group_name_H-M   'P 1'
_cell_length_a   9.79152056
_cell_length_b   9.79152056
_cell_length_c   5.30453785
_cell_angle_alpha   90.00000000
_cell_angle_beta   90.00000000
_cell_angle_gamma   157.66972336
_symmetry_Int_Tables_number   1
_chemical_formula_structural   Sr2AuN
_chemical_formula_sum   'Sr4 Au2 N2'
_cell_volume   193.22734239
_cell_formula_units_Z   2
loop_
 _symmetry_equiv_pos_site_id
 _symmetry_equiv_pos_as_xyz
  1  'x, y, z'
loop_
 _atom_site_type_symbol
 _atom_site_label
 _atom_site_symmetry_multiplicity
 _atom_site_fract_x
 _atom_site_fract_y
 _atom_site_fract_z
 _atom_site_occupancy
  Sr  Sr0  1  0.785727  0.214273  0.250000  1
  Sr  Sr1  1  0.214273  0.785727  0.750000  1
  Sr  Sr2  1  0.399036  0.600964  0.750000  1
  Sr  Sr3  1  0.600964  0.399036  0.250000  1
  Au  Au4  1  0.960142  0.039858  0.250000  1
  Au  Au5  1  0.039858  0.960142  0.750000  1
  N  N6  1  0.807076  0.192924  0.750000  1
  N  N7  1  0.192924  0.807076  0.250000  1
