# generated using pymatgen
data_NdGaO3
_symmetry_space_group_name_H-M   'P 1'
_cell_length_a   5.47123570
_cell_length_b   5.61586650
_cell_length_c   7.80168326
_cell_angle_alpha   90.00000000
_cell_angle_beta   90.00000000
_cell_angle_gamma   90.00000000
_symmetry_Int_Tables_number   1
_chemical_formula_structural   NdGaO3
_chemical_formula_sum   'Nd4 Ga4 O12'
_cell_volume   239.71240778
_cell_formula_units_Z   4
loop_
 _symmetry_equiv_pos_site_id
 _symmetry_equiv_pos_as_xyz
  1  'x, y, z'
loop_
 _atom_site_type_symbol
 _atom_site_label
 _atom_site_symmetry_multiplicity
 _atom_site_fract_x
 _atom_site_fract_y
 _atom_site_fract_z
 _atom_site_occupancy
  Nd  Nd0  1  0.986898  0.448198  0.750000  1
  Nd  Nd1  1  0.013102  0.551802  0.250000  1
  Nd  Nd2  1  0.513102  0.948198  0.750000  1
  Nd  Nd3  1  0.486898  0.051802  0.250000  1
  Ga  Ga4  1  0.500000  0.500000  0.500000  1
  Ga  Ga5  1  0.500000  0.500000  0.000000  1
  Ga  Ga6  1  0.000000  0.000000  0.500000  1
  Ga  Ga7  1  0.000000  0.000000  0.000000  1
  O  O8  1  0.708219  0.207060  0.953243  1
  O  O9  1  0.291781  0.792940  0.453243  1
  O  O10  1  0.791781  0.707060  0.953243  1
  O  O11  1  0.208219  0.292940  0.453243  1
  O  O12  1  0.708219  0.207060  0.546757  1
  O  O13  1  0.291781  0.792940  0.046757  1
  O  O14  1  0.791781  0.707060  0.546757  1
  O  O15  1  0.208219  0.292940  0.046757  1
  O  O16  1  0.912580  0.977234  0.250000  1
  O  O17  1  0.087420  0.022766  0.750000  1
  O  O18  1  0.587420  0.477234  0.250000  1
  O  O19  1  0.412580  0.522766  0.750000  1
