# generated using pymatgen
data_AgTe4Au
_symmetry_space_group_name_H-M   'P 1'
_cell_length_a   9.06789910
_cell_length_b   4.57816843
_cell_length_c   10.27568279
_cell_angle_alpha   90.00000000
_cell_angle_beta   123.93475593
_cell_angle_gamma   90.00000000
_symmetry_Int_Tables_number   1
_chemical_formula_structural   AgTe4Au
_chemical_formula_sum   'Ag2 Te8 Au2'
_cell_volume   353.92929512
_cell_formula_units_Z   2
loop_
 _symmetry_equiv_pos_site_id
 _symmetry_equiv_pos_as_xyz
  1  'x, y, z'
loop_
 _atom_site_type_symbol
 _atom_site_label
 _atom_site_symmetry_multiplicity
 _atom_site_fract_x
 _atom_site_fract_y
 _atom_site_fract_z
 _atom_site_occupancy
  Ag  Ag0  1  0.500000  0.480012  0.750000  1
  Ag  Ag1  1  0.500000  0.519988  0.250000  1
  Te  Te2  1  0.806674  0.399539  0.545215  1
  Te  Te3  1  0.193326  0.399539  0.954785  1
  Te  Te4  1  0.296822  0.968890  0.294927  1
  Te  Te5  1  0.703178  0.968890  0.205073  1
  Te  Te6  1  0.703178  0.031110  0.705073  1
  Te  Te7  1  0.296822  0.031110  0.794927  1
  Te  Te8  1  0.806674  0.600461  0.045215  1
  Te  Te9  1  0.193326  0.600461  0.454785  1
  Au  Au10  1  0.000000  0.000000  0.500000  1
  Au  Au11  1  0.000000  0.000000  0.000000  1
