# generated using pymatgen
data_NiO2
_symmetry_space_group_name_H-M   'P 1'
_cell_length_a   7.15975369
_cell_length_b   7.15975369
_cell_length_c   7.15975369
_cell_angle_alpha   22.58698453
_cell_angle_beta   22.58698453
_cell_angle_gamma   22.58698453
_symmetry_Int_Tables_number   1
_chemical_formula_structural   NiO2
_chemical_formula_sum   'Ni1 O2'
_cell_volume   47.49705208
_cell_formula_units_Z   1
loop_
 _symmetry_equiv_pos_site_id
 _symmetry_equiv_pos_as_xyz
  1  'x, y, z'
loop_
 _atom_site_type_symbol
 _atom_site_label
 _atom_site_symmetry_multiplicity
 _atom_site_fract_x
 _atom_site_fract_y
 _atom_site_fract_z
 _atom_site_occupancy
  Ni  Ni0  1  0.000000  0.000000  0.000000  1
  O  O1  1  0.378789  0.378789  0.378789  1
  O  O2  1  0.621211  0.621211  0.621211  1
