# generated using pymatgen
data_Ta2NiO6
_symmetry_space_group_name_H-M   'P 1'
_cell_length_a   4.77740225
_cell_length_b   4.77740225
_cell_length_c   9.17788822
_cell_angle_alpha   90.00000000
_cell_angle_beta   90.00000000
_cell_angle_gamma   90.00000000
_symmetry_Int_Tables_number   1
_chemical_formula_structural   Ta2NiO6
_chemical_formula_sum   'Ta4 Ni2 O12'
_cell_volume   209.47219497
_cell_formula_units_Z   2
loop_
 _symmetry_equiv_pos_site_id
 _symmetry_equiv_pos_as_xyz
  1  'x, y, z'
loop_
 _atom_site_type_symbol
 _atom_site_label
 _atom_site_symmetry_multiplicity
 _atom_site_fract_x
 _atom_site_fract_y
 _atom_site_fract_z
 _atom_site_occupancy
  Ta  Ta0  1  0.500000  0.500000  0.168650  1
  Ta  Ta1  1  0.000000  0.000000  0.668650  1
  Ta  Ta2  1  0.500000  0.500000  0.831350  1
  Ta  Ta3  1  0.000000  0.000000  0.331350  1
  Ni  Ni4  1  0.500000  0.500000  0.500000  1
  Ni  Ni5  1  0.000000  0.000000  0.000000  1
  O  O6  1  0.189350  0.810650  0.500000  1
  O  O7  1  0.810650  0.189350  0.500000  1
  O  O8  1  0.310650  0.310650  0.000000  1
  O  O9  1  0.689350  0.689350  0.000000  1
  O  O10  1  0.202965  0.797035  0.174648  1
  O  O11  1  0.797035  0.202965  0.174648  1
  O  O12  1  0.297035  0.297035  0.674648  1
  O  O13  1  0.702965  0.702965  0.674648  1
  O  O14  1  0.797035  0.202965  0.825352  1
  O  O15  1  0.202965  0.797035  0.825352  1
  O  O16  1  0.702965  0.702965  0.325352  1
  O  O17  1  0.297035  0.297035  0.325352  1
