# generated using pymatgen
data_Lu2NiSn6
_symmetry_space_group_name_H-M   'P 1'
_cell_length_a   11.34564086
_cell_length_b   11.34564086
_cell_length_c   4.41815213
_cell_angle_alpha   90.00000000
_cell_angle_beta   90.00000000
_cell_angle_gamma   157.80953087
_symmetry_Int_Tables_number   1
_chemical_formula_structural   Lu2NiSn6
_chemical_formula_sum   'Lu2 Ni1 Sn6'
_cell_volume   214.79813169
_cell_formula_units_Z   1
loop_
 _symmetry_equiv_pos_site_id
 _symmetry_equiv_pos_as_xyz
  1  'x, y, z'
loop_
 _atom_site_type_symbol
 _atom_site_label
 _atom_site_symmetry_multiplicity
 _atom_site_fract_x
 _atom_site_fract_y
 _atom_site_fract_z
 _atom_site_occupancy
  Lu  Lu0  1  0.821081  0.178919  0.000000  1
  Lu  Lu1  1  0.178919  0.821081  1.000000  1
  Ni  Ni2  1  0.500000  0.500000  0.500000  1
  Sn  Sn3  1  0.570554  0.429446  0.000000  1
  Sn  Sn4  1  0.429446  0.570554  1.000000  1
  Sn  Sn5  1  0.928411  0.071589  0.500000  1
  Sn  Sn6  1  0.071589  0.928411  0.500000  1
  Sn  Sn7  1  0.296754  0.703246  0.500000  1
  Sn  Sn8  1  0.703246  0.296754  0.500000  1
