# generated using pymatgen
data_Rb5Hg19
_symmetry_space_group_name_H-M   'P 1'
_cell_length_a   10.27602616
_cell_length_b   10.27602616
_cell_length_c   10.27602616
_cell_angle_alpha   106.51107615
_cell_angle_beta   106.51107615
_cell_angle_gamma   115.56905493
_symmetry_Int_Tables_number   1
_chemical_formula_structural   Rb5Hg19
_chemical_formula_sum   'Rb5 Hg19'
_cell_volume   828.15082636
_cell_formula_units_Z   1
loop_
 _symmetry_equiv_pos_site_id
 _symmetry_equiv_pos_as_xyz
  1  'x, y, z'
loop_
 _atom_site_type_symbol
 _atom_site_label
 _atom_site_symmetry_multiplicity
 _atom_site_fract_x
 _atom_site_fract_y
 _atom_site_fract_z
 _atom_site_occupancy
  Rb  Rb0  1  0.500000  0.500000  0.000000  1
  Rb  Rb1  1  0.879660  0.675888  0.555548  1
  Rb  Rb2  1  0.324112  0.879660  0.203771  1
  Rb  Rb3  1  0.675888  0.120340  0.796229  1
  Rb  Rb4  1  0.120340  0.324112  0.444452  1
  Hg  Hg5  1  0.064566  0.472744  0.818237  1
  Hg  Hg6  1  0.654507  0.246328  0.181763  1
  Hg  Hg7  1  0.246328  0.064566  0.591822  1
  Hg  Hg8  1  0.250000  0.750000  0.500000  1
  Hg  Hg9  1  0.750000  0.250000  0.500000  1
  Hg  Hg10  1  0.386880  0.293373  0.252711  1
  Hg  Hg11  1  0.134170  0.386880  0.093508  1
  Hg  Hg12  1  0.293373  0.040662  0.906492  1
  Hg  Hg13  1  0.040662  0.134170  0.747289  1
  Hg  Hg14  1  0.613120  0.706627  0.747289  1
  Hg  Hg15  1  0.865830  0.613120  0.906492  1
  Hg  Hg16  1  0.706627  0.959338  0.093508  1
  Hg  Hg17  1  0.959338  0.865830  0.252711  1
  Hg  Hg18  1  0.000000  0.000000  0.000000  1
  Hg  Hg19  1  0.472744  0.654507  0.408178  1
  Hg  Hg20  1  0.753672  0.935434  0.408178  1
  Hg  Hg21  1  0.345493  0.753672  0.818237  1
  Hg  Hg22  1  0.935434  0.527256  0.181763  1
  Hg  Hg23  1  0.527256  0.345493  0.591822  1
