# generated using pymatgen
data_Fe5CuO8
_symmetry_space_group_name_H-M   'P 1'
_cell_length_a   6.03536474
_cell_length_b   6.03536474
_cell_length_c   6.03536474
_cell_angle_alpha   60.40796152
_cell_angle_beta   60.40796152
_cell_angle_gamma   60.40796152
_symmetry_Int_Tables_number   1
_chemical_formula_structural   Fe5CuO8
_chemical_formula_sum   'Fe5 Cu1 O8'
_cell_volume   156.88583879
_cell_formula_units_Z   1
loop_
 _symmetry_equiv_pos_site_id
 _symmetry_equiv_pos_as_xyz
  1  'x, y, z'
loop_
 _atom_site_type_symbol
 _atom_site_label
 _atom_site_symmetry_multiplicity
 _atom_site_fract_x
 _atom_site_fract_y
 _atom_site_fract_z
 _atom_site_occupancy
  Fe  Fe0  1  0.121308  0.121308  0.121308  1
  Fe  Fe1  1  0.878692  0.878692  0.878692  1
  Fe  Fe2  1  0.500000  0.000000  0.500000  1
  Fe  Fe3  1  0.500000  0.500000  0.000000  1
  Fe  Fe4  1  0.000000  0.500000  0.500000  1
  Cu  Cu5  1  0.500000  0.500000  0.500000  1
  O  O6  1  0.741442  0.741442  0.741442  1
  O  O7  1  0.749583  0.749583  0.270289  1
  O  O8  1  0.270289  0.749583  0.749583  1
  O  O9  1  0.749583  0.270289  0.749583  1
  O  O10  1  0.250417  0.729711  0.250417  1
  O  O11  1  0.729711  0.250417  0.250417  1
  O  O12  1  0.250417  0.250417  0.729711  1
  O  O13  1  0.258558  0.258558  0.258558  1
