# generated using pymatgen
data_Mn2CuO4
_symmetry_space_group_name_H-M   'P 1'
_cell_length_a   6.02715753
_cell_length_b   6.02715753
_cell_length_c   6.02715753
_cell_angle_alpha   119.44203540
_cell_angle_beta   118.88771578
_cell_angle_gamma   91.45332204
_symmetry_Int_Tables_number   1
_chemical_formula_structural   Mn2CuO4
_chemical_formula_sum   'Mn4 Cu2 O8'
_cell_volume   156.71367147
_cell_formula_units_Z   2
loop_
 _symmetry_equiv_pos_site_id
 _symmetry_equiv_pos_as_xyz
  1  'x, y, z'
loop_
 _atom_site_type_symbol
 _atom_site_label
 _atom_site_symmetry_multiplicity
 _atom_site_fract_x
 _atom_site_fract_y
 _atom_site_fract_z
 _atom_site_occupancy
  Mn  Mn0  1  0.619755  0.869755  0.750000  1
  Mn  Mn1  1  0.380245  0.130245  0.250000  1
  Mn  Mn2  1  0.000000  0.500000  0.500000  1
  Mn  Mn3  1  0.500000  0.500000  0.000000  1
  Cu  Cu4  1  0.000000  0.000000  0.500000  1
  Cu  Cu5  1  0.000000  0.500000  1.000000  1
  O  O6  1  0.244486  0.269747  0.525261  1
  O  O7  1  0.787983  0.268082  0.519901  1
  O  O8  1  0.244486  0.719224  0.974739  1
  O  O9  1  0.751818  0.731918  0.019901  1
  O  O10  1  0.248182  0.268082  0.980099  1
  O  O11  1  0.212017  0.731918  0.480099  1
  O  O12  1  0.755514  0.280776  0.025261  1
  O  O13  1  0.755514  0.730253  0.474739  1
