# generated using pymatgen
data_Na5MnO4
_symmetry_space_group_name_H-M   'P 1'
_cell_length_a   5.88600208
_cell_length_b   6.07252073
_cell_length_c   7.88226794
_cell_angle_alpha   90.00000000
_cell_angle_beta   90.00000000
_cell_angle_gamma   90.00000000
_symmetry_Int_Tables_number   1
_chemical_formula_structural   Na5MnO4
_chemical_formula_sum   'Na10 Mn2 O8'
_cell_volume   281.73487551
_cell_formula_units_Z   2
loop_
 _symmetry_equiv_pos_site_id
 _symmetry_equiv_pos_as_xyz
  1  'x, y, z'
loop_
 _atom_site_type_symbol
 _atom_site_label
 _atom_site_symmetry_multiplicity
 _atom_site_fract_x
 _atom_site_fract_y
 _atom_site_fract_z
 _atom_site_occupancy
  Na  Na0  1  0.747193  0.607070  0.698830  1
  Na  Na1  1  0.238618  0.677617  0.500000  1
  Na  Na2  1  0.435681  0.928580  0.178866  1
  Na  Na3  1  0.247193  0.392930  0.198830  1
  Na  Na4  1  0.747193  0.607070  0.301170  1
  Na  Na5  1  0.435681  0.928580  0.821134  1
  Na  Na6  1  0.935681  0.071420  0.678866  1
  Na  Na7  1  0.935681  0.071420  0.321134  1
  Na  Na8  1  0.738618  0.322383  0.000000  1
  Na  Na9  1  0.247193  0.392930  0.801170  1
  Mn  Mn10  1  0.495136  0.173082  0.500000  1
  Mn  Mn11  1  0.995136  0.826918  0.000000  1
  O  O12  1  0.594756  0.258080  0.725103  1
  O  O13  1  0.614985  0.873192  0.500000  1
  O  O14  1  0.114985  0.126808  0.000000  1
  O  O15  1  0.188601  0.284682  0.500000  1
  O  O16  1  0.688601  0.715318  0.000000  1
  O  O17  1  0.094756  0.741920  0.774897  1
  O  O18  1  0.094756  0.741920  0.225103  1
  O  O19  1  0.594756  0.258080  0.274897  1
