# generated using pymatgen
data_Er7Rh3
_symmetry_space_group_name_H-M   'P 1'
_cell_length_a   9.72945049
_cell_length_b   9.72945049
_cell_length_c   6.11311584
_cell_angle_alpha   90.00000000
_cell_angle_beta   90.00000000
_cell_angle_gamma   120.00000000
_symmetry_Int_Tables_number   1
_chemical_formula_structural   Er7Rh3
_chemical_formula_sum   'Er14 Rh6'
_cell_volume   501.15247783
_cell_formula_units_Z   2
loop_
 _symmetry_equiv_pos_site_id
 _symmetry_equiv_pos_as_xyz
  1  'x, y, z'
loop_
 _atom_site_type_symbol
 _atom_site_label
 _atom_site_symmetry_multiplicity
 _atom_site_fract_x
 _atom_site_fract_y
 _atom_site_fract_z
 _atom_site_occupancy
  Er  Er0  1  0.752334  0.876167  0.994642  1
  Er  Er1  1  0.876167  0.123833  0.494642  1
  Er  Er2  1  0.541533  0.458467  0.796729  1
  Er  Er3  1  0.083066  0.541533  0.296729  1
  Er  Er4  1  0.458467  0.916934  0.296729  1
  Er  Er5  1  0.541533  0.083066  0.796729  1
  Er  Er6  1  0.916934  0.458467  0.796729  1
  Er  Er7  1  0.458467  0.541533  0.296729  1
  Er  Er8  1  0.123833  0.247666  0.994642  1
  Er  Er9  1  0.876167  0.752334  0.494642  1
  Er  Er10  1  0.247666  0.123833  0.494642  1
  Er  Er11  1  0.123833  0.876167  0.994642  1
  Er  Er12  1  0.666667  0.333333  0.285077  1
  Er  Er13  1  0.333333  0.666667  0.785077  1
  Rh  Rh14  1  0.189578  0.810422  0.560937  1
  Rh  Rh15  1  0.379157  0.189578  0.060937  1
  Rh  Rh16  1  0.810422  0.620843  0.060937  1
  Rh  Rh17  1  0.189578  0.379157  0.560937  1
  Rh  Rh18  1  0.620843  0.810422  0.560937  1
  Rh  Rh19  1  0.810422  0.189578  0.060937  1
