# generated using pymatgen
data_Bi2O3
_symmetry_space_group_name_H-M   'P 1'
_cell_length_a   4.31918962
_cell_length_b   3.72776276
_cell_length_c   5.71662356
_cell_angle_alpha   90.00000000
_cell_angle_beta   92.65846029
_cell_angle_gamma   90.00000000
_symmetry_Int_Tables_number   1
_chemical_formula_structural   Bi2O3
_chemical_formula_sum   'Bi2 O3'
_cell_volume   91.94380588
_cell_formula_units_Z   1
loop_
 _symmetry_equiv_pos_site_id
 _symmetry_equiv_pos_as_xyz
  1  'x, y, z'
loop_
 _atom_site_type_symbol
 _atom_site_label
 _atom_site_symmetry_multiplicity
 _atom_site_fract_x
 _atom_site_fract_y
 _atom_site_fract_z
 _atom_site_occupancy
  Bi  Bi0  1  0.956483  0.000000  0.964227  1
  Bi  Bi1  1  0.518838  0.500000  0.519932  1
  O  O2  1  0.496315  0.000000  0.787804  1
  O  O3  1  0.709706  0.000000  0.313814  1
  O  O4  1  0.960658  0.500000  0.735223  1
