# generated using pymatgen
data_Cr(PO3)3
_symmetry_space_group_name_H-M   'P 1'
_cell_length_a   9.36577668
_cell_length_b   9.38388734
_cell_length_c   9.62057750
_cell_angle_alpha   104.13207229
_cell_angle_beta   109.96844784
_cell_angle_gamma   108.81730378
_symmetry_Int_Tables_number   1
_chemical_formula_structural   Cr(PO3)3
_chemical_formula_sum   'Cr4 P12 O36'
_cell_volume   689.99099764
_cell_formula_units_Z   4
loop_
 _symmetry_equiv_pos_site_id
 _symmetry_equiv_pos_as_xyz
  1  'x, y, z'
loop_
 _atom_site_type_symbol
 _atom_site_label
 _atom_site_symmetry_multiplicity
 _atom_site_fract_x
 _atom_site_fract_y
 _atom_site_fract_z
 _atom_site_occupancy
  Cr  Cr0  1  0.699107  0.900488  0.790860  1
  Cr  Cr1  1  0.774001  0.251439  0.728207  1
  Cr  Cr2  1  0.300893  0.099512  0.209140  1
  Cr  Cr3  1  0.225999  0.748561  0.271793  1
  P  P4  1  0.334577  0.571949  0.694904  1
  P  P5  1  0.436673  0.302288  0.592887  1
  P  P6  1  0.389483  0.996897  0.647688  1
  P  P7  1  0.844628  0.486824  0.099324  1
  P  P8  1  0.610517  0.003103  0.352312  1
  P  P9  1  0.665423  0.428051  0.305096  1
  P  P10  1  0.796913  0.064864  0.167922  1
  P  P11  1  0.097291  0.186796  0.923675  1
  P  P12  1  0.563327  0.697712  0.407113  1
  P  P13  1  0.902709  0.813204  0.076325  1
  P  P14  1  0.203087  0.935136  0.832078  1
  P  P15  1  0.155372  0.513176  0.900676  1
  O  O16  1  0.195938  0.371622  0.952585  1
  O  O17  1  0.858467  0.827536  0.915797  1
  O  O18  1  0.740517  0.147627  0.505291  1
  O  O19  1  0.423882  0.966543  0.313839  1
  O  O20  1  0.937059  0.218961  0.294444  1
  O  O21  1  0.511562  0.264754  0.239729  1
  O  O22  1  0.019981  0.570352  0.238690  1
  O  O23  1  0.188045  0.644244  0.048818  1
  O  O24  1  0.831700  0.903370  0.176300  1
  O  O25  1  0.804062  0.628378  0.047415  1
  O  O26  1  0.811955  0.355756  0.951182  1
  O  O27  1  0.488438  0.735246  0.760271  1
  O  O28  1  0.362839  0.154831  0.645225  1
  O  O29  1  0.275877  0.960115  0.007596  1
  O  O30  1  0.585786  0.561900  0.296670  1
  O  O31  1  0.327744  0.248415  0.415565  1
  O  O32  1  0.259483  0.852373  0.494709  1
  O  O33  1  0.623603  0.350974  0.649892  1
  O  O34  1  0.182288  0.514199  0.545916  1
  O  O35  1  0.672256  0.751585  0.584435  1
  O  O36  1  0.980019  0.429648  0.761310  1
  O  O37  1  0.414214  0.438100  0.703330  1
  O  O38  1  0.095103  0.878550  0.183913  1
  O  O39  1  0.576118  0.033457  0.686161  1
  O  O40  1  0.371841  0.987852  0.801822  1
  O  O41  1  0.062941  0.781039  0.705556  1
  O  O42  1  0.141533  0.172464  0.084203  1
  O  O43  1  0.817712  0.485801  0.454084  1
  O  O44  1  0.168300  0.096630  0.823700  1
  O  O45  1  0.628159  0.012148  0.198178  1
  O  O46  1  0.376397  0.649026  0.350108  1
  O  O47  1  0.301284  0.586327  0.855472  1
  O  O48  1  0.724123  0.039885  0.992404  1
  O  O49  1  0.904897  0.121450  0.816087  1
  O  O50  1  0.637161  0.845169  0.354775  1
  O  O51  1  0.698716  0.413673  0.144528  1
