# generated using pymatgen
data_La3PbI3
_symmetry_space_group_name_H-M   'P 1'
_cell_length_a   11.31934322
_cell_length_b   11.31934322
_cell_length_c   11.31934322
_cell_angle_alpha   109.47122063
_cell_angle_beta   109.47122063
_cell_angle_gamma   109.47122063
_symmetry_Int_Tables_number   1
_chemical_formula_structural   La3PbI3
_chemical_formula_sum   'La12 Pb4 I12'
_cell_volume   1116.45646936
_cell_formula_units_Z   4
loop_
 _symmetry_equiv_pos_site_id
 _symmetry_equiv_pos_as_xyz
  1  'x, y, z'
loop_
 _atom_site_type_symbol
 _atom_site_label
 _atom_site_symmetry_multiplicity
 _atom_site_fract_x
 _atom_site_fract_y
 _atom_site_fract_z
 _atom_site_occupancy
  La  La0  1  0.256986  0.750000  0.243014  1
  La  La1  1  0.006986  0.493014  0.750000  1
  La  La2  1  0.006986  0.013973  0.256986  1
  La  La3  1  0.013973  0.256986  0.006986  1
  La  La4  1  0.750000  0.243014  0.256986  1
  La  La5  1  0.243014  0.256986  0.750000  1
  La  La6  1  0.493014  0.243014  0.486027  1
  La  La7  1  0.243014  0.486027  0.493014  1
  La  La8  1  0.493014  0.750000  0.006986  1
  La  La9  1  0.486027  0.493014  0.243014  1
  La  La10  1  0.256986  0.006986  0.013973  1
  La  La11  1  0.750000  0.006986  0.493014  1
  Pb  Pb12  1  0.500000  0.000000  0.250000  1
  Pb  Pb13  1  0.000000  0.250000  0.500000  1
  Pb  Pb14  1  0.250000  0.500000  0.000000  1
  Pb  Pb15  1  0.250000  0.250000  0.250000  1
  I  I16  1  0.250000  0.755479  0.744521  1
  I  I17  1  0.994521  0.505479  0.250000  1
  I  I18  1  0.505479  0.250000  0.994521  1
  I  I19  1  0.755479  0.510958  0.505479  1
  I  I20  1  0.510958  0.505479  0.755479  1
  I  I21  1  0.505479  0.755479  0.510958  1
  I  I22  1  0.755479  0.744521  0.250000  1
  I  I23  1  0.744521  0.250000  0.755479  1
  I  I24  1  0.994521  0.989042  0.744521  1
  I  I25  1  0.250000  0.994521  0.505479  1
  I  I26  1  0.744521  0.994521  0.989042  1
  I  I27  1  0.989042  0.744521  0.994521  1
