# generated using pymatgen
data_ZrBe13
_symmetry_space_group_name_H-M   'P 1'
_cell_length_a   7.06804040
_cell_length_b   7.06804040
_cell_length_c   7.06804040
_cell_angle_alpha   60.00000000
_cell_angle_beta   60.00000000
_cell_angle_gamma   60.00000000
_symmetry_Int_Tables_number   1
_chemical_formula_structural   ZrBe13
_chemical_formula_sum   'Zr2 Be26'
_cell_volume   249.67903186
_cell_formula_units_Z   2
loop_
 _symmetry_equiv_pos_site_id
 _symmetry_equiv_pos_as_xyz
  1  'x, y, z'
loop_
 _atom_site_type_symbol
 _atom_site_label
 _atom_site_symmetry_multiplicity
 _atom_site_fract_x
 _atom_site_fract_y
 _atom_site_fract_z
 _atom_site_occupancy
  Zr  Zr0  1  0.750000  0.750000  0.750000  1
  Zr  Zr1  1  0.250000  0.250000  0.250000  1
  Be  Be2  1  0.000000  0.000000  0.000000  1
  Be  Be3  1  0.500000  0.500000  0.500000  1
  Be  Be4  1  0.938078  0.293012  0.706988  1
  Be  Be5  1  0.438078  0.793012  0.561922  1
  Be  Be6  1  0.793012  0.438078  0.206988  1
  Be  Be7  1  0.206988  0.438078  0.561922  1
  Be  Be8  1  0.793012  0.561922  0.438078  1
  Be  Be9  1  0.206988  0.793012  0.438078  1
  Be  Be10  1  0.438078  0.561922  0.206988  1
  Be  Be11  1  0.706988  0.293012  0.061922  1
  Be  Be12  1  0.061922  0.293012  0.938078  1
  Be  Be13  1  0.706988  0.938078  0.293012  1
  Be  Be14  1  0.293012  0.706988  0.938078  1
  Be  Be15  1  0.938078  0.061922  0.293012  1
  Be  Be16  1  0.938078  0.706988  0.061922  1
  Be  Be17  1  0.061922  0.938078  0.706988  1
  Be  Be18  1  0.293012  0.061922  0.706988  1
  Be  Be19  1  0.561922  0.793012  0.206988  1
  Be  Be20  1  0.206988  0.561922  0.793012  1
  Be  Be21  1  0.561922  0.438078  0.793012  1
  Be  Be22  1  0.793012  0.206988  0.561922  1
  Be  Be23  1  0.561922  0.206988  0.438078  1
  Be  Be24  1  0.438078  0.206988  0.793012  1
  Be  Be25  1  0.293012  0.938078  0.061922  1
  Be  Be26  1  0.061922  0.706988  0.293012  1
  Be  Be27  1  0.706988  0.061922  0.938078  1
