# generated using pymatgen
data_Tb3GaO6
_symmetry_space_group_name_H-M   'P 1'
_cell_length_a   7.18305745
_cell_length_b   7.18305745
_cell_length_c   5.47360998
_cell_angle_alpha   90.00000000
_cell_angle_beta   90.00000000
_cell_angle_gamma   102.84007132
_symmetry_Int_Tables_number   1
_chemical_formula_structural   Tb3GaO6
_chemical_formula_sum   'Tb6 Ga2 O12'
_cell_volume   275.35600194
_cell_formula_units_Z   2
loop_
 _symmetry_equiv_pos_site_id
 _symmetry_equiv_pos_as_xyz
  1  'x, y, z'
loop_
 _atom_site_type_symbol
 _atom_site_label
 _atom_site_symmetry_multiplicity
 _atom_site_fract_x
 _atom_site_fract_y
 _atom_site_fract_z
 _atom_site_occupancy
  Tb  Tb0  1  0.397954  0.602046  0.922327  1
  Tb  Tb1  1  0.602046  0.397954  0.422327  1
  Tb  Tb2  1  0.298808  0.088041  0.969320  1
  Tb  Tb3  1  0.701192  0.911959  0.469320  1
  Tb  Tb4  1  0.911959  0.701192  0.969320  1
  Tb  Tb5  1  0.088041  0.298808  0.469320  1
  Ga  Ga6  1  0.193361  0.806639  0.500127  1
  Ga  Ga7  1  0.806639  0.193361  0.000127  1
  O  O8  1  0.215628  0.784372  0.163995  1
  O  O9  1  0.784372  0.215628  0.663995  1
  O  O10  1  0.039174  0.960826  0.639301  1
  O  O11  1  0.960826  0.039174  0.139301  1
  O  O12  1  0.355703  0.324076  0.697125  1
  O  O13  1  0.644297  0.675924  0.197125  1
  O  O14  1  0.675924  0.644297  0.697125  1
  O  O15  1  0.324076  0.355703  0.197125  1
  O  O16  1  0.893896  0.421346  0.177950  1
  O  O17  1  0.106104  0.578654  0.677950  1
  O  O18  1  0.578654  0.106104  0.177950  1
  O  O19  1  0.421346  0.893896  0.677950  1
