# generated using pymatgen
data_Pu2S3
_symmetry_space_group_name_H-M   'P 1'
_cell_length_a   13.86177924
_cell_length_b   13.86177924
_cell_length_c   13.86177924
_cell_angle_alpha   145.15977824
_cell_angle_beta   145.15977824
_cell_angle_gamma   50.09648241
_symmetry_Int_Tables_number   1
_chemical_formula_structural   Pu2S3
_chemical_formula_sum   'Pu16 S24'
_cell_volume   865.07760564
_cell_formula_units_Z   8
loop_
 _symmetry_equiv_pos_site_id
 _symmetry_equiv_pos_as_xyz
  1  'x, y, z'
loop_
 _atom_site_type_symbol
 _atom_site_label
 _atom_site_symmetry_multiplicity
 _atom_site_fract_x
 _atom_site_fract_y
 _atom_site_fract_z
 _atom_site_occupancy
  Pu  Pu0  1  0.584750  0.084750  0.500000  1
  Pu  Pu1  1  0.375000  0.745180  0.870180  1
  Pu  Pu2  1  0.845684  0.955862  0.379692  1
  Pu  Pu3  1  0.165250  0.165250  0.000000  1
  Pu  Pu4  1  0.875000  0.504820  0.129820  1
  Pu  Pu5  1  0.576170  0.465992  0.620308  1
  Pu  Pu6  1  0.044138  0.423830  0.889822  1
  Pu  Pu7  1  0.495180  0.625000  0.370180  1
  Pu  Pu8  1  0.834750  0.834750  0.000000  1
  Pu  Pu9  1  0.254820  0.125000  0.629820  1
  Pu  Pu10  1  0.534008  0.154316  0.110178  1
  Pu  Pu11  1  0.915250  0.415250  0.500000  1
  Pu  Pu12  1  0.705862  0.095684  0.879692  1
  Pu  Pu13  1  0.173830  0.294138  0.389822  1
  Pu  Pu14  1  0.904316  0.784008  0.610178  1
  Pu  Pu15  1  0.215992  0.826170  0.120308  1
  S  S16  1  0.528101  0.424113  0.744830  1
  S  S17  1  0.240396  0.991465  0.097953  1
  S  S18  1  0.509604  0.107557  0.251069  1
  S  S19  1  0.893512  0.142443  0.902047  1
  S  S20  1  0.856488  0.258535  0.748931  1
  S  S21  1  0.679283  0.783271  0.255170  1
  S  S22  1  0.221899  0.466729  0.396012  1
  S  S23  1  0.070717  0.825887  0.603988  1
  S  S24  1  0.187889  0.096557  0.752594  1
  S  S25  1  0.903443  0.656037  0.091331  1
  S  S26  1  0.174113  0.778101  0.244830  1
  S  S27  1  0.564706  0.812111  0.908669  1
  S  S28  1  0.533271  0.929283  0.755170  1
  S  S29  1  0.892443  0.143512  0.402047  1
  S  S30  1  0.343963  0.435294  0.247406  1
  S  S31  1  0.741465  0.490396  0.597953  1
  S  S32  1  0.857557  0.759604  0.751069  1
  S  S33  1  0.575887  0.320717  0.103988  1
  S  S34  1  0.216729  0.471899  0.896012  1
  S  S35  1  0.846558  0.437889  0.252594  1
  S  S36  1  0.185294  0.593963  0.747406  1
  S  S37  1  0.562111  0.814706  0.408669  1
  S  S38  1  0.008535  0.106488  0.248931  1
  S  S39  1  0.406037  0.153443  0.591331  1
