# generated using pymatgen
data_Na4C2O5
_symmetry_space_group_name_H-M   'P 1'
_cell_length_a   5.06462612
_cell_length_b   5.06462612
_cell_length_c   6.20346224
_cell_angle_alpha   81.19336553
_cell_angle_beta   98.80663447
_cell_angle_gamma   116.21567759
_symmetry_Int_Tables_number   1
_chemical_formula_structural   Na4C2O5
_chemical_formula_sum   'Na4 C2 O5'
_cell_volume   140.41384682
_cell_formula_units_Z   1
loop_
 _symmetry_equiv_pos_site_id
 _symmetry_equiv_pos_as_xyz
  1  'x, y, z'
loop_
 _atom_site_type_symbol
 _atom_site_label
 _atom_site_symmetry_multiplicity
 _atom_site_fract_x
 _atom_site_fract_y
 _atom_site_fract_z
 _atom_site_occupancy
  Na  Na0  1  0.995509  0.004491  0.008809  1
  Na  Na1  1  0.665352  0.334648  0.735095  1
  Na  Na2  1  0.331972  0.668028  0.268464  1
  Na  Na3  1  0.001017  0.998983  0.503967  1
  C  C4  1  0.683442  0.316558  0.248399  1
  C  C5  1  0.338446  0.661554  0.761207  1
  O  O6  1  0.816675  0.597617  0.282385  1
  O  O7  1  0.402383  0.183325  0.282385  1
  O  O8  1  0.612990  0.808109  0.718061  1
  O  O9  1  0.191891  0.387010  0.718061  1
  O  O10  1  0.211325  0.788675  0.845167  1
