# generated using pymatgen
data_YbSnPd
_symmetry_space_group_name_H-M   'P 1'
_cell_length_a   4.54933326
_cell_length_b   7.23642864
_cell_length_c   8.19801651
_cell_angle_alpha   90.00000000
_cell_angle_beta   90.00000000
_cell_angle_gamma   90.00000000
_symmetry_Int_Tables_number   1
_chemical_formula_structural   YbSnPd
_chemical_formula_sum   'Yb4 Sn4 Pd4'
_cell_volume   269.88629074
_cell_formula_units_Z   4
loop_
 _symmetry_equiv_pos_site_id
 _symmetry_equiv_pos_as_xyz
  1  'x, y, z'
loop_
 _atom_site_type_symbol
 _atom_site_label
 _atom_site_symmetry_multiplicity
 _atom_site_fract_x
 _atom_site_fract_y
 _atom_site_fract_z
 _atom_site_occupancy
  Yb  Yb0  1  0.250000  0.528482  0.182036  1
  Yb  Yb1  1  0.750000  0.471518  0.817964  1
  Yb  Yb2  1  0.250000  0.028482  0.317964  1
  Yb  Yb3  1  0.750000  0.971518  0.682036  1
  Sn  Sn4  1  0.250000  0.157507  0.935067  1
  Sn  Sn5  1  0.750000  0.342493  0.435067  1
  Sn  Sn6  1  0.250000  0.657507  0.564933  1
  Sn  Sn7  1  0.750000  0.842493  0.064933  1
  Pd  Pd8  1  0.750000  0.225401  0.119487  1
  Pd  Pd9  1  0.250000  0.274599  0.619487  1
  Pd  Pd10  1  0.750000  0.725401  0.380513  1
  Pd  Pd11  1  0.250000  0.774599  0.880513  1
