# generated using pymatgen
data_K3CoO2
_symmetry_space_group_name_H-M   'P 1'
_cell_length_a   6.05131528
_cell_length_b   7.37202224
_cell_length_c   11.96094983
_cell_angle_alpha   90.00000000
_cell_angle_beta   90.00000000
_cell_angle_gamma   90.00000000
_symmetry_Int_Tables_number   1
_chemical_formula_structural   K3CoO2
_chemical_formula_sum   'K12 Co4 O8'
_cell_volume   533.58312538
_cell_formula_units_Z   4
loop_
 _symmetry_equiv_pos_site_id
 _symmetry_equiv_pos_as_xyz
  1  'x, y, z'
loop_
 _atom_site_type_symbol
 _atom_site_label
 _atom_site_symmetry_multiplicity
 _atom_site_fract_x
 _atom_site_fract_y
 _atom_site_fract_z
 _atom_site_occupancy
  K  K0  1  0.165369  0.000042  0.139853  1
  K  K1  1  0.218706  0.750000  0.405683  1
  K  K2  1  0.665369  0.500042  0.360147  1
  K  K3  1  0.834631  0.500042  0.860147  1
  K  K4  1  0.665369  0.999958  0.360147  1
  K  K5  1  0.834631  0.999958  0.860147  1
  K  K6  1  0.781294  0.250000  0.594317  1
  K  K7  1  0.281294  0.750000  0.905683  1
  K  K8  1  0.165369  0.499958  0.139853  1
  K  K9  1  0.334631  0.499958  0.639853  1
  K  K10  1  0.718706  0.250000  0.094317  1
  K  K11  1  0.334631  0.000042  0.639853  1
  Co  Co12  1  0.822938  0.750000  0.618188  1
  Co  Co13  1  0.177062  0.250000  0.381812  1
  Co  Co14  1  0.322938  0.250000  0.881812  1
  Co  Co15  1  0.677062  0.750000  0.118188  1
  O  O16  1  0.540372  0.250000  0.782695  1
  O  O17  1  0.459628  0.750000  0.217305  1
  O  O18  1  0.904954  0.750000  0.025852  1
  O  O19  1  0.040372  0.750000  0.717305  1
  O  O20  1  0.404954  0.250000  0.474148  1
  O  O21  1  0.595046  0.750000  0.525852  1
  O  O22  1  0.095046  0.250000  0.974148  1
  O  O23  1  0.959628  0.250000  0.282695  1
