# generated using pymatgen
data_Li3Mn2(PO4)3
_symmetry_space_group_name_H-M   'P 1'
_cell_length_a   4.85264343
_cell_length_b   4.85264343
_cell_length_c   19.12137320
_cell_angle_alpha   89.71546911
_cell_angle_beta   90.28453089
_cell_angle_gamma   111.39984643
_symmetry_Int_Tables_number   1
_chemical_formula_structural   Li3Mn2(PO4)3
_chemical_formula_sum   'Li6 Mn4 P6 O24'
_cell_volume   419.22209734
_cell_formula_units_Z   2
loop_
 _symmetry_equiv_pos_site_id
 _symmetry_equiv_pos_as_xyz
  1  'x, y, z'
loop_
 _atom_site_type_symbol
 _atom_site_label
 _atom_site_symmetry_multiplicity
 _atom_site_fract_x
 _atom_site_fract_y
 _atom_site_fract_z
 _atom_site_occupancy
  Li  Li0  1  0.676111  0.323889  0.587003  1
  Li  Li1  1  0.000190  0.999810  0.334033  1
  Li  Li2  1  0.999810  0.000190  0.665967  1
  Li  Li3  1  0.324572  0.675428  0.745463  1
  Li  Li4  1  0.675428  0.324572  0.254537  1
  Li  Li5  1  0.323889  0.676111  0.412997  1
  Mn  Mn6  1  1.000000  1.000000  0.000000  1
  Mn  Mn7  1  0.000534  0.999466  0.168288  1
  Mn  Mn8  1  0.999466  0.000534  0.831712  1
  Mn  Mn9  1  1.000000  1.000000  0.500000  1
  P  P10  1  0.346357  0.653643  0.916175  1
  P  P11  1  0.651968  0.348032  0.750222  1
  P  P12  1  0.350299  0.649701  0.582423  1
  P  P13  1  0.649701  0.350299  0.417577  1
  P  P14  1  0.348032  0.651968  0.249778  1
  P  P15  1  0.653643  0.346357  0.083825  1
  O  O16  1  0.232597  0.767403  0.980782  1
  O  O17  1  0.249819  0.750181  0.317120  1
  O  O18  1  0.750181  0.249819  0.682880  1
  O  O19  1  0.239261  0.303890  0.578301  1
  O  O20  1  0.694889  0.761221  0.244898  1
  O  O21  1  0.231919  0.768081  0.184366  1
  O  O22  1  0.306720  0.224908  0.082851  1
  O  O23  1  0.761221  0.694889  0.755102  1
  O  O24  1  0.238779  0.305111  0.244898  1
  O  O25  1  0.247468  0.752532  0.648484  1
  O  O26  1  0.752532  0.247468  0.351516  1
  O  O27  1  0.763221  0.236779  0.485123  1
  O  O28  1  0.760739  0.696110  0.421699  1
  O  O29  1  0.224908  0.306720  0.917149  1
  O  O30  1  0.696110  0.760739  0.578301  1
  O  O31  1  0.693280  0.775092  0.917149  1
  O  O32  1  0.767403  0.232597  0.019218  1
  O  O33  1  0.759675  0.240325  0.152570  1
  O  O34  1  0.236779  0.763221  0.514877  1
  O  O35  1  0.303890  0.239261  0.421699  1
  O  O36  1  0.775092  0.693280  0.082851  1
  O  O37  1  0.305111  0.238779  0.755102  1
  O  O38  1  0.768081  0.231919  0.815634  1
  O  O39  1  0.240325  0.759675  0.847430  1
