# generated using pymatgen
data_Tl(WO3)6
_symmetry_space_group_name_H-M   'P 1'
_cell_length_a   7.52089861
_cell_length_b   7.52089861
_cell_length_c   7.73007585
_cell_angle_alpha   90.00000000
_cell_angle_beta   90.00000000
_cell_angle_gamma   120.00000000
_symmetry_Int_Tables_number   1
_chemical_formula_structural   Tl(WO3)6
_chemical_formula_sum   'Tl1 W6 O18'
_cell_volume   378.66385784
_cell_formula_units_Z   1
loop_
 _symmetry_equiv_pos_site_id
 _symmetry_equiv_pos_as_xyz
  1  'x, y, z'
loop_
 _atom_site_type_symbol
 _atom_site_label
 _atom_site_symmetry_multiplicity
 _atom_site_fract_x
 _atom_site_fract_y
 _atom_site_fract_z
 _atom_site_occupancy
  Tl  Tl0  1  0.000000  0.000000  0.500000  1
  W  W1  1  0.000000  0.500000  0.750047  1
  W  W2  1  0.500000  0.500000  0.750047  1
  W  W3  1  0.500000  0.500000  0.249953  1
  W  W4  1  0.500000  0.000000  0.249953  1
  W  W5  1  0.500000  0.000000  0.750047  1
  W  W6  1  0.000000  0.500000  0.249953  1
  O  O7  1  0.212132  0.787868  0.251175  1
  O  O8  1  0.212132  0.787868  0.748825  1
  O  O9  1  0.212132  0.424263  0.748825  1
  O  O10  1  0.212132  0.424263  0.251175  1
  O  O11  1  0.575737  0.787868  0.251175  1
  O  O12  1  0.575737  0.787868  0.748825  1
  O  O13  1  0.500000  0.500000  0.500000  1
  O  O14  1  0.500000  0.500000  0.000000  1
  O  O15  1  0.424263  0.212132  0.251175  1
  O  O16  1  0.424263  0.212132  0.748825  1
  O  O17  1  0.500000  0.000000  0.000000  1
  O  O18  1  0.787868  0.575737  0.748825  1
  O  O19  1  0.787868  0.575737  0.251175  1
  O  O20  1  0.500000  0.000000  0.500000  1
  O  O21  1  0.787868  0.212132  0.251175  1
  O  O22  1  0.787868  0.212132  0.748825  1
  O  O23  1  0.000000  0.500000  0.500000  1
  O  O24  1  0.000000  0.500000  0.000000  1
