# generated using pymatgen
data_Ca(LaTe2)2
_symmetry_space_group_name_H-M   'P 1'
_cell_length_a   8.38272568
_cell_length_b   8.38272568
_cell_length_c   8.38272568
_cell_angle_alpha   109.78790698
_cell_angle_beta   109.78790698
_cell_angle_gamma   108.83968775
_symmetry_Int_Tables_number   1
_chemical_formula_structural   Ca(LaTe2)2
_chemical_formula_sum   'Ca2 La4 Te8'
_cell_volume   453.41339919
_cell_formula_units_Z   2
loop_
 _symmetry_equiv_pos_site_id
 _symmetry_equiv_pos_as_xyz
  1  'x, y, z'
loop_
 _atom_site_type_symbol
 _atom_site_label
 _atom_site_symmetry_multiplicity
 _atom_site_fract_x
 _atom_site_fract_y
 _atom_site_fract_z
 _atom_site_occupancy
  Ca  Ca0  1  0.750000  0.250000  0.500000  1
  Ca  Ca1  1  1.000000  1.000000  0.000000  1
  La  La2  1  0.248062  0.625000  0.123062  1
  La  La3  1  0.375000  0.498062  0.623062  1
  La  La4  1  0.501938  0.125000  0.876938  1
  La  La5  1  0.875000  0.751938  0.376938  1
  Te  Te6  1  0.270711  0.023239  0.396820  1
  Te  Te7  1  0.479289  0.376109  0.252529  1
  Te  Te8  1  0.773239  0.520711  0.896820  1
  Te  Te9  1  0.623891  0.876420  0.103180  1
  Te  Te10  1  0.626420  0.873891  0.603180  1
  Te  Te11  1  0.126109  0.729289  0.752529  1
  Te  Te12  1  0.976761  0.373580  0.247471  1
  Te  Te13  1  0.123580  0.226761  0.747471  1
