# generated using pymatgen
data_La2USe4
_symmetry_space_group_name_H-M   'P 1'
_cell_length_a   7.76324619
_cell_length_b   7.76324619
_cell_length_c   7.76324619
_cell_angle_alpha   109.24805459
_cell_angle_beta   109.24805459
_cell_angle_gamma   109.91848066
_symmetry_Int_Tables_number   1
_chemical_formula_structural   La2USe4
_chemical_formula_sum   'La4 U2 Se8'
_cell_volume   360.15406304
_cell_formula_units_Z   2
loop_
 _symmetry_equiv_pos_site_id
 _symmetry_equiv_pos_as_xyz
  1  'x, y, z'
loop_
 _atom_site_type_symbol
 _atom_site_label
 _atom_site_symmetry_multiplicity
 _atom_site_fract_x
 _atom_site_fract_y
 _atom_site_fract_z
 _atom_site_occupancy
  La  La0  1  0.125000  0.501904  0.876904  1
  La  La1  1  0.625000  0.248096  0.123096  1
  La  La2  1  0.498096  0.375000  0.623096  1
  La  La3  1  0.751904  0.875000  0.376904  1
  U  U4  1  1.000000  1.000000  0.000000  1
  U  U5  1  0.250000  0.750000  0.500000  1
  Se  Se6  1  0.882276  0.631956  0.101309  1
  Se  Se7  1  0.368043  0.469352  0.250320  1
  Se  Se8  1  0.030967  0.280648  0.398691  1
  Se  Se9  1  0.219033  0.117724  0.749680  1
  Se  Se10  1  0.367724  0.969033  0.249680  1
  Se  Se11  1  0.530648  0.780967  0.898691  1
  Se  Se12  1  0.719352  0.118043  0.750320  1
  Se  Se13  1  0.881956  0.632276  0.601309  1
