# generated using pymatgen
data_CeGa4Os
_symmetry_space_group_name_H-M   'P 1'
_cell_length_a   7.69711100
_cell_length_b   8.88420075
_cell_length_c   9.54489723
_cell_angle_alpha   90.00000000
_cell_angle_beta   90.00000000
_cell_angle_gamma   90.00000000
_symmetry_Int_Tables_number   1
_chemical_formula_structural   CeGa4Os
_chemical_formula_sum   'Ce6 Ga24 Os6'
_cell_volume   652.70564641
_cell_formula_units_Z   6
loop_
 _symmetry_equiv_pos_site_id
 _symmetry_equiv_pos_as_xyz
  1  'x, y, z'
loop_
 _atom_site_type_symbol
 _atom_site_label
 _atom_site_symmetry_multiplicity
 _atom_site_fract_x
 _atom_site_fract_y
 _atom_site_fract_z
 _atom_site_occupancy
  Ce  Ce0  1  0.163374  0.753561  0.250000  1
  Ce  Ce1  1  0.163374  0.246439  0.250000  1
  Ce  Ce2  1  0.836626  0.753561  0.750000  1
  Ce  Ce3  1  0.836626  0.246439  0.750000  1
  Ce  Ce4  1  0.677161  0.500000  0.250000  1
  Ce  Ce5  1  0.322839  0.500000  0.750000  1
  Ga  Ga6  1  0.000000  0.500000  0.500000  1
  Ga  Ga7  1  0.000000  0.500000  0.000000  1
  Ga  Ga8  1  0.129947  0.000000  0.750000  1
  Ga  Ga9  1  0.870053  0.000000  0.250000  1
  Ga  Ga10  1  0.337548  0.000000  0.064453  1
  Ga  Ga11  1  0.337548  0.000000  0.435547  1
  Ga  Ga12  1  0.662452  0.000000  0.935547  1
  Ga  Ga13  1  0.662452  0.000000  0.564453  1
  Ga  Ga14  1  0.655930  0.500000  0.589627  1
  Ga  Ga15  1  0.655930  0.500000  0.910373  1
  Ga  Ga16  1  0.344070  0.500000  0.410373  1
  Ga  Ga17  1  0.344070  0.500000  0.089627  1
  Ga  Ga18  1  0.822473  0.761452  0.079468  1
  Ga  Ga19  1  0.822473  0.238548  0.420532  1
  Ga  Ga20  1  0.177527  0.761452  0.920532  1
  Ga  Ga21  1  0.177527  0.238548  0.579468  1
  Ga  Ga22  1  0.177527  0.238548  0.920532  1
  Ga  Ga23  1  0.177527  0.761452  0.579468  1
  Ga  Ga24  1  0.822473  0.238548  0.079468  1
  Ga  Ga25  1  0.822473  0.761452  0.420532  1
  Ga  Ga26  1  0.546333  0.842691  0.250000  1
  Ga  Ga27  1  0.546333  0.157309  0.250000  1
  Ga  Ga28  1  0.453667  0.842691  0.750000  1
  Ga  Ga29  1  0.453667  0.157309  0.750000  1
  Os  Os30  1  0.500000  0.739794  0.000000  1
  Os  Os31  1  0.500000  0.260206  0.500000  1
  Os  Os32  1  0.500000  0.260206  0.000000  1
  Os  Os33  1  0.500000  0.739794  0.500000  1
  Os  Os34  1  0.000000  0.000000  0.000000  1
  Os  Os35  1  0.000000  0.000000  0.500000  1
