# generated using pymatgen
data_Mg(FeO2)2
_symmetry_space_group_name_H-M   'P 1'
_cell_length_a   5.98258094
_cell_length_b   5.98258094
_cell_length_c   14.63079428
_cell_angle_alpha   89.97910309
_cell_angle_beta   90.02089691
_cell_angle_gamma   119.77854820
_symmetry_Int_Tables_number   1
_chemical_formula_structural   Mg(FeO2)2
_chemical_formula_sum   'Mg6 Fe12 O24'
_cell_volume   454.50688900
_cell_formula_units_Z   6
loop_
 _symmetry_equiv_pos_site_id
 _symmetry_equiv_pos_as_xyz
  1  'x, y, z'
loop_
 _atom_site_type_symbol
 _atom_site_label
 _atom_site_symmetry_multiplicity
 _atom_site_fract_x
 _atom_site_fract_y
 _atom_site_fract_z
 _atom_site_occupancy
  Mg  Mg0  1  0.162685  0.837315  0.041787  1
  Mg  Mg1  1  0.666116  0.333884  0.168112  1
  Mg  Mg2  1  0.000081  0.999919  0.499681  1
  Mg  Mg3  1  0.830754  0.169246  0.335253  1
  Mg  Mg4  1  0.332949  0.667051  0.831760  1
  Mg  Mg5  1  0.169425  0.830575  0.663701  1
  Fe  Fe6  1  0.494782  0.505218  0.381555  1
  Fe  Fe7  1  0.500514  0.499486  0.004280  1
  Fe  Fe8  1  0.666737  0.830134  0.168326  1
  Fe  Fe9  1  0.827227  0.172773  0.706375  1
  Fe  Fe10  1  0.169866  0.333263  0.168326  1
  Fe  Fe11  1  0.999901  0.500028  0.499778  1
  Fe  Fe12  1  0.499972  0.000099  0.499778  1
  Fe  Fe13  1  0.172849  0.827151  0.291650  1
  Fe  Fe14  1  0.330926  0.162457  0.831269  1
  Fe  Fe15  1  0.837543  0.669074  0.831269  1
  Fe  Fe16  1  0.505026  0.494974  0.619825  1
  Fe  Fe17  1  0.838036  0.161964  0.958513  1
  O  O18  1  0.341785  0.196031  0.086745  1
  O  O19  1  0.803969  0.658215  0.086745  1
  O  O20  1  0.497459  0.502541  0.248245  1
  O  O21  1  0.345035  0.654965  0.087659  1
  O  O22  1  0.664708  0.854661  0.422771  1
  O  O23  1  0.993682  0.006318  0.248124  1
  O  O24  1  0.835693  0.164307  0.089687  1
  O  O25  1  0.517082  0.003944  0.247024  1
  O  O26  1  0.145339  0.335292  0.422771  1
  O  O27  1  0.826071  0.173929  0.573392  1
  O  O28  1  0.674239  0.325761  0.425510  1
  O  O29  1  0.996056  0.482918  0.247024  1
  O  O30  1  0.326279  0.673721  0.574759  1
  O  O31  1  0.003990  0.515744  0.751771  1
  O  O32  1  0.173953  0.826047  0.425900  1
  O  O33  1  0.853486  0.664505  0.577520  1
  O  O34  1  0.484256  0.996010  0.751771  1
  O  O35  1  0.161877  0.838123  0.904727  1
  O  O36  1  0.335495  0.146514  0.577520  1
  O  O37  1  0.005873  0.994127  0.750725  1
  O  O38  1  0.657950  0.342050  0.914229  1
  O  O39  1  0.503221  0.496779  0.754655  1
  O  O40  1  0.187681  0.340548  0.914745  1
  O  O41  1  0.659452  0.812319  0.914745  1
