# generated using pymatgen
data_MgMn2O4
_symmetry_space_group_name_H-M   'P 1'
_cell_length_a   6.26994857
_cell_length_b   6.26994857
_cell_length_c   6.26994857
_cell_angle_alpha   124.78747017
_cell_angle_beta   124.78747017
_cell_angle_gamma   81.89035086
_symmetry_Int_Tables_number   1
_chemical_formula_structural   MgMn2O4
_chemical_formula_sum   'Mg2 Mn4 O8'
_cell_volume   159.91584485
_cell_formula_units_Z   2
loop_
 _symmetry_equiv_pos_site_id
 _symmetry_equiv_pos_as_xyz
  1  'x, y, z'
loop_
 _atom_site_type_symbol
 _atom_site_label
 _atom_site_symmetry_multiplicity
 _atom_site_fract_x
 _atom_site_fract_y
 _atom_site_fract_z
 _atom_site_occupancy
  Mg  Mg0  1  0.500000  0.500000  0.000000  1
  Mg  Mg1  1  0.250000  0.750000  0.500000  1
  Mn  Mn2  1  0.875000  0.125000  0.250000  1
  Mn  Mn3  1  0.375000  0.125000  0.250000  1
  Mn  Mn4  1  0.875000  0.625000  0.750000  1
  Mn  Mn5  1  0.875000  0.125000  0.750000  1
  O  O6  1  0.652117  0.878777  0.773340  1
  O  O7  1  0.121223  0.894564  0.773340  1
  O  O8  1  0.121223  0.347883  0.226660  1
  O  O9  1  0.097883  0.371223  0.726660  1
  O  O10  1  0.644564  0.371223  0.273340  1
  O  O11  1  0.628777  0.355436  0.726660  1
  O  O12  1  0.105436  0.878777  0.226660  1
  O  O13  1  0.628777  0.902117  0.273340  1
