# generated using pymatgen
data_Ag2S
_symmetry_space_group_name_H-M   'P 1'
_cell_length_a   4.45681487
_cell_length_b   6.26596082
_cell_length_c   6.18685653
_cell_angle_alpha   90.00000000
_cell_angle_beta   133.46730962
_cell_angle_gamma   90.00000000
_symmetry_Int_Tables_number   1
_chemical_formula_structural   Ag2S
_chemical_formula_sum   'Ag4 S2'
_cell_volume   125.39480092
_cell_formula_units_Z   2
loop_
 _symmetry_equiv_pos_site_id
 _symmetry_equiv_pos_as_xyz
  1  'x, y, z'
loop_
 _atom_site_type_symbol
 _atom_site_label
 _atom_site_symmetry_multiplicity
 _atom_site_fract_x
 _atom_site_fract_y
 _atom_site_fract_z
 _atom_site_occupancy
  Ag  Ag0  1  0.304663  0.099423  0.727103  1
  Ag  Ag1  1  0.584641  0.566033  0.910407  1
  Ag  Ag2  1  0.304663  0.900577  0.227103  1
  Ag  Ag3  1  0.584641  0.433967  0.410407  1
  S  S4  1  0.985696  0.751986  0.424991  1
  S  S5  1  0.985696  0.248014  0.924991  1
