# generated using pymatgen
data_SiPd
_symmetry_space_group_name_H-M   'P 1'
_cell_length_a   3.46907383
_cell_length_b   5.64505628
_cell_length_c   6.16173892
_cell_angle_alpha   90.00000000
_cell_angle_beta   90.00000000
_cell_angle_gamma   90.00000000
_symmetry_Int_Tables_number   1
_chemical_formula_structural   SiPd
_chemical_formula_sum   'Si4 Pd4'
_cell_volume   120.66605425
_cell_formula_units_Z   4
loop_
 _symmetry_equiv_pos_site_id
 _symmetry_equiv_pos_as_xyz
  1  'x, y, z'
loop_
 _atom_site_type_symbol
 _atom_site_label
 _atom_site_symmetry_multiplicity
 _atom_site_fract_x
 _atom_site_fract_y
 _atom_site_fract_z
 _atom_site_occupancy
  Si  Si0  1  0.250000  0.676810  0.072725  1
  Si  Si1  1  0.750000  0.323190  0.927275  1
  Si  Si2  1  0.250000  0.176810  0.427275  1
  Si  Si3  1  0.750000  0.823190  0.572725  1
  Pd  Pd4  1  0.250000  0.503990  0.690877  1
  Pd  Pd5  1  0.750000  0.496010  0.309123  1
  Pd  Pd6  1  0.250000  0.003990  0.809123  1
  Pd  Pd7  1  0.750000  0.996010  0.190877  1
