# generated using pymatgen
data_V2(PO4)3
_symmetry_space_group_name_H-M   'P 1'
_cell_length_a   8.36483638
_cell_length_b   8.36601655
_cell_length_c   8.70500423
_cell_angle_alpha   90.42694121
_cell_angle_beta   117.91581646
_cell_angle_gamma   119.63552145
_symmetry_Int_Tables_number   1
_chemical_formula_structural   V2(PO4)3
_chemical_formula_sum   'V4 P6 O24'
_cell_volume   444.65769885
_cell_formula_units_Z   2
loop_
 _symmetry_equiv_pos_site_id
 _symmetry_equiv_pos_as_xyz
  1  'x, y, z'
loop_
 _atom_site_type_symbol
 _atom_site_label
 _atom_site_symmetry_multiplicity
 _atom_site_fract_x
 _atom_site_fract_y
 _atom_site_fract_z
 _atom_site_occupancy
  V  V0  1  0.218221  0.863090  0.081117  1
  V  V1  1  0.209723  0.360329  0.566279  1
  V  V2  1  0.790277  0.639671  0.433721  1
  V  V3  1  0.781779  0.136910  0.918883  1
  P  P4  1  0.992850  0.968409  0.245284  1
  P  P5  1  0.007150  0.031591  0.754716  1
  P  P6  1  0.717275  0.246821  0.255719  1
  P  P7  1  0.282725  0.753179  0.744281  1
  P  P8  1  0.276563  0.529157  0.251727  1
  P  P9  1  0.723437  0.470843  0.748273  1
  O  O10  1  0.138841  0.017197  0.945184  1
  O  O11  1  0.233837  0.522618  0.405670  1
  O  O12  1  0.861159  0.982803  0.054816  1
  O  O13  1  0.494880  0.089817  0.230397  1
  O  O14  1  0.867732  0.098200  0.767350  1
  O  O15  1  0.738357  0.441449  0.269014  1
  O  O16  1  0.155888  0.169536  0.389558  1
  O  O17  1  0.766163  0.477382  0.594330  1
  O  O18  1  0.709206  0.187224  0.082855  1
  O  O19  1  0.261643  0.558551  0.730986  1
  O  O20  1  0.104904  0.750326  0.571422  1
  O  O21  1  0.312325  0.721664  0.210467  1
  O  O22  1  0.476154  0.528551  0.298242  1
  O  O23  1  0.166145  0.178978  0.708697  1
  O  O24  1  0.132268  0.901800  0.232650  1
  O  O25  1  0.687675  0.278336  0.789533  1
  O  O26  1  0.505120  0.910183  0.769603  1
  O  O27  1  0.071709  0.360201  0.074983  1
  O  O28  1  0.895096  0.249674  0.428578  1
  O  O29  1  0.290794  0.812776  0.917145  1
  O  O30  1  0.844112  0.830464  0.610442  1
  O  O31  1  0.833855  0.821022  0.291303  1
  O  O32  1  0.928291  0.639799  0.925017  1
  O  O33  1  0.523846  0.471449  0.701758  1
