# generated using pymatgen
data_Sc6AgTe2
_symmetry_space_group_name_H-M   'P 1'
_cell_length_a   3.86418454
_cell_length_b   10.78862522
_cell_length_c   20.48672821
_cell_angle_alpha   90.00000000
_cell_angle_beta   90.00000000
_cell_angle_gamma   90.00000000
_symmetry_Int_Tables_number   1
_chemical_formula_structural   Sc6AgTe2
_chemical_formula_sum   'Sc24 Ag4 Te8'
_cell_volume   854.07610423
_cell_formula_units_Z   4
loop_
 _symmetry_equiv_pos_site_id
 _symmetry_equiv_pos_as_xyz
  1  'x, y, z'
loop_
 _atom_site_type_symbol
 _atom_site_label
 _atom_site_symmetry_multiplicity
 _atom_site_fract_x
 _atom_site_fract_y
 _atom_site_fract_z
 _atom_site_occupancy
  Sc  Sc0  1  0.250000  0.390904  0.989894  1
  Sc  Sc1  1  0.750000  0.609096  0.010106  1
  Sc  Sc2  1  0.750000  0.890904  0.510106  1
  Sc  Sc3  1  0.250000  0.109096  0.489894  1
  Sc  Sc4  1  0.250000  0.932645  0.638254  1
  Sc  Sc5  1  0.750000  0.067355  0.361746  1
  Sc  Sc6  1  0.750000  0.432645  0.861746  1
  Sc  Sc7  1  0.250000  0.567355  0.138254  1
  Sc  Sc8  1  0.250000  0.877079  0.029204  1
  Sc  Sc9  1  0.750000  0.122921  0.970796  1
  Sc  Sc10  1  0.750000  0.377079  0.470796  1
  Sc  Sc11  1  0.250000  0.622921  0.529204  1
  Sc  Sc12  1  0.250000  0.828508  0.392577  1
  Sc  Sc13  1  0.750000  0.171492  0.607423  1
  Sc  Sc14  1  0.750000  0.328508  0.107423  1
  Sc  Sc15  1  0.250000  0.671492  0.892577  1
  Sc  Sc16  1  0.250000  0.536953  0.338258  1
  Sc  Sc17  1  0.750000  0.463047  0.661742  1
  Sc  Sc18  1  0.750000  0.036953  0.161742  1
  Sc  Sc19  1  0.250000  0.963047  0.838258  1
  Sc  Sc20  1  0.250000  0.249130  0.230457  1
  Sc  Sc21  1  0.750000  0.750870  0.769543  1
  Sc  Sc22  1  0.750000  0.749130  0.269543  1
  Sc  Sc23  1  0.250000  0.250870  0.730457  1
  Ag  Ag24  1  0.250000  0.142209  0.076020  1
  Ag  Ag25  1  0.750000  0.857791  0.923980  1
  Ag  Ag26  1  0.750000  0.642209  0.423980  1
  Ag  Ag27  1  0.250000  0.357791  0.576020  1
  Te  Te28  1  0.250000  0.226153  0.873181  1
  Te  Te29  1  0.750000  0.773847  0.126819  1
  Te  Te30  1  0.750000  0.726153  0.626819  1
  Te  Te31  1  0.250000  0.273847  0.373181  1
  Te  Te32  1  0.250000  0.535347  0.764990  1
  Te  Te33  1  0.750000  0.464653  0.235010  1
  Te  Te34  1  0.750000  0.035347  0.735010  1
  Te  Te35  1  0.250000  0.964653  0.264990  1
