# generated using pymatgen
data_Th7Ni3
_symmetry_space_group_name_H-M   'P 1'
_cell_length_a   9.82636822
_cell_length_b   9.82636822
_cell_length_c   6.21455900
_cell_angle_alpha   90.00000000
_cell_angle_beta   90.00000000
_cell_angle_gamma   120.00000000
_symmetry_Int_Tables_number   1
_chemical_formula_structural   Th7Ni3
_chemical_formula_sum   'Th14 Ni6'
_cell_volume   519.66924535
_cell_formula_units_Z   2
loop_
 _symmetry_equiv_pos_site_id
 _symmetry_equiv_pos_as_xyz
  1  'x, y, z'
loop_
 _atom_site_type_symbol
 _atom_site_label
 _atom_site_symmetry_multiplicity
 _atom_site_fract_x
 _atom_site_fract_y
 _atom_site_fract_z
 _atom_site_occupancy
  Th  Th0  1  0.333333  0.666667  0.070347  1
  Th  Th1  1  0.666667  0.333333  0.570347  1
  Th  Th2  1  0.126960  0.873040  0.241013  1
  Th  Th3  1  0.253919  0.126960  0.741013  1
  Th  Th4  1  0.873040  0.746081  0.741013  1
  Th  Th5  1  0.126960  0.253919  0.241013  1
  Th  Th6  1  0.746081  0.873040  0.241013  1
  Th  Th7  1  0.873040  0.126960  0.741013  1
  Th  Th8  1  0.544335  0.455665  0.038614  1
  Th  Th9  1  0.088670  0.544335  0.538614  1
  Th  Th10  1  0.455665  0.911330  0.538614  1
  Th  Th11  1  0.544335  0.088670  0.038614  1
  Th  Th12  1  0.911330  0.455665  0.038614  1
  Th  Th13  1  0.455665  0.544335  0.538614  1
  Ni  Ni14  1  0.813558  0.186442  0.306924  1
  Ni  Ni15  1  0.627115  0.813558  0.806924  1
  Ni  Ni16  1  0.186442  0.372885  0.806924  1
  Ni  Ni17  1  0.813558  0.627115  0.306924  1
  Ni  Ni18  1  0.372885  0.186442  0.306924  1
  Ni  Ni19  1  0.186442  0.813558  0.806924  1
