# generated using pymatgen
data_Tl9BiTe6
_symmetry_space_group_name_H-M   'P 1'
_cell_length_a   9.26665972
_cell_length_b   9.26665972
_cell_length_c   9.26665972
_cell_angle_alpha   122.01327407
_cell_angle_beta   122.01327407
_cell_angle_gamma   86.54690238
_symmetry_Int_Tables_number   1
_chemical_formula_structural   Tl9BiTe6
_chemical_formula_sum   'Tl9 Bi1 Te6'
_cell_volume   544.47243704
_cell_formula_units_Z   1
loop_
 _symmetry_equiv_pos_site_id
 _symmetry_equiv_pos_as_xyz
  1  'x, y, z'
loop_
 _atom_site_type_symbol
 _atom_site_label
 _atom_site_symmetry_multiplicity
 _atom_site_fract_x
 _atom_site_fract_y
 _atom_site_fract_z
 _atom_site_occupancy
  Tl  Tl0  1  0.511232  0.011314  0.206626  1
  Tl  Tl1  1  0.988686  0.195312  0.499918  1
  Tl  Tl2  1  0.000000  0.000000  0.000000  1
  Tl  Tl3  1  0.804688  0.304605  0.793374  1
  Tl  Tl4  1  0.695395  0.488768  0.500082  1
  Tl  Tl5  1  0.304605  0.511232  0.499918  1
  Tl  Tl6  1  0.195312  0.695395  0.206626  1
  Tl  Tl7  1  0.011314  0.804688  0.500082  1
  Tl  Tl8  1  0.488768  0.988686  0.793374  1
  Bi  Bi9  1  0.500000  0.500000  0.000000  1
  Te  Te10  1  0.261121  0.261121  0.000000  1
  Te  Te11  1  0.348029  0.173647  0.521676  1
  Te  Te12  1  0.826353  0.348029  0.174382  1
  Te  Te13  1  0.738879  0.738879  0.000000  1
  Te  Te14  1  0.173647  0.651971  0.825618  1
  Te  Te15  1  0.651971  0.826353  0.478324  1
