# generated using pymatgen
data_LaTaO4
_symmetry_space_group_name_H-M   'P 1'
_cell_length_a   7.75278229
_cell_length_b   7.75278229
_cell_length_c   5.66807118
_cell_angle_alpha   90.00000000
_cell_angle_beta   90.00000000
_cell_angle_gamma   150.30474293
_symmetry_Int_Tables_number   1
_chemical_formula_structural   LaTaO4
_chemical_formula_sum   'La2 Ta2 O8'
_cell_volume   168.76985172
_cell_formula_units_Z   2
loop_
 _symmetry_equiv_pos_site_id
 _symmetry_equiv_pos_as_xyz
  1  'x, y, z'
loop_
 _atom_site_type_symbol
 _atom_site_label
 _atom_site_symmetry_multiplicity
 _atom_site_fract_x
 _atom_site_fract_y
 _atom_site_fract_z
 _atom_site_occupancy
  La  La0  1  0.175518  0.824482  0.832208  1
  La  La1  1  0.824482  0.175518  0.332208  1
  Ta  Ta2  1  0.415372  0.584628  0.783300  1
  Ta  Ta3  1  0.584628  0.415372  0.283300  1
  O  O4  1  0.088530  0.911470  0.248307  1
  O  O5  1  0.911470  0.088530  0.748307  1
  O  O6  1  0.528712  0.471288  0.944032  1
  O  O7  1  0.471288  0.528712  0.444032  1
  O  O8  1  0.301403  0.698597  0.574252  1
  O  O9  1  0.698597  0.301403  0.074252  1
  O  O10  1  0.336402  0.663598  0.051301  1
  O  O11  1  0.663598  0.336402  0.551301  1
