# generated using pymatgen
data_Mn(NbS2)4
_symmetry_space_group_name_H-M   'P 1'
_cell_length_a   6.72419203
_cell_length_b   6.72419203
_cell_length_c   12.35083966
_cell_angle_alpha   90.00000000
_cell_angle_beta   90.00000000
_cell_angle_gamma   120.00000000
_symmetry_Int_Tables_number   1
_chemical_formula_structural   Mn(NbS2)4
_chemical_formula_sum   'Mn2 Nb8 S16'
_cell_volume   483.62342730
_cell_formula_units_Z   2
loop_
 _symmetry_equiv_pos_site_id
 _symmetry_equiv_pos_as_xyz
  1  'x, y, z'
loop_
 _atom_site_type_symbol
 _atom_site_label
 _atom_site_symmetry_multiplicity
 _atom_site_fract_x
 _atom_site_fract_y
 _atom_site_fract_z
 _atom_site_occupancy
  Mn  Mn0  1  0.000000  0.000000  0.000000  1
  Mn  Mn1  1  0.000000  0.000000  0.500000  1
  Nb  Nb2  1  0.987996  0.493998  0.250000  1
  Nb  Nb3  1  0.012004  0.506002  0.750000  1
  Nb  Nb4  1  0.493998  0.506002  0.750000  1
  Nb  Nb5  1  0.506002  0.012004  0.250000  1
  Nb  Nb6  1  0.000000  0.000000  0.750000  1
  Nb  Nb7  1  0.000000  0.000000  0.250000  1
  Nb  Nb8  1  0.506002  0.493998  0.250000  1
  Nb  Nb9  1  0.493998  0.987996  0.750000  1
  S  S10  1  0.333333  0.666667  0.619884  1
  S  S11  1  0.666667  0.333333  0.119884  1
  S  S12  1  0.666667  0.333333  0.380116  1
  S  S13  1  0.333333  0.666667  0.880116  1
  S  S14  1  0.167782  0.335565  0.376361  1
  S  S15  1  0.832218  0.167782  0.876361  1
  S  S16  1  0.335565  0.167782  0.876361  1
  S  S17  1  0.664435  0.832218  0.376361  1
  S  S18  1  0.167782  0.832218  0.376361  1
  S  S19  1  0.832218  0.664435  0.876361  1
  S  S20  1  0.167782  0.335565  0.123639  1
  S  S21  1  0.832218  0.167782  0.623639  1
  S  S22  1  0.335565  0.167782  0.623639  1
  S  S23  1  0.664435  0.832218  0.123639  1
  S  S24  1  0.167782  0.832218  0.123639  1
  S  S25  1  0.832218  0.664435  0.623639  1
