# generated using pymatgen
data_Mn2P3O10
_symmetry_space_group_name_H-M   'P 1'
_cell_length_a   4.74451841
_cell_length_b   8.69440984
_cell_length_c   9.11269220
_cell_angle_alpha   90.00000000
_cell_angle_beta   99.54729012
_cell_angle_gamma   90.00000000
_symmetry_Int_Tables_number   1
_chemical_formula_structural   Mn2P3O10
_chemical_formula_sum   'Mn4 P6 O20'
_cell_volume   370.69907485
_cell_formula_units_Z   2
loop_
 _symmetry_equiv_pos_site_id
 _symmetry_equiv_pos_as_xyz
  1  'x, y, z'
loop_
 _atom_site_type_symbol
 _atom_site_label
 _atom_site_symmetry_multiplicity
 _atom_site_fract_x
 _atom_site_fract_y
 _atom_site_fract_z
 _atom_site_occupancy
  Mn  Mn0  1  0.042912  0.437646  0.324872  1
  Mn  Mn1  1  0.957088  0.937646  0.675128  1
  Mn  Mn2  1  0.957088  0.562354  0.675128  1
  Mn  Mn3  1  0.042912  0.062354  0.324872  1
  P  P4  1  0.337415  0.250000  0.818993  1
  P  P5  1  0.662585  0.750000  0.181007  1
  P  P6  1  0.395076  0.750000  0.457169  1
  P  P7  1  0.604924  0.250000  0.542831  1
  P  P8  1  0.472542  0.250000  0.144997  1
  P  P9  1  0.527458  0.750000  0.855003  1
  O  O10  1  0.827507  0.897579  0.201222  1
  O  O11  1  0.770716  0.101625  0.518394  1
  O  O12  1  0.698570  0.750000  0.549909  1
  O  O13  1  0.540617  0.250000  0.976653  1
  O  O14  1  0.172493  0.397579  0.798778  1
  O  O15  1  0.679488  0.897916  0.828935  1
  O  O16  1  0.582045  0.250000  0.715914  1
  O  O17  1  0.417955  0.750000  0.284086  1
  O  O18  1  0.679488  0.602084  0.828935  1
  O  O19  1  0.212043  0.750000  0.762417  1
  O  O20  1  0.787957  0.250000  0.237583  1
  O  O21  1  0.770716  0.398375  0.518394  1
  O  O22  1  0.229284  0.898375  0.481606  1
  O  O23  1  0.301430  0.250000  0.450091  1
  O  O24  1  0.320512  0.397916  0.171065  1
  O  O25  1  0.172493  0.102421  0.798778  1
  O  O26  1  0.320512  0.102084  0.171065  1
  O  O27  1  0.459383  0.750000  0.023347  1
  O  O28  1  0.229284  0.601625  0.481606  1
  O  O29  1  0.827507  0.602421  0.201222  1
