# generated using pymatgen
data_NdTi3Fe(CuO4)3
_symmetry_space_group_name_H-M   'P 1'
_cell_length_a   6.49069476
_cell_length_b   6.49069476
_cell_length_c   6.49069476
_cell_angle_alpha   109.49715696
_cell_angle_beta   109.49715696
_cell_angle_gamma   109.49715696
_symmetry_Int_Tables_number   1
_chemical_formula_structural   NdTi3Fe(CuO4)3
_chemical_formula_sum   'Nd1 Ti3 Fe1 Cu3 O12'
_cell_volume   210.29741066
_cell_formula_units_Z   1
loop_
 _symmetry_equiv_pos_site_id
 _symmetry_equiv_pos_as_xyz
  1  'x, y, z'
loop_
 _atom_site_type_symbol
 _atom_site_label
 _atom_site_symmetry_multiplicity
 _atom_site_fract_x
 _atom_site_fract_y
 _atom_site_fract_z
 _atom_site_occupancy
  Nd  Nd0  1  0.000000  0.000000  0.000000  1
  Ti  Ti1  1  0.000000  0.500000  0.000000  1
  Ti  Ti2  1  0.000000  0.000000  0.500000  1
  Ti  Ti3  1  0.500000  0.000000  0.000000  1
  Fe  Fe4  1  0.500000  0.500000  0.500000  1
  Cu  Cu5  1  0.500000  0.000000  0.500000  1
  Cu  Cu6  1  0.500000  0.500000  0.000000  1
  Cu  Cu7  1  0.000000  0.500000  0.500000  1
  O  O8  1  0.475910  0.168624  0.295775  1
  O  O9  1  0.300838  0.124888  0.825208  1
  O  O10  1  0.875112  0.174792  0.699162  1
  O  O11  1  0.168624  0.295775  0.475910  1
  O  O12  1  0.704225  0.524090  0.831376  1
  O  O13  1  0.825208  0.300838  0.124888  1
  O  O14  1  0.174792  0.699162  0.875112  1
  O  O15  1  0.295775  0.475910  0.168624  1
  O  O16  1  0.831376  0.704225  0.524090  1
  O  O17  1  0.124888  0.825208  0.300838  1
  O  O18  1  0.699162  0.875112  0.174792  1
  O  O19  1  0.524090  0.831376  0.704225  1
