# generated using pymatgen
data_CaGePt
_symmetry_space_group_name_H-M   'P 1'
_cell_length_a   4.44555876
_cell_length_b   7.23380967
_cell_length_c   7.50867042
_cell_angle_alpha   90.00000000
_cell_angle_beta   90.00000000
_cell_angle_gamma   90.00000000
_symmetry_Int_Tables_number   1
_chemical_formula_structural   CaGePt
_chemical_formula_sum   'Ca4 Ge4 Pt4'
_cell_volume   241.46627079
_cell_formula_units_Z   4
loop_
 _symmetry_equiv_pos_site_id
 _symmetry_equiv_pos_as_xyz
  1  'x, y, z'
loop_
 _atom_site_type_symbol
 _atom_site_label
 _atom_site_symmetry_multiplicity
 _atom_site_fract_x
 _atom_site_fract_y
 _atom_site_fract_z
 _atom_site_occupancy
  Ca  Ca0  1  0.750000  0.006896  0.696193  1
  Ca  Ca1  1  0.250000  0.993104  0.303807  1
  Ca  Ca2  1  0.750000  0.506896  0.803807  1
  Ca  Ca3  1  0.250000  0.493104  0.196193  1
  Ge  Ge4  1  0.750000  0.680192  0.416741  1
  Ge  Ge5  1  0.250000  0.319808  0.583259  1
  Ge  Ge6  1  0.750000  0.180192  0.083259  1
  Ge  Ge7  1  0.250000  0.819808  0.916741  1
  Pt  Pt8  1  0.750000  0.802040  0.092410  1
  Pt  Pt9  1  0.250000  0.197960  0.907590  1
  Pt  Pt10  1  0.750000  0.302040  0.407590  1
  Pt  Pt11  1  0.250000  0.697960  0.592410  1
