# generated using pymatgen
data_Ce2B2Ir5
_symmetry_space_group_name_H-M   'P 1'
_cell_length_a   11.05070118
_cell_length_b   11.05070118
_cell_length_c   11.05070118
_cell_angle_alpha   28.86665937
_cell_angle_beta   28.86665937
_cell_angle_gamma   28.86665937
_symmetry_Int_Tables_number   1
_chemical_formula_structural   Ce2B2Ir5
_chemical_formula_sum   'Ce4 B4 Ir10'
_cell_volume   278.14120889
_cell_formula_units_Z   2
loop_
 _symmetry_equiv_pos_site_id
 _symmetry_equiv_pos_as_xyz
  1  'x, y, z'
loop_
 _atom_site_type_symbol
 _atom_site_label
 _atom_site_symmetry_multiplicity
 _atom_site_fract_x
 _atom_site_fract_y
 _atom_site_fract_z
 _atom_site_occupancy
  Ce  Ce0  1  0.847845  0.847845  0.847845  1
  Ce  Ce1  1  0.051279  0.051279  0.051279  1
  Ce  Ce2  1  0.152155  0.152155  0.152155  1
  Ce  Ce3  1  0.948721  0.948721  0.948721  1
  B  B4  1  0.382437  0.382437  0.382437  1
  B  B5  1  0.283367  0.283367  0.283367  1
  B  B6  1  0.617563  0.617563  0.617563  1
  B  B7  1  0.716633  0.716633  0.716633  1
  Ir  Ir8  1  0.593566  0.593566  0.100689  1
  Ir  Ir9  1  0.100689  0.593566  0.593566  1
  Ir  Ir10  1  0.500000  0.000000  0.500000  1
  Ir  Ir11  1  0.500000  0.500000  0.000000  1
  Ir  Ir12  1  1.000000  0.500000  0.500000  1
  Ir  Ir13  1  0.500000  0.500000  0.500000  1
  Ir  Ir14  1  0.406434  0.406434  0.899311  1
  Ir  Ir15  1  0.406434  0.899311  0.406434  1
  Ir  Ir16  1  0.899311  0.406434  0.406434  1
  Ir  Ir17  1  0.593566  0.100689  0.593566  1
