# generated using pymatgen
data_Na(Nd2Se3)4
_symmetry_space_group_name_H-M   'P 1'
_cell_length_a   14.87888120
_cell_length_b   14.87888120
_cell_length_c   14.87888120
_cell_angle_alpha   145.00623276
_cell_angle_beta   145.00623276
_cell_angle_gamma   50.32523629
_symmetry_Int_Tables_number   1
_chemical_formula_structural   Na(Nd2Se3)4
_chemical_formula_sum   'Na2 Nd16 Se24'
_cell_volume   1077.96180847
_cell_formula_units_Z   2
loop_
 _symmetry_equiv_pos_site_id
 _symmetry_equiv_pos_as_xyz
  1  'x, y, z'
loop_
 _atom_site_type_symbol
 _atom_site_label
 _atom_site_symmetry_multiplicity
 _atom_site_fract_x
 _atom_site_fract_y
 _atom_site_fract_z
 _atom_site_occupancy
  Na  Na0  1  0.750000  0.250000  0.500000  1
  Na  Na1  1  0.000000  0.000000  0.000000  1
  Nd  Nd2  1  0.544381  0.918622  0.881761  1
  Nd  Nd3  1  0.994860  0.125000  0.369860  1
  Nd  Nd4  1  0.332277  0.332277  0.000000  1
  Nd  Nd5  1  0.755140  0.625000  0.630140  1
  Nd  Nd6  1  0.036862  0.662621  0.118239  1
  Nd  Nd7  1  0.417723  0.917723  0.500000  1
  Nd  Nd8  1  0.205619  0.587379  0.874241  1
  Nd  Nd9  1  0.668622  0.794381  0.381761  1
  Nd  Nd10  1  0.412621  0.286862  0.618239  1
  Nd  Nd11  1  0.713138  0.331378  0.125759  1
  Nd  Nd12  1  0.082277  0.582277  0.500000  1
  Nd  Nd13  1  0.875000  0.244860  0.869860  1
  Nd  Nd14  1  0.337379  0.455619  0.374241  1
  Nd  Nd15  1  0.667723  0.667723  0.000000  1
  Nd  Nd16  1  0.081378  0.963138  0.625759  1
  Nd  Nd17  1  0.375000  0.005140  0.130140  1
  Se  Se18  1  0.059287  0.311664  0.903351  1
  Se  Se19  1  0.688336  0.591687  0.747623  1
  Se  Se20  1  0.408313  0.155936  0.096649  1
  Se  Se21  1  0.672993  0.279554  0.246901  1
  Se  Se22  1  0.032653  0.426093  0.753099  1
  Se  Se23  1  0.390094  0.641732  0.398492  1
  Se  Se24  1  0.844064  0.940713  0.252377  1
  Se  Se25  1  0.717347  0.970446  0.893440  1
  Se  Se26  1  0.243239  0.991602  0.601508  1
  Se  Se27  1  0.359906  0.258398  0.751638  1
  Se  Se28  1  0.077007  0.823907  0.106560  1
  Se  Se29  1  0.341687  0.938336  0.247623  1
  Se  Se30  1  0.690713  0.094064  0.752377  1
  Se  Se31  1  0.506761  0.608268  0.248362  1
  Se  Se32  1  0.061664  0.309287  0.403351  1
  Se  Se33  1  0.391732  0.640094  0.898492  1
  Se  Se34  1  0.905936  0.658313  0.596649  1
  Se  Se35  1  0.029554  0.922993  0.746901  1
  Se  Se36  1  0.741602  0.493239  0.101508  1
  Se  Se37  1  0.008398  0.609906  0.251638  1
  Se  Se38  1  0.358268  0.756761  0.748362  1
  Se  Se39  1  0.720446  0.967347  0.393440  1
  Se  Se40  1  0.176093  0.282653  0.253099  1
  Se  Se41  1  0.573907  0.327007  0.606560  1
