# generated using pymatgen
data_Ag(AuS)2
_symmetry_space_group_name_H-M   'P 1'
_cell_length_a   7.17251787
_cell_length_b   4.45403219
_cell_length_c   7.28849530
_cell_angle_alpha   90.00000000
_cell_angle_beta   90.93548980
_cell_angle_gamma   90.00000000
_symmetry_Int_Tables_number   1
_chemical_formula_structural   Ag(AuS)2
_chemical_formula_sum   'Ag2 Au4 S4'
_cell_volume   232.81179438
_cell_formula_units_Z   2
loop_
 _symmetry_equiv_pos_site_id
 _symmetry_equiv_pos_as_xyz
  1  'x, y, z'
loop_
 _atom_site_type_symbol
 _atom_site_label
 _atom_site_symmetry_multiplicity
 _atom_site_fract_x
 _atom_site_fract_y
 _atom_site_fract_z
 _atom_site_occupancy
  Ag  Ag0  1  0.353996  0.763096  0.402142  1
  Ag  Ag1  1  0.853996  0.236904  0.402142  1
  Au  Au2  1  0.000075  0.895957  0.752987  1
  Au  Au3  1  0.500075  0.104043  0.752987  1
  Au  Au4  1  0.255537  0.499008  0.991788  1
  Au  Au5  1  0.755537  0.500992  0.991788  1
  S  S6  1  0.005612  0.170423  0.027460  1
  S  S7  1  0.509780  0.264082  0.450623  1
  S  S8  1  0.009780  0.735918  0.450623  1
  S  S9  1  0.505612  0.829577  0.027460  1
