# generated using pymatgen
data_Mo15S19
_symmetry_space_group_name_H-M   'P 1'
_cell_length_a   9.29490586
_cell_length_b   9.29490586
_cell_length_c   19.20446060
_cell_angle_alpha   90.00000000
_cell_angle_beta   90.00000000
_cell_angle_gamma   120.00000000
_symmetry_Int_Tables_number   1
_chemical_formula_structural   Mo15S19
_chemical_formula_sum   'Mo30 S38'
_cell_volume   1436.88740005
_cell_formula_units_Z   2
loop_
 _symmetry_equiv_pos_site_id
 _symmetry_equiv_pos_as_xyz
  1  'x, y, z'
loop_
 _atom_site_type_symbol
 _atom_site_label
 _atom_site_symmetry_multiplicity
 _atom_site_fract_x
 _atom_site_fract_y
 _atom_site_fract_z
 _atom_site_occupancy
  Mo  Mo0  1  0.841699  0.346601  0.250000  1
  Mo  Mo1  1  0.495098  0.841699  0.750000  1
  Mo  Mo2  1  0.346601  0.504902  0.750000  1
  Mo  Mo3  1  0.653399  0.495098  0.250000  1
  Mo  Mo4  1  0.504902  0.158301  0.250000  1
  Mo  Mo5  1  0.158301  0.653399  0.750000  1
  Mo  Mo6  1  0.316155  0.827433  0.629847  1
  Mo  Mo7  1  0.488723  0.316155  0.129847  1
  Mo  Mo8  1  0.827433  0.511277  0.129847  1
  Mo  Mo9  1  0.172567  0.488723  0.629847  1
  Mo  Mo10  1  0.511277  0.683845  0.629847  1
  Mo  Mo11  1  0.683845  0.172567  0.129847  1
  Mo  Mo12  1  0.683845  0.172567  0.370153  1
  Mo  Mo13  1  0.511277  0.683845  0.870153  1
  Mo  Mo14  1  0.172567  0.488723  0.870153  1
  Mo  Mo15  1  0.827433  0.511277  0.370153  1
  Mo  Mo16  1  0.488723  0.316155  0.370153  1
  Mo  Mo17  1  0.316155  0.827433  0.870153  1
  Mo  Mo18  1  0.176733  0.017112  0.437049  1
  Mo  Mo19  1  0.159620  0.176733  0.937049  1
  Mo  Mo20  1  0.017112  0.840380  0.937049  1
  Mo  Mo21  1  0.982888  0.159620  0.437049  1
  Mo  Mo22  1  0.840380  0.823267  0.437049  1
  Mo  Mo23  1  0.823267  0.982888  0.937049  1
  Mo  Mo24  1  0.823267  0.982888  0.562951  1
  Mo  Mo25  1  0.840380  0.823267  0.062951  1
  Mo  Mo26  1  0.982888  0.159620  0.062951  1
  Mo  Mo27  1  0.017112  0.840380  0.562951  1
  Mo  Mo28  1  0.159620  0.176733  0.562951  1
  Mo  Mo29  1  0.176733  0.017112  0.062951  1
  S  S30  1  0.666667  0.333333  0.465796  1
  S  S31  1  0.333333  0.666667  0.965796  1
  S  S32  1  0.333333  0.666667  0.534204  1
  S  S33  1  0.666667  0.333333  0.034204  1
  S  S34  1  0.000000  0.000000  0.658767  1
  S  S35  1  0.000000  0.000000  0.158767  1
  S  S36  1  0.000000  0.000000  0.341233  1
  S  S37  1  0.000000  0.000000  0.841233  1
  S  S38  1  0.693977  0.042852  0.250000  1
  S  S39  1  0.651124  0.693977  0.750000  1
  S  S40  1  0.042852  0.348876  0.750000  1
  S  S41  1  0.957148  0.651124  0.250000  1
  S  S42  1  0.348876  0.306023  0.250000  1
  S  S43  1  0.306023  0.957148  0.750000  1
  S  S44  1  0.015852  0.633682  0.642727  1
  S  S45  1  0.382170  0.015852  0.142727  1
  S  S46  1  0.713949  0.685092  0.547649  1
  S  S47  1  0.633682  0.617830  0.142727  1
  S  S48  1  0.617830  0.984148  0.642727  1
  S  S49  1  0.984148  0.366318  0.142727  1
  S  S50  1  0.984148  0.366318  0.357273  1
  S  S51  1  0.617830  0.984148  0.857273  1
  S  S52  1  0.366318  0.382170  0.857273  1
  S  S53  1  0.633682  0.617830  0.357273  1
  S  S54  1  0.382170  0.015852  0.357273  1
  S  S55  1  0.015852  0.633682  0.857273  1
  S  S56  1  0.314908  0.028857  0.547649  1
  S  S57  1  0.286051  0.314908  0.047649  1
  S  S58  1  0.028857  0.713949  0.047649  1
  S  S59  1  0.971143  0.286051  0.547649  1
  S  S60  1  0.314908  0.028857  0.952351  1
  S  S61  1  0.286051  0.314908  0.452351  1
  S  S62  1  0.028857  0.713949  0.452351  1
  S  S63  1  0.971143  0.286051  0.952351  1
  S  S64  1  0.713949  0.685092  0.952351  1
  S  S65  1  0.685092  0.971143  0.452351  1
  S  S66  1  0.685092  0.971143  0.047649  1
  S  S67  1  0.366318  0.382170  0.642727  1
