# generated using pymatgen
data_LiMn2(PO4)3
_symmetry_space_group_name_H-M   'P 1'
_cell_length_a   4.72929719
_cell_length_b   4.72929719
_cell_length_c   19.30170634
_cell_angle_alpha   88.31246729
_cell_angle_beta   91.68753271
_cell_angle_gamma   113.17362848
_symmetry_Int_Tables_number   1
_chemical_formula_structural   LiMn2(PO4)3
_chemical_formula_sum   'Li2 Mn4 P6 O24'
_cell_volume   396.62817008
_cell_formula_units_Z   2
loop_
 _symmetry_equiv_pos_site_id
 _symmetry_equiv_pos_as_xyz
  1  'x, y, z'
loop_
 _atom_site_type_symbol
 _atom_site_label
 _atom_site_symmetry_multiplicity
 _atom_site_fract_x
 _atom_site_fract_y
 _atom_site_fract_z
 _atom_site_occupancy
  Li  Li0  1  0.001471  0.998529  0.838187  1
  Li  Li1  1  0.998529  0.001471  0.161813  1
  Mn  Mn2  1  0.998841  0.001159  0.331285  1
  Mn  Mn3  1  0.001159  0.998841  0.668715  1
  Mn  Mn4  1  0.000000  0.000000  0.500000  1
  Mn  Mn5  1  0.000000  0.000000  0.000000  1
  P  P6  1  0.656036  0.343964  0.412538  1
  P  P7  1  0.343964  0.656036  0.587462  1
  P  P8  1  0.653190  0.346810  0.745156  1
  P  P9  1  0.346810  0.653190  0.254844  1
  P  P10  1  0.350331  0.649669  0.922857  1
  P  P11  1  0.649669  0.350331  0.077143  1
  O  O12  1  0.232248  0.767752  0.318378  1
  O  O13  1  0.225160  0.289877  0.927638  1
  O  O14  1  0.707161  0.775518  0.261293  1
  O  O15  1  0.742398  0.257602  0.815665  1
  O  O16  1  0.706260  0.782610  0.588040  1
  O  O17  1  0.759616  0.240384  0.481308  1
  O  O18  1  0.237478  0.762522  0.651403  1
  O  O19  1  0.762522  0.237478  0.348597  1
  O  O20  1  0.240384  0.759616  0.518692  1
  O  O21  1  0.289877  0.225160  0.072362  1
  O  O22  1  0.740113  0.259887  0.148224  1
  O  O23  1  0.217390  0.293740  0.588040  1
  O  O24  1  0.234899  0.765101  0.985433  1
  O  O25  1  0.765101  0.234899  0.014567  1
  O  O26  1  0.775518  0.707161  0.738707  1
  O  O27  1  0.767752  0.232248  0.681622  1
  O  O28  1  0.782610  0.706260  0.411960  1
  O  O29  1  0.257602  0.742398  0.184335  1
  O  O30  1  0.259887  0.740113  0.851776  1
  O  O31  1  0.292839  0.224482  0.738707  1
  O  O32  1  0.293740  0.217390  0.411960  1
  O  O33  1  0.774840  0.710123  0.072362  1
  O  O34  1  0.224482  0.292839  0.261293  1
  O  O35  1  0.710123  0.774840  0.927638  1
