# generated using pymatgen
data_Na(La2Se3)4
_symmetry_space_group_name_H-M   'P 1'
_cell_length_a   15.10799440
_cell_length_b   15.10799440
_cell_length_c   15.10799440
_cell_angle_alpha   144.95717458
_cell_angle_beta   144.95717458
_cell_angle_gamma   50.39834857
_symmetry_Int_Tables_number   1
_chemical_formula_structural   Na(La2Se3)4
_chemical_formula_sum   'Na2 La16 Se24'
_cell_volume   1131.25739497
_cell_formula_units_Z   2
loop_
 _symmetry_equiv_pos_site_id
 _symmetry_equiv_pos_as_xyz
  1  'x, y, z'
loop_
 _atom_site_type_symbol
 _atom_site_label
 _atom_site_symmetry_multiplicity
 _atom_site_fract_x
 _atom_site_fract_y
 _atom_site_fract_z
 _atom_site_occupancy
  Na  Na0  1  0.250000  0.750000  0.500000  1
  Na  Na1  1  0.500000  0.500000  0.000000  1
  La  La2  1  0.171363  0.293795  0.384707  1
  La  La3  1  0.909088  0.786657  0.615293  1
  La  La4  1  0.583174  0.083174  0.500000  1
  La  La5  1  0.375000  0.745106  0.870106  1
  La  La6  1  0.840912  0.956205  0.377569  1
  La  La7  1  0.166826  0.166826  0.000000  1
  La  La8  1  0.578637  0.463343  0.622431  1
  La  La9  1  0.875000  0.504894  0.129894  1
  La  La10  1  0.043795  0.421363  0.884707  1
  La  La11  1  0.495106  0.625000  0.370106  1
  La  La12  1  0.833174  0.833174  0.000000  1
  La  La13  1  0.254894  0.125000  0.629894  1
  La  La14  1  0.536657  0.159088  0.115293  1
  La  La15  1  0.916826  0.416826  0.500000  1
  La  La16  1  0.706205  0.090912  0.877569  1
  La  La17  1  0.213343  0.828637  0.122431  1
  Se  Se18  1  0.892352  0.141019  0.899691  1
  Se  Se19  1  0.529229  0.423679  0.747104  1
  Se  Se20  1  0.241327  0.992660  0.100309  1
  Se  Se21  1  0.508673  0.108981  0.251333  1
  Se  Se22  1  0.857648  0.257340  0.748667  1
  Se  Se23  1  0.676575  0.782126  0.252896  1
  Se  Se24  1  0.560202  0.811088  0.903453  1
  Se  Se25  1  0.073425  0.826321  0.605551  1
  Se  Se26  1  0.188912  0.092365  0.749114  1
  Se  Se27  1  0.907635  0.656749  0.096547  1
  Se  Se28  1  0.220771  0.467874  0.394449  1
  Se  Se29  1  0.173679  0.779229  0.247104  1
  Se  Se30  1  0.532126  0.926575  0.752896  1
  Se  Se31  1  0.343251  0.439798  0.250886  1
  Se  Se32  1  0.217874  0.470771  0.894449  1
  Se  Se33  1  0.742660  0.491327  0.600309  1
  Se  Se34  1  0.858981  0.758673  0.751333  1
  Se  Se35  1  0.576321  0.323425  0.105551  1
  Se  Se36  1  0.891019  0.142352  0.399691  1
  Se  Se37  1  0.842365  0.438912  0.249114  1
  Se  Se38  1  0.189798  0.593251  0.750886  1
  Se  Se39  1  0.007340  0.107648  0.248667  1
  Se  Se40  1  0.406749  0.157635  0.596547  1
  Se  Se41  1  0.561088  0.810202  0.403453  1
