# generated using pymatgen
data_CrP2O7
_symmetry_space_group_name_H-M   'P 1'
_cell_length_a   4.80097043
_cell_length_b   8.02449852
_cell_length_c   6.97272805
_cell_angle_alpha   90.00000000
_cell_angle_beta   106.27516807
_cell_angle_gamma   90.00000000
_symmetry_Int_Tables_number   1
_chemical_formula_structural   CrP2O7
_chemical_formula_sum   'Cr2 P4 O14'
_cell_volume   257.86226622
_cell_formula_units_Z   2
loop_
 _symmetry_equiv_pos_site_id
 _symmetry_equiv_pos_as_xyz
  1  'x, y, z'
loop_
 _atom_site_type_symbol
 _atom_site_label
 _atom_site_symmetry_multiplicity
 _atom_site_fract_x
 _atom_site_fract_y
 _atom_site_fract_z
 _atom_site_occupancy
  Cr  Cr0  1  0.280255  0.505195  0.272486  1
  Cr  Cr1  1  0.719745  0.005195  0.727514  1
  P  P2  1  0.886978  0.687933  0.508099  1
  P  P3  1  0.113022  0.187933  0.491901  1
  P  P4  1  0.266166  0.771145  0.896152  1
  P  P5  1  0.733834  0.271145  0.103848  1
  O  O6  1  0.220504  0.365612  0.488078  1
  O  O7  1  0.779496  0.865612  0.511922  1
  O  O8  1  0.360175  0.671752  0.086509  1
  O  O9  1  0.639825  0.171752  0.913491  1
  O  O10  1  0.527628  0.826344  0.828450  1
  O  O11  1  0.472372  0.326344  0.171550  1
  O  O12  1  0.069793  0.922905  0.906708  1
  O  O13  1  0.930207  0.422905  0.093292  1
  O  O14  1  0.080922  0.642149  0.730237  1
  O  O15  1  0.919078  0.142149  0.269763  1
  O  O16  1  0.917977  0.178696  0.633647  1
  O  O17  1  0.082023  0.678696  0.366353  1
  O  O18  1  0.354926  0.057911  0.539181  1
  O  O19  1  0.645074  0.557911  0.460819  1
