# generated using pymatgen
data_PrCu6
_symmetry_space_group_name_H-M   'P 1'
_cell_length_a   5.08856413
_cell_length_b   8.10205648
_cell_length_c   10.16160830
_cell_angle_alpha   90.00000000
_cell_angle_beta   90.00000000
_cell_angle_gamma   90.00000000
_symmetry_Int_Tables_number   1
_chemical_formula_structural   PrCu6
_chemical_formula_sum   'Pr4 Cu24'
_cell_volume   418.94110000
_cell_formula_units_Z   4
loop_
 _symmetry_equiv_pos_site_id
 _symmetry_equiv_pos_as_xyz
  1  'x, y, z'
loop_
 _atom_site_type_symbol
 _atom_site_label
 _atom_site_symmetry_multiplicity
 _atom_site_fract_x
 _atom_site_fract_y
 _atom_site_fract_z
 _atom_site_occupancy
  Pr  Pr0  1  0.750000  0.739328  0.436291  1
  Pr  Pr1  1  0.250000  0.260672  0.563709  1
  Pr  Pr2  1  0.750000  0.239328  0.063709  1
  Pr  Pr3  1  0.250000  0.760672  0.936291  1
  Cu  Cu4  1  0.750000  0.852848  0.142282  1
  Cu  Cu5  1  0.250000  0.147152  0.857718  1
  Cu  Cu6  1  0.750000  0.352848  0.357718  1
  Cu  Cu7  1  0.250000  0.647152  0.642282  1
  Cu  Cu8  1  0.750000  0.181555  0.756137  1
  Cu  Cu9  1  0.250000  0.818445  0.243863  1
  Cu  Cu10  1  0.750000  0.681555  0.743863  1
  Cu  Cu11  1  0.250000  0.318445  0.256137  1
  Cu  Cu12  1  0.750000  0.435391  0.597796  1
  Cu  Cu13  1  0.250000  0.564609  0.402204  1
  Cu  Cu14  1  0.750000  0.935391  0.902204  1
  Cu  Cu15  1  0.250000  0.064609  0.097796  1
  Cu  Cu16  1  0.750000  0.099142  0.516364  1
  Cu  Cu17  1  0.250000  0.900858  0.483636  1
  Cu  Cu18  1  0.750000  0.599142  0.983636  1
  Cu  Cu19  1  0.250000  0.400858  0.016364  1
  Cu  Cu20  1  0.994931  0.565214  0.190687  1
  Cu  Cu21  1  0.494931  0.434786  0.809313  1
  Cu  Cu22  1  0.505069  0.065214  0.309313  1
  Cu  Cu23  1  0.005069  0.934786  0.690687  1
  Cu  Cu24  1  0.005069  0.434786  0.809313  1
  Cu  Cu25  1  0.505069  0.565214  0.190687  1
  Cu  Cu26  1  0.494931  0.934786  0.690687  1
  Cu  Cu27  1  0.994931  0.065214  0.309313  1
