# generated using pymatgen
data_CsWCl6
_symmetry_space_group_name_H-M   'P 1'
_cell_length_a   7.07439572
_cell_length_b   7.07439572
_cell_length_c   12.76027045
_cell_angle_alpha   79.17148026
_cell_angle_beta   100.82851974
_cell_angle_gamma   124.45687209
_symmetry_Int_Tables_number   1
_chemical_formula_structural   CsWCl6
_chemical_formula_sum   'Cs2 W2 Cl12'
_cell_volume   514.56421376
_cell_formula_units_Z   2
loop_
 _symmetry_equiv_pos_site_id
 _symmetry_equiv_pos_as_xyz
  1  'x, y, z'
loop_
 _atom_site_type_symbol
 _atom_site_label
 _atom_site_symmetry_multiplicity
 _atom_site_fract_x
 _atom_site_fract_y
 _atom_site_fract_z
 _atom_site_occupancy
  Cs  Cs0  1  0.116827  0.116827  0.750000  1
  Cs  Cs1  1  0.883173  0.883173  0.250000  1
  W  W2  1  0.000000  0.500000  0.000000  1
  W  W3  1  0.500000  1.000000  0.500000  1
  Cl  Cl4  1  0.195179  0.626672  0.845891  1
  Cl  Cl5  1  0.626672  0.195179  0.654109  1
  Cl  Cl6  1  0.804821  0.373328  0.154109  1
  Cl  Cl7  1  0.373328  0.804821  0.345891  1
  Cl  Cl8  1  0.800205  0.116681  0.960790  1
  Cl  Cl9  1  0.116681  0.800205  0.539210  1
  Cl  Cl10  1  0.199795  0.883319  0.039210  1
  Cl  Cl11  1  0.883319  0.199795  0.460790  1
  Cl  Cl12  1  0.707025  0.537236  0.899170  1
  Cl  Cl13  1  0.537236  0.707025  0.600830  1
  Cl  Cl14  1  0.292975  0.462764  0.100830  1
  Cl  Cl15  1  0.462764  0.292975  0.399170  1
