# generated using pymatgen
data_Ag3SBr
_symmetry_space_group_name_H-M   'P 1'
_cell_length_a   6.97888955
_cell_length_b   6.90592272
_cell_length_c   6.86416067
_cell_angle_alpha   60.90297008
_cell_angle_beta   59.84408260
_cell_angle_gamma   59.25294732
_symmetry_Int_Tables_number   1
_chemical_formula_structural   Ag3SBr
_chemical_formula_sum   'Ag6 S2 Br2'
_cell_volume   233.82700141
_cell_formula_units_Z   2
loop_
 _symmetry_equiv_pos_site_id
 _symmetry_equiv_pos_as_xyz
  1  'x, y, z'
loop_
 _atom_site_type_symbol
 _atom_site_label
 _atom_site_symmetry_multiplicity
 _atom_site_fract_x
 _atom_site_fract_y
 _atom_site_fract_z
 _atom_site_occupancy
  Ag  Ag0  1  0.435853  0.435853  0.064147  1
  Ag  Ag1  1  0.563872  0.939330  0.060670  1
  Ag  Ag2  1  0.935853  0.935853  0.564147  1
  Ag  Ag3  1  0.939330  0.563872  0.436128  1
  Ag  Ag4  1  0.445330  0.445330  0.554670  1
  Ag  Ag5  1  0.063791  0.063791  0.936209  1
  S  S6  1  0.254481  0.754154  0.245846  1
  S  S7  1  0.754154  0.254481  0.745519  1
  Br  Br8  1  0.996189  0.496149  0.003811  1
  Br  Br9  1  0.496149  0.996189  0.503851  1
