# generated using pymatgen
data_Nd5Ir3
_symmetry_space_group_name_H-M   'P 1'
_cell_length_a   11.26233633
_cell_length_b   11.26233633
_cell_length_c   6.60495403
_cell_angle_alpha   90.00000000
_cell_angle_beta   90.00000000
_cell_angle_gamma   90.00000000
_symmetry_Int_Tables_number   1
_chemical_formula_structural   Nd5Ir3
_chemical_formula_sum   'Nd20 Ir12'
_cell_volume   837.77381968
_cell_formula_units_Z   4
loop_
 _symmetry_equiv_pos_site_id
 _symmetry_equiv_pos_as_xyz
  1  'x, y, z'
loop_
 _atom_site_type_symbol
 _atom_site_label
 _atom_site_symmetry_multiplicity
 _atom_site_fract_x
 _atom_site_fract_y
 _atom_site_fract_z
 _atom_site_occupancy
  Nd  Nd0  1  0.089974  0.292423  0.117613  1
  Nd  Nd1  1  0.792423  0.410026  0.117613  1
  Nd  Nd2  1  0.207577  0.589974  0.117613  1
  Nd  Nd3  1  0.910026  0.707577  0.117613  1
  Nd  Nd4  1  0.410026  0.792423  0.382387  1
  Nd  Nd5  1  0.589974  0.207577  0.382387  1
  Nd  Nd6  1  0.292423  0.089974  0.382387  1
  Nd  Nd7  1  0.707577  0.910026  0.382387  1
  Nd  Nd8  1  0.410026  0.207577  0.882387  1
  Nd  Nd9  1  0.707577  0.089974  0.882387  1
  Nd  Nd10  1  0.292423  0.910026  0.882387  1
  Nd  Nd11  1  0.589974  0.792423  0.882387  1
  Nd  Nd12  1  0.089974  0.707577  0.617613  1
  Nd  Nd13  1  0.910026  0.292423  0.617613  1
  Nd  Nd14  1  0.207577  0.410026  0.617613  1
  Nd  Nd15  1  0.792423  0.589974  0.617613  1
  Nd  Nd16  1  0.000000  0.000000  0.000000  1
  Nd  Nd17  1  0.500000  0.500000  0.000000  1
  Nd  Nd18  1  0.500000  0.500000  0.500000  1
  Nd  Nd19  1  0.000000  0.000000  0.500000  1
  Ir  Ir20  1  0.153552  0.846448  0.250000  1
  Ir  Ir21  1  0.346448  0.346448  0.250000  1
  Ir  Ir22  1  0.653552  0.653552  0.250000  1
  Ir  Ir23  1  0.846448  0.153552  0.250000  1
  Ir  Ir24  1  0.346448  0.653552  0.750000  1
  Ir  Ir25  1  0.153552  0.153552  0.750000  1
  Ir  Ir26  1  0.846448  0.846448  0.750000  1
  Ir  Ir27  1  0.653552  0.346448  0.750000  1
  Ir  Ir28  1  0.000000  0.500000  0.379962  1
  Ir  Ir29  1  0.500000  0.000000  0.120038  1
  Ir  Ir30  1  0.500000  0.000000  0.620038  1
  Ir  Ir31  1  0.000000  0.500000  0.879962  1
