# generated using pymatgen
data_Ho3(GePd)4
_symmetry_space_group_name_H-M   'P 1'
_cell_length_a   8.11491204
_cell_length_b   8.11491204
_cell_length_c   8.11491204
_cell_angle_alpha   150.20879059
_cell_angle_beta   128.05426276
_cell_angle_gamma   61.03670712
_symmetry_Int_Tables_number   1
_chemical_formula_structural   Ho3(GePd)4
_chemical_formula_sum   'Ho3 Ge4 Pd4'
_cell_volume   207.30135910
_cell_formula_units_Z   1
loop_
 _symmetry_equiv_pos_site_id
 _symmetry_equiv_pos_as_xyz
  1  'x, y, z'
loop_
 _atom_site_type_symbol
 _atom_site_label
 _atom_site_symmetry_multiplicity
 _atom_site_fract_x
 _atom_site_fract_y
 _atom_site_fract_z
 _atom_site_occupancy
  Ho  Ho0  1  0.625854  0.125854  0.500000  1
  Ho  Ho1  1  0.374146  0.874146  0.500000  1
  Ho  Ho2  1  0.000000  0.000000  0.000000  1
  Ge  Ge3  1  0.782651  0.782651  0.000000  1
  Ge  Ge4  1  0.217349  0.217349  0.000000  1
  Ge  Ge5  1  0.311129  0.500000  0.811129  1
  Ge  Ge6  1  0.688871  0.500000  0.188871  1
  Pd  Pd7  1  0.377200  0.675605  0.701595  1
  Pd  Pd8  1  0.025990  0.324395  0.701595  1
  Pd  Pd9  1  0.974010  0.675605  0.298405  1
  Pd  Pd10  1  0.622800  0.324395  0.298405  1
