# generated using pymatgen
data_Si5P6O25
_symmetry_space_group_name_H-M   'P 1'
_cell_length_a   9.32677754
_cell_length_b   9.32677754
_cell_length_c   9.32677754
_cell_angle_alpha   50.65675071
_cell_angle_beta   50.65675071
_cell_angle_gamma   50.65675071
_symmetry_Int_Tables_number   1
_chemical_formula_structural   Si5P6O25
_chemical_formula_sum   'Si5 P6 O25'
_cell_volume   447.23158871
_cell_formula_units_Z   1
loop_
 _symmetry_equiv_pos_site_id
 _symmetry_equiv_pos_as_xyz
  1  'x, y, z'
loop_
 _atom_site_type_symbol
 _atom_site_label
 _atom_site_symmetry_multiplicity
 _atom_site_fract_x
 _atom_site_fract_y
 _atom_site_fract_z
 _atom_site_occupancy
  Si  Si0  1  0.000000  0.000000  0.000000  1
  Si  Si1  1  0.819219  0.819219  0.819219  1
  Si  Si2  1  0.180781  0.180781  0.180781  1
  Si  Si3  1  0.566024  0.566024  0.566024  1
  Si  Si4  1  0.433976  0.433976  0.433976  1
  P  P5  1  0.925611  0.174319  0.622741  1
  P  P6  1  0.622741  0.925611  0.174319  1
  P  P7  1  0.174319  0.622741  0.925611  1
  P  P8  1  0.074389  0.825681  0.377259  1
  P  P9  1  0.377259  0.074389  0.825681  1
  P  P10  1  0.825681  0.377259  0.074389  1
  O  O11  1  0.851604  0.572977  0.906273  1
  O  O12  1  0.572977  0.906273  0.851604  1
  O  O13  1  0.906273  0.851604  0.572977  1
  O  O14  1  0.148396  0.427023  0.093727  1
  O  O15  1  0.427023  0.093727  0.148396  1
  O  O16  1  0.093727  0.148396  0.427023  1
  O  O17  1  0.593581  0.423358  0.212257  1
  O  O18  1  0.423358  0.212257  0.593581  1
  O  O19  1  0.212257  0.593581  0.423358  1
  O  O20  1  0.406419  0.576642  0.787743  1
  O  O21  1  0.576642  0.787743  0.406419  1
  O  O22  1  0.500000  0.500000  0.500000  1
  O  O23  1  0.782905  0.073210  0.728862  1
  O  O24  1  0.728862  0.782905  0.073210  1
  O  O25  1  0.073210  0.728862  0.782905  1
  O  O26  1  0.217095  0.926790  0.271138  1
  O  O27  1  0.271138  0.217095  0.926790  1
  O  O28  1  0.926790  0.271138  0.217095  1
  O  O29  1  0.022941  0.103973  0.750950  1
  O  O30  1  0.750950  0.022941  0.103973  1
  O  O31  1  0.103973  0.750950  0.022941  1
  O  O32  1  0.977059  0.896027  0.249050  1
  O  O33  1  0.249050  0.977059  0.896027  1
  O  O34  1  0.896027  0.249050  0.977059  1
  O  O35  1  0.787743  0.406419  0.576642  1
