# generated using pymatgen
data_SrNb8O14
_symmetry_space_group_name_H-M   'P 1'
_cell_length_a   6.02082194
_cell_length_b   9.37884791
_cell_length_c   10.39962744
_cell_angle_alpha   90.00000000
_cell_angle_beta   90.00000000
_cell_angle_gamma   90.00000000
_symmetry_Int_Tables_number   1
_chemical_formula_structural   SrNb8O14
_chemical_formula_sum   'Sr2 Nb16 O28'
_cell_volume   587.25004413
_cell_formula_units_Z   2
loop_
 _symmetry_equiv_pos_site_id
 _symmetry_equiv_pos_as_xyz
  1  'x, y, z'
loop_
 _atom_site_type_symbol
 _atom_site_label
 _atom_site_symmetry_multiplicity
 _atom_site_fract_x
 _atom_site_fract_y
 _atom_site_fract_z
 _atom_site_occupancy
  Sr  Sr0  1  0.500000  0.500000  0.000000  1
  Sr  Sr1  1  0.500000  0.000000  0.500000  1
  Nb  Nb2  1  0.000000  0.383729  0.163634  1
  Nb  Nb3  1  0.000000  0.616271  0.836366  1
  Nb  Nb4  1  0.000000  0.883729  0.336366  1
  Nb  Nb5  1  0.000000  0.116271  0.663634  1
  Nb  Nb6  1  0.500000  0.380138  0.664599  1
  Nb  Nb7  1  0.500000  0.619862  0.335401  1
  Nb  Nb8  1  0.500000  0.880138  0.835401  1
  Nb  Nb9  1  0.500000  0.119862  0.164599  1
  Nb  Nb10  1  0.731730  0.625286  0.576847  1
  Nb  Nb11  1  0.731730  0.374714  0.423153  1
  Nb  Nb12  1  0.268270  0.125285  0.923153  1
  Nb  Nb13  1  0.268270  0.874714  0.076847  1
  Nb  Nb14  1  0.268270  0.374714  0.423153  1
  Nb  Nb15  1  0.268270  0.625286  0.576847  1
  Nb  Nb16  1  0.731730  0.874714  0.076847  1
  Nb  Nb17  1  0.731730  0.125285  0.923153  1
  O  O18  1  0.745683  0.504933  0.753379  1
  O  O19  1  0.745683  0.495067  0.246621  1
  O  O20  1  0.254317  0.004933  0.746621  1
  O  O21  1  0.254317  0.995067  0.253379  1
  O  O22  1  0.254317  0.495067  0.246621  1
  O  O23  1  0.254317  0.504933  0.753379  1
  O  O24  1  0.745683  0.995067  0.253379  1
  O  O25  1  0.745683  0.004933  0.746621  1
  O  O26  1  0.254373  0.739668  0.913563  1
  O  O27  1  0.254373  0.260332  0.086437  1
  O  O28  1  0.745627  0.239668  0.586437  1
  O  O29  1  0.745627  0.760332  0.413563  1
  O  O30  1  0.745627  0.260332  0.086437  1
  O  O31  1  0.745627  0.739668  0.913563  1
  O  O32  1  0.254373  0.760332  0.413563  1
  O  O33  1  0.254373  0.239668  0.586437  1
  O  O34  1  0.000000  0.500000  0.000000  1
  O  O35  1  0.000000  0.000000  0.500000  1
  O  O36  1  0.000000  0.234377  0.821090  1
  O  O37  1  0.000000  0.765623  0.178910  1
  O  O38  1  0.000000  0.734377  0.678910  1
  O  O39  1  0.000000  0.265623  0.321090  1
  O  O40  1  0.500000  0.236668  0.348622  1
  O  O41  1  0.500000  0.763332  0.651378  1
  O  O42  1  0.500000  0.736668  0.151378  1
  O  O43  1  0.500000  0.263332  0.848622  1
  O  O44  1  0.000000  0.000000  0.000000  1
  O  O45  1  0.000000  0.500000  0.500000  1
