# generated using pymatgen
data_Ta2Mn4O9
_symmetry_space_group_name_H-M   'P 1'
_cell_length_a   5.39707697
_cell_length_b   5.39707697
_cell_length_c   14.50952205
_cell_angle_alpha   90.00000000
_cell_angle_beta   90.00000000
_cell_angle_gamma   120.00000000
_symmetry_Int_Tables_number   1
_chemical_formula_structural   Ta2Mn4O9
_chemical_formula_sum   'Ta4 Mn8 O18'
_cell_volume   366.01675199
_cell_formula_units_Z   2
loop_
 _symmetry_equiv_pos_site_id
 _symmetry_equiv_pos_as_xyz
  1  'x, y, z'
loop_
 _atom_site_type_symbol
 _atom_site_label
 _atom_site_symmetry_multiplicity
 _atom_site_fract_x
 _atom_site_fract_y
 _atom_site_fract_z
 _atom_site_occupancy
  Ta  Ta0  1  0.000000  0.000000  0.356344  1
  Ta  Ta1  1  0.000000  0.000000  0.143656  1
  Ta  Ta2  1  0.000000  0.000000  0.643656  1
  Ta  Ta3  1  0.000000  0.000000  0.856344  1
  Mn  Mn4  1  0.333333  0.666667  0.019135  1
  Mn  Mn5  1  0.666667  0.333333  0.480865  1
  Mn  Mn6  1  0.666667  0.333333  0.980865  1
  Mn  Mn7  1  0.333333  0.666667  0.519135  1
  Mn  Mn8  1  0.333333  0.666667  0.805276  1
  Mn  Mn9  1  0.666667  0.333333  0.694724  1
  Mn  Mn10  1  0.666667  0.333333  0.194724  1
  Mn  Mn11  1  0.333333  0.666667  0.305276  1
  O  O12  1  0.694397  0.665791  0.586048  1
  O  O13  1  0.334209  0.028605  0.586048  1
  O  O14  1  0.971395  0.305603  0.586048  1
  O  O15  1  0.028605  0.334209  0.913952  1
  O  O16  1  0.305603  0.971395  0.913952  1
  O  O17  1  0.665791  0.694397  0.913952  1
  O  O18  1  0.305603  0.334209  0.413952  1
  O  O19  1  0.665791  0.971395  0.413952  1
  O  O20  1  0.028605  0.694397  0.413952  1
  O  O21  1  0.971395  0.665791  0.086048  1
  O  O22  1  0.694397  0.028605  0.086048  1
  O  O23  1  0.334209  0.305603  0.086048  1
  O  O24  1  0.275900  0.000000  0.250000  1
  O  O25  1  0.000000  0.275900  0.250000  1
  O  O26  1  0.724100  0.724100  0.250000  1
  O  O27  1  0.724100  0.000000  0.750000  1
  O  O28  1  0.000000  0.724100  0.750000  1
  O  O29  1  0.275900  0.275900  0.750000  1
