# generated using pymatgen
data_Ga5Pd13
_symmetry_space_group_name_H-M   'P 1'
_cell_length_a   12.47683231
_cell_length_b   12.47683231
_cell_length_c   5.54357868
_cell_angle_alpha   77.60709127
_cell_angle_beta   102.39290873
_cell_angle_gamma   161.07674095
_symmetry_Int_Tables_number   1
_chemical_formula_structural   Ga5Pd13
_chemical_formula_sum   'Ga5 Pd13'
_cell_volume   273.15997906
_cell_formula_units_Z   1
loop_
 _symmetry_equiv_pos_site_id
 _symmetry_equiv_pos_as_xyz
  1  'x, y, z'
loop_
 _atom_site_type_symbol
 _atom_site_label
 _atom_site_symmetry_multiplicity
 _atom_site_fract_x
 _atom_site_fract_y
 _atom_site_fract_z
 _atom_site_occupancy
  Ga  Ga0  1  0.000000  0.000000  0.000000  1
  Ga  Ga1  1  0.894094  0.105906  0.355444  1
  Ga  Ga2  1  0.105906  0.894094  0.644556  1
  Ga  Ga3  1  0.676840  0.323160  0.312469  1
  Ga  Ga4  1  0.323160  0.676840  0.687531  1
  Pd  Pd5  1  0.000000  1.000000  0.500000  1
  Pd  Pd6  1  0.887264  0.112736  0.875777  1
  Pd  Pd7  1  0.112736  0.887264  0.124223  1
  Pd  Pd8  1  0.787494  0.212506  0.407128  1
  Pd  Pd9  1  0.212506  0.787494  0.592872  1
  Pd  Pd10  1  0.775498  0.224502  0.890699  1
  Pd  Pd11  1  0.224502  0.775498  0.109301  1
  Pd  Pd12  1  0.660135  0.339865  0.829200  1
  Pd  Pd13  1  0.339865  0.660135  0.170800  1
  Pd  Pd14  1  0.570453  0.429547  0.373263  1
  Pd  Pd15  1  0.429547  0.570453  0.626737  1
  Pd  Pd16  1  0.545044  0.454956  0.848205  1
  Pd  Pd17  1  0.454956  0.545044  0.151795  1
