# generated using pymatgen
data_Lu2S3
_symmetry_space_group_name_H-M   'P 1'
_cell_length_a   13.52554992
_cell_length_b   13.52554992
_cell_length_c   13.52554992
_cell_angle_alpha   144.80401761
_cell_angle_beta   144.80401761
_cell_angle_gamma   50.62667896
_symmetry_Int_Tables_number   1
_chemical_formula_structural   Lu2S3
_chemical_formula_sum   'Lu16 S24'
_cell_volume   817.83584872
_cell_formula_units_Z   8
loop_
 _symmetry_equiv_pos_site_id
 _symmetry_equiv_pos_as_xyz
  1  'x, y, z'
loop_
 _atom_site_type_symbol
 _atom_site_label
 _atom_site_symmetry_multiplicity
 _atom_site_fract_x
 _atom_site_fract_y
 _atom_site_fract_z
 _atom_site_occupancy
  Lu  Lu0  1  0.178651  0.299669  0.401731  1
  Lu  Lu1  1  0.585537  0.085537  0.500000  1
  Lu  Lu2  1  0.375000  0.741592  0.866592  1
  Lu  Lu3  1  0.164463  0.164463  0.000000  1
  Lu  Lu4  1  0.852062  0.950331  0.378982  1
  Lu  Lu5  1  0.571349  0.473080  0.621018  1
  Lu  Lu6  1  0.875000  0.508408  0.133408  1
  Lu  Lu7  1  0.049669  0.428651  0.901731  1
  Lu  Lu8  1  0.835537  0.835537  0.000000  1
  Lu  Lu9  1  0.491592  0.625000  0.366592  1
  Lu  Lu10  1  0.258408  0.125000  0.633408  1
  Lu  Lu11  1  0.526920  0.147938  0.098269  1
  Lu  Lu12  1  0.914463  0.414463  0.500000  1
  Lu  Lu13  1  0.700331  0.102062  0.878982  1
  Lu  Lu14  1  0.897938  0.776920  0.598269  1
  Lu  Lu15  1  0.223080  0.821349  0.121018  1
  S  S16  1  0.881740  0.126828  0.878715  1
  S  S17  1  0.538601  0.421373  0.746186  1
  S  S18  1  0.248113  0.003026  0.121285  1
  S  S19  1  0.501887  0.123172  0.254913  1
  S  S20  1  0.868260  0.246974  0.745087  1
  S  S21  1  0.675187  0.792415  0.253814  1
  S  S22  1  0.555063  0.810187  0.901389  1
  S  S23  1  0.074813  0.828627  0.617228  1
  S  S24  1  0.189813  0.091202  0.744876  1
  S  S25  1  0.908798  0.653674  0.098611  1
  S  S26  1  0.211399  0.457585  0.382772  1
  S  S27  1  0.171373  0.788601  0.246186  1
  S  S28  1  0.542415  0.925187  0.753814  1
  S  S29  1  0.346326  0.444937  0.255124  1
  S  S30  1  0.207585  0.461399  0.882772  1
  S  S31  1  0.753026  0.498113  0.621285  1
  S  S32  1  0.873172  0.751887  0.754913  1
  S  S33  1  0.578627  0.324813  0.117228  1
  S  S34  1  0.876828  0.131740  0.378715  1
  S  S35  1  0.841202  0.439813  0.244876  1
  S  S36  1  0.194937  0.596326  0.755124  1
  S  S37  1  0.996974  0.118260  0.245087  1
  S  S38  1  0.403674  0.158798  0.598611  1
  S  S39  1  0.560187  0.805063  0.401389  1
