# generated using pymatgen
data_Sr3SiO
_symmetry_space_group_name_H-M   'P 1'
_cell_length_a   7.15882967
_cell_length_b   7.20019712
_cell_length_c   10.15259766
_cell_angle_alpha   90.00000000
_cell_angle_beta   90.00000000
_cell_angle_gamma   90.00000000
_symmetry_Int_Tables_number   1
_chemical_formula_structural   Sr3SiO
_chemical_formula_sum   'Sr12 Si4 O4'
_cell_volume   523.31549179
_cell_formula_units_Z   4
loop_
 _symmetry_equiv_pos_site_id
 _symmetry_equiv_pos_as_xyz
  1  'x, y, z'
loop_
 _atom_site_type_symbol
 _atom_site_label
 _atom_site_symmetry_multiplicity
 _atom_site_fract_x
 _atom_site_fract_y
 _atom_site_fract_z
 _atom_site_occupancy
  Sr  Sr0  1  0.217961  0.781532  0.465964  1
  Sr  Sr1  1  0.282039  0.281532  0.034036  1
  Sr  Sr2  1  0.717961  0.718468  0.534036  1
  Sr  Sr3  1  0.782039  0.218468  0.965964  1
  Sr  Sr4  1  0.217961  0.781532  0.034036  1
  Sr  Sr5  1  0.282039  0.281532  0.465964  1
  Sr  Sr6  1  0.717961  0.718468  0.965964  1
  Sr  Sr7  1  0.782039  0.218468  0.534036  1
  Sr  Sr8  1  0.934889  0.488478  0.250000  1
  Sr  Sr9  1  0.565111  0.988478  0.250000  1
  Sr  Sr10  1  0.434889  0.011522  0.750000  1
  Sr  Sr11  1  0.065111  0.511522  0.750000  1
  Si  Si12  1  0.007089  0.027573  0.250000  1
  Si  Si13  1  0.492911  0.527573  0.250000  1
  Si  Si14  1  0.507089  0.472427  0.750000  1
  Si  Si15  1  0.992911  0.972427  0.750000  1
  O  O16  1  0.500000  0.000000  0.000000  1
  O  O17  1  0.000000  0.500000  0.500000  1
  O  O18  1  0.000000  0.500000  0.000000  1
  O  O19  1  0.500000  0.000000  0.500000  1
