# generated using pymatgen
data_PrSi2Ru
_symmetry_space_group_name_H-M   'P 1'
_cell_length_a   4.52641570
_cell_length_b   4.08317597
_cell_length_c   8.34538152
_cell_angle_alpha   90.00000000
_cell_angle_beta   101.93702271
_cell_angle_gamma   90.00000000
_symmetry_Int_Tables_number   1
_chemical_formula_structural   PrSi2Ru
_chemical_formula_sum   'Pr2 Si4 Ru2'
_cell_volume   150.90523817
_cell_formula_units_Z   2
loop_
 _symmetry_equiv_pos_site_id
 _symmetry_equiv_pos_as_xyz
  1  'x, y, z'
loop_
 _atom_site_type_symbol
 _atom_site_label
 _atom_site_symmetry_multiplicity
 _atom_site_fract_x
 _atom_site_fract_y
 _atom_site_fract_z
 _atom_site_occupancy
  Pr  Pr0  1  0.584701  0.250000  0.199954  1
  Pr  Pr1  1  0.415299  0.750000  0.800046  1
  Si  Si2  1  0.331995  0.250000  0.508833  1
  Si  Si3  1  0.668005  0.750000  0.491167  1
  Si  Si4  1  0.036416  0.750000  0.091290  1
  Si  Si5  1  0.963584  0.250000  0.908710  1
  Ru  Ru6  1  0.121179  0.750000  0.388383  1
  Ru  Ru7  1  0.878821  0.250000  0.611617  1
