# generated using pymatgen
data_Ba(RhPb2)3
_symmetry_space_group_name_H-M   'P 1'
_cell_length_a   14.39701917
_cell_length_b   14.39701917
_cell_length_c   4.60179276
_cell_angle_alpha   90.00000000
_cell_angle_beta   90.00000000
_cell_angle_gamma   146.02699106
_symmetry_Int_Tables_number   1
_chemical_formula_structural   Ba(RhPb2)3
_chemical_formula_sum   'Ba2 Rh6 Pb12'
_cell_volume   533.00392175
_cell_formula_units_Z   2
loop_
 _symmetry_equiv_pos_site_id
 _symmetry_equiv_pos_as_xyz
  1  'x, y, z'
loop_
 _atom_site_type_symbol
 _atom_site_label
 _atom_site_symmetry_multiplicity
 _atom_site_fract_x
 _atom_site_fract_y
 _atom_site_fract_z
 _atom_site_occupancy
  Ba  Ba0  1  0.589272  0.410728  0.250000  1
  Ba  Ba1  1  0.410728  0.589272  0.750000  1
  Rh  Rh2  1  0.971448  0.406275  0.750000  1
  Rh  Rh3  1  0.963025  0.036975  0.750000  1
  Rh  Rh4  1  0.028552  0.593725  0.250000  1
  Rh  Rh5  1  0.036975  0.963025  0.250000  1
  Rh  Rh6  1  0.406275  0.971448  0.250000  1
  Rh  Rh7  1  0.593725  0.028552  0.750000  1
  Pb  Pb8  1  0.752979  0.845174  0.250000  1
  Pb  Pb9  1  0.845174  0.752979  0.750000  1
  Pb  Pb10  1  0.154826  0.247021  0.250000  1
  Pb  Pb11  1  0.526066  0.869763  0.250000  1
  Pb  Pb12  1  0.130237  0.473934  0.250000  1
  Pb  Pb13  1  0.869763  0.526066  0.750000  1
  Pb  Pb14  1  0.247021  0.154826  0.750000  1
  Pb  Pb15  1  0.749871  0.250129  0.250000  1
  Pb  Pb16  1  0.250129  0.749871  0.750000  1
  Pb  Pb17  1  0.134762  0.865238  0.250000  1
  Pb  Pb18  1  0.865238  0.134762  0.750000  1
  Pb  Pb19  1  0.473934  0.130237  0.750000  1
