# generated using pymatgen
data_Sm2F
_symmetry_space_group_name_H-M   'P 1'
_cell_length_a   13.88855583
_cell_length_b   13.88855583
_cell_length_c   7.63436723
_cell_angle_alpha   82.07699303
_cell_angle_beta   97.92300697
_cell_angle_gamma   163.90894915
_symmetry_Int_Tables_number   1
_chemical_formula_structural   Sm2F
_chemical_formula_sum   'Sm10 F5'
_cell_volume   404.18045214
_cell_formula_units_Z   5
loop_
 _symmetry_equiv_pos_site_id
 _symmetry_equiv_pos_as_xyz
  1  'x, y, z'
loop_
 _atom_site_type_symbol
 _atom_site_label
 _atom_site_symmetry_multiplicity
 _atom_site_fract_x
 _atom_site_fract_y
 _atom_site_fract_z
 _atom_site_occupancy
  Sm  Sm0  1  0.000333  0.999667  0.998799  1
  Sm  Sm1  1  0.399453  0.600547  0.191960  1
  Sm  Sm2  1  0.797627  0.202373  0.399386  1
  Sm  Sm3  1  0.199705  0.800295  0.099612  1
  Sm  Sm4  1  0.200257  0.799743  0.599954  1
  Sm  Sm5  1  0.598172  0.401828  0.301338  1
  Sm  Sm6  1  0.601883  0.398117  0.799128  1
  Sm  Sm7  1  0.999891  0.000109  0.500133  1
  Sm  Sm8  1  0.401057  0.598943  0.705636  1
  Sm  Sm9  1  0.801420  0.198580  0.900859  1
  F  F10  1  0.148969  0.851031  0.324002  1
  F  F11  1  0.051213  0.948787  0.775843  1
  F  F12  1  0.948624  0.051376  0.225338  1
  F  F13  1  0.349803  0.650197  0.426439  1
  F  F14  1  0.251592  0.748408  0.876573  1
