# generated using pymatgen
data_Cr2P3O11
_symmetry_space_group_name_H-M   'P 1'
_cell_length_a   7.22284942
_cell_length_b   7.22284942
_cell_length_c   8.79583973
_cell_angle_alpha   70.87712328
_cell_angle_beta   109.12287672
_cell_angle_gamma   107.05408629
_symmetry_Int_Tables_number   1
_chemical_formula_structural   Cr2P3O11
_chemical_formula_sum   'Cr4 P6 O22'
_cell_volume   400.64299196
_cell_formula_units_Z   2
loop_
 _symmetry_equiv_pos_site_id
 _symmetry_equiv_pos_as_xyz
  1  'x, y, z'
loop_
 _atom_site_type_symbol
 _atom_site_label
 _atom_site_symmetry_multiplicity
 _atom_site_fract_x
 _atom_site_fract_y
 _atom_site_fract_z
 _atom_site_occupancy
  Cr  Cr0  1  0.367375  0.115779  0.043034  1
  Cr  Cr1  1  0.884221  0.632625  0.543034  1
  Cr  Cr2  1  0.632625  0.884221  0.956966  1
  Cr  Cr3  1  0.115779  0.367375  0.456966  1
  P  P4  1  0.040471  0.040471  0.250000  1
  P  P5  1  0.455399  0.674464  0.289546  1
  P  P6  1  0.325536  0.544601  0.789546  1
  P  P7  1  0.674464  0.455399  0.210454  1
  P  P8  1  0.959529  0.959529  0.750000  1
  P  P9  1  0.544601  0.325536  0.710454  1
  O  O10  1  0.752620  0.947037  0.775507  1
  O  O11  1  0.717371  0.626782  0.061411  1
  O  O12  1  0.247380  0.052963  0.224493  1
  O  O13  1  0.379190  0.752062  0.817612  1
  O  O14  1  0.472009  0.850200  0.128902  1
  O  O15  1  0.984676  0.125047  0.592664  1
  O  O16  1  0.626782  0.717371  0.438589  1
  O  O17  1  0.515682  0.515682  0.750000  1
  O  O18  1  0.527991  0.149800  0.871098  1
  O  O19  1  0.850200  0.472009  0.371098  1
  O  O20  1  0.620810  0.247938  0.182388  1
  O  O21  1  0.052963  0.247380  0.275507  1
  O  O22  1  0.947037  0.752620  0.724493  1
  O  O23  1  0.149800  0.527991  0.628902  1
  O  O24  1  0.874953  0.015324  0.092664  1
  O  O25  1  0.015324  0.874953  0.407336  1
  O  O26  1  0.484318  0.484318  0.250000  1
  O  O27  1  0.247938  0.620810  0.317612  1
  O  O28  1  0.282629  0.373218  0.938589  1
  O  O29  1  0.752062  0.379190  0.682388  1
  O  O30  1  0.373218  0.282629  0.561411  1
  O  O31  1  0.125047  0.984676  0.907336  1
