# generated using pymatgen
data_ErGaPd
_symmetry_space_group_name_H-M   'P 1'
_cell_length_a   4.45783546
_cell_length_b   6.87955739
_cell_length_c   7.64293941
_cell_angle_alpha   90.00000000
_cell_angle_beta   90.00000000
_cell_angle_gamma   90.00000000
_symmetry_Int_Tables_number   1
_chemical_formula_structural   ErGaPd
_chemical_formula_sum   'Er4 Ga4 Pd4'
_cell_volume   234.39316813
_cell_formula_units_Z   4
loop_
 _symmetry_equiv_pos_site_id
 _symmetry_equiv_pos_as_xyz
  1  'x, y, z'
loop_
 _atom_site_type_symbol
 _atom_site_label
 _atom_site_symmetry_multiplicity
 _atom_site_fract_x
 _atom_site_fract_y
 _atom_site_fract_z
 _atom_site_occupancy
  Er  Er0  1  0.250000  0.484932  0.199243  1
  Er  Er1  1  0.750000  0.515068  0.800757  1
  Er  Er2  1  0.250000  0.984932  0.300757  1
  Er  Er3  1  0.750000  0.015068  0.699243  1
  Ga  Ga4  1  0.250000  0.822472  0.923513  1
  Ga  Ga5  1  0.750000  0.177528  0.076487  1
  Ga  Ga6  1  0.250000  0.322472  0.576487  1
  Ga  Ga7  1  0.750000  0.677528  0.423513  1
  Pd  Pd8  1  0.750000  0.778503  0.095357  1
  Pd  Pd9  1  0.250000  0.221497  0.904643  1
  Pd  Pd10  1  0.750000  0.278503  0.404643  1
  Pd  Pd11  1  0.250000  0.721497  0.595357  1
