# generated using pymatgen
data_CeAl4Ni
_symmetry_space_group_name_H-M   'P 1'
_cell_length_a   8.06557428
_cell_length_b   8.06557428
_cell_length_c   6.59465248
_cell_angle_alpha   90.00000000
_cell_angle_beta   90.00000000
_cell_angle_gamma   150.40380876
_symmetry_Int_Tables_number   1
_chemical_formula_structural   CeAl4Ni
_chemical_formula_sum   'Ce2 Al8 Ni2'
_cell_volume   211.87880737
_cell_formula_units_Z   2
loop_
 _symmetry_equiv_pos_site_id
 _symmetry_equiv_pos_as_xyz
  1  'x, y, z'
loop_
 _atom_site_type_symbol
 _atom_site_label
 _atom_site_symmetry_multiplicity
 _atom_site_fract_x
 _atom_site_fract_y
 _atom_site_fract_z
 _atom_site_occupancy
  Ce  Ce0  1  0.885518  0.114482  0.250000  1
  Ce  Ce1  1  0.114482  0.885518  0.750000  1
  Al  Al2  1  0.500000  0.500000  0.000000  1
  Al  Al3  1  0.500000  0.500000  0.500000  1
  Al  Al4  1  0.922617  0.077383  0.750000  1
  Al  Al5  1  0.077383  0.922617  0.250000  1
  Al  Al6  1  0.310807  0.689193  0.947536  1
  Al  Al7  1  0.689193  0.310807  0.052464  1
  Al  Al8  1  0.689193  0.310807  0.447536  1
  Al  Al9  1  0.310807  0.689193  0.552464  1
  Ni  Ni10  1  0.226007  0.773993  0.250000  1
  Ni  Ni11  1  0.773993  0.226007  0.750000  1
