# generated using pymatgen
data_LiSmSe2
_symmetry_space_group_name_H-M   'P 1'
_cell_length_a   7.14575458
_cell_length_b   7.14575458
_cell_length_c   7.14575458
_cell_angle_alpha   132.04185788
_cell_angle_beta   132.04185788
_cell_angle_gamma   70.16292496
_symmetry_Int_Tables_number   1
_chemical_formula_structural   LiSmSe2
_chemical_formula_sum   'Li2 Sm2 Se4'
_cell_volume   197.26471918
_cell_formula_units_Z   2
loop_
 _symmetry_equiv_pos_site_id
 _symmetry_equiv_pos_as_xyz
  1  'x, y, z'
loop_
 _atom_site_type_symbol
 _atom_site_label
 _atom_site_symmetry_multiplicity
 _atom_site_fract_x
 _atom_site_fract_y
 _atom_site_fract_z
 _atom_site_occupancy
  Li  Li0  1  0.500000  0.500000  0.000000  1
  Li  Li1  1  0.250000  0.750000  0.500000  1
  Sm  Sm2  1  0.000000  0.000000  0.000000  1
  Sm  Sm3  1  0.750000  0.250000  0.500000  1
  Se  Se4  1  0.750292  0.750292  0.000000  1
  Se  Se5  1  0.249708  0.249708  0.000000  1
  Se  Se6  1  0.999708  0.499708  0.500000  1
  Se  Se7  1  0.500292  0.000292  0.500000  1
