# generated using pymatgen
data_RbBF4
_symmetry_space_group_name_H-M   'P 1'
_cell_length_a   5.73445378
_cell_length_b   7.42229922
_cell_length_c   9.23285430
_cell_angle_alpha   90.00000000
_cell_angle_beta   90.00000000
_cell_angle_gamma   90.00000000
_symmetry_Int_Tables_number   1
_chemical_formula_structural   RbBF4
_chemical_formula_sum   'Rb4 B4 F16'
_cell_volume   392.97642477
_cell_formula_units_Z   4
loop_
 _symmetry_equiv_pos_site_id
 _symmetry_equiv_pos_as_xyz
  1  'x, y, z'
loop_
 _atom_site_type_symbol
 _atom_site_label
 _atom_site_symmetry_multiplicity
 _atom_site_fract_x
 _atom_site_fract_y
 _atom_site_fract_z
 _atom_site_occupancy
  Rb  Rb0  1  0.250000  0.161376  0.813969  1
  Rb  Rb1  1  0.750000  0.838624  0.186031  1
  Rb  Rb2  1  0.750000  0.661376  0.686031  1
  Rb  Rb3  1  0.250000  0.338624  0.313969  1
  B  B4  1  0.250000  0.692278  0.938897  1
  B  B5  1  0.250000  0.807722  0.438897  1
  B  B6  1  0.750000  0.192278  0.561103  1
  B  B7  1  0.750000  0.307722  0.061103  1
  F  F8  1  0.548148  0.303390  0.576175  1
  F  F9  1  0.951852  0.196610  0.076175  1
  F  F10  1  0.451852  0.803390  0.923825  1
  F  F11  1  0.048148  0.696610  0.423825  1
  F  F12  1  0.250000  0.611102  0.076746  1
  F  F13  1  0.750000  0.388898  0.923254  1
  F  F14  1  0.750000  0.111102  0.423254  1
  F  F15  1  0.250000  0.888898  0.576746  1
  F  F16  1  0.250000  0.560776  0.827753  1
  F  F17  1  0.750000  0.439224  0.172247  1
  F  F18  1  0.750000  0.060776  0.672247  1
  F  F19  1  0.250000  0.939224  0.327753  1
  F  F20  1  0.048148  0.803390  0.923825  1
  F  F21  1  0.548148  0.196610  0.076175  1
  F  F22  1  0.951852  0.303390  0.576175  1
  F  F23  1  0.451852  0.696610  0.423825  1
