# generated using pymatgen
data_Na6CoSe4
_symmetry_space_group_name_H-M   'P 1'
_cell_length_a   9.32632131
_cell_length_b   9.32632131
_cell_length_c   7.20781192
_cell_angle_alpha   90.00000000
_cell_angle_beta   90.00000000
_cell_angle_gamma   120.00000000
_symmetry_Int_Tables_number   1
_chemical_formula_structural   Na6CoSe4
_chemical_formula_sum   'Na12 Co2 Se8'
_cell_volume   542.94373338
_cell_formula_units_Z   2
loop_
 _symmetry_equiv_pos_site_id
 _symmetry_equiv_pos_as_xyz
  1  'x, y, z'
loop_
 _atom_site_type_symbol
 _atom_site_label
 _atom_site_symmetry_multiplicity
 _atom_site_fract_x
 _atom_site_fract_y
 _atom_site_fract_z
 _atom_site_occupancy
  Na  Na0  1  0.148348  0.851652  0.532602  1
  Na  Na1  1  0.296696  0.148348  0.032602  1
  Na  Na2  1  0.851652  0.703304  0.032602  1
  Na  Na3  1  0.148348  0.296696  0.532602  1
  Na  Na4  1  0.703304  0.851652  0.532602  1
  Na  Na5  1  0.851652  0.148348  0.032602  1
  Na  Na6  1  0.529028  0.470972  0.358862  1
  Na  Na7  1  0.058056  0.529028  0.858862  1
  Na  Na8  1  0.470972  0.941944  0.858862  1
  Na  Na9  1  0.529028  0.058056  0.358862  1
  Na  Na10  1  0.941944  0.470972  0.358862  1
  Na  Na11  1  0.470972  0.529028  0.858862  1
  Co  Co12  1  0.333333  0.666667  0.243733  1
  Co  Co13  1  0.666667  0.333333  0.743733  1
  Se  Se14  1  0.333333  0.666667  0.582808  1
  Se  Se15  1  0.666667  0.333333  0.082808  1
  Se  Se16  1  0.189369  0.810631  0.135922  1
  Se  Se17  1  0.378737  0.189369  0.635922  1
  Se  Se18  1  0.810631  0.621263  0.635922  1
  Se  Se19  1  0.189369  0.378737  0.135922  1
  Se  Se20  1  0.621263  0.810631  0.135922  1
  Se  Se21  1  0.810631  0.189369  0.635922  1
