# generated using pymatgen
data_Zr2Cr4Si5
_symmetry_space_group_name_H-M   'P 1'
_cell_length_a   9.25200473
_cell_length_b   9.25200473
_cell_length_c   9.25200473
_cell_angle_alpha   148.90647784
_cell_angle_beta   131.45158931
_cell_angle_gamma   58.78087623
_symmetry_Int_Tables_number   1
_chemical_formula_structural   Zr2Cr4Si5
_chemical_formula_sum   'Zr4 Cr8 Si10'
_cell_volume   304.13030611
_cell_formula_units_Z   2
loop_
 _symmetry_equiv_pos_site_id
 _symmetry_equiv_pos_as_xyz
  1  'x, y, z'
loop_
 _atom_site_type_symbol
 _atom_site_label
 _atom_site_symmetry_multiplicity
 _atom_site_fract_x
 _atom_site_fract_y
 _atom_site_fract_z
 _atom_site_occupancy
  Zr  Zr0  1  0.019396  0.641242  0.378154  1
  Zr  Zr1  1  0.980604  0.358758  0.621846  1
  Zr  Zr2  1  0.736912  0.858758  0.878154  1
  Zr  Zr3  1  0.263088  0.141242  0.121846  1
  Cr  Cr4  1  0.308934  0.558934  0.250000  1
  Cr  Cr5  1  0.691066  0.941066  0.250000  1
  Cr  Cr6  1  0.191456  0.938586  0.252869  1
  Cr  Cr7  1  0.808544  0.061414  0.747131  1
  Cr  Cr8  1  0.314283  0.561414  0.752869  1
  Cr  Cr9  1  0.685717  0.438586  0.247131  1
  Cr  Cr10  1  0.691066  0.441066  0.750000  1
  Cr  Cr11  1  0.308934  0.058934  0.750000  1
  Si  Si12  1  0.000000  0.250000  0.250000  1
  Si  Si13  1  0.000000  0.750000  0.750000  1
  Si  Si14  1  0.998327  0.789118  0.209209  1
  Si  Si15  1  0.001673  0.210882  0.790791  1
  Si  Si16  1  0.636646  0.563974  0.072671  1
  Si  Si17  1  0.363354  0.436026  0.927329  1
  Si  Si18  1  0.508697  0.936026  0.572671  1
  Si  Si19  1  0.491303  0.063974  0.427329  1
  Si  Si20  1  0.579908  0.289118  0.290791  1
  Si  Si21  1  0.420092  0.710882  0.709209  1
