# generated using pymatgen
data_LiMnP2O7
_symmetry_space_group_name_H-M   'P 1'
_cell_length_a   5.13952901
_cell_length_b   8.03963105
_cell_length_c   14.06615246
_cell_angle_alpha   90.00000000
_cell_angle_beta   109.43138545
_cell_angle_gamma   90.00000000
_symmetry_Int_Tables_number   1
_chemical_formula_structural   LiMnP2O7
_chemical_formula_sum   'Li4 Mn4 P8 O28'
_cell_volume   548.10673110
_cell_formula_units_Z   4
loop_
 _symmetry_equiv_pos_site_id
 _symmetry_equiv_pos_as_xyz
  1  'x, y, z'
loop_
 _atom_site_type_symbol
 _atom_site_label
 _atom_site_symmetry_multiplicity
 _atom_site_fract_x
 _atom_site_fract_y
 _atom_site_fract_z
 _atom_site_occupancy
  Li  Li0  1  0.035047  0.785696  0.263190  1
  Li  Li1  1  0.964953  0.285696  0.236810  1
  Li  Li2  1  0.035047  0.714304  0.763190  1
  Li  Li3  1  0.964953  0.214304  0.736810  1
  Mn  Mn4  1  0.339786  0.352372  0.619487  1
  Mn  Mn5  1  0.660214  0.647628  0.380513  1
  Mn  Mn6  1  0.339786  0.147628  0.119487  1
  Mn  Mn7  1  0.660214  0.852372  0.880513  1
  P  P8  1  0.315811  0.705151  0.519416  1
  P  P9  1  0.579292  0.032736  0.324211  1
  P  P10  1  0.420708  0.532736  0.175789  1
  P  P11  1  0.684189  0.294849  0.480584  1
  P  P12  1  0.420708  0.967264  0.675789  1
  P  P13  1  0.579292  0.467264  0.824211  1
  P  P14  1  0.315811  0.794849  0.019416  1
  P  P15  1  0.684189  0.205151  0.980584  1
  O  O16  1  0.729599  0.408715  0.399236  1
  O  O17  1  0.187774  0.536094  0.218949  1
  O  O18  1  0.528729  0.142027  0.661332  1
  O  O19  1  0.270401  0.591285  0.600764  1
  O  O20  1  0.916079  0.293766  0.581065  1
  O  O21  1  0.812226  0.463906  0.781051  1
  O  O22  1  0.326305  0.134387  0.258422  1
  O  O23  1  0.602037  0.829202  0.008754  1
  O  O24  1  0.674397  0.109109  0.436575  1
  O  O25  1  0.397963  0.329202  0.491246  1
  O  O26  1  0.673695  0.634387  0.241578  1
  O  O27  1  0.602037  0.670798  0.508754  1
  O  O28  1  0.916079  0.206234  0.081065  1
  O  O29  1  0.270401  0.908715  0.100764  1
  O  O30  1  0.326305  0.365613  0.758422  1
  O  O31  1  0.397963  0.170798  0.991246  1
  O  O32  1  0.325603  0.890891  0.563425  1
  O  O33  1  0.471271  0.642027  0.838668  1
  O  O34  1  0.083921  0.793766  0.918935  1
  O  O35  1  0.674397  0.390891  0.936575  1
  O  O36  1  0.325603  0.609109  0.063425  1
  O  O37  1  0.673695  0.865613  0.741578  1
  O  O38  1  0.187774  0.963906  0.718949  1
  O  O39  1  0.471271  0.857973  0.338668  1
  O  O40  1  0.528729  0.357973  0.161332  1
  O  O41  1  0.812226  0.036094  0.281051  1
  O  O42  1  0.083921  0.706234  0.418935  1
  O  O43  1  0.729599  0.091285  0.899236  1
