# generated using pymatgen
data_NbHO3
_symmetry_space_group_name_H-M   'P 1'
_cell_length_a   6.70368950
_cell_length_b   6.72474348
_cell_length_c   6.74155745
_cell_angle_alpha   109.23209098
_cell_angle_beta   109.29343801
_cell_angle_gamma   109.21581365
_symmetry_Int_Tables_number   1
_chemical_formula_structural   NbHO3
_chemical_formula_sum   'Nb4 H4 O12'
_cell_volume   235.87376414
_cell_formula_units_Z   4
loop_
 _symmetry_equiv_pos_site_id
 _symmetry_equiv_pos_as_xyz
  1  'x, y, z'
loop_
 _atom_site_type_symbol
 _atom_site_label
 _atom_site_symmetry_multiplicity
 _atom_site_fract_x
 _atom_site_fract_y
 _atom_site_fract_z
 _atom_site_occupancy
  Nb  Nb0  1  0.532014  0.528858  0.541791  1
  Nb  Nb1  1  0.507008  0.027805  0.027940  1
  Nb  Nb2  1  0.036658  0.518754  0.030750  1
  Nb  Nb3  1  0.987311  0.022647  0.515706  1
  H  H4  1  0.052380  0.731519  0.680689  1
  H  H5  1  0.687697  0.049222  0.740970  1
  H  H6  1  0.303496  0.051354  0.356634  1
  H  H7  1  0.742969  0.689010  0.047292  1
  O  O8  1  0.091334  0.300897  0.793484  1
  O  O9  1  0.712441  0.817303  0.522118  1
  O  O10  1  0.511387  0.699909  0.805857  1
  O  O11  1  0.204074  0.497579  0.290565  1
  O  O12  1  0.292254  0.812599  0.098805  1
  O  O13  1  0.794955  0.081151  0.284190  1
  O  O14  1  0.174151  0.879570  0.698518  1
  O  O15  1  0.700671  0.176478  0.879975  1
  O  O16  1  0.811750  0.520984  0.707537  1
  O  O17  1  0.501566  0.295917  0.202746  1
  O  O18  1  0.293668  0.175273  0.476711  1
  O  O19  1  0.878219  0.695172  0.173723  1
