# generated using pymatgen
data_Zr(TeCl)6
_symmetry_space_group_name_H-M   'P 1'
_cell_length_a   11.38149093
_cell_length_b   11.44097134
_cell_length_c   13.14108182
_cell_angle_alpha   90.00000000
_cell_angle_beta   90.00000000
_cell_angle_gamma   90.00000000
_symmetry_Int_Tables_number   1
_chemical_formula_structural   Zr(TeCl)6
_chemical_formula_sum   'Zr4 Te24 Cl24'
_cell_volume   1711.17006312
_cell_formula_units_Z   4
loop_
 _symmetry_equiv_pos_site_id
 _symmetry_equiv_pos_as_xyz
  1  'x, y, z'
loop_
 _atom_site_type_symbol
 _atom_site_label
 _atom_site_symmetry_multiplicity
 _atom_site_fract_x
 _atom_site_fract_y
 _atom_site_fract_z
 _atom_site_occupancy
  Zr  Zr0  1  0.736848  0.207453  0.250000  1
  Zr  Zr1  1  0.263152  0.707453  0.250000  1
  Zr  Zr2  1  0.736848  0.292547  0.750000  1
  Zr  Zr3  1  0.263152  0.792547  0.750000  1
  Te  Te4  1  0.725989  0.758147  0.250000  1
  Te  Te5  1  0.274011  0.258147  0.250000  1
  Te  Te6  1  0.725989  0.741853  0.750000  1
  Te  Te7  1  0.274011  0.241853  0.750000  1
  Te  Te8  1  0.023707  0.250000  0.500000  1
  Te  Te9  1  0.976293  0.750000  0.000000  1
  Te  Te10  1  0.976293  0.750000  0.500000  1
  Te  Te11  1  0.023707  0.250000  0.000000  1
  Te  Te12  1  0.385862  0.364597  0.468537  1
  Te  Te13  1  0.614138  0.864597  0.031463  1
  Te  Te14  1  0.385862  0.135403  0.531463  1
  Te  Te15  1  0.614138  0.635403  0.968537  1
  Te  Te16  1  0.614138  0.635403  0.531463  1
  Te  Te17  1  0.385862  0.135403  0.968537  1
  Te  Te18  1  0.614138  0.864597  0.468537  1
  Te  Te19  1  0.385862  0.364597  0.031463  1
  Te  Te20  1  0.184763  0.399084  0.596347  1
  Te  Te21  1  0.815237  0.899084  0.903653  1
  Te  Te22  1  0.184763  0.100916  0.403653  1
  Te  Te23  1  0.815237  0.600916  0.096347  1
  Te  Te24  1  0.815237  0.600916  0.403653  1
  Te  Te25  1  0.184763  0.100916  0.096347  1
  Te  Te26  1  0.815237  0.899084  0.596347  1
  Te  Te27  1  0.184763  0.399084  0.903653  1
  Cl  Cl28  1  0.843559  0.090425  0.114992  1
  Cl  Cl29  1  0.156441  0.590425  0.385008  1
  Cl  Cl30  1  0.843559  0.409575  0.885008  1
  Cl  Cl31  1  0.156441  0.909575  0.614992  1
  Cl  Cl32  1  0.156441  0.909575  0.885008  1
  Cl  Cl33  1  0.843559  0.409575  0.614992  1
  Cl  Cl34  1  0.156441  0.590425  0.114992  1
  Cl  Cl35  1  0.843559  0.090425  0.385008  1
  Cl  Cl36  1  0.635648  0.328261  0.381657  1
  Cl  Cl37  1  0.364352  0.828261  0.118343  1
  Cl  Cl38  1  0.635648  0.171739  0.618343  1
  Cl  Cl39  1  0.364352  0.671739  0.881657  1
  Cl  Cl40  1  0.364352  0.671739  0.618343  1
  Cl  Cl41  1  0.635648  0.171739  0.881657  1
  Cl  Cl42  1  0.364352  0.828261  0.381657  1
  Cl  Cl43  1  0.635648  0.328261  0.118343  1
  Cl  Cl44  1  0.098484  0.654715  0.750000  1
  Cl  Cl45  1  0.901516  0.154715  0.750000  1
  Cl  Cl46  1  0.098484  0.845285  0.250000  1
  Cl  Cl47  1  0.901516  0.345285  0.250000  1
  Cl  Cl48  1  0.419513  0.942912  0.750000  1
  Cl  Cl49  1  0.580487  0.442912  0.750000  1
  Cl  Cl50  1  0.419513  0.557088  0.250000  1
  Cl  Cl51  1  0.580487  0.057088  0.250000  1
