# generated using pymatgen
data_SmAlGe
_symmetry_space_group_name_H-M   'P 1'
_cell_length_a   7.93963774
_cell_length_b   7.93963774
_cell_length_c   7.93963774
_cell_angle_alpha   149.13223897
_cell_angle_beta   149.13223897
_cell_angle_gamma   44.21669343
_symmetry_Int_Tables_number   1
_chemical_formula_structural   SmAlGe
_chemical_formula_sum   'Sm2 Al2 Ge2'
_cell_volume   131.36218331
_cell_formula_units_Z   2
loop_
 _symmetry_equiv_pos_site_id
 _symmetry_equiv_pos_as_xyz
  1  'x, y, z'
loop_
 _atom_site_type_symbol
 _atom_site_label
 _atom_site_symmetry_multiplicity
 _atom_site_fract_x
 _atom_site_fract_y
 _atom_site_fract_z
 _atom_site_occupancy
  Sm  Sm0  1  0.334980  0.334980  0.000000  1
  Sm  Sm1  1  0.084980  0.584980  0.500000  1
  Al  Al2  1  0.919088  0.919088  0.000000  1
  Al  Al3  1  0.669088  0.169088  0.500000  1
  Ge  Ge4  1  0.503532  0.003532  0.500000  1
  Ge  Ge5  1  0.753532  0.753532  0.000000  1
