# generated using pymatgen
data_V5Sb4
_symmetry_space_group_name_H-M   'P 1'
_cell_length_a   7.20310166
_cell_length_b   7.20310166
_cell_length_c   7.20310166
_cell_angle_alpha   93.27696611
_cell_angle_beta   93.27696611
_cell_angle_gamma   152.33465944
_symmetry_Int_Tables_number   1
_chemical_formula_structural   V5Sb4
_chemical_formula_sum   'V5 Sb4'
_cell_volume   168.49291960
_cell_formula_units_Z   1
loop_
 _symmetry_equiv_pos_site_id
 _symmetry_equiv_pos_as_xyz
  1  'x, y, z'
loop_
 _atom_site_type_symbol
 _atom_site_label
 _atom_site_symmetry_multiplicity
 _atom_site_fract_x
 _atom_site_fract_y
 _atom_site_fract_z
 _atom_site_occupancy
  V  V0  1  0.000000  0.000000  0.000000  1
  V  V1  1  0.614172  0.318079  0.932251  1
  V  V2  1  0.681921  0.614172  0.296093  1
  V  V3  1  0.318079  0.385828  0.703907  1
  V  V4  1  0.385828  0.681921  0.067749  1
  Sb  Sb5  1  0.709964  0.063022  0.772986  1
  Sb  Sb6  1  0.936978  0.709964  0.646942  1
  Sb  Sb7  1  0.063022  0.290036  0.353058  1
  Sb  Sb8  1  0.290036  0.936978  0.227014  1
