# generated using pymatgen
data_LiCo(PO3)4
_symmetry_space_group_name_H-M   'P 1'
_cell_length_a   7.00358209
_cell_length_b   7.00358209
_cell_length_c   9.64301876
_cell_angle_alpha   88.70702778
_cell_angle_beta   91.29297222
_cell_angle_gamma   70.73846347
_symmetry_Int_Tables_number   1
_chemical_formula_structural   LiCo(PO3)4
_chemical_formula_sum   'Li2 Co2 P8 O24'
_cell_volume   446.17540306
_cell_formula_units_Z   2
loop_
 _symmetry_equiv_pos_site_id
 _symmetry_equiv_pos_as_xyz
  1  'x, y, z'
loop_
 _atom_site_type_symbol
 _atom_site_label
 _atom_site_symmetry_multiplicity
 _atom_site_fract_x
 _atom_site_fract_y
 _atom_site_fract_z
 _atom_site_occupancy
  Li  Li0  1  0.341986  0.341986  0.250000  1
  Li  Li1  1  0.658014  0.658014  0.750000  1
  Co  Co2  1  0.383988  0.383988  0.750000  1
  Co  Co3  1  0.616012  0.616012  0.250000  1
  P  P4  1  0.774532  0.296880  0.529326  1
  P  P5  1  0.774671  0.863015  0.469382  1
  P  P6  1  0.703120  0.225468  0.029326  1
  P  P7  1  0.225468  0.703120  0.470674  1
  P  P8  1  0.296880  0.774532  0.970674  1
  P  P9  1  0.863015  0.774671  0.030618  1
  P  P10  1  0.225329  0.136985  0.530618  1
  P  P11  1  0.136985  0.225329  0.969382  1
  O  O12  1  0.644895  0.391307  0.649191  1
  O  O13  1  0.572143  0.231780  0.901735  1
  O  O14  1  0.237457  0.227201  0.105064  1
  O  O15  1  0.231780  0.572143  0.598265  1
  O  O16  1  0.999567  0.792646  0.406887  1
  O  O17  1  0.227201  0.237457  0.394936  1
  O  O18  1  0.792646  0.999567  0.093113  1
  O  O19  1  0.846960  0.630951  0.146596  1
  O  O20  1  0.772799  0.762543  0.605064  1
  O  O21  1  0.630951  0.846960  0.353404  1
  O  O22  1  0.724806  0.103344  0.478955  1
  O  O23  1  0.896656  0.275194  0.978955  1
  O  O24  1  0.608693  0.355105  0.149191  1
  O  O25  1  0.762543  0.772799  0.894936  1
  O  O26  1  0.427857  0.768220  0.098265  1
  O  O27  1  0.103344  0.724806  0.021045  1
  O  O28  1  0.153040  0.369049  0.853404  1
  O  O29  1  0.000433  0.207354  0.593113  1
  O  O30  1  0.768220  0.427857  0.401735  1
  O  O31  1  0.369049  0.153040  0.646596  1
  O  O32  1  0.391307  0.644895  0.850809  1
  O  O33  1  0.207354  0.000433  0.906887  1
  O  O34  1  0.275194  0.896656  0.521045  1
  O  O35  1  0.355105  0.608693  0.350809  1
