# generated using pymatgen
data_Fe2CuO4
_symmetry_space_group_name_H-M   'P 1'
_cell_length_a   6.03673026
_cell_length_b   6.03673026
_cell_length_c   6.03673026
_cell_angle_alpha   120.68753962
_cell_angle_beta   120.27038642
_cell_angle_gamma   89.17277970
_symmetry_Int_Tables_number   1
_chemical_formula_structural   Fe2CuO4
_chemical_formula_sum   'Fe4 Cu2 O8'
_cell_volume   154.41105680
_cell_formula_units_Z   2
loop_
 _symmetry_equiv_pos_site_id
 _symmetry_equiv_pos_as_xyz
  1  'x, y, z'
loop_
 _atom_site_type_symbol
 _atom_site_label
 _atom_site_symmetry_multiplicity
 _atom_site_fract_x
 _atom_site_fract_y
 _atom_site_fract_z
 _atom_site_occupancy
  Fe  Fe0  1  0.000000  0.000000  0.000000  1
  Fe  Fe1  1  0.618954  0.368954  0.250000  1
  Fe  Fe2  1  0.381046  0.631046  0.750000  1
  Fe  Fe3  1  0.500000  0.000000  0.500000  1
  Cu  Cu4  1  0.000000  0.500000  1.000000  1
  Cu  Cu5  1  1.000000  1.000000  0.500000  1
  O  O6  1  0.771285  0.760209  0.011076  1
  O  O7  1  0.250038  0.766864  0.016826  1
  O  O8  1  0.750867  0.239791  0.511076  1
  O  O9  1  0.250038  0.233213  0.483174  1
  O  O10  1  0.749962  0.233136  0.983174  1
  O  O11  1  0.228715  0.239791  0.988924  1
  O  O12  1  0.749962  0.766787  0.516826  1
  O  O13  1  0.249133  0.760209  0.488924  1
