# generated using pymatgen
data_Ce(SiRu)2
_symmetry_space_group_name_H-M   'P 1'
_cell_length_a   5.69361793
_cell_length_b   5.69361793
_cell_length_c   5.69361793
_cell_angle_alpha   136.66434021
_cell_angle_beta   136.66434021
_cell_angle_gamma   62.95491002
_symmetry_Int_Tables_number   1
_chemical_formula_structural   Ce(SiRu)2
_chemical_formula_sum   'Ce1 Si2 Ru2'
_cell_volume   85.83761575
_cell_formula_units_Z   1
loop_
 _symmetry_equiv_pos_site_id
 _symmetry_equiv_pos_as_xyz
  1  'x, y, z'
loop_
 _atom_site_type_symbol
 _atom_site_label
 _atom_site_symmetry_multiplicity
 _atom_site_fract_x
 _atom_site_fract_y
 _atom_site_fract_z
 _atom_site_occupancy
  Ce  Ce0  1  0.000000  0.000000  0.000000  1
  Si  Si1  1  0.632055  0.632055  0.000000  1
  Si  Si2  1  0.367945  0.367945  0.000000  1
  Ru  Ru3  1  0.250000  0.750000  0.500000  1
  Ru  Ru4  1  0.750000  0.250000  0.500000  1
