# generated using pymatgen
data_AlBiBr6
_symmetry_space_group_name_H-M   'P 1'
_cell_length_a   8.13529183
_cell_length_b   8.25714373
_cell_length_c   10.00004698
_cell_angle_alpha   102.23478975
_cell_angle_beta   105.65156266
_cell_angle_gamma   97.31510368
_symmetry_Int_Tables_number   1
_chemical_formula_structural   AlBiBr6
_chemical_formula_sum   'Al2 Bi2 Br12'
_cell_volume   619.87800819
_cell_formula_units_Z   2
loop_
 _symmetry_equiv_pos_site_id
 _symmetry_equiv_pos_as_xyz
  1  'x, y, z'
loop_
 _atom_site_type_symbol
 _atom_site_label
 _atom_site_symmetry_multiplicity
 _atom_site_fract_x
 _atom_site_fract_y
 _atom_site_fract_z
 _atom_site_occupancy
  Al  Al0  1  0.687654  0.293536  0.851432  1
  Al  Al1  1  0.312346  0.706464  0.148568  1
  Bi  Bi2  1  0.807322  0.482304  0.293538  1
  Bi  Bi3  1  0.192678  0.517696  0.706462  1
  Br  Br4  1  0.557081  0.310431  0.353057  1
  Br  Br5  1  0.442919  0.689569  0.646943  1
  Br  Br6  1  0.756429  0.578423  0.965429  1
  Br  Br7  1  0.243571  0.421577  0.034571  1
  Br  Br8  1  0.848548  0.202804  0.702349  1
  Br  Br9  1  0.151452  0.797196  0.297651  1
  Br  Br10  1  0.738598  0.162185  0.043162  1
  Br  Br11  1  0.261402  0.837815  0.956838  1
  Br  Br12  1  0.390709  0.210547  0.714443  1
  Br  Br13  1  0.609291  0.789453  0.285557  1
  Br  Br14  1  0.066966  0.307598  0.413714  1
  Br  Br15  1  0.933034  0.692402  0.586286  1
