# generated using pymatgen
data_Mn2P3O11
_symmetry_space_group_name_H-M   'P 1'
_cell_length_a   7.27500643
_cell_length_b   7.27500643
_cell_length_c   8.90883517
_cell_angle_alpha   70.19044741
_cell_angle_beta   109.80955259
_cell_angle_gamma   108.75585382
_symmetry_Int_Tables_number   1
_chemical_formula_structural   Mn2P3O11
_chemical_formula_sum   'Mn4 P6 O22'
_cell_volume   405.81668625
_cell_formula_units_Z   2
loop_
 _symmetry_equiv_pos_site_id
 _symmetry_equiv_pos_as_xyz
  1  'x, y, z'
loop_
 _atom_site_type_symbol
 _atom_site_label
 _atom_site_symmetry_multiplicity
 _atom_site_fract_x
 _atom_site_fract_y
 _atom_site_fract_z
 _atom_site_occupancy
  Mn  Mn0  1  0.637223  0.882412  0.956902  1
  Mn  Mn1  1  0.117588  0.362777  0.456902  1
  Mn  Mn2  1  0.882412  0.637223  0.543098  1
  Mn  Mn3  1  0.362777  0.117588  0.043098  1
  P  P4  1  0.451331  0.669764  0.286342  1
  P  P5  1  0.036073  0.036073  0.250000  1
  P  P6  1  0.330236  0.548669  0.786342  1
  P  P7  1  0.669764  0.451331  0.213658  1
  P  P8  1  0.548669  0.330236  0.713658  1
  P  P9  1  0.963927  0.963927  0.750000  1
  O  O10  1  0.157012  0.531541  0.629387  1
  O  O11  1  0.288710  0.374409  0.936942  1
  O  O12  1  0.015657  0.865620  0.407144  1
  O  O13  1  0.389814  0.753858  0.819560  1
  O  O14  1  0.374409  0.288710  0.563058  1
  O  O15  1  0.865620  0.015657  0.092856  1
  O  O16  1  0.246142  0.610186  0.319560  1
  O  O17  1  0.238003  0.039302  0.225244  1
  O  O18  1  0.531541  0.157012  0.870613  1
  O  O19  1  0.625591  0.711290  0.436942  1
  O  O20  1  0.960698  0.761997  0.725244  1
  O  O21  1  0.610186  0.246142  0.180440  1
  O  O22  1  0.039302  0.238003  0.274756  1
  O  O23  1  0.524423  0.524423  0.750000  1
  O  O24  1  0.984343  0.134380  0.592856  1
  O  O25  1  0.842988  0.468459  0.370613  1
  O  O26  1  0.711290  0.625591  0.063058  1
  O  O27  1  0.761997  0.960698  0.774756  1
  O  O28  1  0.468459  0.842988  0.129387  1
  O  O29  1  0.753858  0.389814  0.680440  1
  O  O30  1  0.134380  0.984343  0.907144  1
  O  O31  1  0.475577  0.475577  0.250000  1
