# generated using pymatgen
data_ErTlPd
_symmetry_space_group_name_H-M   'P 1'
_cell_length_a   7.85988626
_cell_length_b   7.85988626
_cell_length_c   3.74349703
_cell_angle_alpha   90.00000000
_cell_angle_beta   90.00000000
_cell_angle_gamma   120.00000000
_symmetry_Int_Tables_number   1
_chemical_formula_structural   ErTlPd
_chemical_formula_sum   'Er3 Tl3 Pd3'
_cell_volume   200.28141330
_cell_formula_units_Z   3
loop_
 _symmetry_equiv_pos_site_id
 _symmetry_equiv_pos_as_xyz
  1  'x, y, z'
loop_
 _atom_site_type_symbol
 _atom_site_label
 _atom_site_symmetry_multiplicity
 _atom_site_fract_x
 _atom_site_fract_y
 _atom_site_fract_z
 _atom_site_occupancy
  Er  Er0  1  0.598643  0.000000  0.500000  1
  Er  Er1  1  0.401357  0.401357  0.500000  1
  Er  Er2  1  0.000000  0.598643  0.500000  1
  Tl  Tl3  1  0.268692  0.000000  0.000000  1
  Tl  Tl4  1  0.731308  0.731308  0.000000  1
  Tl  Tl5  1  0.000000  0.268692  0.000000  1
  Pd  Pd6  1  0.333333  0.666667  0.000000  1
  Pd  Pd7  1  0.666667  0.333333  0.000000  1
  Pd  Pd8  1  0.000000  0.000000  0.500000  1
