# generated using pymatgen
data_AlPO4
_symmetry_space_group_name_H-M   'P 1'
_cell_length_a   9.79762311
_cell_length_b   9.79762311
_cell_length_c   9.79762311
_cell_angle_alpha   60.00000000
_cell_angle_beta   60.00000000
_cell_angle_gamma   60.00000000
_symmetry_Int_Tables_number   1
_chemical_formula_structural   AlPO4
_chemical_formula_sum   'Al5 P5 O20'
_cell_volume   665.03911489
_cell_formula_units_Z   5
loop_
 _symmetry_equiv_pos_site_id
 _symmetry_equiv_pos_as_xyz
  1  'x, y, z'
loop_
 _atom_site_type_symbol
 _atom_site_label
 _atom_site_symmetry_multiplicity
 _atom_site_fract_x
 _atom_site_fract_y
 _atom_site_fract_z
 _atom_site_occupancy
  Al  Al0  1  0.750000  0.750000  0.750000  1
  Al  Al1  1  0.113940  0.113940  0.658179  1
  Al  Al2  1  0.658179  0.113940  0.113940  1
  Al  Al3  1  0.113940  0.113940  0.113940  1
  Al  Al4  1  0.113940  0.658179  0.113940  1
  P  P5  1  0.885254  0.344238  0.885254  1
  P  P6  1  0.344238  0.885254  0.885254  1
  P  P7  1  0.885254  0.885254  0.885254  1
  P  P8  1  0.885254  0.885254  0.344238  1
  P  P9  1  0.250000  0.250000  0.250000  1
  O  O10  1  0.991847  0.282348  0.991847  1
  O  O11  1  0.991847  0.282348  0.733957  1
  O  O12  1  0.282348  0.733957  0.991847  1
  O  O13  1  0.822079  0.533762  0.822079  1
  O  O14  1  0.822079  0.822079  0.822079  1
  O  O15  1  0.533762  0.822079  0.822079  1
  O  O16  1  0.282348  0.991847  0.991847  1
  O  O17  1  0.822079  0.822079  0.533762  1
  O  O18  1  0.282348  0.991847  0.733957  1
  O  O19  1  0.991847  0.733957  0.282348  1
  O  O20  1  0.991847  0.991847  0.282348  1
  O  O21  1  0.733957  0.991847  0.282348  1
  O  O22  1  0.733957  0.282348  0.991847  1
  O  O23  1  0.991847  0.991847  0.733957  1
  O  O24  1  0.186216  0.186216  0.441353  1
  O  O25  1  0.733957  0.991847  0.991847  1
  O  O26  1  0.441353  0.186216  0.186216  1
  O  O27  1  0.186216  0.186216  0.186216  1
  O  O28  1  0.186216  0.441353  0.186216  1
  O  O29  1  0.991847  0.733957  0.991847  1
