# generated using pymatgen
data_CaP4O11
_symmetry_space_group_name_H-M   'P 1'
_cell_length_a   8.80597109
_cell_length_b   12.94270233
_cell_length_c   12.27544810
_cell_angle_alpha   90.00000000
_cell_angle_beta   133.32959998
_cell_angle_gamma   90.00000000
_symmetry_Int_Tables_number   1
_chemical_formula_structural   CaP4O11
_chemical_formula_sum   'Ca4 P16 O44'
_cell_volume   1017.70949959
_cell_formula_units_Z   4
loop_
 _symmetry_equiv_pos_site_id
 _symmetry_equiv_pos_as_xyz
  1  'x, y, z'
loop_
 _atom_site_type_symbol
 _atom_site_label
 _atom_site_symmetry_multiplicity
 _atom_site_fract_x
 _atom_site_fract_y
 _atom_site_fract_z
 _atom_site_occupancy
  Ca  Ca0  1  0.002802  0.468688  0.234293  1
  Ca  Ca1  1  0.997198  0.968688  0.265707  1
  Ca  Ca2  1  0.997198  0.531312  0.765707  1
  Ca  Ca3  1  0.002802  0.031312  0.734293  1
  P  P4  1  0.998717  0.209871  0.096136  1
  P  P5  1  0.001283  0.709871  0.403864  1
  P  P6  1  0.001283  0.790129  0.903864  1
  P  P7  1  0.998717  0.290129  0.596136  1
  P  P8  1  0.652199  0.335663  0.268561  1
  P  P9  1  0.347801  0.835663  0.231439  1
  P  P10  1  0.347801  0.664337  0.731439  1
  P  P11  1  0.652199  0.164337  0.768561  1
  P  P12  1  0.347276  0.340370  0.609085  1
  P  P13  1  0.652724  0.840370  0.890915  1
  P  P14  1  0.652724  0.659630  0.390915  1
  P  P15  1  0.347276  0.159630  0.109085  1
  P  P16  1  0.357518  0.998031  0.674523  1
  P  P17  1  0.642482  0.498031  0.825477  1
  P  P18  1  0.642482  0.001969  0.325477  1
  P  P19  1  0.357518  0.501969  0.174523  1
  O  O20  1  0.998370  0.397936  0.637074  1
  O  O21  1  0.001630  0.897936  0.862926  1
  O  O22  1  0.001630  0.602064  0.362926  1
  O  O23  1  0.998370  0.102064  0.137074  1
  O  O24  1  0.012615  0.198426  0.674054  1
  O  O25  1  0.987385  0.698426  0.825946  1
  O  O26  1  0.987385  0.801574  0.325946  1
  O  O27  1  0.012615  0.301574  0.174054  1
  O  O28  1  0.240120  0.607092  0.764825  1
  O  O29  1  0.759880  0.107092  0.735175  1
  O  O30  1  0.759880  0.392908  0.235175  1
  O  O31  1  0.240120  0.892908  0.264825  1
  O  O32  1  0.268989  0.400323  0.477759  1
  O  O33  1  0.731011  0.900323  0.022241  1
  O  O34  1  0.731011  0.599677  0.522241  1
  O  O35  1  0.240634  0.976350  0.718926  1
  O  O36  1  0.268989  0.099677  0.977759  1
  O  O37  1  0.740810  0.515679  0.981807  1
  O  O38  1  0.740810  0.984321  0.481807  1
  O  O39  1  0.259190  0.484321  0.018193  1
  O  O40  1  0.468652  0.095349  0.258543  1
  O  O41  1  0.531348  0.595349  0.241457  1
  O  O42  1  0.531348  0.904651  0.741457  1
  O  O43  1  0.468652  0.404651  0.758543  1
  O  O44  1  0.487612  0.902981  0.221151  1
  O  O45  1  0.512388  0.402981  0.278849  1
  O  O46  1  0.512388  0.097019  0.778849  1
  O  O47  1  0.487612  0.597019  0.721151  1
  O  O48  1  0.503430  0.248464  0.144822  1
  O  O49  1  0.496570  0.748464  0.355178  1
  O  O50  1  0.496570  0.751536  0.855178  1
  O  O51  1  0.503430  0.251536  0.644822  1
  O  O52  1  0.183179  0.224446  0.094423  1
  O  O53  1  0.816821  0.724446  0.405577  1
  O  O54  1  0.816821  0.775554  0.905577  1
  O  O55  1  0.183179  0.275554  0.594423  1
  O  O56  1  0.791834  0.229923  0.917057  1
  O  O57  1  0.208166  0.729923  0.582943  1
  O  O58  1  0.208166  0.770077  0.082943  1
  O  O59  1  0.791834  0.270077  0.417057  1
  O  O60  1  0.240634  0.523650  0.218926  1
  O  O61  1  0.759366  0.023650  0.281074  1
  O  O62  1  0.759366  0.476350  0.781074  1
  O  O63  1  0.259190  0.015679  0.518193  1
