# generated using pymatgen
data_Al2CuO4
_symmetry_space_group_name_H-M   'P 1'
_cell_length_a   5.75000380
_cell_length_b   5.75000380
_cell_length_c   14.18636459
_cell_angle_alpha   90.00000000
_cell_angle_beta   90.00000000
_cell_angle_gamma   120.00000000
_symmetry_Int_Tables_number   1
_chemical_formula_structural   Al2CuO4
_chemical_formula_sum   'Al12 Cu6 O24'
_cell_volume   406.19821672
_cell_formula_units_Z   6
loop_
 _symmetry_equiv_pos_site_id
 _symmetry_equiv_pos_as_xyz
  1  'x, y, z'
loop_
 _atom_site_type_symbol
 _atom_site_label
 _atom_site_symmetry_multiplicity
 _atom_site_fract_x
 _atom_site_fract_y
 _atom_site_fract_z
 _atom_site_occupancy
  Al  Al0  1  0.169078  0.338156  0.832820  1
  Al  Al1  1  0.661844  0.830922  0.832820  1
  Al  Al2  1  0.834257  0.668514  0.499085  1
  Al  Al3  1  0.169078  0.830922  0.832820  1
  Al  Al4  1  0.666667  0.333333  0.712016  1
  Al  Al5  1  0.666667  0.333333  0.333916  1
  Al  Al6  1  0.331486  0.165743  0.499085  1
  Al  Al7  1  0.501149  0.002298  0.167277  1
  Al  Al8  1  0.834257  0.165743  0.499085  1
  Al  Al9  1  0.997702  0.498851  0.167277  1
  Al  Al10  1  0.501149  0.498851  0.167277  1
  Al  Al11  1  0.000000  0.000000  0.042183  1
  Cu  Cu12  1  0.666667  0.333333  0.959382  1
  Cu  Cu13  1  0.333333  0.666667  0.997463  1
  Cu  Cu14  1  0.333333  0.666667  0.622806  1
  Cu  Cu15  1  0.000000  0.000000  0.292621  1
  Cu  Cu16  1  0.000000  0.000000  0.662327  1
  Cu  Cu17  1  0.333333  0.666667  0.375554  1
  O  O18  1  0.485851  0.971703  0.906136  1
  O  O19  1  0.333333  0.666667  0.762490  1
  O  O20  1  0.028297  0.514149  0.906136  1
  O  O21  1  0.485851  0.514149  0.906136  1
  O  O22  1  0.153037  0.306073  0.571939  1
  O  O23  1  0.838754  0.161246  0.759280  1
  O  O24  1  0.000000  0.000000  0.909385  1
  O  O25  1  0.000000  0.000000  0.430488  1
  O  O26  1  0.693927  0.846963  0.571939  1
  O  O27  1  0.322493  0.161246  0.759280  1
  O  O28  1  0.153037  0.846963  0.571939  1
  O  O29  1  0.838754  0.677507  0.759280  1
  O  O30  1  0.521358  0.478642  0.423685  1
  O  O31  1  0.813144  0.626288  0.246270  1
  O  O32  1  0.666667  0.333333  0.582639  1
  O  O33  1  0.957284  0.478642  0.423685  1
  O  O34  1  0.666667  0.333333  0.098241  1
  O  O35  1  0.373712  0.186856  0.246270  1
  O  O36  1  0.813144  0.186856  0.246270  1
  O  O37  1  0.521358  0.042716  0.423685  1
  O  O38  1  0.168854  0.831146  0.090142  1
  O  O39  1  0.333333  0.666667  0.228722  1
  O  O40  1  0.662292  0.831146  0.090142  1
  O  O41  1  0.168854  0.337708  0.090142  1
