# generated using pymatgen
data_Li2BeH4
_symmetry_space_group_name_H-M   'P 1'
_cell_length_a   4.96007783
_cell_length_b   6.61466012
_cell_length_c   12.35374083
_cell_angle_alpha   98.67938882
_cell_angle_beta   93.14327423
_cell_angle_gamma   89.89444079
_symmetry_Int_Tables_number   1
_chemical_formula_structural   Li2BeH4
_chemical_formula_sum   'Li12 Be6 H24'
_cell_volume   400.06382690
_cell_formula_units_Z   6
loop_
 _symmetry_equiv_pos_site_id
 _symmetry_equiv_pos_as_xyz
  1  'x, y, z'
loop_
 _atom_site_type_symbol
 _atom_site_label
 _atom_site_symmetry_multiplicity
 _atom_site_fract_x
 _atom_site_fract_y
 _atom_site_fract_z
 _atom_site_occupancy
  Li  Li0  1  0.414513  0.439354  0.153304  1
  Li  Li1  1  0.377055  0.014463  0.168672  1
  Li  Li2  1  0.426266  0.276942  0.366383  1
  Li  Li3  1  0.325951  0.748541  0.344371  1
  Li  Li4  1  0.396193  0.498347  0.789753  1
  Li  Li5  1  0.463788  0.066377  0.875400  1
  Li  Li6  1  0.633036  0.927188  0.669565  1
  Li  Li7  1  0.948304  0.482525  0.580517  1
  Li  Li8  1  0.942624  0.236202  0.195710  1
  Li  Li9  1  0.901741  0.709985  0.118721  1
  Li  Li10  1  0.897773  0.725822  0.853229  1
  Li  Li11  1  0.915136  0.308627  0.802406  1
  Be  Be12  1  0.799850  0.602329  0.316802  1
  Be  Be13  1  0.806827  0.940221  0.317970  1
  Be  Be14  1  0.899625  0.232217  0.412887  1
  Be  Be15  1  0.854618  0.775579  0.459229  1
  Be  Be16  1  0.057713  0.390815  0.982631  1
  Be  Be17  1  0.003524  0.040604  0.991356  1
  H  H18  1  0.035557  0.508959  0.729226  1
  H  H19  1  0.289043  0.269693  0.232328  1
  H  H20  1  0.189612  0.914972  0.924667  1
  H  H21  1  0.239909  0.344235  0.893086  1
  H  H22  1  0.445985  0.579545  0.621821  1
  H  H23  1  0.423110  0.013977  0.532990  1
  H  H24  1  0.921196  0.996329  0.430722  1
  H  H25  1  0.029895  0.614766  0.406638  1
  H  H26  1  0.445093  0.211013  0.054321  1
  H  H27  1  0.510602  0.746986  0.075174  1
  H  H28  1  0.883983  0.791311  0.574553  1
  H  H29  1  0.149332  0.301612  0.467370  1
  H  H30  1  0.023244  0.983098  0.103238  1
  H  H31  1  0.177606  0.544575  0.064672  1
  H  H32  1  0.695146  0.289824  0.488031  1
  H  H33  1  0.622966  0.627930  0.412453  1
  H  H34  1  0.826311  0.488390  0.930499  1
  H  H35  1  0.750739  0.960305  0.945007  1
  H  H36  1  0.560022  0.759915  0.771408  1
  H  H37  1  0.595251  0.186956  0.749947  1
  H  H38  1  0.317532  0.948624  0.554083  1
  H  H39  1  0.439743  0.490944  0.574278  1
  H  H40  1  0.580340  0.814440  0.038757  1
  H  H41  1  0.603245  0.235465  0.055828  1
