# generated using pymatgen
data_Li7NbO6
_symmetry_space_group_name_H-M   'P 1'
_cell_length_a   5.89300596
_cell_length_b   5.89300596
_cell_length_c   5.89300596
_cell_angle_alpha   56.79907312
_cell_angle_beta   56.79907312
_cell_angle_gamma   56.79907312
_symmetry_Int_Tables_number   1
_chemical_formula_structural   Li7NbO6
_chemical_formula_sum   'Li7 Nb1 O6'
_cell_volume   134.01810453
_cell_formula_units_Z   1
loop_
 _symmetry_equiv_pos_site_id
 _symmetry_equiv_pos_as_xyz
  1  'x, y, z'
loop_
 _atom_site_type_symbol
 _atom_site_label
 _atom_site_symmetry_multiplicity
 _atom_site_fract_x
 _atom_site_fract_y
 _atom_site_fract_z
 _atom_site_occupancy
  Li  Li0  1  0.724815  0.123030  0.492713  1
  Li  Li1  1  0.930766  0.488560  0.234884  1
  Li  Li2  1  0.488560  0.234884  0.930766  1
  Li  Li3  1  0.653909  0.653909  0.653909  1
  Li  Li4  1  0.492713  0.724815  0.123030  1
  Li  Li5  1  0.123030  0.492713  0.724815  1
  Li  Li6  1  0.234884  0.930766  0.488560  1
  Nb  Nb7  1  0.999496  0.999496  0.999496  1
  O  O8  1  0.883526  0.230081  0.638621  1
  O  O9  1  0.794600  0.375002  0.070881  1
  O  O10  1  0.375002  0.070881  0.794600  1
  O  O11  1  0.638621  0.883526  0.230081  1
  O  O12  1  0.230081  0.638621  0.883526  1
  O  O13  1  0.070881  0.794600  0.375002  1
