# generated using pymatgen
data_Ba(Mo3S4)2
_symmetry_space_group_name_H-M   'P 1'
_cell_length_a   6.71311861
_cell_length_b   6.71311861
_cell_length_c   6.71311861
_cell_angle_alpha   88.69753672
_cell_angle_beta   88.69753672
_cell_angle_gamma   88.69753672
_symmetry_Int_Tables_number   1
_chemical_formula_structural   Ba(Mo3S4)2
_chemical_formula_sum   'Ba1 Mo6 S8'
_cell_volume   302.30214600
_cell_formula_units_Z   1
loop_
 _symmetry_equiv_pos_site_id
 _symmetry_equiv_pos_as_xyz
  1  'x, y, z'
loop_
 _atom_site_type_symbol
 _atom_site_label
 _atom_site_symmetry_multiplicity
 _atom_site_fract_x
 _atom_site_fract_y
 _atom_site_fract_z
 _atom_site_occupancy
  Ba  Ba0  1  0.000000  0.000000  0.000000  1
  Mo  Mo1  1  0.416880  0.565162  0.235163  1
  Mo  Mo2  1  0.565162  0.235163  0.416880  1
  Mo  Mo3  1  0.235163  0.416880  0.565162  1
  Mo  Mo4  1  0.583120  0.434838  0.764837  1
  Mo  Mo5  1  0.434838  0.764837  0.583120  1
  Mo  Mo6  1  0.764837  0.583120  0.434838  1
  S  S7  1  0.252214  0.252214  0.252214  1
  S  S8  1  0.747786  0.747786  0.747786  1
  S  S9  1  0.733875  0.391175  0.124851  1
  S  S10  1  0.391175  0.124851  0.733875  1
  S  S11  1  0.124851  0.733875  0.391175  1
  S  S12  1  0.266125  0.608825  0.875149  1
  S  S13  1  0.608825  0.875149  0.266125  1
  S  S14  1  0.875149  0.266125  0.608825  1
