# generated using pymatgen
data_Li2S
_symmetry_space_group_name_H-M   'P 1'
_cell_length_a   36.82345358
_cell_length_b   36.82345358
_cell_length_c   36.82345358
_cell_angle_alpha   6.22097778
_cell_angle_beta   6.22097778
_cell_angle_gamma   6.22097778
_symmetry_Int_Tables_number   1
_chemical_formula_structural   Li2S
_chemical_formula_sum   'Li22 S11'
_cell_volume   508.27105414
_cell_formula_units_Z   11
loop_
 _symmetry_equiv_pos_site_id
 _symmetry_equiv_pos_as_xyz
  1  'x, y, z'
loop_
 _atom_site_type_symbol
 _atom_site_label
 _atom_site_symmetry_multiplicity
 _atom_site_fract_x
 _atom_site_fract_y
 _atom_site_fract_z
 _atom_site_occupancy
  Li  Li0  1  0.679789  0.679789  0.679789  1
  Li  Li1  1  0.043785  0.043785  0.043785  1
  Li  Li2  1  0.022889  0.022889  0.022889  1
  Li  Li3  1  0.386230  0.386230  0.386230  1
  Li  Li4  1  0.406411  0.406411  0.406411  1
  Li  Li5  1  0.433271  0.433271  0.433271  1
  Li  Li6  1  0.751047  0.751047  0.751047  1
  Li  Li7  1  0.796141  0.796141  0.796141  1
  Li  Li8  1  0.159602  0.159602  0.159602  1
  Li  Li9  1  0.114287  0.114287  0.114287  1
  Li  Li10  1  0.477778  0.477778  0.477778  1
  Li  Li11  1  0.523203  0.523203  0.523203  1
  Li  Li12  1  0.841274  0.841274  0.841274  1
  Li  Li13  1  0.886835  0.886835  0.886835  1
  Li  Li14  1  0.204889  0.204889  0.204889  1
  Li  Li15  1  0.250481  0.250481  0.250481  1
  Li  Li16  1  0.568524  0.568524  0.568524  1
  Li  Li17  1  0.614190  0.614190  0.614190  1
  Li  Li18  1  0.932176  0.932176  0.932176  1
  Li  Li19  1  0.978576  0.978576  0.978576  1
  Li  Li20  1  0.296000  0.296000  0.296000  1
  Li  Li21  1  0.659011  0.659011  0.659011  1
  S  S22  1  0.001518  0.001518  0.001518  1
  S  S23  1  0.365174  0.365174  0.365174  1
  S  S24  1  0.728874  0.728874  0.728874  1
  S  S25  1  0.455137  0.455137  0.455137  1
  S  S26  1  0.091631  0.091631  0.091631  1
  S  S27  1  0.818469  0.818469  0.818469  1
  S  S28  1  0.545644  0.545644  0.545644  1
  S  S29  1  0.909280  0.909280  0.909280  1
  S  S30  1  0.182018  0.182018  0.182018  1
  S  S31  1  0.272962  0.272962  0.272962  1
  S  S32  1  0.636758  0.636758  0.636758  1
