# generated using pymatgen
data_Ba3Pt2O7
_symmetry_space_group_name_H-M   'P 1'
_cell_length_a   10.24064412
_cell_length_b   10.24064412
_cell_length_c   8.85755256
_cell_angle_alpha   89.76704801
_cell_angle_beta   90.23295199
_cell_angle_gamma   60.14897935
_symmetry_Int_Tables_number   1
_chemical_formula_structural   Ba3Pt2O7
_chemical_formula_sum   'Ba12 Pt8 O28'
_cell_volume   805.62815776
_cell_formula_units_Z   4
loop_
 _symmetry_equiv_pos_site_id
 _symmetry_equiv_pos_as_xyz
  1  'x, y, z'
loop_
 _atom_site_type_symbol
 _atom_site_label
 _atom_site_symmetry_multiplicity
 _atom_site_fract_x
 _atom_site_fract_y
 _atom_site_fract_z
 _atom_site_occupancy
  Ba  Ba0  1  0.005848  0.659337  0.005999  1
  Ba  Ba1  1  0.993589  0.674434  0.503822  1
  Ba  Ba2  1  0.669303  0.997971  0.253342  1
  Ba  Ba3  1  0.976442  0.330262  0.236793  1
  Ba  Ba4  1  0.672620  0.333816  0.006178  1
  Ba  Ba5  1  0.666184  0.327380  0.506178  1
  Ba  Ba6  1  0.316685  0.703546  0.236586  1
  Ba  Ba7  1  0.669738  0.023558  0.736793  1
  Ba  Ba8  1  0.296454  0.683315  0.736586  1
  Ba  Ba9  1  0.340663  0.994152  0.505999  1
  Ba  Ba10  1  0.325566  0.006411  0.003822  1
  Ba  Ba11  1  0.002029  0.330697  0.753342  1
  Pt  Pt12  1  0.672740  0.653999  0.410046  1
  Pt  Pt13  1  0.995572  0.988347  0.363017  1
  Pt  Pt14  1  0.011653  0.004428  0.863017  1
  Pt  Pt15  1  0.607693  0.726102  0.749498  1
  Pt  Pt16  1  0.669890  0.663938  0.087703  1
  Pt  Pt17  1  0.346001  0.327260  0.910046  1
  Pt  Pt18  1  0.336062  0.330110  0.587703  1
  Pt  Pt19  1  0.273898  0.392307  0.249498  1
  O  O20  1  0.981905  0.827854  0.250673  1
  O  O21  1  0.815682  0.658122  0.250310  1
  O  O22  1  0.838472  0.473307  0.516540  1
  O  O23  1  0.838494  0.495940  0.975555  1
  O  O24  1  0.017634  0.161564  0.986495  1
  O  O25  1  0.678513  0.803383  0.928142  1
  O  O26  1  0.683608  0.790606  0.570027  1
  O  O27  1  0.824616  0.172262  0.263856  1
  O  O28  1  0.517348  0.823024  0.252633  1
  O  O29  1  0.653030  0.523971  0.245682  1
  O  O30  1  0.827738  0.175384  0.763856  1
  O  O31  1  0.527052  0.660118  0.570664  1
  O  O32  1  0.526025  0.665755  0.927603  1
  O  O33  1  0.838436  0.982366  0.486495  1
  O  O34  1  0.149126  0.031498  0.287983  1
  O  O35  1  0.476029  0.346970  0.745682  1
  O  O36  1  0.339882  0.472948  0.070664  1
  O  O37  1  0.334245  0.473975  0.427603  1
  O  O38  1  0.163723  0.820454  0.481553  1
  O  O39  1  0.179546  0.836277  0.981553  1
  O  O40  1  0.504060  0.161506  0.475555  1
  O  O41  1  0.526693  0.161528  0.016540  1
  O  O42  1  0.968502  0.850874  0.787983  1
  O  O43  1  0.341878  0.184318  0.750310  1
  O  O44  1  0.176976  0.482652  0.752633  1
  O  O45  1  0.209394  0.316392  0.070027  1
  O  O46  1  0.196617  0.321487  0.428142  1
  O  O47  1  0.172146  0.018095  0.750673  1
