# generated using pymatgen
data_Cu11Sb3
_symmetry_space_group_name_H-M   'P 1'
_cell_length_a   9.92445085
_cell_length_b   9.92445085
_cell_length_c   4.32139945
_cell_angle_alpha   90.00000000
_cell_angle_beta   90.00000000
_cell_angle_gamma   151.88019344
_symmetry_Int_Tables_number   1
_chemical_formula_structural   Cu11Sb3
_chemical_formula_sum   'Cu11 Sb3'
_cell_volume   200.60894728
_cell_formula_units_Z   1
loop_
 _symmetry_equiv_pos_site_id
 _symmetry_equiv_pos_as_xyz
  1  'x, y, z'
loop_
 _atom_site_type_symbol
 _atom_site_label
 _atom_site_symmetry_multiplicity
 _atom_site_fract_x
 _atom_site_fract_y
 _atom_site_fract_z
 _atom_site_occupancy
  Cu  Cu0  1  0.803498  0.803498  1.000000  1
  Cu  Cu1  1  0.422959  0.277066  0.000000  1
  Cu  Cu2  1  0.277066  0.422959  0.000000  1
  Cu  Cu3  1  0.553523  0.125632  0.000000  1
  Cu  Cu4  1  0.125632  0.553523  0.000000  1
  Cu  Cu5  1  0.727703  0.581087  0.500000  1
  Cu  Cu6  1  0.581087  0.727703  0.500000  1
  Cu  Cu7  1  0.872687  0.432859  0.500000  1
  Cu  Cu8  1  0.432859  0.872687  0.500000  1
  Cu  Cu9  1  0.345195  0.049694  0.500000  1
  Cu  Cu10  1  0.049694  0.345195  0.500000  1
  Sb  Sb11  1  0.165485  0.165485  0.500000  1
  Sb  Sb12  1  0.987121  0.695493  0.000000  1
  Sb  Sb13  1  0.695493  0.987121  1.000000  1
