# generated using pymatgen
data_Gd3ReO8
_symmetry_space_group_name_H-M   'P 1'
_cell_length_a   7.37097054
_cell_length_b   6.10584372
_cell_length_c   14.73277788
_cell_angle_alpha   90.00000000
_cell_angle_beta   111.31575696
_cell_angle_gamma   90.00000000
_symmetry_Int_Tables_number   1
_chemical_formula_structural   Gd3ReO8
_chemical_formula_sum   'Gd12 Re4 O32'
_cell_volume   617.70401250
_cell_formula_units_Z   4
loop_
 _symmetry_equiv_pos_site_id
 _symmetry_equiv_pos_as_xyz
  1  'x, y, z'
loop_
 _atom_site_type_symbol
 _atom_site_label
 _atom_site_symmetry_multiplicity
 _atom_site_fract_x
 _atom_site_fract_y
 _atom_site_fract_z
 _atom_site_occupancy
  Gd  Gd0  1  0.839729  0.200884  0.054670  1
  Gd  Gd1  1  0.160271  0.700884  0.445330  1
  Gd  Gd2  1  0.160271  0.799116  0.945330  1
  Gd  Gd3  1  0.839729  0.299116  0.554670  1
  Gd  Gd4  1  0.095416  0.758555  0.701456  1
  Gd  Gd5  1  0.904584  0.258555  0.798544  1
  Gd  Gd6  1  0.904584  0.241445  0.298544  1
  Gd  Gd7  1  0.095416  0.741445  0.201456  1
  Gd  Gd8  1  0.392814  0.309259  0.832580  1
  Gd  Gd9  1  0.607186  0.809259  0.667420  1
  Gd  Gd10  1  0.607186  0.690741  0.167420  1
  Gd  Gd11  1  0.392814  0.190741  0.332580  1
  Re  Re12  1  0.678738  0.753866  0.909703  1
  Re  Re13  1  0.321262  0.253866  0.590297  1
  Re  Re14  1  0.321262  0.246134  0.090297  1
  Re  Re15  1  0.678738  0.746134  0.409703  1
  O  O16  1  0.147393  0.528427  0.841209  1
  O  O17  1  0.852607  0.028427  0.658791  1
  O  O18  1  0.852607  0.471573  0.158791  1
  O  O19  1  0.147393  0.971573  0.341209  1
  O  O20  1  0.814225  0.528152  0.673021  1
  O  O21  1  0.185775  0.028152  0.826979  1
  O  O22  1  0.185775  0.471848  0.326979  1
  O  O23  1  0.814225  0.971848  0.173021  1
  O  O24  1  0.524883  0.803520  0.479522  1
  O  O25  1  0.475117  0.303520  0.020478  1
  O  O26  1  0.475117  0.196480  0.520478  1
  O  O27  1  0.524883  0.696480  0.979522  1
  O  O28  1  0.621423  0.447659  0.411632  1
  O  O29  1  0.378577  0.947659  0.088368  1
  O  O30  1  0.378577  0.552341  0.588368  1
  O  O31  1  0.621423  0.052341  0.911632  1
  O  O32  1  0.751323  0.456642  0.903638  1
  O  O33  1  0.248677  0.956642  0.596362  1
  O  O34  1  0.248677  0.543358  0.096362  1
  O  O35  1  0.751323  0.043358  0.403638  1
  O  O36  1  0.469186  0.705357  0.787688  1
  O  O37  1  0.530814  0.205357  0.712312  1
  O  O38  1  0.530814  0.294643  0.212312  1
  O  O39  1  0.469186  0.794643  0.287688  1
  O  O40  1  0.912146  0.803663  0.018914  1
  O  O41  1  0.087854  0.303663  0.481086  1
  O  O42  1  0.087854  0.196337  0.981086  1
  O  O43  1  0.912146  0.696337  0.518914  1
  O  O44  1  0.831537  0.851917  0.830451  1
  O  O45  1  0.168463  0.351917  0.669549  1
  O  O46  1  0.168463  0.148083  0.169549  1
  O  O47  1  0.831537  0.648083  0.330451  1
