# generated using pymatgen
data_Th6Cd7
_symmetry_space_group_name_H-M   'P 1'
_cell_length_a   6.04096883
_cell_length_b   9.93921739
_cell_length_c   11.69000410
_cell_angle_alpha   90.00000000
_cell_angle_beta   90.00000000
_cell_angle_gamma   90.00000000
_symmetry_Int_Tables_number   1
_chemical_formula_structural   Th6Cd7
_chemical_formula_sum   'Th12 Cd14'
_cell_volume   701.89709979
_cell_formula_units_Z   2
loop_
 _symmetry_equiv_pos_site_id
 _symmetry_equiv_pos_as_xyz
  1  'x, y, z'
loop_
 _atom_site_type_symbol
 _atom_site_label
 _atom_site_symmetry_multiplicity
 _atom_site_fract_x
 _atom_site_fract_y
 _atom_site_fract_z
 _atom_site_occupancy
  Th  Th0  1  0.000000  0.656527  0.956584  1
  Th  Th1  1  0.000000  0.343473  0.043416  1
  Th  Th2  1  0.000000  0.156527  0.543416  1
  Th  Th3  1  0.000000  0.843473  0.456584  1
  Th  Th4  1  0.500000  0.832075  0.913990  1
  Th  Th5  1  0.500000  0.167925  0.086010  1
  Th  Th6  1  0.500000  0.332075  0.586010  1
  Th  Th7  1  0.500000  0.667925  0.413990  1
  Th  Th8  1  0.500000  0.450407  0.873703  1
  Th  Th9  1  0.500000  0.549593  0.126297  1
  Th  Th10  1  0.500000  0.950407  0.626297  1
  Th  Th11  1  0.500000  0.049593  0.373703  1
  Cd  Cd12  1  0.000000  0.000000  0.000000  1
  Cd  Cd13  1  0.000000  0.500000  0.500000  1
  Cd  Cd14  1  0.000000  0.903326  0.752520  1
  Cd  Cd15  1  0.000000  0.096674  0.247480  1
  Cd  Cd16  1  0.000000  0.403326  0.747480  1
  Cd  Cd17  1  0.000000  0.596674  0.252520  1
  Cd  Cd18  1  0.743944  0.154841  0.819209  1
  Cd  Cd19  1  0.743944  0.845159  0.180791  1
  Cd  Cd20  1  0.256056  0.654841  0.680791  1
  Cd  Cd21  1  0.256056  0.345159  0.319209  1
  Cd  Cd22  1  0.256056  0.845159  0.180791  1
  Cd  Cd23  1  0.256056  0.154841  0.819209  1
  Cd  Cd24  1  0.743944  0.345159  0.319209  1
  Cd  Cd25  1  0.743944  0.654841  0.680791  1
