# generated using pymatgen
data_Sr(LaSe2)2
_symmetry_space_group_name_H-M   'P 1'
_cell_length_a   7.94509232
_cell_length_b   7.94509232
_cell_length_c   7.94509232
_cell_angle_alpha   109.43939021
_cell_angle_beta   109.43939021
_cell_angle_gamma   109.53490025
_symmetry_Int_Tables_number   1
_chemical_formula_structural   Sr(LaSe2)2
_chemical_formula_sum   'Sr2 La4 Se8'
_cell_volume   386.07755240
_cell_formula_units_Z   2
loop_
 _symmetry_equiv_pos_site_id
 _symmetry_equiv_pos_as_xyz
  1  'x, y, z'
loop_
 _atom_site_type_symbol
 _atom_site_label
 _atom_site_symmetry_multiplicity
 _atom_site_fract_x
 _atom_site_fract_y
 _atom_site_fract_z
 _atom_site_occupancy
  Sr  Sr0  1  1.000000  1.000000  0.000000  1
  Sr  Sr1  1  0.250000  0.750000  0.500000  1
  La  La2  1  0.125000  0.501256  0.876256  1
  La  La3  1  0.625000  0.248744  0.123744  1
  La  La4  1  0.498744  0.375000  0.623744  1
  La  La5  1  0.751256  0.875000  0.376256  1
  Se  Se6  1  0.381776  0.479628  0.249105  1
  Se  Se7  1  0.019478  0.270372  0.402149  1
  Se  Se8  1  0.230522  0.132671  0.750895  1
  Se  Se9  1  0.382671  0.980522  0.250895  1
  Se  Se10  1  0.520372  0.769478  0.902149  1
  Se  Se11  1  0.867329  0.618224  0.097851  1
  Se  Se12  1  0.729628  0.131776  0.749105  1
  Se  Se13  1  0.868224  0.617329  0.597851  1
