# generated using pymatgen
data_KCd13
_symmetry_space_group_name_H-M   'P 1'
_cell_length_a   9.97716358
_cell_length_b   9.97716358
_cell_length_c   9.97716358
_cell_angle_alpha   60.00000000
_cell_angle_beta   60.00000000
_cell_angle_gamma   60.00000000
_symmetry_Int_Tables_number   1
_chemical_formula_structural   KCd13
_chemical_formula_sum   'K2 Cd26'
_cell_volume   702.27349939
_cell_formula_units_Z   2
loop_
 _symmetry_equiv_pos_site_id
 _symmetry_equiv_pos_as_xyz
  1  'x, y, z'
loop_
 _atom_site_type_symbol
 _atom_site_label
 _atom_site_symmetry_multiplicity
 _atom_site_fract_x
 _atom_site_fract_y
 _atom_site_fract_z
 _atom_site_occupancy
  K  K0  1  0.750000  0.750000  0.750000  1
  K  K1  1  0.250000  0.250000  0.250000  1
  Cd  Cd2  1  0.198537  0.440943  0.801463  1
  Cd  Cd3  1  0.940943  0.698537  0.301463  1
  Cd  Cd4  1  0.698537  0.940943  0.059057  1
  Cd  Cd5  1  0.059057  0.940943  0.301463  1
  Cd  Cd6  1  0.698537  0.301463  0.940943  1
  Cd  Cd7  1  0.059057  0.698537  0.940943  1
  Cd  Cd8  1  0.940943  0.301463  0.059057  1
  Cd  Cd9  1  0.801463  0.440943  0.559057  1
  Cd  Cd10  1  0.559057  0.440943  0.198537  1
  Cd  Cd11  1  0.801463  0.198537  0.440943  1
  Cd  Cd12  1  0.440943  0.801463  0.198537  1
  Cd  Cd13  1  0.198537  0.559057  0.440943  1
  Cd  Cd14  1  0.198537  0.801463  0.559057  1
  Cd  Cd15  1  0.559057  0.198537  0.801463  1
  Cd  Cd16  1  0.440943  0.559057  0.801463  1
  Cd  Cd17  1  0.301463  0.698537  0.059057  1
  Cd  Cd18  1  0.059057  0.301463  0.698537  1
  Cd  Cd19  1  0.301463  0.940943  0.698537  1
  Cd  Cd20  1  0.698537  0.059057  0.301463  1
  Cd  Cd21  1  0.301463  0.059057  0.940943  1
  Cd  Cd22  1  0.940943  0.059057  0.698537  1
  Cd  Cd23  1  0.440943  0.198537  0.559057  1
  Cd  Cd24  1  0.559057  0.801463  0.440943  1
  Cd  Cd25  1  0.801463  0.559057  0.198537  1
  Cd  Cd26  1  0.000000  0.000000  0.000000  1
  Cd  Cd27  1  0.500000  0.500000  0.500000  1
