# generated using pymatgen
data_Ca2FeReO6
_symmetry_space_group_name_H-M   'P 1'
_cell_length_a   5.48312356
_cell_length_b   5.70969943
_cell_length_c   9.45544898
_cell_angle_alpha   90.00000000
_cell_angle_beta   124.95422967
_cell_angle_gamma   90.00000000
_symmetry_Int_Tables_number   1
_chemical_formula_structural   Ca2FeReO6
_chemical_formula_sum   'Ca4 Fe2 Re2 O12'
_cell_volume   242.62227628
_cell_formula_units_Z   2
loop_
 _symmetry_equiv_pos_site_id
 _symmetry_equiv_pos_as_xyz
  1  'x, y, z'
loop_
 _atom_site_type_symbol
 _atom_site_label
 _atom_site_symmetry_multiplicity
 _atom_site_fract_x
 _atom_site_fract_y
 _atom_site_fract_z
 _atom_site_occupancy
  Ca  Ca0  1  0.233446  0.061168  0.247595  1
  Ca  Ca1  1  0.766554  0.561168  0.252405  1
  Ca  Ca2  1  0.766554  0.938832  0.752405  1
  Ca  Ca3  1  0.233446  0.438832  0.747595  1
  Fe  Fe4  1  0.000000  0.500000  0.000000  1
  Fe  Fe5  1  0.000000  0.000000  0.500000  1
  Re  Re6  1  0.500000  0.000000  0.000000  1
  Re  Re7  1  0.500000  0.500000  0.500000  1
  O  O8  1  0.643808  0.532216  0.743456  1
  O  O9  1  0.356192  0.032216  0.756544  1
  O  O10  1  0.356192  0.467784  0.256544  1
  O  O11  1  0.643808  0.967784  0.243456  1
  O  O12  1  0.165383  0.184523  0.953054  1
  O  O13  1  0.834617  0.684523  0.546946  1
  O  O14  1  0.834617  0.815477  0.046946  1
  O  O15  1  0.165383  0.315477  0.453054  1
  O  O16  1  0.733649  0.282577  0.053867  1
  O  O17  1  0.266351  0.782577  0.446133  1
  O  O18  1  0.733649  0.217423  0.553867  1
  O  O19  1  0.266351  0.717423  0.946133  1
