# generated using pymatgen
data_NaGaO2
_symmetry_space_group_name_H-M   'P 1'
_cell_length_a   5.38957585
_cell_length_b   5.61379465
_cell_length_c   7.23771294
_cell_angle_alpha   90.00000000
_cell_angle_beta   90.00000000
_cell_angle_gamma   90.00000000
_symmetry_Int_Tables_number   1
_chemical_formula_structural   NaGaO2
_chemical_formula_sum   'Na4 Ga4 O8'
_cell_volume   218.98404058
_cell_formula_units_Z   4
loop_
 _symmetry_equiv_pos_site_id
 _symmetry_equiv_pos_as_xyz
  1  'x, y, z'
loop_
 _atom_site_type_symbol
 _atom_site_label
 _atom_site_symmetry_multiplicity
 _atom_site_fract_x
 _atom_site_fract_y
 _atom_site_fract_z
 _atom_site_occupancy
  Na  Na0  1  0.013145  0.070301  0.622557  1
  Na  Na1  1  0.513145  0.429699  0.122557  1
  Na  Na2  1  0.513145  0.929699  0.377443  1
  Na  Na3  1  0.013145  0.570301  0.877443  1
  Ga  Ga4  1  0.999592  0.062952  0.126116  1
  Ga  Ga5  1  0.499592  0.937048  0.873884  1
  Ga  Ga6  1  0.499592  0.437048  0.626116  1
  Ga  Ga7  1  0.999592  0.562952  0.373884  1
  O  O8  1  0.156148  0.459467  0.588764  1
  O  O9  1  0.656148  0.540533  0.411236  1
  O  O10  1  0.656148  0.040533  0.088764  1
  O  O11  1  0.156148  0.959467  0.911236  1
  O  O12  1  0.080616  0.885077  0.336893  1
  O  O13  1  0.080616  0.385077  0.163107  1
  O  O14  1  0.580616  0.614923  0.836893  1
  O  O15  1  0.580616  0.114923  0.663107  1
