# generated using pymatgen
data_Na3B7O12
_symmetry_space_group_name_H-M   'P 1'
_cell_length_a   6.71859726
_cell_length_b   8.37397011
_cell_length_c   8.94151541
_cell_angle_alpha   95.04132447
_cell_angle_beta   100.75462992
_cell_angle_gamma   99.42710788
_symmetry_Int_Tables_number   1
_chemical_formula_structural   Na3B7O12
_chemical_formula_sum   'Na6 B14 O24'
_cell_volume   483.89649486
_cell_formula_units_Z   2
loop_
 _symmetry_equiv_pos_site_id
 _symmetry_equiv_pos_as_xyz
  1  'x, y, z'
loop_
 _atom_site_type_symbol
 _atom_site_label
 _atom_site_symmetry_multiplicity
 _atom_site_fract_x
 _atom_site_fract_y
 _atom_site_fract_z
 _atom_site_occupancy
  Na  Na0  1  0.765357  0.228467  0.978439  1
  Na  Na1  1  0.234643  0.771533  0.021561  1
  Na  Na2  1  0.446139  0.918644  0.710216  1
  Na  Na3  1  0.553861  0.081356  0.289784  1
  Na  Na4  1  0.931250  0.271127  0.663820  1
  Na  Na5  1  0.068750  0.728873  0.336180  1
  B  B6  1  0.774638  0.871092  0.049721  1
  B  B7  1  0.225362  0.128908  0.950279  1
  B  B8  1  0.786726  0.844442  0.526570  1
  B  B9  1  0.213274  0.155558  0.473430  1
  B  B10  1  0.400794  0.271684  0.754105  1
  B  B11  1  0.599206  0.728316  0.245895  1
  B  B12  1  0.339591  0.550162  0.708165  1
  B  B13  1  0.660409  0.449838  0.291835  1
  B  B14  1  0.901395  0.951286  0.807390  1
  B  B15  1  0.098605  0.048714  0.192610  1
  B  B16  1  0.686168  0.496998  0.727313  1
  B  B17  1  0.313832  0.503002  0.272687  1
  B  B18  1  0.009754  0.694867  0.694965  1
  B  B19  1  0.990246  0.305133  0.305035  1
  O  O20  1  0.279014  0.402336  0.755476  1
  O  O21  1  0.740511  0.920671  0.905332  1
  O  O22  1  0.086804  0.268786  0.456452  1
  O  O23  1  0.913196  0.731214  0.543548  1
  O  O24  1  0.259489  0.079329  0.094668  1
  O  O25  1  0.781120  0.957556  0.648639  1
  O  O26  1  0.777229  0.331758  0.313467  1
  O  O27  1  0.222771  0.668242  0.686533  1
  O  O28  1  0.971911  0.881474  0.137694  1
  O  O29  1  0.028089  0.118526  0.862306  1
  O  O30  1  0.965195  0.167278  0.188274  1
  O  O31  1  0.034805  0.832722  0.811726  1
  O  O32  1  0.108453  0.457082  0.266649  1
  O  O33  1  0.891547  0.542918  0.733351  1
  O  O34  1  0.669092  0.852499  0.384215  1
  O  O35  1  0.330908  0.147501  0.615785  1
  O  O36  1  0.398309  0.187338  0.893729  1
  O  O37  1  0.601691  0.812662  0.106271  1
  O  O38  1  0.623642  0.341132  0.762565  1
  O  O39  1  0.376358  0.658868  0.237435  1
  O  O40  1  0.542513  0.595610  0.686583  1
  O  O41  1  0.457487  0.404390  0.313417  1
  O  O42  1  0.218880  0.042444  0.351361  1
  O  O43  1  0.720986  0.597664  0.244524  1
