# generated using pymatgen
data_Mn3Cu3O8
_symmetry_space_group_name_H-M   'P 1'
_cell_length_a   5.96402829
_cell_length_b   5.96402829
_cell_length_c   5.96402829
_cell_angle_alpha   60.51259817
_cell_angle_beta   60.51259817
_cell_angle_gamma   60.51259817
_symmetry_Int_Tables_number   1
_chemical_formula_structural   Mn3Cu3O8
_chemical_formula_sum   'Mn3 Cu3 O8'
_cell_volume   151.74203803
_cell_formula_units_Z   1
loop_
 _symmetry_equiv_pos_site_id
 _symmetry_equiv_pos_as_xyz
  1  'x, y, z'
loop_
 _atom_site_type_symbol
 _atom_site_label
 _atom_site_symmetry_multiplicity
 _atom_site_fract_x
 _atom_site_fract_y
 _atom_site_fract_z
 _atom_site_occupancy
  Mn  Mn0  1  0.500000  0.000000  0.500000  1
  Mn  Mn1  1  0.500000  0.500000  0.000000  1
  Mn  Mn2  1  0.000000  0.500000  0.500000  1
  Cu  Cu3  1  0.123577  0.123577  0.123577  1
  Cu  Cu4  1  0.876423  0.876423  0.876423  1
  Cu  Cu5  1  0.500000  0.500000  0.500000  1
  O  O6  1  0.741504  0.741504  0.741504  1
  O  O7  1  0.287668  0.743183  0.743183  1
  O  O8  1  0.743183  0.743183  0.287668  1
  O  O9  1  0.743183  0.287668  0.743183  1
  O  O10  1  0.256817  0.712332  0.256817  1
  O  O11  1  0.256817  0.256817  0.712332  1
  O  O12  1  0.712332  0.256817  0.256817  1
  O  O13  1  0.258496  0.258496  0.258496  1
