# generated using pymatgen
data_Dy10Ti6O27
_symmetry_space_group_name_H-M   'P 1'
_cell_length_a   7.42739043
_cell_length_b   7.42739043
_cell_length_c   12.55316617
_cell_angle_alpha   72.04427795
_cell_angle_beta   107.95572205
_cell_angle_gamma   121.32328443
_symmetry_Int_Tables_number   1
_chemical_formula_structural   Dy10Ti6O27
_chemical_formula_sum   'Dy10 Ti6 O27'
_cell_volume   553.34824775
_cell_formula_units_Z   1
loop_
 _symmetry_equiv_pos_site_id
 _symmetry_equiv_pos_as_xyz
  1  'x, y, z'
loop_
 _atom_site_type_symbol
 _atom_site_label
 _atom_site_symmetry_multiplicity
 _atom_site_fract_x
 _atom_site_fract_y
 _atom_site_fract_z
 _atom_site_occupancy
  Dy  Dy0  1  0.519948  0.480052  0.003719  1
  Dy  Dy1  1  0.981591  0.018409  0.009407  1
  Dy  Dy2  1  0.257524  0.742476  0.725063  1
  Dy  Dy3  1  0.258200  0.250311  0.746830  1
  Dy  Dy4  1  0.749689  0.741800  0.746830  1
  Dy  Dy5  1  0.516291  0.483709  0.496872  1
  Dy  Dy6  1  0.745728  0.254272  0.766023  1
  Dy  Dy7  1  0.771877  0.720924  0.268646  1
  Dy  Dy8  1  0.279076  0.228123  0.268646  1
  Dy  Dy9  1  0.249606  0.750394  0.232254  1
  Ti  Ti10  1  0.021451  0.504788  0.995680  1
  Ti  Ti11  1  0.495212  0.978549  0.995680  1
  Ti  Ti12  1  0.747838  0.252162  0.243133  1
  Ti  Ti13  1  0.001527  0.998473  0.493716  1
  Ti  Ti14  1  0.007814  0.480390  0.505858  1
  Ti  Ti15  1  0.519610  0.992186  0.505858  1
  O  O16  1  0.607766  0.973490  0.682783  1
  O  O17  1  0.789187  0.210813  0.958698  1
  O  O18  1  0.833975  0.723414  0.935133  1
  O  O19  1  0.026510  0.392234  0.682783  1
  O  O20  1  0.919948  0.443506  0.136696  1
  O  O21  1  0.436475  0.563525  0.813278  1
  O  O22  1  0.143407  0.320406  0.523219  1
  O  O23  1  0.267675  0.732325  0.543108  1
  O  O24  1  0.059296  0.940704  0.658165  1
  O  O25  1  0.276586  0.166025  0.935133  1
  O  O26  1  0.422751  0.001342  0.835949  1
  O  O27  1  0.431835  0.568165  0.310288  1
  O  O28  1  0.282939  0.119876  0.462327  1
  O  O29  1  0.570167  0.429833  0.684886  1
  O  O30  1  0.679594  0.856593  0.523219  1
  O  O31  1  0.556494  0.080052  0.136696  1
  O  O32  1  0.626715  0.801566  0.057373  1
  O  O33  1  0.905969  0.094031  0.325804  1
  O  O34  1  0.586924  0.413076  0.204350  1
  O  O35  1  0.998658  0.577249  0.835949  1
  O  O36  1  0.696867  0.303133  0.500963  1
  O  O37  1  0.880124  0.717061  0.462327  1
  O  O38  1  0.973649  0.534211  0.339802  1
  O  O39  1  0.064406  0.935594  0.189143  1
  O  O40  1  0.198434  0.373285  0.057373  1
  O  O41  1  0.237378  0.762622  0.048036  1
  O  O42  1  0.465789  0.026351  0.339802  1
