# generated using pymatgen
data_Li2Mn(PO3)4
_symmetry_space_group_name_H-M   'P 1'
_cell_length_a   7.61311054
_cell_length_b   9.54242797
_cell_length_c   8.75133878
_cell_angle_alpha   90.00000000
_cell_angle_beta   123.39145434
_cell_angle_gamma   90.00000000
_symmetry_Int_Tables_number   1
_chemical_formula_structural   Li2Mn(PO3)4
_chemical_formula_sum   'Li4 Mn2 P8 O24'
_cell_volume   530.81790872
_cell_formula_units_Z   2
loop_
 _symmetry_equiv_pos_site_id
 _symmetry_equiv_pos_as_xyz
  1  'x, y, z'
loop_
 _atom_site_type_symbol
 _atom_site_label
 _atom_site_symmetry_multiplicity
 _atom_site_fract_x
 _atom_site_fract_y
 _atom_site_fract_z
 _atom_site_occupancy
  Li  Li0  1  0.782460  0.652923  0.665126  1
  Li  Li1  1  0.217540  0.152923  0.834874  1
  Li  Li2  1  0.217540  0.347077  0.334874  1
  Li  Li3  1  0.782460  0.847077  0.165126  1
  Mn  Mn4  1  0.000000  0.500000  0.500000  1
  Mn  Mn5  1  0.000000  0.000000  0.000000  1
  P  P6  1  0.546393  0.397968  0.728583  1
  P  P7  1  0.214133  0.788289  0.383263  1
  P  P8  1  0.785867  0.288289  0.116737  1
  P  P9  1  0.546393  0.102032  0.228583  1
  P  P10  1  0.785867  0.211711  0.616737  1
  P  P11  1  0.453607  0.897968  0.771417  1
  P  P12  1  0.214133  0.711711  0.883263  1
  P  P13  1  0.453607  0.602032  0.271417  1
  O  O14  1  0.896735  0.325083  0.584086  1
  O  O15  1  0.600040  0.358953  0.929587  1
  O  O16  1  0.652878  0.969113  0.236162  1
  O  O17  1  0.354882  0.764308  0.811157  1
  O  O18  1  0.689032  0.883946  0.899957  1
  O  O19  1  0.645118  0.264308  0.688843  1
  O  O20  1  0.896735  0.174917  0.084086  1
  O  O21  1  0.071012  0.599879  0.751224  1
  O  O22  1  0.652878  0.530887  0.736162  1
  O  O23  1  0.928988  0.099879  0.748776  1
  O  O24  1  0.071012  0.900121  0.251224  1
  O  O25  1  0.600040  0.141047  0.429587  1
  O  O26  1  0.103265  0.825083  0.915914  1
  O  O27  1  0.928988  0.400121  0.248776  1
  O  O28  1  0.645118  0.235692  0.188843  1
  O  O29  1  0.347122  0.469113  0.263838  1
  O  O30  1  0.354882  0.735692  0.311157  1
  O  O31  1  0.103265  0.674917  0.415914  1
  O  O32  1  0.399960  0.858953  0.570413  1
  O  O33  1  0.399960  0.641047  0.070413  1
  O  O34  1  0.347122  0.030887  0.763838  1
  O  O35  1  0.310968  0.116054  0.100043  1
  O  O36  1  0.310968  0.383946  0.600043  1
  O  O37  1  0.689032  0.616054  0.399957  1
