# generated using pymatgen
data_LiBH4
_symmetry_space_group_name_H-M   'P 1'
_cell_length_a   4.41055157
_cell_length_b   6.73793333
_cell_length_c   7.20041655
_cell_angle_alpha   90.00000000
_cell_angle_beta   90.00000000
_cell_angle_gamma   90.00000000
_symmetry_Int_Tables_number   1
_chemical_formula_structural   LiBH4
_chemical_formula_sum   'Li4 B4 H16'
_cell_volume   213.98199651
_cell_formula_units_Z   4
loop_
 _symmetry_equiv_pos_site_id
 _symmetry_equiv_pos_as_xyz
  1  'x, y, z'
loop_
 _atom_site_type_symbol
 _atom_site_label
 _atom_site_symmetry_multiplicity
 _atom_site_fract_x
 _atom_site_fract_y
 _atom_site_fract_z
 _atom_site_occupancy
  Li  Li0  1  0.250000  0.391045  0.657359  1
  Li  Li1  1  0.250000  0.108955  0.157359  1
  Li  Li2  1  0.750000  0.608955  0.342641  1
  Li  Li3  1  0.750000  0.891045  0.842641  1
  B  B4  1  0.250000  0.075425  0.808991  1
  B  B5  1  0.250000  0.424575  0.308991  1
  B  B6  1  0.750000  0.924575  0.191009  1
  B  B7  1  0.750000  0.575425  0.691009  1
  H  H8  1  0.250000  0.569401  0.411554  1
  H  H9  1  0.250000  0.930599  0.911554  1
  H  H10  1  0.750000  0.430599  0.588446  1
  H  H11  1  0.750000  0.069401  0.088446  1
  H  H12  1  0.250000  0.228398  0.902041  1
  H  H13  1  0.250000  0.271602  0.402041  1
  H  H14  1  0.750000  0.771602  0.097959  1
  H  H15  1  0.750000  0.728398  0.597959  1
  H  H16  1  0.026374  0.073863  0.708217  1
  H  H17  1  0.473626  0.426137  0.208217  1
  H  H18  1  0.526374  0.926137  0.291783  1
  H  H19  1  0.973626  0.573863  0.791783  1
  H  H20  1  0.973626  0.926137  0.291783  1
  H  H21  1  0.526374  0.573863  0.791783  1
  H  H22  1  0.473626  0.073863  0.708217  1
  H  H23  1  0.026374  0.426137  0.208217  1
