# generated using pymatgen
data_Er5Bi3
_symmetry_space_group_name_H-M   'P 1'
_cell_length_a   8.19990920
_cell_length_b   9.48184954
_cell_length_c   11.92862293
_cell_angle_alpha   90.00000000
_cell_angle_beta   90.00000000
_cell_angle_gamma   90.00000000
_symmetry_Int_Tables_number   1
_chemical_formula_structural   Er5Bi3
_chemical_formula_sum   'Er20 Bi12'
_cell_volume   927.45407433
_cell_formula_units_Z   4
loop_
 _symmetry_equiv_pos_site_id
 _symmetry_equiv_pos_as_xyz
  1  'x, y, z'
loop_
 _atom_site_type_symbol
 _atom_site_label
 _atom_site_symmetry_multiplicity
 _atom_site_fract_x
 _atom_site_fract_y
 _atom_site_fract_z
 _atom_site_occupancy
  Er  Er0  1  0.352945  0.750000  0.216300  1
  Er  Er1  1  0.852945  0.750000  0.283700  1
  Er  Er2  1  0.647055  0.250000  0.783700  1
  Er  Er3  1  0.147055  0.250000  0.716300  1
  Er  Er4  1  0.691678  0.565098  0.058412  1
  Er  Er5  1  0.191678  0.934902  0.441588  1
  Er  Er6  1  0.308322  0.065098  0.941588  1
  Er  Er7  1  0.808322  0.434902  0.558412  1
  Er  Er8  1  0.308322  0.434902  0.941588  1
  Er  Er9  1  0.808322  0.065098  0.558412  1
  Er  Er10  1  0.691678  0.934902  0.058412  1
  Er  Er11  1  0.191678  0.565098  0.441588  1
  Er  Er12  1  0.477970  0.250000  0.488840  1
  Er  Er13  1  0.977970  0.250000  0.011160  1
  Er  Er14  1  0.522030  0.750000  0.511160  1
  Er  Er15  1  0.022030  0.750000  0.988840  1
  Er  Er16  1  0.313802  0.250000  0.217612  1
  Er  Er17  1  0.813802  0.250000  0.282388  1
  Er  Er18  1  0.686198  0.750000  0.782388  1
  Er  Er19  1  0.186198  0.750000  0.717612  1
  Bi  Bi20  1  0.403941  0.750000  0.956901  1
  Bi  Bi21  1  0.903941  0.750000  0.543099  1
  Bi  Bi22  1  0.596059  0.250000  0.043099  1
  Bi  Bi23  1  0.096059  0.250000  0.456901  1
  Bi  Bi24  1  0.564998  0.995981  0.325231  1
  Bi  Bi25  1  0.064998  0.504019  0.174769  1
  Bi  Bi26  1  0.435002  0.495981  0.674769  1
  Bi  Bi27  1  0.935002  0.004019  0.825231  1
  Bi  Bi28  1  0.435002  0.004019  0.674769  1
  Bi  Bi29  1  0.935002  0.495981  0.825231  1
  Bi  Bi30  1  0.564998  0.504019  0.325231  1
  Bi  Bi31  1  0.064998  0.995981  0.174769  1
