# generated using pymatgen
data_Li4Cr(PO4)2
_symmetry_space_group_name_H-M   'P 1'
_cell_length_a   8.27035482
_cell_length_b   10.40236265
_cell_length_c   8.41367440
_cell_angle_alpha   90.00000000
_cell_angle_beta   105.08178078
_cell_angle_gamma   90.00000000
_symmetry_Int_Tables_number   1
_chemical_formula_structural   Li4Cr(PO4)2
_chemical_formula_sum   'Li16 Cr4 P8 O32'
_cell_volume   698.90643515
_cell_formula_units_Z   4
loop_
 _symmetry_equiv_pos_site_id
 _symmetry_equiv_pos_as_xyz
  1  'x, y, z'
loop_
 _atom_site_type_symbol
 _atom_site_label
 _atom_site_symmetry_multiplicity
 _atom_site_fract_x
 _atom_site_fract_y
 _atom_site_fract_z
 _atom_site_occupancy
  Li  Li0  1  0.728316  0.072814  0.476981  1
  Li  Li1  1  0.098151  0.664476  0.598567  1
  Li  Li2  1  0.850576  0.648678  0.849596  1
  Li  Li3  1  0.401849  0.164476  0.401433  1
  Li  Li4  1  0.342691  0.664053  0.348826  1
  Li  Li5  1  0.149424  0.351322  0.150404  1
  Li  Li6  1  0.771684  0.572814  0.523019  1
  Li  Li7  1  0.157309  0.164053  0.651174  1
  Li  Li8  1  0.350576  0.851322  0.849596  1
  Li  Li9  1  0.901849  0.335524  0.401433  1
  Li  Li10  1  0.842691  0.835947  0.348826  1
  Li  Li11  1  0.228316  0.427186  0.476981  1
  Li  Li12  1  0.271684  0.927186  0.523019  1
  Li  Li13  1  0.649424  0.148678  0.150404  1
  Li  Li14  1  0.657309  0.335947  0.651174  1
  Li  Li15  1  0.598151  0.835524  0.598567  1
  Cr  Cr16  1  0.087872  0.843957  0.097331  1
  Cr  Cr17  1  0.587872  0.656043  0.097331  1
  Cr  Cr18  1  0.912128  0.156043  0.902669  1
  Cr  Cr19  1  0.412128  0.343957  0.902669  1
  P  P20  1  0.466467  0.911574  0.232820  1
  P  P21  1  0.528726  0.406817  0.297862  1
  P  P22  1  0.533533  0.088426  0.767180  1
  P  P23  1  0.471274  0.593183  0.702138  1
  P  P24  1  0.033533  0.411574  0.767180  1
  P  P25  1  0.971274  0.906817  0.702138  1
  P  P26  1  0.028726  0.093183  0.297862  1
  P  P27  1  0.966467  0.588426  0.232820  1
  O  O28  1  0.591897  0.151402  0.622993  1
  O  O29  1  0.408103  0.848598  0.377007  1
  O  O30  1  0.476721  0.948387  0.720822  1
  O  O31  1  0.976721  0.551613  0.720822  1
  O  O32  1  0.939347  0.832547  0.852109  1
  O  O33  1  0.439347  0.667453  0.852109  1
  O  O34  1  0.626642  0.651257  0.656817  1
  O  O35  1  0.176018  0.404967  0.930530  1
  O  O36  1  0.007323  0.052667  0.744049  1
  O  O37  1  0.126642  0.848743  0.656817  1
  O  O38  1  0.992677  0.947333  0.255951  1
  O  O39  1  0.323982  0.904967  0.069470  1
  O  O40  1  0.560653  0.332547  0.147891  1
  O  O41  1  0.823982  0.595033  0.069470  1
  O  O42  1  0.023279  0.448387  0.279178  1
  O  O43  1  0.873358  0.151257  0.343183  1
  O  O44  1  0.617311  0.833126  0.203200  1
  O  O45  1  0.188916  0.101814  0.442651  1
  O  O46  1  0.311084  0.601814  0.557349  1
  O  O47  1  0.523279  0.051613  0.279178  1
  O  O48  1  0.882689  0.333126  0.796800  1
  O  O49  1  0.492677  0.552667  0.255951  1
  O  O50  1  0.688916  0.398186  0.442651  1
  O  O51  1  0.060653  0.167453  0.147891  1
  O  O52  1  0.908103  0.651402  0.377007  1
  O  O53  1  0.373358  0.348743  0.343183  1
  O  O54  1  0.382689  0.166874  0.796800  1
  O  O55  1  0.676018  0.095033  0.930530  1
  O  O56  1  0.811084  0.898186  0.557349  1
  O  O57  1  0.117311  0.666874  0.203200  1
  O  O58  1  0.507323  0.447333  0.744049  1
  O  O59  1  0.091897  0.348598  0.622993  1
