# generated using pymatgen
data_TaS3
_symmetry_space_group_name_H-M   'P 1'
_cell_length_a   10.05729712
_cell_length_b   3.36403813
_cell_length_c   15.09465022
_cell_angle_alpha   90.00000000
_cell_angle_beta   109.23906081
_cell_angle_gamma   90.00000000
_symmetry_Int_Tables_number   1
_chemical_formula_structural   TaS3
_chemical_formula_sum   'Ta6 S18'
_cell_volume   482.17771899
_cell_formula_units_Z   6
loop_
 _symmetry_equiv_pos_site_id
 _symmetry_equiv_pos_as_xyz
  1  'x, y, z'
loop_
 _atom_site_type_symbol
 _atom_site_label
 _atom_site_symmetry_multiplicity
 _atom_site_fract_x
 _atom_site_fract_y
 _atom_site_fract_z
 _atom_site_occupancy
  Ta  Ta0  1  0.635492  0.750000  0.116823  1
  Ta  Ta1  1  0.364508  0.250000  0.883177  1
  Ta  Ta2  1  0.681274  0.750000  0.795319  1
  Ta  Ta3  1  0.318726  0.250000  0.204681  1
  Ta  Ta4  1  0.307236  0.750000  0.459603  1
  Ta  Ta5  1  0.692764  0.250000  0.540397  1
  S  S6  1  0.559138  0.750000  0.935181  1
  S  S7  1  0.440862  0.250000  0.064819  1
  S  S8  1  0.187398  0.750000  0.903315  1
  S  S9  1  0.812602  0.250000  0.096685  1
  S  S10  1  0.212423  0.750000  0.769484  1
  S  S11  1  0.787577  0.250000  0.230516  1
  S  S12  1  0.186734  0.750000  0.088841  1
  S  S13  1  0.813266  0.250000  0.911159  1
  S  S14  1  0.198738  0.750000  0.279266  1
  S  S15  1  0.801262  0.250000  0.720734  1
  S  S16  1  0.518324  0.750000  0.246462  1
  S  S17  1  0.481676  0.250000  0.753538  1
  S  S18  1  0.890451  0.750000  0.567533  1
  S  S19  1  0.109549  0.250000  0.432467  1
  S  S20  1  0.551365  0.750000  0.593051  1
  S  S21  1  0.448635  0.250000  0.406949  1
  S  S22  1  0.748113  0.750000  0.431552  1
  S  S23  1  0.251887  0.250000  0.568448  1
