# generated using pymatgen
data_MnPd3
_symmetry_space_group_name_H-M   'P 1'
_cell_length_a   8.33618235
_cell_length_b   8.33618235
_cell_length_c   8.33618235
_cell_angle_alpha   152.66541628
_cell_angle_beta   152.66541628
_cell_angle_gamma   39.04236173
_symmetry_Int_Tables_number   1
_chemical_formula_structural   MnPd3
_chemical_formula_sum   'Mn2 Pd6'
_cell_volume   121.93208714
_cell_formula_units_Z   2
loop_
 _symmetry_equiv_pos_site_id
 _symmetry_equiv_pos_as_xyz
  1  'x, y, z'
loop_
 _atom_site_type_symbol
 _atom_site_label
 _atom_site_symmetry_multiplicity
 _atom_site_fract_x
 _atom_site_fract_y
 _atom_site_fract_z
 _atom_site_occupancy
  Mn  Mn0  1  0.124437  0.124437  0.000000  1
  Mn  Mn1  1  0.875563  0.875563  0.000000  1
  Pd  Pd2  1  0.374585  0.374585  0.000000  1
  Pd  Pd3  1  0.625415  0.625415  0.000000  1
  Pd  Pd4  1  0.000000  0.500000  0.500000  1
  Pd  Pd5  1  0.500000  0.000000  0.500000  1
  Pd  Pd6  1  0.250000  0.750000  0.500000  1
  Pd  Pd7  1  0.750000  0.250000  0.500000  1
