# generated using pymatgen
data_Fe2(MoO4)3
_symmetry_space_group_name_H-M   'P 1'
_cell_length_a   9.46320511
_cell_length_b   9.54811702
_cell_length_c   13.18288506
_cell_angle_alpha   90.00000000
_cell_angle_beta   90.00000000
_cell_angle_gamma   90.00000000
_symmetry_Int_Tables_number   1
_chemical_formula_structural   Fe2(MoO4)3
_chemical_formula_sum   'Fe8 Mo12 O48'
_cell_volume   1191.14999110
_cell_formula_units_Z   4
loop_
 _symmetry_equiv_pos_site_id
 _symmetry_equiv_pos_as_xyz
  1  'x, y, z'
loop_
 _atom_site_type_symbol
 _atom_site_label
 _atom_site_symmetry_multiplicity
 _atom_site_fract_x
 _atom_site_fract_y
 _atom_site_fract_z
 _atom_site_occupancy
  Fe  Fe0  1  0.749976  0.465851  0.380967  1
  Fe  Fe1  1  0.749976  0.034149  0.619033  1
  Fe  Fe2  1  0.750024  0.965851  0.119033  1
  Fe  Fe3  1  0.750024  0.534149  0.880967  1
  Fe  Fe4  1  0.250024  0.534149  0.619033  1
  Fe  Fe5  1  0.250024  0.965851  0.380967  1
  Fe  Fe6  1  0.249976  0.034149  0.880967  1
  Fe  Fe7  1  0.249976  0.465851  0.119033  1
  Mo  Mo8  1  0.526659  0.750000  0.500000  1
  Mo  Mo9  1  0.026659  0.750000  0.000000  1
  Mo  Mo10  1  0.473341  0.250000  0.500000  1
  Mo  Mo11  1  0.973341  0.250000  0.000000  1
  Mo  Mo12  1  0.894788  0.116326  0.355263  1
  Mo  Mo13  1  0.894788  0.383674  0.644737  1
  Mo  Mo14  1  0.605212  0.616326  0.144737  1
  Mo  Mo15  1  0.605212  0.883674  0.855263  1
  Mo  Mo16  1  0.105212  0.883674  0.644737  1
  Mo  Mo17  1  0.105212  0.616326  0.355263  1
  Mo  Mo18  1  0.394788  0.383674  0.855263  1
  Mo  Mo19  1  0.394788  0.116326  0.144737  1
  O  O20  1  0.359780  0.298094  0.168698  1
  O  O21  1  0.359780  0.201906  0.831302  1
  O  O22  1  0.140220  0.798094  0.331302  1
  O  O23  1  0.140220  0.701906  0.668698  1
  O  O24  1  0.640220  0.701906  0.831302  1
  O  O25  1  0.640220  0.798094  0.168698  1
  O  O26  1  0.859780  0.201906  0.668698  1
  O  O27  1  0.859780  0.298094  0.331302  1
  O  O28  1  0.320579  0.070371  0.024653  1
  O  O29  1  0.320579  0.429629  0.975347  1
  O  O30  1  0.179421  0.570371  0.475347  1
  O  O31  1  0.179421  0.929629  0.524653  1
  O  O32  1  0.679421  0.929629  0.975347  1
  O  O33  1  0.679421  0.570371  0.024653  1
  O  O34  1  0.820579  0.429629  0.524653  1
  O  O35  1  0.820579  0.070371  0.475347  1
  O  O36  1  0.916660  0.661775  0.909538  1
  O  O37  1  0.083340  0.161775  0.909538  1
  O  O38  1  0.416660  0.838225  0.409538  1
  O  O39  1  0.416660  0.661775  0.590462  1
  O  O40  1  0.582565  0.090873  0.141566  1
  O  O41  1  0.582565  0.409127  0.858434  1
  O  O42  1  0.917435  0.590873  0.358434  1
  O  O43  1  0.917435  0.909127  0.641566  1
  O  O44  1  0.417435  0.909127  0.858434  1
  O  O45  1  0.417435  0.590873  0.141566  1
  O  O46  1  0.082565  0.409127  0.641566  1
  O  O47  1  0.082565  0.090873  0.358434  1
  O  O48  1  0.864627  0.126869  0.066197  1
  O  O49  1  0.864627  0.373131  0.933803  1
  O  O50  1  0.635373  0.626869  0.433803  1
  O  O51  1  0.635373  0.873131  0.566197  1
  O  O52  1  0.135373  0.873131  0.933803  1
  O  O53  1  0.135373  0.626869  0.066197  1
  O  O54  1  0.364627  0.373131  0.566197  1
  O  O55  1  0.364627  0.126869  0.433803  1
  O  O56  1  0.817801  0.007636  0.258933  1
  O  O57  1  0.817801  0.492364  0.741067  1
  O  O58  1  0.682199  0.507636  0.241067  1
  O  O59  1  0.682199  0.992364  0.758933  1
  O  O60  1  0.182199  0.992364  0.741067  1
  O  O61  1  0.182199  0.507636  0.258933  1
  O  O62  1  0.317801  0.492364  0.758933  1
  O  O63  1  0.317801  0.007636  0.241067  1
  O  O64  1  0.583340  0.338225  0.409538  1
  O  O65  1  0.583340  0.161775  0.590462  1
  O  O66  1  0.916660  0.838225  0.090462  1
  O  O67  1  0.083340  0.338225  0.090462  1
