# generated using pymatgen
data_Mn2Au5
_symmetry_space_group_name_H-M   'P 1'
_cell_length_a   5.04941117
_cell_length_b   5.04941117
_cell_length_c   6.63498506
_cell_angle_alpha   83.52861833
_cell_angle_beta   96.47138167
_cell_angle_gamma   134.09639368
_symmetry_Int_Tables_number   1
_chemical_formula_structural   Mn2Au5
_chemical_formula_sum   'Mn2 Au5'
_cell_volume   120.57882770
_cell_formula_units_Z   1
loop_
 _symmetry_equiv_pos_site_id
 _symmetry_equiv_pos_as_xyz
  1  'x, y, z'
loop_
 _atom_site_type_symbol
 _atom_site_label
 _atom_site_symmetry_multiplicity
 _atom_site_fract_x
 _atom_site_fract_y
 _atom_site_fract_z
 _atom_site_occupancy
  Mn  Mn0  1  0.424211  0.575789  0.281277  1
  Mn  Mn1  1  0.575789  0.424211  0.718723  1
  Au  Au2  1  0.137103  0.862897  0.433067  1
  Au  Au3  1  0.286268  0.713732  0.854718  1
  Au  Au4  1  0.713732  0.286268  0.145282  1
  Au  Au5  1  0.862897  0.137103  0.566933  1
  Au  Au6  1  0.000000  0.000000  0.000000  1
