# generated using pymatgen
data_AsI5F6
_symmetry_space_group_name_H-M   'P 1'
_cell_length_a   10.75618557
_cell_length_b   10.75618557
_cell_length_c   8.90488879
_cell_angle_alpha   72.38608942
_cell_angle_beta   107.61391058
_cell_angle_gamma   60.21083922
_symmetry_Int_Tables_number   1
_chemical_formula_structural   AsI5F6
_chemical_formula_sum   'As2 I10 F12'
_cell_volume   713.08412153
_cell_formula_units_Z   2
loop_
 _symmetry_equiv_pos_site_id
 _symmetry_equiv_pos_as_xyz
  1  'x, y, z'
loop_
 _atom_site_type_symbol
 _atom_site_label
 _atom_site_symmetry_multiplicity
 _atom_site_fract_x
 _atom_site_fract_y
 _atom_site_fract_z
 _atom_site_occupancy
  As  As0  1  0.906446  0.906446  0.750000  1
  As  As1  1  0.093554  0.093554  0.250000  1
  I  I2  1  0.612532  0.170282  0.060291  1
  I  I3  1  0.500000  0.500000  0.500000  1
  I  I4  1  0.387468  0.829718  0.939709  1
  I  I5  1  0.829718  0.387468  0.560291  1
  I  I6  1  0.500000  0.500000  0.000000  1
  I  I7  1  0.170282  0.612532  0.439709  1
  I  I8  1  0.648129  0.802603  0.931921  1
  I  I9  1  0.802603  0.648129  0.568079  1
  I  I10  1  0.351871  0.197397  0.068079  1
  I  I11  1  0.197397  0.351871  0.431921  1
  F  F12  1  0.049521  0.274873  0.078174  1
  F  F13  1  0.274873  0.049521  0.421826  1
  F  F14  1  0.950479  0.725127  0.921826  1
  F  F15  1  0.725127  0.950479  0.578174  1
  F  F16  1  0.909217  0.143137  0.078741  1
  F  F17  1  0.143137  0.909217  0.421259  1
  F  F18  1  0.031717  0.779126  0.685804  1
  F  F19  1  0.856863  0.090783  0.578741  1
  F  F20  1  0.220874  0.968283  0.185804  1
  F  F21  1  0.968283  0.220874  0.314196  1
  F  F22  1  0.779126  0.031717  0.814196  1
  F  F23  1  0.090783  0.856863  0.921259  1
