# generated using pymatgen
data_Zn3Ga4Pd7
_symmetry_space_group_name_H-M   'P 1'
_cell_length_a   6.95678957
_cell_length_b   6.95678957
_cell_length_c   6.95678957
_cell_angle_alpha   113.65112379
_cell_angle_beta   113.65112379
_cell_angle_gamma   113.65112379
_symmetry_Int_Tables_number   1
_chemical_formula_structural   Zn3Ga4Pd7
_chemical_formula_sum   'Zn3 Ga4 Pd7'
_cell_volume   209.74102528
_cell_formula_units_Z   1
loop_
 _symmetry_equiv_pos_site_id
 _symmetry_equiv_pos_as_xyz
  1  'x, y, z'
loop_
 _atom_site_type_symbol
 _atom_site_label
 _atom_site_symmetry_multiplicity
 _atom_site_fract_x
 _atom_site_fract_y
 _atom_site_fract_z
 _atom_site_occupancy
  Zn  Zn0  1  0.365983  0.547686  0.105840  1
  Zn  Zn1  1  0.105840  0.365983  0.547686  1
  Zn  Zn2  1  0.547686  0.105840  0.365983  1
  Ga  Ga3  1  0.890886  0.634759  0.464248  1
  Ga  Ga4  1  0.464248  0.890886  0.634759  1
  Ga  Ga5  1  0.634759  0.464248  0.890886  1
  Ga  Ga6  1  0.022390  0.022390  0.022390  1
  Pd  Pd7  1  0.032321  0.623468  0.868523  1
  Pd  Pd8  1  0.139737  0.967202  0.394708  1
  Pd  Pd9  1  0.967202  0.394708  0.139737  1
  Pd  Pd10  1  0.394708  0.139737  0.967202  1
  Pd  Pd11  1  0.868523  0.032321  0.623468  1
  Pd  Pd12  1  0.503250  0.503250  0.503250  1
  Pd  Pd13  1  0.623468  0.868523  0.032321  1
