# generated using pymatgen
data_Pr3NF6
_symmetry_space_group_name_H-M   'P 1'
_cell_length_a   4.02677898
_cell_length_b   5.98319318
_cell_length_c   7.15263781
_cell_angle_alpha   114.20350069
_cell_angle_beta   104.45057069
_cell_angle_gamma   89.66806461
_symmetry_Int_Tables_number   1
_chemical_formula_structural   Pr3NF6
_chemical_formula_sum   'Pr3 N1 F6'
_cell_volume   151.29583702
_cell_formula_units_Z   1
loop_
 _symmetry_equiv_pos_site_id
 _symmetry_equiv_pos_as_xyz
  1  'x, y, z'
loop_
 _atom_site_type_symbol
 _atom_site_label
 _atom_site_symmetry_multiplicity
 _atom_site_fract_x
 _atom_site_fract_y
 _atom_site_fract_z
 _atom_site_occupancy
  Pr  Pr0  1  0.041182  0.962742  0.000417  1
  Pr  Pr1  1  0.661000  0.654695  0.308470  1
  Pr  Pr2  1  0.320295  0.355872  0.692477  1
  N  N3  1  0.554879  0.723900  0.000778  1
  F  F4  1  0.192903  0.929953  0.354998  1
  F  F5  1  0.702466  0.352921  0.488613  1
  F  F6  1  0.126238  0.408429  0.252136  1
  F  F7  1  0.495786  0.239745  0.994365  1
  F  F8  1  0.125750  0.728630  0.643380  1
  F  F9  1  0.831501  0.117113  0.712366  1
