# generated using pymatgen
data_Tl2TeBr6
_symmetry_space_group_name_H-M   'P 1'
_cell_length_a   7.62599315
_cell_length_b   7.62599315
_cell_length_c   11.19473400
_cell_angle_alpha   90.00000000
_cell_angle_beta   90.00000000
_cell_angle_gamma   90.00000000
_symmetry_Int_Tables_number   1
_chemical_formula_structural   Tl2TeBr6
_chemical_formula_sum   'Tl4 Te2 Br12'
_cell_volume   651.03839277
_cell_formula_units_Z   2
loop_
 _symmetry_equiv_pos_site_id
 _symmetry_equiv_pos_as_xyz
  1  'x, y, z'
loop_
 _atom_site_type_symbol
 _atom_site_label
 _atom_site_symmetry_multiplicity
 _atom_site_fract_x
 _atom_site_fract_y
 _atom_site_fract_z
 _atom_site_occupancy
  Tl  Tl0  1  0.500000  0.000000  0.750000  1
  Tl  Tl1  1  0.000000  0.500000  0.750000  1
  Tl  Tl2  1  0.500000  0.000000  0.250000  1
  Tl  Tl3  1  0.000000  0.500000  0.250000  1
  Te  Te4  1  0.500000  0.500000  0.500000  1
  Te  Te5  1  0.000000  0.000000  0.000000  1
  Br  Br6  1  0.199006  0.304630  0.500000  1
  Br  Br7  1  0.800994  0.695370  0.500000  1
  Br  Br8  1  0.804630  0.699006  0.000000  1
  Br  Br9  1  0.304630  0.800994  0.500000  1
  Br  Br10  1  0.695370  0.199006  0.500000  1
  Br  Br11  1  0.300994  0.804630  0.000000  1
  Br  Br12  1  0.000000  0.000000  0.244781  1
  Br  Br13  1  0.500000  0.500000  0.255219  1
  Br  Br14  1  0.000000  0.000000  0.755219  1
  Br  Br15  1  0.500000  0.500000  0.744781  1
  Br  Br16  1  0.195370  0.300994  0.000000  1
  Br  Br17  1  0.699006  0.195370  0.000000  1
