# generated using pymatgen
data_Cr(PO3)4
_symmetry_space_group_name_H-M   'P 1'
_cell_length_a   10.41979859
_cell_length_b   10.41979859
_cell_length_c   5.15426834
_cell_angle_alpha   83.22982888
_cell_angle_beta   96.77017112
_cell_angle_gamma   107.70301507
_symmetry_Int_Tables_number   1
_chemical_formula_structural   Cr(PO3)4
_chemical_formula_sum   'Cr2 P8 O24'
_cell_volume   527.39834698
_cell_formula_units_Z   2
loop_
 _symmetry_equiv_pos_site_id
 _symmetry_equiv_pos_as_xyz
  1  'x, y, z'
loop_
 _atom_site_type_symbol
 _atom_site_label
 _atom_site_symmetry_multiplicity
 _atom_site_fract_x
 _atom_site_fract_y
 _atom_site_fract_z
 _atom_site_occupancy
  Cr  Cr0  1  0.500000  1.000000  0.000000  1
  Cr  Cr1  1  1.000000  0.500000  0.000000  1
  P  P2  1  0.941522  0.302247  0.528597  1
  P  P3  1  0.058478  0.697753  0.471403  1
  P  P4  1  0.363327  0.213031  0.184567  1
  P  P5  1  0.697753  0.058478  0.528597  1
  P  P6  1  0.786969  0.636672  0.184567  1
  P  P7  1  0.302247  0.941522  0.471403  1
  P  P8  1  0.213031  0.363328  0.815433  1
  P  P9  1  0.636672  0.786969  0.815433  1
  O  O10  1  0.233207  0.233207  0.000000  1
  O  O11  1  0.601665  0.090066  0.690921  1
  O  O12  1  0.560868  0.666597  0.670477  1
  O  O13  1  0.398335  0.909934  0.309079  1
  O  O14  1  0.439132  0.333403  0.329523  1
  O  O15  1  0.912576  0.717508  0.379043  1
  O  O16  1  0.163114  0.445224  0.984570  1
  O  O17  1  0.445224  0.163114  0.015430  1
  O  O18  1  0.554776  0.836886  0.984570  1
  O  O19  1  0.836886  0.554776  0.015430  1
  O  O20  1  0.927500  0.331684  0.235523  1
  O  O21  1  0.087424  0.282492  0.620957  1
  O  O22  1  0.090066  0.601665  0.309079  1
  O  O23  1  0.333403  0.439132  0.670477  1
  O  O24  1  0.666597  0.560868  0.329523  1
  O  O25  1  0.282492  0.087424  0.379043  1
  O  O26  1  0.150482  0.849518  0.401416  1
  O  O27  1  0.849518  0.150482  0.598584  1
  O  O28  1  0.331684  0.927500  0.764477  1
  O  O29  1  0.766793  0.766793  0.000000  1
  O  O30  1  0.909934  0.398335  0.690921  1
  O  O31  1  0.072500  0.668316  0.764477  1
  O  O32  1  0.668316  0.072500  0.235523  1
  O  O33  1  0.717508  0.912576  0.620957  1
