# generated using pymatgen
data_LiCo(PO3)3
_symmetry_space_group_name_H-M   'P 1'
_cell_length_a   8.46288159
_cell_length_b   8.64245640
_cell_length_c   8.76320658
_cell_angle_alpha   90.00000000
_cell_angle_beta   90.00000000
_cell_angle_gamma   90.00000000
_symmetry_Int_Tables_number   1
_chemical_formula_structural   LiCo(PO3)3
_chemical_formula_sum   'Li4 Co4 P12 O36'
_cell_volume   640.94167554
_cell_formula_units_Z   4
loop_
 _symmetry_equiv_pos_site_id
 _symmetry_equiv_pos_as_xyz
  1  'x, y, z'
loop_
 _atom_site_type_symbol
 _atom_site_label
 _atom_site_symmetry_multiplicity
 _atom_site_fract_x
 _atom_site_fract_y
 _atom_site_fract_z
 _atom_site_occupancy
  Li  Li0  1  0.152273  0.135020  0.384643  1
  Li  Li1  1  0.847727  0.635020  0.115357  1
  Li  Li2  1  0.652273  0.364980  0.615357  1
  Li  Li3  1  0.347727  0.864980  0.884643  1
  Co  Co4  1  0.871319  0.355080  0.340357  1
  Co  Co5  1  0.628681  0.644920  0.840357  1
  Co  Co6  1  0.371319  0.144920  0.659643  1
  Co  Co7  1  0.128681  0.855080  0.159643  1
  P  P8  1  0.686148  0.021031  0.811124  1
  P  P9  1  0.702181  0.690419  0.439622  1
  P  P10  1  0.797819  0.309581  0.939622  1
  P  P11  1  0.813852  0.978969  0.311124  1
  P  P12  1  0.029718  0.320764  0.682607  1
  P  P13  1  0.186148  0.478969  0.188876  1
  P  P14  1  0.202181  0.809581  0.560378  1
  P  P15  1  0.297819  0.190419  0.060378  1
  P  P16  1  0.970282  0.820764  0.817393  1
  P  P17  1  0.470282  0.679236  0.182607  1
  P  P18  1  0.529718  0.179236  0.317393  1
  P  P19  1  0.313852  0.521031  0.688876  1
  O  O20  1  0.602805  0.627508  0.080624  1
  O  O21  1  0.897195  0.372492  0.580624  1
  O  O22  1  0.909517  0.113564  0.368278  1
  O  O23  1  0.959716  0.274387  0.846501  1
  O  O24  1  0.040284  0.774387  0.653499  1
  O  O25  1  0.090483  0.613564  0.131722  1
  O  O26  1  0.102805  0.872492  0.919376  1
  O  O27  1  0.118419  0.384298  0.318272  1
  O  O28  1  0.133534  0.192594  0.623551  1
  O  O29  1  0.139418  0.464551  0.735786  1
  O  O30  1  0.159087  0.862423  0.403332  1
  O  O31  1  0.189611  0.091594  0.155826  1
  O  O32  1  0.226007  0.363740  0.048251  1
  O  O33  1  0.273993  0.636260  0.548251  1
  O  O34  1  0.310389  0.908406  0.655826  1
  O  O35  1  0.340913  0.137577  0.903332  1
  O  O36  1  0.360582  0.535449  0.235786  1
  O  O37  1  0.366466  0.807406  0.123551  1
  O  O38  1  0.381581  0.615702  0.818272  1
  O  O39  1  0.397195  0.127508  0.419376  1
  O  O40  1  0.409517  0.386436  0.631722  1
  O  O41  1  0.866466  0.692594  0.876449  1
  O  O42  1  0.540284  0.725613  0.346501  1
  O  O43  1  0.590483  0.886436  0.868278  1
  O  O44  1  0.459716  0.225613  0.153499  1
  O  O45  1  0.618419  0.115702  0.681728  1
  O  O46  1  0.633534  0.307406  0.376449  1
  O  O47  1  0.639418  0.035449  0.264214  1
  O  O48  1  0.659087  0.637577  0.596668  1
  O  O49  1  0.689611  0.408406  0.844174  1
  O  O50  1  0.726007  0.136260  0.951749  1
  O  O51  1  0.773993  0.863740  0.451749  1
  O  O52  1  0.810389  0.591594  0.344174  1
  O  O53  1  0.840913  0.362423  0.096668  1
  O  O54  1  0.860582  0.964551  0.764214  1
  O  O55  1  0.881581  0.884298  0.181728  1
