# generated using pymatgen
data_Li2Mn15O32
_symmetry_space_group_name_H-M   'P 1'
_cell_length_a   19.51927633
_cell_length_b   19.51927633
_cell_length_c   19.51927633
_cell_angle_alpha   17.15726826
_cell_angle_beta   17.15726826
_cell_angle_gamma   17.15726826
_symmetry_Int_Tables_number   1
_chemical_formula_structural   Li2Mn15O32
_chemical_formula_sum   'Li2 Mn15 O32'
_cell_volume   564.65780659
_cell_formula_units_Z   1
loop_
 _symmetry_equiv_pos_site_id
 _symmetry_equiv_pos_as_xyz
  1  'x, y, z'
loop_
 _atom_site_type_symbol
 _atom_site_label
 _atom_site_symmetry_multiplicity
 _atom_site_fract_x
 _atom_site_fract_y
 _atom_site_fract_z
 _atom_site_occupancy
  Li  Li0  1  0.156510  0.156510  0.156510  1
  Li  Li1  1  0.844711  0.844711  0.844711  1
  Mn  Mn2  1  0.623189  0.623189  0.132469  1
  Mn  Mn3  1  0.623189  0.132469  0.623189  1
  Mn  Mn4  1  0.871148  0.871148  0.379886  1
  Mn  Mn5  1  0.132469  0.623189  0.623189  1
  Mn  Mn6  1  0.871148  0.379886  0.871148  1
  Mn  Mn7  1  0.124960  0.124960  0.624294  1
  Mn  Mn8  1  0.999522  0.999522  0.999522  1
  Mn  Mn9  1  0.094766  0.094766  0.094766  1
  Mn  Mn10  1  0.379886  0.871148  0.871148  1
  Mn  Mn11  1  0.124960  0.624294  0.124960  1
  Mn  Mn12  1  0.377194  0.377194  0.870212  1
  Mn  Mn13  1  0.624294  0.124960  0.124960  1
  Mn  Mn14  1  0.249698  0.249698  0.249698  1
  Mn  Mn15  1  0.377194  0.870212  0.377194  1
  Mn  Mn16  1  0.870212  0.377194  0.377194  1
  O  O17  1  0.319061  0.790077  0.319061  1
  O  O18  1  0.441930  0.441930  0.441930  1
  O  O19  1  0.790077  0.319061  0.319061  1
  O  O20  1  0.319061  0.319061  0.790077  1
  O  O21  1  0.574582  0.025741  0.574582  1
  O  O22  1  0.928850  0.928850  0.464429  1
  O  O23  1  0.689927  0.689927  0.689927  1
  O  O24  1  0.025741  0.574582  0.574582  1
  O  O25  1  0.809861  0.809861  0.809861  1
  O  O26  1  0.464429  0.928850  0.928850  1
  O  O27  1  0.574582  0.574582  0.025741  1
  O  O28  1  0.928850  0.464429  0.928850  1
  O  O29  1  0.831002  0.270996  0.831002  1
  O  O30  1  0.167983  0.167983  0.729038  1
  O  O31  1  0.941185  0.941185  0.941185  1
  O  O32  1  0.270996  0.831002  0.831002  1
  O  O33  1  0.059279  0.059279  0.059279  1
  O  O34  1  0.729038  0.167983  0.167983  1
  O  O35  1  0.831002  0.831002  0.270996  1
  O  O36  1  0.167983  0.729038  0.167983  1
  O  O37  1  0.082281  0.519095  0.082281  1
  O  O38  1  0.418832  0.418832  0.978402  1
  O  O39  1  0.190740  0.190740  0.190740  1
  O  O40  1  0.308391  0.308391  0.308391  1
  O  O41  1  0.519095  0.082282  0.082282  1
  O  O42  1  0.978402  0.418832  0.418832  1
  O  O43  1  0.082282  0.082282  0.519095  1
  O  O44  1  0.418832  0.978402  0.418832  1
  O  O45  1  0.683955  0.683955  0.207633  1
  O  O46  1  0.558886  0.558886  0.558886  1
  O  O47  1  0.207633  0.683955  0.683955  1
  O  O48  1  0.683955  0.207633  0.683955  1
