# generated using pymatgen
data_Ti(NO3)4
_symmetry_space_group_name_H-M   'P 1'
_cell_length_a   8.01882961
_cell_length_b   14.04337656
_cell_length_c   10.72951305
_cell_angle_alpha   90.00000000
_cell_angle_beta   125.09493000
_cell_angle_gamma   90.00000000
_symmetry_Int_Tables_number   1
_chemical_formula_structural   Ti(NO3)4
_chemical_formula_sum   'Ti4 N16 O48'
_cell_volume   988.60392434
_cell_formula_units_Z   4
loop_
 _symmetry_equiv_pos_site_id
 _symmetry_equiv_pos_as_xyz
  1  'x, y, z'
loop_
 _atom_site_type_symbol
 _atom_site_label
 _atom_site_symmetry_multiplicity
 _atom_site_fract_x
 _atom_site_fract_y
 _atom_site_fract_z
 _atom_site_occupancy
  Ti  Ti0  1  0.680898  0.670858  0.461434  1
  Ti  Ti1  1  0.319102  0.170858  0.038566  1
  Ti  Ti2  1  0.319102  0.329142  0.538566  1
  Ti  Ti3  1  0.680898  0.829142  0.961434  1
  N  N4  1  0.982686  0.932334  0.152783  1
  N  N5  1  0.373416  0.740667  0.440517  1
  N  N6  1  0.626584  0.240667  0.059483  1
  N  N7  1  0.626584  0.259333  0.559483  1
  N  N8  1  0.373416  0.759333  0.940517  1
  N  N9  1  0.017314  0.432334  0.347217  1
  N  N10  1  0.017314  0.067666  0.847217  1
  N  N11  1  0.982686  0.567666  0.652783  1
  N  N12  1  0.893412  0.679360  0.028318  1
  N  N13  1  0.106588  0.179360  0.471682  1
  N  N14  1  0.106588  0.320640  0.971682  1
  N  N15  1  0.893412  0.820640  0.528318  1
  N  N16  1  0.499876  0.944764  0.738730  1
  N  N17  1  0.500124  0.444764  0.761270  1
  N  N18  1  0.500124  0.055236  0.261270  1
  N  N19  1  0.499876  0.555236  0.238730  1
  O  O20  1  0.414014  0.134020  0.260806  1
  O  O21  1  0.229258  0.724059  0.930566  1
  O  O22  1  0.770742  0.224059  0.569434  1
  O  O23  1  0.770742  0.275941  0.069434  1
  O  O24  1  0.832294  0.912602  0.161965  1
  O  O25  1  0.167706  0.412602  0.338035  1
  O  O26  1  0.167706  0.087398  0.838035  1
  O  O27  1  0.832294  0.587398  0.661965  1
  O  O28  1  0.956056  0.893890  0.030493  1
  O  O29  1  0.043944  0.393890  0.469507  1
  O  O30  1  0.043944  0.106110  0.969507  1
  O  O31  1  0.956056  0.606110  0.530493  1
  O  O32  1  0.129051  0.979404  0.243740  1
  O  O33  1  0.870949  0.479404  0.256260  1
  O  O34  1  0.870949  0.020596  0.756260  1
  O  O35  1  0.129051  0.520596  0.743740  1
  O  O36  1  0.850537  0.720606  0.116928  1
  O  O37  1  0.149463  0.220606  0.383072  1
  O  O38  1  0.149463  0.279394  0.883072  1
  O  O39  1  0.850537  0.779394  0.616928  1
  O  O40  1  0.801603  0.721681  0.897176  1
  O  O41  1  0.198397  0.221681  0.602824  1
  O  O42  1  0.198397  0.278319  0.102824  1
  O  O43  1  0.801603  0.778319  0.397176  1
  O  O44  1  0.005604  0.611985  0.066195  1
  O  O45  1  0.994396  0.111985  0.433805  1
  O  O46  1  0.994396  0.388015  0.933805  1
  O  O47  1  0.005604  0.888015  0.566195  1
  O  O48  1  0.585986  0.865980  0.739194  1
  O  O49  1  0.414014  0.365980  0.760806  1
  O  O50  1  0.229258  0.775941  0.430566  1
  O  O51  1  0.585986  0.634021  0.239194  1
  O  O52  1  0.519929  0.956089  0.868289  1
  O  O53  1  0.480071  0.456089  0.631711  1
  O  O54  1  0.480071  0.043911  0.131711  1
  O  O55  1  0.500976  0.681982  0.546622  1
  O  O56  1  0.413670  0.999784  0.634041  1
  O  O57  1  0.586330  0.499784  0.865959  1
  O  O58  1  0.586330  0.000216  0.365959  1
  O  O59  1  0.413670  0.500216  0.134041  1
  O  O60  1  0.421280  0.742668  0.843994  1
  O  O61  1  0.578720  0.242668  0.656006  1
  O  O62  1  0.578720  0.257332  0.156006  1
  O  O63  1  0.421280  0.757332  0.343994  1
  O  O64  1  0.500976  0.818018  0.046622  1
  O  O65  1  0.499024  0.318018  0.453378  1
  O  O66  1  0.499024  0.181982  0.953378  1
  O  O67  1  0.519929  0.543911  0.368289  1
