# generated using pymatgen
data_Er3Al2
_symmetry_space_group_name_H-M   'P 1'
_cell_length_a   8.15944410
_cell_length_b   8.15944410
_cell_length_c   7.53665444
_cell_angle_alpha   90.00000000
_cell_angle_beta   90.00000000
_cell_angle_gamma   90.00000000
_symmetry_Int_Tables_number   1
_chemical_formula_structural   Er3Al2
_chemical_formula_sum   'Er12 Al8'
_cell_volume   501.76428551
_cell_formula_units_Z   4
loop_
 _symmetry_equiv_pos_site_id
 _symmetry_equiv_pos_as_xyz
  1  'x, y, z'
loop_
 _atom_site_type_symbol
 _atom_site_label
 _atom_site_symmetry_multiplicity
 _atom_site_fract_x
 _atom_site_fract_y
 _atom_site_fract_z
 _atom_site_occupancy
  Er  Er0  1  0.500000  0.000000  0.250000  1
  Er  Er1  1  0.500000  0.000000  0.750000  1
  Er  Er2  1  0.000000  0.500000  0.250000  1
  Er  Er3  1  0.000000  0.500000  0.750000  1
  Er  Er4  1  0.150914  0.150914  0.000000  1
  Er  Er5  1  0.650914  0.349086  0.500000  1
  Er  Er6  1  0.349086  0.650914  0.500000  1
  Er  Er7  1  0.849086  0.849086  0.000000  1
  Er  Er8  1  0.298640  0.701360  0.000000  1
  Er  Er9  1  0.201360  0.201360  0.500000  1
  Er  Er10  1  0.798640  0.798640  0.500000  1
  Er  Er11  1  0.701360  0.298640  0.000000  1
  Al  Al12  1  0.380665  0.380665  0.196977  1
  Al  Al13  1  0.880665  0.119335  0.696977  1
  Al  Al14  1  0.119335  0.880665  0.696977  1
  Al  Al15  1  0.619335  0.619335  0.196977  1
  Al  Al16  1  0.119335  0.880665  0.303023  1
  Al  Al17  1  0.880665  0.119335  0.303023  1
  Al  Al18  1  0.380665  0.380665  0.803023  1
  Al  Al19  1  0.619335  0.619335  0.803023  1
