# generated using pymatgen
data_Li2Fe2(MoO4)3
_symmetry_space_group_name_H-M   'P 1'
_cell_length_a   9.48097564
_cell_length_b   9.66914096
_cell_length_c   13.21034794
_cell_angle_alpha   90.00000000
_cell_angle_beta   90.00000000
_cell_angle_gamma   90.00000000
_symmetry_Int_Tables_number   1
_chemical_formula_structural   Li2Fe2(MoO4)3
_chemical_formula_sum   'Li8 Fe8 Mo12 O48'
_cell_volume   1211.03077226
_cell_formula_units_Z   4
loop_
 _symmetry_equiv_pos_site_id
 _symmetry_equiv_pos_as_xyz
  1  'x, y, z'
loop_
 _atom_site_type_symbol
 _atom_site_label
 _atom_site_symmetry_multiplicity
 _atom_site_fract_x
 _atom_site_fract_y
 _atom_site_fract_z
 _atom_site_occupancy
  Li  Li0  1  0.233716  0.277280  0.810132  1
  Li  Li1  1  0.733716  0.222720  0.689868  1
  Li  Li2  1  0.266284  0.277280  0.189868  1
  Li  Li3  1  0.766284  0.222720  0.310132  1
  Li  Li4  1  0.766284  0.722720  0.189868  1
  Li  Li5  1  0.266284  0.777280  0.310132  1
  Li  Li6  1  0.733716  0.722720  0.810132  1
  Li  Li7  1  0.233716  0.777280  0.689868  1
  Fe  Fe8  1  0.034837  0.253838  0.621952  1
  Fe  Fe9  1  0.534837  0.246162  0.878048  1
  Fe  Fe10  1  0.465163  0.253838  0.378048  1
  Fe  Fe11  1  0.965163  0.246162  0.121952  1
  Fe  Fe12  1  0.965163  0.746162  0.378048  1
  Fe  Fe13  1  0.465163  0.753838  0.121952  1
  Fe  Fe14  1  0.534837  0.746162  0.621952  1
  Fe  Fe15  1  0.034837  0.753838  0.878048  1
  Mo  Mo16  1  0.397596  0.097191  0.643013  1
  Mo  Mo17  1  0.897596  0.402809  0.856987  1
  Mo  Mo18  1  0.102404  0.097191  0.356987  1
  Mo  Mo19  1  0.602404  0.402809  0.143013  1
  Mo  Mo20  1  0.602404  0.902809  0.356987  1
  Mo  Mo21  1  0.102404  0.597191  0.143013  1
  Mo  Mo22  1  0.897596  0.902809  0.643013  1
  Mo  Mo23  1  0.397596  0.597191  0.856987  1
  Mo  Mo24  1  0.250000  0.037006  0.000000  1
  Mo  Mo25  1  0.750000  0.462994  0.500000  1
  Mo  Mo26  1  0.750000  0.962994  0.000000  1
  Mo  Mo27  1  0.250000  0.537006  0.500000  1
  O  O28  1  0.230900  0.170967  0.679845  1
  O  O29  1  0.730900  0.329033  0.820155  1
  O  O30  1  0.269100  0.170967  0.320155  1
  O  O31  1  0.769100  0.329033  0.179845  1
  O  O32  1  0.769100  0.829033  0.320155  1
  O  O33  1  0.269100  0.670967  0.179845  1
  O  O34  1  0.730900  0.829033  0.679845  1
  O  O35  1  0.230900  0.670967  0.820155  1
  O  O36  1  0.432090  0.141073  0.515403  1
  O  O37  1  0.932090  0.358927  0.984597  1
  O  O38  1  0.067910  0.141073  0.484597  1
  O  O39  1  0.567910  0.358927  0.015403  1
  O  O40  1  0.567910  0.858927  0.484597  1
  O  O41  1  0.067910  0.641073  0.015403  1
  O  O42  1  0.932090  0.858927  0.515403  1
  O  O43  1  0.432090  0.641073  0.984597  1
  O  O44  1  0.124549  0.431112  0.563751  1
  O  O45  1  0.624549  0.068888  0.936249  1
  O  O46  1  0.375451  0.431112  0.436249  1
  O  O47  1  0.875451  0.068888  0.063751  1
  O  O48  1  0.875451  0.568888  0.436249  1
  O  O49  1  0.375451  0.931112  0.063751  1
  O  O50  1  0.624549  0.568888  0.563751  1
  O  O51  1  0.124549  0.931112  0.936249  1
  O  O52  1  0.535541  0.171347  0.719959  1
  O  O53  1  0.035541  0.328653  0.780041  1
  O  O54  1  0.964459  0.171347  0.280041  1
  O  O55  1  0.464459  0.328653  0.219959  1
  O  O56  1  0.464459  0.828653  0.280041  1
  O  O57  1  0.964459  0.671347  0.219959  1
  O  O58  1  0.035541  0.828653  0.719959  1
  O  O59  1  0.535541  0.671347  0.780041  1
  O  O60  1  0.332819  0.147707  0.906827  1
  O  O61  1  0.832819  0.352293  0.593173  1
  O  O62  1  0.167181  0.147707  0.093173  1
  O  O63  1  0.667181  0.352293  0.406827  1
  O  O64  1  0.667181  0.852293  0.093173  1
  O  O65  1  0.167181  0.647707  0.406827  1
  O  O66  1  0.832819  0.852293  0.906827  1
  O  O67  1  0.332819  0.647707  0.593173  1
  O  O68  1  0.392587  0.410935  0.838405  1
  O  O69  1  0.892587  0.089065  0.661595  1
  O  O70  1  0.107413  0.410935  0.161595  1
  O  O71  1  0.607413  0.089065  0.338405  1
  O  O72  1  0.607413  0.589065  0.161595  1
  O  O73  1  0.107413  0.910935  0.338405  1
  O  O74  1  0.892587  0.589065  0.838405  1
  O  O75  1  0.392587  0.910935  0.661595  1
