# generated using pymatgen
data_Na2CdSn
_symmetry_space_group_name_H-M   'P 1'
_cell_length_a   5.07901003
_cell_length_b   5.07901003
_cell_length_c   10.16318826
_cell_angle_alpha   90.00000000
_cell_angle_beta   90.00000000
_cell_angle_gamma   120.00000000
_symmetry_Int_Tables_number   1
_chemical_formula_structural   Na2CdSn
_chemical_formula_sum   'Na4 Cd2 Sn2'
_cell_volume   227.04855521
_cell_formula_units_Z   2
loop_
 _symmetry_equiv_pos_site_id
 _symmetry_equiv_pos_as_xyz
  1  'x, y, z'
loop_
 _atom_site_type_symbol
 _atom_site_label
 _atom_site_symmetry_multiplicity
 _atom_site_fract_x
 _atom_site_fract_y
 _atom_site_fract_z
 _atom_site_occupancy
  Na  Na0  1  0.666667  0.333333  0.581512  1
  Na  Na1  1  0.333333  0.666667  0.081512  1
  Na  Na2  1  0.666667  0.333333  0.918488  1
  Na  Na3  1  0.333333  0.666667  0.418488  1
  Cd  Cd4  1  0.000000  0.000000  0.750000  1
  Cd  Cd5  1  0.000000  0.000000  0.250000  1
  Sn  Sn6  1  0.333333  0.666667  0.750000  1
  Sn  Sn7  1  0.666667  0.333333  0.250000  1
