# generated using pymatgen
data_Co2RuO4
_symmetry_space_group_name_H-M   'P 1'
_cell_length_a   6.09183283
_cell_length_b   6.09183283
_cell_length_c   6.09183283
_cell_angle_alpha   122.30682177
_cell_angle_beta   120.52951030
_cell_angle_gamma   87.56791964
_symmetry_Int_Tables_number   1
_chemical_formula_structural   Co2RuO4
_chemical_formula_sum   'Co4 Ru2 O8'
_cell_volume   156.22684742
_cell_formula_units_Z   2
loop_
 _symmetry_equiv_pos_site_id
 _symmetry_equiv_pos_as_xyz
  1  'x, y, z'
loop_
 _atom_site_type_symbol
 _atom_site_label
 _atom_site_symmetry_multiplicity
 _atom_site_fract_x
 _atom_site_fract_y
 _atom_site_fract_z
 _atom_site_occupancy
  Co  Co0  1  0.635102  0.885102  0.750000  1
  Co  Co1  1  0.364898  0.114898  0.250000  1
  Co  Co2  1  0.500000  0.500000  0.000000  1
  Co  Co3  1  0.000000  0.500000  0.500000  1
  Ru  Ru4  1  0.000000  0.000000  0.500000  1
  Ru  Ru5  1  0.000000  0.500000  0.000000  1
  O  O6  1  0.240096  0.251853  0.988243  1
  O  O7  1  0.763610  0.251853  0.511757  1
  O  O8  1  0.227535  0.242768  0.515233  1
  O  O9  1  0.227535  0.712302  0.984767  1
  O  O10  1  0.772465  0.287698  0.015233  1
  O  O11  1  0.772465  0.757232  0.484767  1
  O  O12  1  0.236390  0.748147  0.488243  1
  O  O13  1  0.759904  0.748147  0.011757  1
