# generated using pymatgen
data_BrO2F
_symmetry_space_group_name_H-M   'P 1'
_cell_length_a   5.40075764
_cell_length_b   5.40075764
_cell_length_c   6.69900305
_cell_angle_alpha   65.57328416
_cell_angle_beta   114.42671584
_cell_angle_gamma   120.29601771
_symmetry_Int_Tables_number   1
_chemical_formula_structural   BrO2F
_chemical_formula_sum   'Br2 O4 F2'
_cell_volume   148.30086049
_cell_formula_units_Z   2
loop_
 _symmetry_equiv_pos_site_id
 _symmetry_equiv_pos_as_xyz
  1  'x, y, z'
loop_
 _atom_site_type_symbol
 _atom_site_label
 _atom_site_symmetry_multiplicity
 _atom_site_fract_x
 _atom_site_fract_y
 _atom_site_fract_z
 _atom_site_occupancy
  Br  Br0  1  0.722927  0.746531  0.248608  1
  Br  Br1  1  0.253469  0.277073  0.748608  1
  O  O2  1  0.926004  0.286931  0.632085  1
  O  O3  1  0.501191  0.573908  0.630046  1
  O  O4  1  0.713069  0.073996  0.132085  1
  O  O5  1  0.426092  0.498809  0.130046  1
  F  F6  1  0.208327  0.993479  0.625660  1
  F  F7  1  0.006521  0.791673  0.125660  1
