# generated using pymatgen
data_Rh3Se8
_symmetry_space_group_name_H-M   'P 1'
_cell_length_a   6.05396498
_cell_length_b   6.05644875
_cell_length_c   13.48963928
_cell_angle_alpha   90.00000000
_cell_angle_beta   115.84621478
_cell_angle_gamma   90.00000000
_symmetry_Int_Tables_number   1
_chemical_formula_structural   Rh3Se8
_chemical_formula_sum   'Rh6 Se16'
_cell_volume   445.12816641
_cell_formula_units_Z   2
loop_
 _symmetry_equiv_pos_site_id
 _symmetry_equiv_pos_as_xyz
  1  'x, y, z'
loop_
 _atom_site_type_symbol
 _atom_site_label
 _atom_site_symmetry_multiplicity
 _atom_site_fract_x
 _atom_site_fract_y
 _atom_site_fract_z
 _atom_site_occupancy
  Rh  Rh0  1  0.257200  0.993190  0.250804  1
  Rh  Rh1  1  0.742800  0.006810  0.749196  1
  Rh  Rh2  1  0.500000  0.000000  0.000000  1
  Rh  Rh3  1  0.742800  0.493190  0.249196  1
  Rh  Rh4  1  0.257200  0.506810  0.750804  1
  Rh  Rh5  1  0.500000  0.500000  0.500000  1
  Se  Se6  1  0.191955  0.116845  0.808140  1
  Se  Se7  1  0.689281  0.116312  0.310381  1
  Se  Se8  1  0.173043  0.114846  0.058522  1
  Se  Se9  1  0.673835  0.117430  0.556871  1
  Se  Se10  1  0.673835  0.382570  0.056871  1
  Se  Se11  1  0.689281  0.383688  0.810381  1
  Se  Se12  1  0.173043  0.385154  0.558522  1
  Se  Se13  1  0.191955  0.383155  0.308140  1
  Se  Se14  1  0.310719  0.616312  0.189619  1
  Se  Se15  1  0.326165  0.617430  0.943129  1
  Se  Se16  1  0.826957  0.614846  0.441478  1
  Se  Se17  1  0.808045  0.616845  0.691860  1
  Se  Se18  1  0.826957  0.885154  0.941478  1
  Se  Se19  1  0.808045  0.883155  0.191860  1
  Se  Se20  1  0.310719  0.883688  0.689619  1
  Se  Se21  1  0.326165  0.882570  0.443129  1
