# generated using pymatgen
data_Mg3(HO2)2
_symmetry_space_group_name_H-M   'P 1'
_cell_length_a   3.07281331
_cell_length_b   3.07281331
_cell_length_c   19.77834693
_cell_angle_alpha   90.00000000
_cell_angle_beta   90.00000000
_cell_angle_gamma   120.00000000
_symmetry_Int_Tables_number   1
_chemical_formula_structural   Mg3(HO2)2
_chemical_formula_sum   'Mg6 H4 O8'
_cell_volume   161.73088891
_cell_formula_units_Z   2
loop_
 _symmetry_equiv_pos_site_id
 _symmetry_equiv_pos_as_xyz
  1  'x, y, z'
loop_
 _atom_site_type_symbol
 _atom_site_label
 _atom_site_symmetry_multiplicity
 _atom_site_fract_x
 _atom_site_fract_y
 _atom_site_fract_z
 _atom_site_occupancy
  Mg  Mg0  1  0.666667  0.333333  0.249869  1
  Mg  Mg1  1  0.333333  0.666667  0.373673  1
  Mg  Mg2  1  0.666667  0.333333  0.626327  1
  Mg  Mg3  1  0.333333  0.666667  0.750131  1
  Mg  Mg4  1  0.000000  0.000000  0.874087  1
  Mg  Mg5  1  0.000000  0.000000  0.125913  1
  H  H6  1  0.333333  0.666667  0.976782  1
  H  H7  1  0.666667  0.333333  0.023218  1
  H  H8  1  0.666667  0.333333  0.476304  1
  H  H9  1  0.333333  0.666667  0.523696  1
  O  O10  1  0.333333  0.666667  0.927801  1
  O  O11  1  0.000000  0.000000  0.688356  1
  O  O12  1  0.666667  0.333333  0.427351  1
  O  O13  1  0.333333  0.666667  0.572649  1
  O  O14  1  0.666667  0.333333  0.072199  1
  O  O15  1  0.333333  0.666667  0.188074  1
  O  O16  1  0.000000  0.000000  0.311644  1
  O  O17  1  0.666667  0.333333  0.811926  1
