# generated using pymatgen
data_Na4SiSe4
_symmetry_space_group_name_H-M   'P 1'
_cell_length_a   7.21566859
_cell_length_b   9.31342122
_cell_length_c   14.44585691
_cell_angle_alpha   90.00000000
_cell_angle_beta   90.00000000
_cell_angle_gamma   90.00000000
_symmetry_Int_Tables_number   1
_chemical_formula_structural   Na4SiSe4
_chemical_formula_sum   'Na16 Si4 Se16'
_cell_volume   970.79857965
_cell_formula_units_Z   4
loop_
 _symmetry_equiv_pos_site_id
 _symmetry_equiv_pos_as_xyz
  1  'x, y, z'
loop_
 _atom_site_type_symbol
 _atom_site_label
 _atom_site_symmetry_multiplicity
 _atom_site_fract_x
 _atom_site_fract_y
 _atom_site_fract_z
 _atom_site_occupancy
  Na  Na0  1  0.000000  0.000000  0.000000  1
  Na  Na1  1  0.500000  0.000000  0.500000  1
  Na  Na2  1  0.000000  0.500000  0.000000  1
  Na  Na3  1  0.500000  0.500000  0.500000  1
  Na  Na4  1  0.996623  0.750000  0.454460  1
  Na  Na5  1  0.496623  0.250000  0.045540  1
  Na  Na6  1  0.003377  0.250000  0.545540  1
  Na  Na7  1  0.503377  0.750000  0.954460  1
  Na  Na8  1  0.859737  0.051652  0.267283  1
  Na  Na9  1  0.359737  0.948348  0.232717  1
  Na  Na10  1  0.140263  0.551652  0.732717  1
  Na  Na11  1  0.640263  0.448348  0.767283  1
  Na  Na12  1  0.140263  0.948348  0.732717  1
  Na  Na13  1  0.640263  0.051652  0.767283  1
  Na  Na14  1  0.859737  0.448348  0.267283  1
  Na  Na15  1  0.359737  0.551652  0.232717  1
  Si  Si16  1  0.779897  0.750000  0.164936  1
  Si  Si17  1  0.279897  0.250000  0.335064  1
  Si  Si18  1  0.220103  0.250000  0.835064  1
  Si  Si19  1  0.720103  0.750000  0.664936  1
  Se  Se20  1  0.657364  0.548908  0.095541  1
  Se  Se21  1  0.157364  0.451092  0.404459  1
  Se  Se22  1  0.342636  0.048908  0.904459  1
  Se  Se23  1  0.842636  0.951092  0.595541  1
  Se  Se24  1  0.342636  0.451092  0.904459  1
  Se  Se25  1  0.842636  0.548908  0.595541  1
  Se  Se26  1  0.657364  0.951092  0.095541  1
  Se  Se27  1  0.157364  0.048908  0.404459  1
  Se  Se28  1  0.684736  0.750000  0.317392  1
  Se  Se29  1  0.184736  0.250000  0.182608  1
  Se  Se30  1  0.315264  0.250000  0.682608  1
  Se  Se31  1  0.815264  0.750000  0.817392  1
  Se  Se32  1  0.094414  0.750000  0.139182  1
  Se  Se33  1  0.594414  0.250000  0.360818  1
  Se  Se34  1  0.905586  0.250000  0.860818  1
  Se  Se35  1  0.405586  0.750000  0.639182  1
