# generated using pymatgen
data_LaF3
_symmetry_space_group_name_H-M   'P 1'
_cell_length_a   7.24439650
_cell_length_b   7.24439650
_cell_length_c   7.39103277
_cell_angle_alpha   90.00000000
_cell_angle_beta   90.00000000
_cell_angle_gamma   120.00000000
_symmetry_Int_Tables_number   1
_chemical_formula_structural   LaF3
_chemical_formula_sum   'La6 F18'
_cell_volume   335.92334330
_cell_formula_units_Z   6
loop_
 _symmetry_equiv_pos_site_id
 _symmetry_equiv_pos_as_xyz
  1  'x, y, z'
loop_
 _atom_site_type_symbol
 _atom_site_label
 _atom_site_symmetry_multiplicity
 _atom_site_fract_x
 _atom_site_fract_y
 _atom_site_fract_z
 _atom_site_occupancy
  La  La0  1  0.326325  0.000000  0.750955  1
  La  La1  1  0.326325  0.326325  0.250955  1
  La  La2  1  0.000000  0.673675  0.250955  1
  La  La3  1  0.000000  0.326325  0.750955  1
  La  La4  1  0.673675  0.673675  0.750955  1
  La  La5  1  0.673675  0.000000  0.250955  1
  F  F6  1  0.666667  0.333333  0.208951  1
  F  F7  1  0.333333  0.666667  0.708951  1
  F  F8  1  0.666667  0.333333  0.708951  1
  F  F9  1  0.333333  0.666667  0.208951  1
  F  F10  1  0.000000  0.000000  0.820743  1
  F  F11  1  0.000000  0.000000  0.320743  1
  F  F12  1  0.277350  0.000000  0.081969  1
  F  F13  1  0.277350  0.277350  0.581969  1
  F  F14  1  0.000000  0.722650  0.581969  1
  F  F15  1  0.000000  0.277350  0.081969  1
  F  F16  1  0.722650  0.722650  0.081969  1
  F  F17  1  0.722650  0.000000  0.581969  1
  F  F18  1  0.379520  0.000000  0.422328  1
  F  F19  1  0.379520  0.379520  0.922328  1
  F  F20  1  0.000000  0.620480  0.922328  1
  F  F21  1  0.000000  0.379520  0.422328  1
  F  F22  1  0.620480  0.620480  0.422328  1
  F  F23  1  0.620480  0.000000  0.922328  1
