# generated using pymatgen
data_Bi2Pd5
_symmetry_space_group_name_H-M   'P 1'
_cell_length_a   7.78610082
_cell_length_b   7.78610082
_cell_length_c   6.87809846
_cell_angle_alpha   65.05004415
_cell_angle_beta   114.94995585
_cell_angle_gamma   135.36043577
_symmetry_Int_Tables_number   1
_chemical_formula_structural   Bi2Pd5
_chemical_formula_sum   'Bi4 Pd10'
_cell_volume   260.75148467
_cell_formula_units_Z   2
loop_
 _symmetry_equiv_pos_site_id
 _symmetry_equiv_pos_as_xyz
  1  'x, y, z'
loop_
 _atom_site_type_symbol
 _atom_site_label
 _atom_site_symmetry_multiplicity
 _atom_site_fract_x
 _atom_site_fract_y
 _atom_site_fract_z
 _atom_site_occupancy
  Bi  Bi0  1  0.599095  0.400905  0.905988  1
  Bi  Bi1  1  0.400905  0.599095  0.094012  1
  Bi  Bi2  1  0.869133  0.130867  0.643380  1
  Bi  Bi3  1  0.130867  0.869133  0.356620  1
  Pd  Pd4  1  0.021981  0.474231  0.234019  1
  Pd  Pd5  1  0.474231  0.021981  0.765981  1
  Pd  Pd6  1  0.978019  0.525769  0.765981  1
  Pd  Pd7  1  0.525769  0.978019  0.234019  1
  Pd  Pd8  1  0.251045  0.251045  0.500000  1
  Pd  Pd9  1  0.748955  0.748955  0.500000  1
  Pd  Pd10  1  0.095416  0.904584  0.912458  1
  Pd  Pd11  1  0.904584  0.095416  0.087542  1
  Pd  Pd12  1  0.366724  0.633276  0.639392  1
  Pd  Pd13  1  0.633276  0.366724  0.360608  1
