# generated using pymatgen
data_Na3Zr2Si2PO12
_symmetry_space_group_name_H-M   'P 1'
_cell_length_a   9.19695222
_cell_length_b   9.20219109
_cell_length_c   9.22102629
_cell_angle_alpha   89.98463043
_cell_angle_beta   119.73905343
_cell_angle_gamma   119.91005022
_symmetry_Int_Tables_number   1
_chemical_formula_structural   Na3Zr2Si2PO12
_chemical_formula_sum   'Na6 Zr4 Si4 P2 O24'
_cell_volume   554.80797870
_cell_formula_units_Z   2
loop_
 _symmetry_equiv_pos_site_id
 _symmetry_equiv_pos_as_xyz
  1  'x, y, z'
loop_
 _atom_site_type_symbol
 _atom_site_label
 _atom_site_symmetry_multiplicity
 _atom_site_fract_x
 _atom_site_fract_y
 _atom_site_fract_z
 _atom_site_occupancy
  Na  Na0  1  0.613439  0.872091  0.205622  1
  Na  Na1  1  0.493643  0.977066  0.501934  1
  Na  Na2  1  0.005214  0.611030  0.257396  1
  Na  Na3  1  0.009351  0.390269  0.758011  1
  Na  Na4  1  0.382765  0.259601  0.291368  1
  Na  Na5  1  0.502608  0.486735  0.996615  1
  Zr  Zr6  1  0.212237  0.360258  0.561887  1
  Zr  Zr7  1  0.207356  0.858329  0.057774  1
  Zr  Zr8  1  0.783255  0.141660  0.937758  1
  Zr  Zr9  1  0.799340  0.656110  0.441910  1
  Si  Si10  1  0.283193  0.539088  0.235215  1
  Si  Si11  1  0.300106  0.753799  0.748526  1
  Si  Si12  1  0.712986  0.254945  0.261725  1
  Si  Si13  1  0.002502  0.961011  0.252524  1
  P  P14  1  0.000054  0.050499  0.749953  1
  P  P15  1  0.703377  0.457948  0.750120  1
  O  O16  1  0.862605  0.997610  0.081297  1
  O  O17  1  0.882177  0.894118  0.582854  1
  O  O18  1  0.487704  0.570872  0.260558  1
  O  O19  1  0.082050  0.373813  0.053023  1
  O  O20  1  0.267273  0.493696  0.401419  1
  O  O21  1  0.297208  0.724685  0.232475  1
  O  O22  1  0.161455  0.226872  0.752531  1
  O  O23  1  0.485975  0.922752  0.750562  1
  O  O24  1  0.307679  0.579041  0.749962  1
  O  O25  1  0.158384  0.932996  0.239125  1
  O  O26  1  0.915440  0.289182  0.442659  1
  O  O27  1  0.729071  0.228144  0.095656  1
  O  O28  1  0.304826  0.800042  0.924667  1
  O  O29  1  0.080152  0.701374  0.573193  1
  O  O30  1  0.842935  0.073226  0.747530  1
  O  O31  1  0.693391  0.422751  0.267099  1
  O  O32  1  0.511077  0.081620  0.239726  1
  O  O33  1  0.838284  0.776532  0.259796  1
  O  O34  1  0.698581  0.287139  0.749084  1
  O  O35  1  0.691019  0.497168  0.581158  1
  O  O36  1  0.908801  0.615602  0.916232  1
  O  O37  1  0.526334  0.436511  0.750007  1
  O  O38  1  0.143048  0.135163  0.424229  1
  O  O39  1  0.113102  0.008648  0.916818  1
