# generated using pymatgen
data_Er6Zn23
_symmetry_space_group_name_H-M   'P 1'
_cell_length_a   8.94107537
_cell_length_b   8.94107537
_cell_length_c   8.94107537
_cell_angle_alpha   60.00000000
_cell_angle_beta   60.00000000
_cell_angle_gamma   60.00000000
_symmetry_Int_Tables_number   1
_chemical_formula_structural   Er6Zn23
_chemical_formula_sum   'Er6 Zn23'
_cell_volume   505.42214885
_cell_formula_units_Z   1
loop_
 _symmetry_equiv_pos_site_id
 _symmetry_equiv_pos_as_xyz
  1  'x, y, z'
loop_
 _atom_site_type_symbol
 _atom_site_label
 _atom_site_symmetry_multiplicity
 _atom_site_fract_x
 _atom_site_fract_y
 _atom_site_fract_z
 _atom_site_occupancy
  Er  Er0  1  0.205052  0.794948  0.794948  1
  Er  Er1  1  0.205052  0.205052  0.794948  1
  Er  Er2  1  0.794948  0.794948  0.205052  1
  Er  Er3  1  0.794948  0.205052  0.794948  1
  Er  Er4  1  0.205052  0.794948  0.205052  1
  Er  Er5  1  0.794948  0.205052  0.205052  1
  Zn  Zn6  1  0.170488  0.488535  0.170488  1
  Zn  Zn7  1  0.829512  0.829512  0.829512  1
  Zn  Zn8  1  0.511465  0.829512  0.829512  1
  Zn  Zn9  1  0.829512  0.829512  0.511465  1
  Zn  Zn10  1  0.488535  0.170488  0.170488  1
  Zn  Zn11  1  0.170488  0.170488  0.488535  1
  Zn  Zn12  1  0.500000  0.500000  0.500000  1
  Zn  Zn13  1  0.000000  0.500000  0.500000  1
  Zn  Zn14  1  1.000000  0.500000  0.000000  1
  Zn  Zn15  1  0.500000  0.000000  0.500000  1
  Zn  Zn16  1  0.500000  0.000000  1.000000  1
  Zn  Zn17  1  0.500000  0.500000  1.000000  1
  Zn  Zn18  1  1.000000  1.000000  0.500000  1
  Zn  Zn19  1  0.622614  0.132157  0.622614  1
  Zn  Zn20  1  0.377386  0.377386  0.377386  1
  Zn  Zn21  1  0.377386  0.377386  0.867843  1
  Zn  Zn22  1  0.867843  0.377386  0.377386  1
  Zn  Zn23  1  0.622614  0.622614  0.132157  1
  Zn  Zn24  1  0.132157  0.622614  0.622614  1
  Zn  Zn25  1  0.622614  0.622614  0.622614  1
  Zn  Zn26  1  0.377386  0.867843  0.377386  1
  Zn  Zn27  1  0.829512  0.511465  0.829512  1
  Zn  Zn28  1  0.170488  0.170488  0.170488  1
