# generated using pymatgen
data_Lu(SiRh)2
_symmetry_space_group_name_H-M   'P 1'
_cell_length_a   5.71337902
_cell_length_b   5.71337902
_cell_length_c   5.71337902
_cell_angle_alpha   138.54116364
_cell_angle_beta   138.54116364
_cell_angle_gamma   60.07518415
_symmetry_Int_Tables_number   1
_chemical_formula_structural   Lu(SiRh)2
_chemical_formula_sum   'Lu1 Si2 Rh2'
_cell_volume   80.90985653
_cell_formula_units_Z   1
loop_
 _symmetry_equiv_pos_site_id
 _symmetry_equiv_pos_as_xyz
  1  'x, y, z'
loop_
 _atom_site_type_symbol
 _atom_site_label
 _atom_site_symmetry_multiplicity
 _atom_site_fract_x
 _atom_site_fract_y
 _atom_site_fract_z
 _atom_site_occupancy
  Lu  Lu0  1  0.000000  0.000000  0.000000  1
  Si  Si1  1  0.620325  0.620325  0.000000  1
  Si  Si2  1  0.379675  0.379675  0.000000  1
  Rh  Rh3  1  0.750000  0.250000  0.500000  1
  Rh  Rh4  1  0.250000  0.750000  0.500000  1
