# generated using pymatgen
data_Tm2Fe17
_symmetry_space_group_name_H-M   'P 1'
_cell_length_a   8.40459436
_cell_length_b   8.40459436
_cell_length_c   8.25765180
_cell_angle_alpha   90.00000000
_cell_angle_beta   90.00000000
_cell_angle_gamma   120.00000000
_symmetry_Int_Tables_number   1
_chemical_formula_structural   Tm2Fe17
_chemical_formula_sum   'Tm4 Fe34'
_cell_volume   505.15041309
_cell_formula_units_Z   2
loop_
 _symmetry_equiv_pos_site_id
 _symmetry_equiv_pos_as_xyz
  1  'x, y, z'
loop_
 _atom_site_type_symbol
 _atom_site_label
 _atom_site_symmetry_multiplicity
 _atom_site_fract_x
 _atom_site_fract_y
 _atom_site_fract_z
 _atom_site_occupancy
  Tm  Tm0  1  0.000000  0.000000  0.250000  1
  Tm  Tm1  1  0.000000  0.000000  0.750000  1
  Tm  Tm2  1  0.333333  0.666667  0.750000  1
  Tm  Tm3  1  0.666667  0.333333  0.250000  1
  Fe  Fe4  1  0.333333  0.666667  0.106812  1
  Fe  Fe5  1  0.666667  0.333333  0.606812  1
  Fe  Fe6  1  0.666667  0.333333  0.893188  1
  Fe  Fe7  1  0.333333  0.666667  0.393188  1
  Fe  Fe8  1  0.500000  0.000000  0.000000  1
  Fe  Fe9  1  0.500000  0.500000  0.500000  1
  Fe  Fe10  1  0.000000  0.500000  0.500000  1
  Fe  Fe11  1  0.000000  0.500000  0.000000  1
  Fe  Fe12  1  0.500000  0.500000  0.000000  1
  Fe  Fe13  1  0.500000  0.000000  0.500000  1
  Fe  Fe14  1  0.329212  0.964140  0.250000  1
  Fe  Fe15  1  0.365072  0.329212  0.750000  1
  Fe  Fe16  1  0.964140  0.634928  0.750000  1
  Fe  Fe17  1  0.035860  0.365072  0.250000  1
  Fe  Fe18  1  0.634928  0.670788  0.250000  1
  Fe  Fe19  1  0.365072  0.035860  0.750000  1
  Fe  Fe20  1  0.670788  0.634928  0.750000  1
  Fe  Fe21  1  0.670788  0.035860  0.750000  1
  Fe  Fe22  1  0.964140  0.329212  0.750000  1
  Fe  Fe23  1  0.035860  0.670788  0.250000  1
  Fe  Fe24  1  0.634928  0.964140  0.250000  1
  Fe  Fe25  1  0.329212  0.365072  0.250000  1
  Fe  Fe26  1  0.165661  0.331323  0.985591  1
  Fe  Fe27  1  0.834339  0.165661  0.485591  1
  Fe  Fe28  1  0.331323  0.165661  0.485591  1
  Fe  Fe29  1  0.668677  0.834339  0.985591  1
  Fe  Fe30  1  0.165661  0.834339  0.985591  1
  Fe  Fe31  1  0.834339  0.668677  0.014409  1
  Fe  Fe32  1  0.834339  0.165661  0.014409  1
  Fe  Fe33  1  0.834339  0.668677  0.485591  1
  Fe  Fe34  1  0.331323  0.165661  0.014409  1
  Fe  Fe35  1  0.668677  0.834339  0.514409  1
  Fe  Fe36  1  0.165661  0.331323  0.514409  1
  Fe  Fe37  1  0.165661  0.834339  0.514409  1
