# generated using pymatgen
data_La2I5
_symmetry_space_group_name_H-M   'P 1'
_cell_length_a   9.23968034
_cell_length_b   4.43713661
_cell_length_c   14.99629820
_cell_angle_alpha   90.00000000
_cell_angle_beta   93.13351565
_cell_angle_gamma   90.00000000
_symmetry_Int_Tables_number   1
_chemical_formula_structural   La2I5
_chemical_formula_sum   'La4 I10'
_cell_volume   613.89486314
_cell_formula_units_Z   2
loop_
 _symmetry_equiv_pos_site_id
 _symmetry_equiv_pos_as_xyz
  1  'x, y, z'
loop_
 _atom_site_type_symbol
 _atom_site_label
 _atom_site_symmetry_multiplicity
 _atom_site_fract_x
 _atom_site_fract_y
 _atom_site_fract_z
 _atom_site_occupancy
  La  La0  1  0.094878  0.750000  0.153968  1
  La  La1  1  0.905122  0.250000  0.846032  1
  La  La2  1  0.582842  0.750000  0.656479  1
  La  La3  1  0.417158  0.250000  0.343521  1
  I  I4  1  0.641090  0.750000  0.280909  1
  I  I5  1  0.358910  0.250000  0.719091  1
  I  I6  1  0.139656  0.750000  0.929064  1
  I  I7  1  0.860344  0.250000  0.070936  1
  I  I8  1  0.685538  0.250000  0.512760  1
  I  I9  1  0.314462  0.750000  0.487240  1
  I  I10  1  0.058916  0.250000  0.312532  1
  I  I11  1  0.941084  0.750000  0.687468  1
  I  I12  1  0.347005  0.250000  0.125267  1
  I  I13  1  0.652995  0.750000  0.874733  1
