# generated using pymatgen
data_Er2Zn17
_symmetry_space_group_name_H-M   'P 1'
_cell_length_a   6.78497253
_cell_length_b   6.78497253
_cell_length_c   6.78497253
_cell_angle_alpha   82.46719468
_cell_angle_beta   82.46719468
_cell_angle_gamma   82.46719468
_symmetry_Int_Tables_number   1
_chemical_formula_structural   Er2Zn17
_chemical_formula_sum   'Er2 Zn17'
_cell_volume   304.91523729
_cell_formula_units_Z   1
loop_
 _symmetry_equiv_pos_site_id
 _symmetry_equiv_pos_as_xyz
  1  'x, y, z'
loop_
 _atom_site_type_symbol
 _atom_site_label
 _atom_site_symmetry_multiplicity
 _atom_site_fract_x
 _atom_site_fract_y
 _atom_site_fract_z
 _atom_site_occupancy
  Er  Er0  1  0.334892  0.334892  0.334892  1
  Er  Er1  1  0.665108  0.665108  0.665108  1
  Zn  Zn2  1  0.162176  0.647686  0.647686  1
  Zn  Zn3  1  0.647686  0.647686  0.162176  1
  Zn  Zn4  1  0.899733  0.899733  0.899733  1
  Zn  Zn5  1  0.100267  0.100267  0.100267  1
  Zn  Zn6  1  0.500000  1.000000  0.000000  1
  Zn  Zn7  1  0.000000  0.500000  0.000000  1
  Zn  Zn8  1  0.000000  0.000000  0.500000  1
  Zn  Zn9  1  0.000000  0.298582  0.701418  1
  Zn  Zn10  1  0.701418  0.000000  0.298582  1
  Zn  Zn11  1  0.298582  0.701418  0.000000  1
  Zn  Zn12  1  0.000000  0.701418  0.298582  1
  Zn  Zn13  1  0.298582  0.000000  0.701418  1
  Zn  Zn14  1  0.701418  0.298582  0.000000  1
  Zn  Zn15  1  0.352314  0.352314  0.837824  1
  Zn  Zn16  1  0.837824  0.352314  0.352314  1
  Zn  Zn17  1  0.352314  0.837824  0.352314  1
  Zn  Zn18  1  0.647686  0.162176  0.647686  1
