# generated using pymatgen
data_Sn4Ir
_symmetry_space_group_name_H-M   'P 1'
_cell_length_a   12.46145825
_cell_length_b   12.46145825
_cell_length_c   12.46145825
_cell_angle_alpha   150.15751279
_cell_angle_beta   150.15751279
_cell_angle_gamma   42.71024048
_symmetry_Int_Tables_number   1
_chemical_formula_structural   Sn4Ir
_chemical_formula_sum   'Sn16 Ir4'
_cell_volume   477.96912895
_cell_formula_units_Z   4
loop_
 _symmetry_equiv_pos_site_id
 _symmetry_equiv_pos_as_xyz
  1  'x, y, z'
loop_
 _atom_site_type_symbol
 _atom_site_label
 _atom_site_symmetry_multiplicity
 _atom_site_fract_x
 _atom_site_fract_y
 _atom_site_fract_z
 _atom_site_occupancy
  Sn  Sn0  1  0.986011  0.486767  0.846796  1
  Sn  Sn1  1  0.360785  0.860029  0.846796  1
  Sn  Sn2  1  0.013233  0.513989  0.153204  1
  Sn  Sn3  1  0.263989  0.610785  0.000756  1
  Sn  Sn4  1  0.110029  0.110785  0.346796  1
  Sn  Sn5  1  0.860785  0.013989  0.500756  1
  Sn  Sn6  1  0.513233  0.360029  0.499244  1
  Sn  Sn7  1  0.139971  0.986767  0.500756  1
  Sn  Sn8  1  0.486011  0.639215  0.499244  1
  Sn  Sn9  1  0.736767  0.736011  0.346796  1
  Sn  Sn10  1  0.389215  0.389971  0.653204  1
  Sn  Sn11  1  0.763989  0.763233  0.653204  1
  Sn  Sn12  1  0.639971  0.139215  0.153204  1
  Sn  Sn13  1  0.889215  0.236011  0.999244  1
  Sn  Sn14  1  0.236767  0.889971  0.000756  1
  Sn  Sn15  1  0.610029  0.263233  0.999244  1
  Ir  Ir16  1  0.500000  0.000000  0.500000  1
  Ir  Ir17  1  0.750000  0.750000  0.000000  1
  Ir  Ir18  1  0.250000  0.250000  0.000000  1
  Ir  Ir19  1  0.000000  0.500000  0.500000  1
