# generated using pymatgen
data_LaV3O9
_symmetry_space_group_name_H-M   'P 1'
_cell_length_a   5.07218420
_cell_length_b   9.63075951
_cell_length_c   7.51623302
_cell_angle_alpha   90.00000000
_cell_angle_beta   99.80370941
_cell_angle_gamma   90.00000000
_symmetry_Int_Tables_number   1
_chemical_formula_structural   LaV3O9
_chemical_formula_sum   'La2 V6 O18'
_cell_volume   361.79867521
_cell_formula_units_Z   2
loop_
 _symmetry_equiv_pos_site_id
 _symmetry_equiv_pos_as_xyz
  1  'x, y, z'
loop_
 _atom_site_type_symbol
 _atom_site_label
 _atom_site_symmetry_multiplicity
 _atom_site_fract_x
 _atom_site_fract_y
 _atom_site_fract_z
 _atom_site_occupancy
  La  La0  1  0.914690  0.250000  0.999142  1
  La  La1  1  0.085310  0.750000  0.000858  1
  V  V2  1  0.262450  0.250000  0.652552  1
  V  V3  1  0.737550  0.750000  0.347448  1
  V  V4  1  0.560025  0.572459  0.699330  1
  V  V5  1  0.439975  0.072459  0.300670  1
  V  V6  1  0.439975  0.427541  0.300670  1
  V  V7  1  0.560025  0.927541  0.699330  1
  O  O8  1  0.933007  0.250000  0.650496  1
  O  O9  1  0.066993  0.750000  0.349504  1
  O  O10  1  0.276872  0.250000  0.273574  1
  O  O11  1  0.723128  0.750000  0.726426  1
  O  O12  1  0.612690  0.591893  0.439869  1
  O  O13  1  0.387310  0.091893  0.560131  1
  O  O14  1  0.387310  0.408107  0.560131  1
  O  O15  1  0.612690  0.908107  0.439869  1
  O  O16  1  0.218982  0.987840  0.145939  1
  O  O17  1  0.781018  0.487840  0.854061  1
  O  O18  1  0.781018  0.012160  0.854061  1
  O  O19  1  0.218982  0.512160  0.145939  1
  O  O20  1  0.617519  0.750000  0.122318  1
  O  O21  1  0.382481  0.250000  0.877682  1
  O  O22  1  0.286674  0.889160  0.785977  1
  O  O23  1  0.713326  0.389160  0.214023  1
  O  O24  1  0.713326  0.110840  0.214023  1
  O  O25  1  0.286674  0.610840  0.785977  1
