# generated using pymatgen
data_Ca2SiIr2
_symmetry_space_group_name_H-M   'P 1'
_cell_length_a   5.69177657
_cell_length_b   5.69177657
_cell_length_c   7.33574785
_cell_angle_alpha   81.09753939
_cell_angle_beta   98.90246061
_cell_angle_gamma   118.04810993
_symmetry_Int_Tables_number   1
_chemical_formula_structural   Ca2SiIr2
_chemical_formula_sum   'Ca4 Si2 Ir4'
_cell_volume   206.29507150
_cell_formula_units_Z   2
loop_
 _symmetry_equiv_pos_site_id
 _symmetry_equiv_pos_as_xyz
  1  'x, y, z'
loop_
 _atom_site_type_symbol
 _atom_site_label
 _atom_site_symmetry_multiplicity
 _atom_site_fract_x
 _atom_site_fract_y
 _atom_site_fract_z
 _atom_site_occupancy
  Ca  Ca0  1  0.275936  0.983401  0.140222  1
  Ca  Ca1  1  0.983401  0.275936  0.359778  1
  Ca  Ca2  1  0.724064  0.016599  0.859778  1
  Ca  Ca3  1  0.016599  0.724064  0.640222  1
  Si  Si4  1  0.434518  0.434518  0.750000  1
  Si  Si5  1  0.565482  0.565482  0.250000  1
  Ir  Ir6  1  0.225473  0.490169  0.990108  1
  Ir  Ir7  1  0.490169  0.225473  0.509892  1
  Ir  Ir8  1  0.774527  0.509831  0.009892  1
  Ir  Ir9  1  0.509831  0.774527  0.490108  1
