# generated using pymatgen
data_La2Sn5Rh3
_symmetry_space_group_name_H-M   'P 1'
_cell_length_a   9.12301860
_cell_length_b   9.12301860
_cell_length_c   9.12301860
_cell_angle_alpha   138.43801853
_cell_angle_beta   106.10653455
_cell_angle_gamma   88.52947412
_symmetry_Int_Tables_number   1
_chemical_formula_structural   La2Sn5Rh3
_chemical_formula_sum   'La4 Sn10 Rh6'
_cell_volume   463.84121916
_cell_formula_units_Z   2
loop_
 _symmetry_equiv_pos_site_id
 _symmetry_equiv_pos_as_xyz
  1  'x, y, z'
loop_
 _atom_site_type_symbol
 _atom_site_label
 _atom_site_symmetry_multiplicity
 _atom_site_fract_x
 _atom_site_fract_y
 _atom_site_fract_z
 _atom_site_occupancy
  La  La0  1  0.372627  0.143865  0.228762  1
  La  La1  1  0.627373  0.856135  0.771238  1
  La  La2  1  0.084897  0.356135  0.728762  1
  La  La3  1  0.915103  0.643865  0.271238  1
  Sn  Sn4  1  0.245397  0.912822  0.332574  1
  Sn  Sn5  1  0.580248  0.412822  0.167426  1
  Sn  Sn6  1  0.754603  0.087178  0.667426  1
  Sn  Sn7  1  0.419752  0.587178  0.832574  1
  Sn  Sn8  1  0.000000  0.750000  0.750000  1
  Sn  Sn9  1  1.000000  0.250000  0.250000  1
  Sn  Sn10  1  0.721446  0.471446  0.750000  1
  Sn  Sn11  1  0.278554  0.028554  0.750000  1
  Sn  Sn12  1  0.278554  0.528554  0.250000  1
  Sn  Sn13  1  0.721446  0.971446  0.250000  1
  Rh  Rh14  1  0.036466  0.141237  0.895229  1
  Rh  Rh15  1  0.753992  0.358763  0.395229  1
  Rh  Rh16  1  0.246008  0.641237  0.604771  1
  Rh  Rh17  1  0.963534  0.858763  0.104771  1
  Rh  Rh18  1  0.500000  0.750000  0.250000  1
  Rh  Rh19  1  0.500000  0.250000  0.750000  1
