# generated using pymatgen
data_Nd2Ni5B4
_symmetry_space_group_name_H-M   'P 1'
_cell_length_a   5.52416968
_cell_length_b   5.52416968
_cell_length_c   6.77831424
_cell_angle_alpha   58.75697108
_cell_angle_beta   121.24302892
_cell_angle_gamma   125.07726005
_symmetry_Int_Tables_number   1
_chemical_formula_structural   Nd2Ni5B4
_chemical_formula_sum   'Nd2 Ni5 B4'
_cell_volume   137.34991160
_cell_formula_units_Z   1
loop_
 _symmetry_equiv_pos_site_id
 _symmetry_equiv_pos_as_xyz
  1  'x, y, z'
loop_
 _atom_site_type_symbol
 _atom_site_label
 _atom_site_symmetry_multiplicity
 _atom_site_fract_x
 _atom_site_fract_y
 _atom_site_fract_z
 _atom_site_occupancy
  Nd  Nd0  1  0.274595  0.725405  0.851083  1
  Nd  Nd1  1  0.725405  0.274595  0.148917  1
  Ni  Ni2  1  0.176865  0.326907  0.627915  1
  Ni  Ni3  1  0.823135  0.673093  0.372085  1
  Ni  Ni4  1  0.000000  0.000000  0.000000  1
  Ni  Ni5  1  0.673093  0.823135  0.627915  1
  Ni  Ni6  1  0.326907  0.176865  0.372085  1
  B  B7  1  0.400766  0.599234  0.359741  1
  B  B8  1  0.599234  0.400766  0.640259  1
  B  B9  1  0.778158  0.221842  0.659561  1
  B  B10  1  0.221842  0.778158  0.340439  1
