# generated using pymatgen
data_Pr2Zn17
_symmetry_space_group_name_H-M   'P 1'
_cell_length_a   6.87275530
_cell_length_b   6.87275530
_cell_length_c   6.87275530
_cell_angle_alpha   82.68535389
_cell_angle_beta   82.68535389
_cell_angle_gamma   82.68535389
_symmetry_Int_Tables_number   1
_chemical_formula_structural   Pr2Zn17
_chemical_formula_sum   'Pr2 Zn17'
_cell_volume   317.32735461
_cell_formula_units_Z   1
loop_
 _symmetry_equiv_pos_site_id
 _symmetry_equiv_pos_as_xyz
  1  'x, y, z'
loop_
 _atom_site_type_symbol
 _atom_site_label
 _atom_site_symmetry_multiplicity
 _atom_site_fract_x
 _atom_site_fract_y
 _atom_site_fract_z
 _atom_site_occupancy
  Pr  Pr0  1  0.335825  0.335825  0.335825  1
  Pr  Pr1  1  0.664175  0.664175  0.664175  1
  Zn  Zn2  1  0.161000  0.650243  0.650243  1
  Zn  Zn3  1  0.650243  0.650243  0.161000  1
  Zn  Zn4  1  0.901448  0.901448  0.901448  1
  Zn  Zn5  1  0.098552  0.098552  0.098552  1
  Zn  Zn6  1  0.500000  1.000000  0.000000  1
  Zn  Zn7  1  0.000000  0.500000  0.000000  1
  Zn  Zn8  1  0.000000  1.000000  0.500000  1
  Zn  Zn9  1  0.000000  0.292625  0.707375  1
  Zn  Zn10  1  0.707375  1.000000  0.292625  1
  Zn  Zn11  1  0.292625  0.707375  0.000000  1
  Zn  Zn12  1  0.000000  0.707375  0.292625  1
  Zn  Zn13  1  0.292625  0.000000  0.707375  1
  Zn  Zn14  1  0.707375  0.292625  0.000000  1
  Zn  Zn15  1  0.349757  0.349757  0.839000  1
  Zn  Zn16  1  0.839000  0.349757  0.349757  1
  Zn  Zn17  1  0.349757  0.839000  0.349757  1
  Zn  Zn18  1  0.650243  0.161000  0.650243  1
