# generated using pymatgen
data_Li3Mn2(PO4)3
_symmetry_space_group_name_H-M   'P 1'
_cell_length_a   9.05940083
_cell_length_b   9.05940083
_cell_length_c   9.05940083
_cell_angle_alpha   55.95079892
_cell_angle_beta   55.95079892
_cell_angle_gamma   55.95079892
_symmetry_Int_Tables_number   1
_chemical_formula_structural   Li3Mn2(PO4)3
_chemical_formula_sum   'Li6 Mn4 P6 O24'
_cell_volume   476.42400417
_cell_formula_units_Z   2
loop_
 _symmetry_equiv_pos_site_id
 _symmetry_equiv_pos_as_xyz
  1  'x, y, z'
loop_
 _atom_site_type_symbol
 _atom_site_label
 _atom_site_symmetry_multiplicity
 _atom_site_fract_x
 _atom_site_fract_y
 _atom_site_fract_z
 _atom_site_occupancy
  Li  Li0  1  0.337569  0.735545  0.078299  1
  Li  Li1  1  0.662431  0.264455  0.921701  1
  Li  Li2  1  0.078299  0.337569  0.735545  1
  Li  Li3  1  0.264455  0.921701  0.662431  1
  Li  Li4  1  0.735545  0.078299  0.337569  1
  Li  Li5  1  0.921701  0.662431  0.264455  1
  Mn  Mn6  1  0.346569  0.346569  0.346569  1
  Mn  Mn7  1  0.653431  0.653431  0.653431  1
  Mn  Mn8  1  0.146181  0.146181  0.146181  1
  Mn  Mn9  1  0.853819  0.853819  0.853819  1
  P  P10  1  0.747457  0.458563  0.043552  1
  P  P11  1  0.252543  0.541437  0.956448  1
  P  P12  1  0.956448  0.252543  0.541437  1
  P  P13  1  0.541437  0.956448  0.252543  1
  P  P14  1  0.458563  0.043552  0.747457  1
  P  P15  1  0.043552  0.747457  0.458563  1
  O  O16  1  0.209158  0.541586  0.152519  1
  O  O17  1  0.201421  0.389447  0.988341  1
  O  O18  1  0.495277  0.167141  0.532082  1
  O  O19  1  0.790842  0.458414  0.847481  1
  O  O20  1  0.467918  0.504723  0.832859  1
  O  O21  1  0.504723  0.832859  0.467918  1
  O  O22  1  0.746761  0.863032  0.128062  1
  O  O23  1  0.871938  0.253239  0.136968  1
  O  O24  1  0.541586  0.152519  0.209158  1
  O  O25  1  0.832859  0.467918  0.504723  1
  O  O26  1  0.610553  0.011659  0.798579  1
  O  O27  1  0.798579  0.610553  0.011659  1
  O  O28  1  0.152519  0.209158  0.541586  1
  O  O29  1  0.863032  0.128062  0.746761  1
  O  O30  1  0.458414  0.847481  0.790842  1
  O  O31  1  0.532082  0.495277  0.167141  1
  O  O32  1  0.988341  0.201421  0.389447  1
  O  O33  1  0.847481  0.790842  0.458414  1
  O  O34  1  0.389447  0.988341  0.201421  1
  O  O35  1  0.011659  0.798579  0.610553  1
  O  O36  1  0.136968  0.871938  0.253239  1
  O  O37  1  0.128062  0.746761  0.863032  1
  O  O38  1  0.167141  0.532082  0.495277  1
  O  O39  1  0.253239  0.136968  0.871938  1
