# generated using pymatgen
data_RbSO3
_symmetry_space_group_name_H-M   'P 1'
_cell_length_a   10.33246682
_cell_length_b   10.33246682
_cell_length_c   6.68497863
_cell_angle_alpha   90.00000000
_cell_angle_beta   90.00000000
_cell_angle_gamma   120.00000000
_symmetry_Int_Tables_number   1
_chemical_formula_structural   RbSO3
_chemical_formula_sum   'Rb6 S6 O18'
_cell_volume   618.07146502
_cell_formula_units_Z   6
loop_
 _symmetry_equiv_pos_site_id
 _symmetry_equiv_pos_as_xyz
  1  'x, y, z'
loop_
 _atom_site_type_symbol
 _atom_site_label
 _atom_site_symmetry_multiplicity
 _atom_site_fract_x
 _atom_site_fract_y
 _atom_site_fract_z
 _atom_site_occupancy
  Rb  Rb0  1  0.295011  0.000000  0.500000  1
  Rb  Rb1  1  0.000000  0.295011  0.500000  1
  Rb  Rb2  1  0.704989  0.704989  0.500000  1
  Rb  Rb3  1  0.619185  0.000000  0.000000  1
  Rb  Rb4  1  0.000000  0.619185  0.000000  1
  Rb  Rb5  1  0.380815  0.380815  0.000000  1
  S  S6  1  0.000000  0.000000  0.166926  1
  S  S7  1  0.000000  0.000000  0.833074  1
  S  S8  1  0.333333  0.666667  0.596484  1
  S  S9  1  0.666667  0.333333  0.403516  1
  S  S10  1  0.333333  0.666667  0.265339  1
  S  S11  1  0.666667  0.333333  0.734661  1
  O  O12  1  0.210378  0.517834  0.207333  1
  O  O13  1  0.482166  0.692544  0.207333  1
  O  O14  1  0.307456  0.789622  0.207333  1
  O  O15  1  0.692544  0.482166  0.792667  1
  O  O16  1  0.789622  0.307456  0.792667  1
  O  O17  1  0.517834  0.210378  0.792667  1
  O  O18  1  0.178171  0.620568  0.649603  1
  O  O19  1  0.379432  0.557604  0.649603  1
  O  O20  1  0.442396  0.821829  0.649603  1
  O  O21  1  0.557604  0.379432  0.350397  1
  O  O22  1  0.821829  0.442396  0.350397  1
  O  O23  1  0.620568  0.178171  0.350397  1
  O  O24  1  0.151853  0.116438  0.224146  1
  O  O25  1  0.883562  0.035414  0.224146  1
  O  O26  1  0.964586  0.848147  0.224146  1
  O  O27  1  0.035414  0.883562  0.775854  1
  O  O28  1  0.848147  0.964586  0.775854  1
  O  O29  1  0.116438  0.151853  0.775854  1
