# generated using pymatgen
data_PrMg2
_symmetry_space_group_name_H-M   'P 1'
_cell_length_a   6.16342644
_cell_length_b   6.16342644
_cell_length_c   6.16342644
_cell_angle_alpha   60.00000000
_cell_angle_beta   60.00000000
_cell_angle_gamma   60.00000000
_symmetry_Int_Tables_number   1
_chemical_formula_structural   PrMg2
_chemical_formula_sum   'Pr2 Mg4'
_cell_volume   165.55856510
_cell_formula_units_Z   2
loop_
 _symmetry_equiv_pos_site_id
 _symmetry_equiv_pos_as_xyz
  1  'x, y, z'
loop_
 _atom_site_type_symbol
 _atom_site_label
 _atom_site_symmetry_multiplicity
 _atom_site_fract_x
 _atom_site_fract_y
 _atom_site_fract_z
 _atom_site_occupancy
  Pr  Pr0  1  0.750000  0.750000  0.750000  1
  Pr  Pr1  1  0.500000  0.500000  0.500000  1
  Mg  Mg2  1  0.125000  0.625000  0.125000  1
  Mg  Mg3  1  0.125000  0.125000  0.125000  1
  Mg  Mg4  1  0.125000  0.125000  0.625000  1
  Mg  Mg5  1  0.625000  0.125000  0.125000  1
