# generated using pymatgen
data_Nd4Se3N2
_symmetry_space_group_name_H-M   'P 1'
_cell_length_a   8.34158675
_cell_length_b   8.34158675
_cell_length_c   6.49910541
_cell_angle_alpha   89.84024037
_cell_angle_beta   90.15975963
_cell_angle_gamma   104.36831109
_symmetry_Int_Tables_number   1
_chemical_formula_structural   Nd4Se3N2
_chemical_formula_sum   'Nd8 Se6 N4'
_cell_volume   438.07324855
_cell_formula_units_Z   2
loop_
 _symmetry_equiv_pos_site_id
 _symmetry_equiv_pos_as_xyz
  1  'x, y, z'
loop_
 _atom_site_type_symbol
 _atom_site_label
 _atom_site_symmetry_multiplicity
 _atom_site_fract_x
 _atom_site_fract_y
 _atom_site_fract_z
 _atom_site_occupancy
  Nd  Nd0  1  0.914393  0.244611  0.572164  1
  Nd  Nd1  1  0.244611  0.914393  0.927836  1
  Nd  Nd2  1  0.085607  0.755389  0.427836  1
  Nd  Nd3  1  0.755389  0.085607  0.072164  1
  Nd  Nd4  1  0.557082  0.810579  0.529884  1
  Nd  Nd5  1  0.810579  0.557082  0.970116  1
  Nd  Nd6  1  0.442918  0.189421  0.470116  1
  Nd  Nd7  1  0.189421  0.442918  0.029884  1
  Se  Se8  1  0.516028  0.746470  0.035318  1
  Se  Se9  1  0.096628  0.096628  0.250000  1
  Se  Se10  1  0.746470  0.516028  0.464682  1
  Se  Se11  1  0.483972  0.253530  0.964682  1
  Se  Se12  1  0.903372  0.903372  0.750000  1
  Se  Se13  1  0.253530  0.483972  0.535318  1
  N  N14  1  0.670576  0.081832  0.414767  1
  N  N15  1  0.918168  0.329424  0.914767  1
  N  N16  1  0.329424  0.918168  0.585233  1
  N  N17  1  0.081832  0.670576  0.085233  1
