# generated using pymatgen
data_Ce2Y2O7
_symmetry_space_group_name_H-M   'P 1'
_cell_length_a   3.75973893
_cell_length_b   7.79788750
_cell_length_c   10.90622502
_cell_angle_alpha   90.00000000
_cell_angle_beta   90.00000000
_cell_angle_gamma   90.00000000
_symmetry_Int_Tables_number   1
_chemical_formula_structural   Ce2Y2O7
_chemical_formula_sum   'Ce4 Y4 O14'
_cell_volume   319.74893650
_cell_formula_units_Z   2
loop_
 _symmetry_equiv_pos_site_id
 _symmetry_equiv_pos_as_xyz
  1  'x, y, z'
loop_
 _atom_site_type_symbol
 _atom_site_label
 _atom_site_symmetry_multiplicity
 _atom_site_fract_x
 _atom_site_fract_y
 _atom_site_fract_z
 _atom_site_occupancy
  Ce  Ce0  1  0.000000  0.750000  0.745520  1
  Ce  Ce1  1  0.000000  0.250000  0.254480  1
  Ce  Ce2  1  0.500000  0.500000  0.000000  1
  Ce  Ce3  1  0.500000  0.000000  0.000000  1
  Y  Y4  1  0.500000  0.000000  0.500000  1
  Y  Y5  1  0.000000  0.250000  0.769172  1
  Y  Y6  1  0.500000  0.500000  0.500000  1
  Y  Y7  1  0.000000  0.750000  0.230828  1
  O  O8  1  0.000000  0.956232  0.374526  1
  O  O9  1  0.500000  0.250000  0.134726  1
  O  O10  1  0.500000  0.750000  0.126498  1
  O  O11  1  0.000000  0.011310  0.122394  1
  O  O12  1  0.000000  0.988690  0.877606  1
  O  O13  1  0.000000  0.511310  0.877606  1
  O  O14  1  0.500000  0.750000  0.865274  1
  O  O15  1  0.500000  0.250000  0.873502  1
  O  O16  1  0.500000  0.750000  0.608114  1
  O  O17  1  0.000000  0.043768  0.625474  1
  O  O18  1  0.000000  0.456232  0.625474  1
  O  O19  1  0.000000  0.543768  0.374526  1
  O  O20  1  0.500000  0.250000  0.391886  1
  O  O21  1  0.000000  0.488690  0.122394  1
