# generated using pymatgen
data_Mg2Ta3N5
_symmetry_space_group_name_H-M   'P 1'
_cell_length_a   8.19966416
_cell_length_b   8.19966416
_cell_length_c   5.31892115
_cell_angle_alpha   83.84846483
_cell_angle_beta   96.15153517
_cell_angle_gamma   38.14882004
_symmetry_Int_Tables_number   1
_chemical_formula_structural   Mg2Ta3N5
_chemical_formula_sum   'Mg4 Ta6 N10'
_cell_volume   208.68741580
_cell_formula_units_Z   2
loop_
 _symmetry_equiv_pos_site_id
 _symmetry_equiv_pos_as_xyz
  1  'x, y, z'
loop_
 _atom_site_type_symbol
 _atom_site_label
 _atom_site_symmetry_multiplicity
 _atom_site_fract_x
 _atom_site_fract_y
 _atom_site_fract_z
 _atom_site_occupancy
  Mg  Mg0  1  0.448912  0.448912  0.250000  1
  Mg  Mg1  1  0.551088  0.551088  0.750000  1
  Mg  Mg2  1  0.251514  0.251514  0.250000  1
  Mg  Mg3  1  0.748486  0.748486  0.750000  1
  Ta  Ta4  1  0.850668  0.850668  0.250000  1
  Ta  Ta5  1  0.352653  0.352653  0.750000  1
  Ta  Ta6  1  0.046259  0.046259  0.250000  1
  Ta  Ta7  1  0.953741  0.953741  0.750000  1
  Ta  Ta8  1  0.647347  0.647347  0.250000  1
  Ta  Ta9  1  0.149332  0.149332  0.750000  1
  N  N10  1  0.604623  0.094944  0.500319  1
  N  N11  1  0.211191  0.690288  0.498199  1
  N  N12  1  0.094944  0.604623  0.999681  1
  N  N13  1  0.788809  0.309712  0.501801  1
  N  N14  1  0.690288  0.211191  0.001801  1
  N  N15  1  0.395377  0.905056  0.499681  1
  N  N16  1  0.309712  0.788809  0.998199  1
  N  N17  1  0.000000  0.500000  0.500000  1
  N  N18  1  0.905056  0.395377  0.000319  1
  N  N19  1  0.500000  0.000000  0.000000  1
