# generated using pymatgen
data_Nd(ClO4)3
_symmetry_space_group_name_H-M   'P 1'
_cell_length_a   9.52112681
_cell_length_b   9.52112681
_cell_length_c   5.86479413
_cell_angle_alpha   90.00000000
_cell_angle_beta   90.00000000
_cell_angle_gamma   120.00000000
_symmetry_Int_Tables_number   1
_chemical_formula_structural   Nd(ClO4)3
_chemical_formula_sum   'Nd2 Cl6 O24'
_cell_volume   460.42627854
_cell_formula_units_Z   2
loop_
 _symmetry_equiv_pos_site_id
 _symmetry_equiv_pos_as_xyz
  1  'x, y, z'
loop_
 _atom_site_type_symbol
 _atom_site_label
 _atom_site_symmetry_multiplicity
 _atom_site_fract_x
 _atom_site_fract_y
 _atom_site_fract_z
 _atom_site_occupancy
  Nd  Nd0  1  0.666667  0.333333  0.750000  1
  Nd  Nd1  1  0.333333  0.666667  0.250000  1
  Cl  Cl2  1  0.613603  0.706619  0.750000  1
  Cl  Cl3  1  0.906984  0.613603  0.250000  1
  Cl  Cl4  1  0.706619  0.093016  0.250000  1
  Cl  Cl5  1  0.293381  0.906984  0.750000  1
  Cl  Cl6  1  0.093016  0.386397  0.750000  1
  Cl  Cl7  1  0.386397  0.293381  0.250000  1
  O  O8  1  0.784826  0.806265  0.750000  1
  O  O9  1  0.978560  0.784826  0.250000  1
  O  O10  1  0.806265  0.021440  0.250000  1
  O  O11  1  0.193735  0.978560  0.750000  1
  O  O12  1  0.021440  0.215174  0.750000  1
  O  O13  1  0.215174  0.193735  0.250000  1
  O  O14  1  0.456397  0.259173  0.048302  1
  O  O15  1  0.197223  0.456397  0.548302  1
  O  O16  1  0.439264  0.467141  0.250000  1
  O  O17  1  0.972124  0.439264  0.750000  1
  O  O18  1  0.467141  0.027876  0.750000  1
  O  O19  1  0.532859  0.972124  0.250000  1
  O  O20  1  0.027876  0.560736  0.250000  1
  O  O21  1  0.560736  0.532859  0.750000  1
  O  O22  1  0.456397  0.259173  0.451698  1
  O  O23  1  0.197223  0.456397  0.951698  1
  O  O24  1  0.259173  0.802777  0.951698  1
  O  O25  1  0.740827  0.197223  0.451698  1
  O  O26  1  0.802777  0.543603  0.451698  1
  O  O27  1  0.543603  0.740827  0.951698  1
  O  O28  1  0.543603  0.740827  0.548302  1
  O  O29  1  0.802777  0.543603  0.048302  1
  O  O30  1  0.740827  0.197223  0.048302  1
  O  O31  1  0.259173  0.802777  0.548302  1
