# generated using pymatgen
data_La4PdO7
_symmetry_space_group_name_H-M   'P 1'
_cell_length_a   7.00387831
_cell_length_b   7.00387831
_cell_length_c   9.42316666
_cell_angle_alpha   49.28313430
_cell_angle_beta   130.71686570
_cell_angle_gamma   146.02206598
_symmetry_Int_Tables_number   1
_chemical_formula_structural   La4PdO7
_chemical_formula_sum   'La4 Pd1 O7'
_cell_volume   188.91478219
_cell_formula_units_Z   1
loop_
 _symmetry_equiv_pos_site_id
 _symmetry_equiv_pos_as_xyz
  1  'x, y, z'
loop_
 _atom_site_type_symbol
 _atom_site_label
 _atom_site_symmetry_multiplicity
 _atom_site_fract_x
 _atom_site_fract_y
 _atom_site_fract_z
 _atom_site_occupancy
  La  La0  1  0.415305  0.584695  0.611383  1
  La  La1  1  0.584695  0.415305  0.388617  1
  La  La2  1  0.250632  0.749368  0.840267  1
  La  La3  1  0.749368  0.250632  0.159733  1
  Pd  Pd4  1  0.000000  0.000000  0.000000  1
  O  O5  1  0.202810  0.797190  0.553263  1
  O  O6  1  0.797190  0.202810  0.446737  1
  O  O7  1  0.910322  0.089678  0.110221  1
  O  O8  1  0.089678  0.910322  0.889779  1
  O  O9  1  0.632142  0.367858  0.693032  1
  O  O10  1  0.500000  0.500000  0.000000  1
  O  O11  1  0.367858  0.632142  0.306968  1
