# generated using pymatgen
data_HgAsO3
_symmetry_space_group_name_H-M   'P 1'
_cell_length_a   4.95871947
_cell_length_b   4.95871947
_cell_length_c   7.77621108
_cell_angle_alpha   90.00000000
_cell_angle_beta   90.00000000
_cell_angle_gamma   120.00000000
_symmetry_Int_Tables_number   1
_chemical_formula_structural   HgAsO3
_chemical_formula_sum   'Hg2 As2 O6'
_cell_volume   165.59138985
_cell_formula_units_Z   2
loop_
 _symmetry_equiv_pos_site_id
 _symmetry_equiv_pos_as_xyz
  1  'x, y, z'
loop_
 _atom_site_type_symbol
 _atom_site_label
 _atom_site_symmetry_multiplicity
 _atom_site_fract_x
 _atom_site_fract_y
 _atom_site_fract_z
 _atom_site_occupancy
  Hg  Hg0  1  0.000000  0.000000  0.832510  1
  Hg  Hg1  1  0.000000  0.000000  0.167490  1
  As  As2  1  0.333333  0.666667  0.500000  1
  As  As3  1  0.666667  0.333333  0.500000  1
  O  O4  1  0.380228  0.000000  0.634760  1
  O  O5  1  0.000000  0.380228  0.634760  1
  O  O6  1  0.619772  0.619772  0.634760  1
  O  O7  1  0.000000  0.619772  0.365240  1
  O  O8  1  0.380228  0.380228  0.365240  1
  O  O9  1  0.619772  0.000000  0.365240  1
