# generated using pymatgen
data_Rb6C5
_symmetry_space_group_name_H-M   'P 1'
_cell_length_a   7.83713373
_cell_length_b   7.83713373
_cell_length_c   7.93109022
_cell_angle_alpha   90.00000000
_cell_angle_beta   90.00000000
_cell_angle_gamma   120.00000000
_symmetry_Int_Tables_number   1
_chemical_formula_structural   Rb6C5
_chemical_formula_sum   'Rb6 C5'
_cell_volume   421.86941077
_cell_formula_units_Z   1
loop_
 _symmetry_equiv_pos_site_id
 _symmetry_equiv_pos_as_xyz
  1  'x, y, z'
loop_
 _atom_site_type_symbol
 _atom_site_label
 _atom_site_symmetry_multiplicity
 _atom_site_fract_x
 _atom_site_fract_y
 _atom_site_fract_z
 _atom_site_occupancy
  Rb  Rb0  1  0.000000  0.618502  0.500000  1
  Rb  Rb1  1  0.381498  0.381498  0.500000  1
  Rb  Rb2  1  0.000000  0.361731  0.000000  1
  Rb  Rb3  1  0.638269  0.638269  0.000000  1
  Rb  Rb4  1  0.361731  0.000000  0.000000  1
  Rb  Rb5  1  0.618502  0.000000  0.500000  1
  C  C6  1  0.333333  0.666667  0.757050  1
  C  C7  1  0.000000  0.000000  0.500000  1
  C  C8  1  0.666667  0.333333  0.242950  1
  C  C9  1  0.666667  0.333333  0.757050  1
  C  C10  1  0.333333  0.666667  0.242950  1
