# generated using pymatgen
data_NaBF4
_symmetry_space_group_name_H-M   'P 1'
_cell_length_a   4.68390594
_cell_length_b   4.68390594
_cell_length_c   6.91762369
_cell_angle_alpha   90.00000000
_cell_angle_beta   90.00000000
_cell_angle_gamma   95.48658121
_symmetry_Int_Tables_number   1
_chemical_formula_structural   NaBF4
_chemical_formula_sum   'Na2 B2 F8'
_cell_volume   151.07027602
_cell_formula_units_Z   2
loop_
 _symmetry_equiv_pos_site_id
 _symmetry_equiv_pos_as_xyz
  1  'x, y, z'
loop_
 _atom_site_type_symbol
 _atom_site_label
 _atom_site_symmetry_multiplicity
 _atom_site_fract_x
 _atom_site_fract_y
 _atom_site_fract_z
 _atom_site_occupancy
  Na  Na0  1  0.347603  0.347603  0.250000  1
  Na  Na1  1  0.652397  0.652397  0.750000  1
  B  B2  1  0.842532  0.842532  0.250000  1
  B  B3  1  0.157468  0.157468  0.750000  1
  F  F4  1  0.709851  0.709851  0.415886  1
  F  F5  1  0.290149  0.290149  0.915886  1
  F  F6  1  0.709851  0.709851  0.084114  1
  F  F7  1  0.290149  0.290149  0.584114  1
  F  F8  1  0.860586  0.192479  0.750000  1
  F  F9  1  0.139414  0.807521  0.250000  1
  F  F10  1  0.192479  0.860586  0.750000  1
  F  F11  1  0.807521  0.139414  0.250000  1
