# generated using pymatgen
data_LiCo(PO3)4
_symmetry_space_group_name_H-M   'P 1'
_cell_length_a   8.41321475
_cell_length_b   8.41321475
_cell_length_c   7.66441274
_cell_angle_alpha   82.99791237
_cell_angle_beta   97.00208763
_cell_angle_gamma   69.05219048
_symmetry_Int_Tables_number   1
_chemical_formula_structural   LiCo(PO3)4
_chemical_formula_sum   'Li2 Co2 P8 O24'
_cell_volume   494.79008054
_cell_formula_units_Z   2
loop_
 _symmetry_equiv_pos_site_id
 _symmetry_equiv_pos_as_xyz
  1  'x, y, z'
loop_
 _atom_site_type_symbol
 _atom_site_label
 _atom_site_symmetry_multiplicity
 _atom_site_fract_x
 _atom_site_fract_y
 _atom_site_fract_z
 _atom_site_occupancy
  Li  Li0  1  0.495173  0.803819  0.773515  1
  Li  Li1  1  0.196181  0.504827  0.273515  1
  Co  Co2  1  0.129645  0.137563  0.742677  1
  Co  Co3  1  0.862437  0.870355  0.242677  1
  P  P4  1  0.566591  0.761840  0.386315  1
  P  P5  1  0.754944  0.568285  0.141085  1
  P  P6  1  0.203205  0.947600  0.156126  1
  P  P7  1  0.052400  0.796795  0.656126  1
  P  P8  1  0.799167  0.046405  0.825034  1
  P  P9  1  0.953595  0.200833  0.325034  1
  P  P10  1  0.431715  0.245056  0.641085  1
  P  P11  1  0.238160  0.433409  0.886315  1
  O  O12  1  0.901608  0.632058  0.188952  1
  O  O13  1  0.646705  0.633409  0.962312  1
  O  O14  1  0.918235  0.143521  0.837597  1
  O  O15  1  0.108588  0.358838  0.814265  1
  O  O16  1  0.009342  0.736374  0.485525  1
  O  O17  1  0.641162  0.891412  0.314265  1
  O  O18  1  0.004820  0.261371  0.492916  1
  O  O19  1  0.738629  0.995180  0.992916  1
  O  O20  1  0.637382  0.593084  0.295394  1
  O  O21  1  0.840786  0.361694  0.172088  1
  O  O22  1  0.638306  0.159214  0.672088  1
  O  O23  1  0.290067  0.416659  0.080187  1
  O  O24  1  0.366591  0.353295  0.462312  1
  O  O25  1  0.263626  0.990658  0.985525  1
  O  O26  1  0.856479  0.081765  0.337597  1
  O  O27  1  0.151921  0.915225  0.651504  1
  O  O28  1  0.122399  0.121221  0.236220  1
  O  O29  1  0.084775  0.848079  0.151504  1
  O  O30  1  0.367942  0.098392  0.688952  1
  O  O31  1  0.406916  0.362618  0.795394  1
  O  O32  1  0.878779  0.877601  0.736220  1
  O  O33  1  0.164311  0.636943  0.806549  1
  O  O34  1  0.363057  0.835689  0.306549  1
  O  O35  1  0.583341  0.709933  0.580187  1
