# generated using pymatgen
data_V3(P2O7)2
_symmetry_space_group_name_H-M   'P 1'
_cell_length_a   7.23726084
_cell_length_b   8.03474333
_cell_length_c   9.57721589
_cell_angle_alpha   90.00000000
_cell_angle_beta   110.38815051
_cell_angle_gamma   90.00000000
_symmetry_Int_Tables_number   1
_chemical_formula_structural   V3(P2O7)2
_chemical_formula_sum   'V6 P8 O28'
_cell_volume   522.02244295
_cell_formula_units_Z   2
loop_
 _symmetry_equiv_pos_site_id
 _symmetry_equiv_pos_as_xyz
  1  'x, y, z'
loop_
 _atom_site_type_symbol
 _atom_site_label
 _atom_site_symmetry_multiplicity
 _atom_site_fract_x
 _atom_site_fract_y
 _atom_site_fract_z
 _atom_site_occupancy
  V  V0  1  0.189378  0.629250  0.526629  1
  V  V1  1  0.189378  0.870750  0.026629  1
  V  V2  1  0.810622  0.129250  0.973371  1
  V  V3  1  0.000000  0.500000  0.000000  1
  V  V4  1  0.810622  0.370750  0.473371  1
  V  V5  1  0.000000  0.000000  0.500000  1
  P  P6  1  0.881479  0.709387  0.695823  1
  P  P7  1  0.599329  0.050872  0.207397  1
  P  P8  1  0.599329  0.449128  0.707397  1
  P  P9  1  0.400671  0.550872  0.292603  1
  P  P10  1  0.400671  0.949128  0.792603  1
  P  P11  1  0.118521  0.290613  0.304177  1
  P  P12  1  0.881479  0.790613  0.195823  1
  P  P13  1  0.118521  0.209387  0.804177  1
  O  O14  1  0.271326  0.614447  0.135527  1
  O  O15  1  0.998236  0.710495  0.866444  1
  O  O16  1  0.036249  0.078887  0.889166  1
  O  O17  1  0.138930  0.376720  0.877297  1
  O  O18  1  0.998236  0.789505  0.366444  1
  O  O19  1  0.036249  0.421113  0.389166  1
  O  O20  1  0.001764  0.289505  0.133556  1
  O  O21  1  0.963751  0.921113  0.110834  1
  O  O22  1  0.861070  0.623280  0.122703  1
  O  O23  1  0.001764  0.210495  0.633556  1
  O  O24  1  0.963751  0.578887  0.610834  1
  O  O25  1  0.673127  0.862318  0.188747  1
  O  O26  1  0.632583  0.160322  0.088356  1
  O  O27  1  0.861070  0.876720  0.622703  1
  O  O28  1  0.728674  0.114447  0.364473  1
  O  O29  1  0.617211  0.522025  0.317534  1
  O  O30  1  0.673127  0.637682  0.688747  1
  O  O31  1  0.367417  0.839678  0.911644  1
  O  O32  1  0.728674  0.385553  0.864473  1
  O  O33  1  0.382789  0.022025  0.182466  1
  O  O34  1  0.617211  0.977975  0.817534  1
  O  O35  1  0.326873  0.137682  0.811253  1
  O  O36  1  0.367417  0.660322  0.411644  1
  O  O37  1  0.326873  0.362318  0.311253  1
  O  O38  1  0.382789  0.477975  0.682466  1
  O  O39  1  0.271326  0.885553  0.635527  1
  O  O40  1  0.138930  0.123280  0.377297  1
  O  O41  1  0.632583  0.339678  0.588356  1
