# generated using pymatgen
data_LaB5O9
_symmetry_space_group_name_H-M   'P 1'
_cell_length_a   6.50456821
_cell_length_b   11.82438682
_cell_length_c   8.26343060
_cell_angle_alpha   90.00000000
_cell_angle_beta   105.28031152
_cell_angle_gamma   90.00000000
_symmetry_Int_Tables_number   1
_chemical_formula_structural   LaB5O9
_chemical_formula_sum   'La4 B20 O36'
_cell_volume   613.09301612
_cell_formula_units_Z   4
loop_
 _symmetry_equiv_pos_site_id
 _symmetry_equiv_pos_as_xyz
  1  'x, y, z'
loop_
 _atom_site_type_symbol
 _atom_site_label
 _atom_site_symmetry_multiplicity
 _atom_site_fract_x
 _atom_site_fract_y
 _atom_site_fract_z
 _atom_site_occupancy
  La  La0  1  0.749764  0.674078  0.639958  1
  La  La1  1  0.250236  0.174078  0.860042  1
  La  La2  1  0.250236  0.325922  0.360042  1
  La  La3  1  0.749764  0.825922  0.139958  1
  B  B4  1  0.773756  0.248704  0.830955  1
  B  B5  1  0.226244  0.748704  0.669045  1
  B  B6  1  0.226244  0.751296  0.169045  1
  B  B7  1  0.773756  0.251296  0.330955  1
  B  B8  1  0.187841  0.630386  0.407899  1
  B  B9  1  0.812159  0.130386  0.092101  1
  B  B10  1  0.519175  0.402044  0.725741  1
  B  B11  1  0.480825  0.902044  0.774259  1
  B  B12  1  0.480825  0.597956  0.274259  1
  B  B13  1  0.519175  0.097956  0.225741  1
  B  B14  1  0.710698  0.944732  0.454311  1
  B  B15  1  0.289302  0.444732  0.045689  1
  B  B16  1  0.289302  0.055268  0.545689  1
  B  B17  1  0.710698  0.555268  0.954311  1
  B  B18  1  0.146823  0.464044  0.744522  1
  B  B19  1  0.853177  0.964044  0.755478  1
  B  B20  1  0.853177  0.535956  0.255478  1
  B  B21  1  0.146823  0.035956  0.244522  1
  B  B22  1  0.812159  0.369614  0.592101  1
  B  B23  1  0.187841  0.869614  0.907899  1
  O  O24  1  0.933720  0.473983  0.661294  1
  O  O25  1  0.243229  0.167842  0.549190  1
  O  O26  1  0.243229  0.332158  0.049190  1
  O  O27  1  0.756771  0.832158  0.450810  1
  O  O28  1  0.220452  0.988839  0.402880  1
  O  O29  1  0.779548  0.488839  0.097120  1
  O  O30  1  0.779548  0.011161  0.597120  1
  O  O31  1  0.756771  0.667842  0.950810  1
  O  O32  1  0.586582  0.199001  0.335983  1
  O  O33  1  0.413418  0.699001  0.164017  1
  O  O34  1  0.066280  0.973983  0.838706  1
  O  O35  1  0.586582  0.300999  0.835983  1
  O  O36  1  0.862641  0.338555  0.435426  1
  O  O37  1  0.137359  0.838555  0.064574  1
  O  O38  1  0.137359  0.661445  0.564574  1
  O  O39  1  0.862641  0.161445  0.935426  1
  O  O40  1  0.889338  0.222215  0.219131  1
  O  O41  1  0.110662  0.722215  0.280869  1
  O  O42  1  0.110662  0.777785  0.780869  1
  O  O43  1  0.889338  0.277785  0.719131  1
  O  O44  1  0.066280  0.526017  0.338706  1
  O  O45  1  0.933720  0.026017  0.161294  1
  O  O46  1  0.280861  0.401631  0.674019  1
  O  O47  1  0.719139  0.901631  0.825981  1
  O  O48  1  0.719139  0.598369  0.325981  1
  O  O49  1  0.413418  0.800999  0.664017  1
  O  O50  1  0.601988  0.509502  0.801872  1
  O  O51  1  0.398012  0.009502  0.698128  1
  O  O52  1  0.398012  0.490498  0.198128  1
  O  O53  1  0.601988  0.990498  0.301872  1
  O  O54  1  0.584496  0.386996  0.569500  1
  O  O55  1  0.415504  0.886996  0.930500  1
  O  O56  1  0.415504  0.613004  0.430500  1
  O  O57  1  0.584496  0.113004  0.069500  1
  O  O58  1  0.220452  0.511161  0.902880  1
  O  O59  1  0.280861  0.098369  0.174019  1
