# generated using pymatgen
data_Tb6Br7
_symmetry_space_group_name_H-M   'P 1'
_cell_length_a   10.82509005
_cell_length_b   10.82509005
_cell_length_c   11.74786502
_cell_angle_alpha   57.67983099
_cell_angle_beta   122.32016901
_cell_angle_gamma   159.73339654
_symmetry_Int_Tables_number   1
_chemical_formula_structural   Tb6Br7
_chemical_formula_sum   'Tb6 Br7'
_cell_volume   400.39277638
_cell_formula_units_Z   1
loop_
 _symmetry_equiv_pos_site_id
 _symmetry_equiv_pos_as_xyz
  1  'x, y, z'
loop_
 _atom_site_type_symbol
 _atom_site_label
 _atom_site_symmetry_multiplicity
 _atom_site_fract_x
 _atom_site_fract_y
 _atom_site_fract_z
 _atom_site_occupancy
  Tb  Tb0  1  0.872227  0.127773  0.442160  1
  Tb  Tb1  1  0.127773  0.872227  0.557840  1
  Tb  Tb2  1  0.682069  0.317931  0.363049  1
  Tb  Tb3  1  0.317931  0.682069  0.636951  1
  Tb  Tb4  1  0.228086  0.771914  0.158478  1
  Tb  Tb5  1  0.771914  0.228086  0.841522  1
  Br  Br6  1  0.500000  0.500000  0.500000  1
  Br  Br7  1  0.946622  0.053378  0.726848  1
  Br  Br8  1  0.053378  0.946622  0.273152  1
  Br  Br9  1  0.833346  0.166654  0.155093  1
  Br  Br10  1  0.166654  0.833346  0.844907  1
  Br  Br11  1  0.608112  0.391888  0.060971  1
  Br  Br12  1  0.391888  0.608112  0.939029  1
