# generated using pymatgen
data_Zr2Ni
_symmetry_space_group_name_H-M   'P 1'
_cell_length_a   5.30008718
_cell_length_b   5.30008718
_cell_length_c   5.30008718
_cell_angle_alpha   104.26891271
_cell_angle_beta   104.26891271
_cell_angle_gamma   120.46776843
_symmetry_Int_Tables_number   1
_chemical_formula_structural   Zr2Ni
_chemical_formula_sum   'Zr4 Ni2'
_cell_volume   111.39420406
_cell_formula_units_Z   2
loop_
 _symmetry_equiv_pos_site_id
 _symmetry_equiv_pos_as_xyz
  1  'x, y, z'
loop_
 _atom_site_type_symbol
 _atom_site_label
 _atom_site_symmetry_multiplicity
 _atom_site_fract_x
 _atom_site_fract_y
 _atom_site_fract_z
 _atom_site_occupancy
  Zr  Zr0  1  0.163060  0.336940  0.500000  1
  Zr  Zr1  1  0.836940  0.663060  0.500000  1
  Zr  Zr2  1  0.336940  0.836940  0.173880  1
  Zr  Zr3  1  0.663060  0.163060  0.826120  1
  Ni  Ni4  1  0.750000  0.750000  0.000000  1
  Ni  Ni5  1  0.250000  0.250000  0.000000  1
