# generated using pymatgen
data_SrHfO3
_symmetry_space_group_name_H-M   'P 1'
_cell_length_a   5.80058498
_cell_length_b   5.83250117
_cell_length_c   8.21286413
_cell_angle_alpha   90.00000000
_cell_angle_beta   90.00000000
_cell_angle_gamma   90.00000000
_symmetry_Int_Tables_number   1
_chemical_formula_structural   SrHfO3
_chemical_formula_sum   'Sr4 Hf4 O12'
_cell_volume   277.85695140
_cell_formula_units_Z   4
loop_
 _symmetry_equiv_pos_site_id
 _symmetry_equiv_pos_as_xyz
  1  'x, y, z'
loop_
 _atom_site_type_symbol
 _atom_site_label
 _atom_site_symmetry_multiplicity
 _atom_site_fract_x
 _atom_site_fract_y
 _atom_site_fract_z
 _atom_site_occupancy
  Sr  Sr0  1  0.005487  0.525492  0.250000  1
  Sr  Sr1  1  0.505487  0.974508  0.750000  1
  Sr  Sr2  1  0.494513  0.025492  0.250000  1
  Sr  Sr3  1  0.994513  0.474508  0.750000  1
  Hf  Hf4  1  0.000000  0.000000  0.000000  1
  Hf  Hf5  1  0.500000  0.500000  0.000000  1
  Hf  Hf6  1  0.500000  0.500000  0.500000  1
  Hf  Hf7  1  0.000000  0.000000  0.500000  1
  O  O8  1  0.218423  0.281488  0.464378  1
  O  O9  1  0.718423  0.218512  0.535622  1
  O  O10  1  0.281577  0.781488  0.035622  1
  O  O11  1  0.781577  0.718512  0.964378  1
  O  O12  1  0.781577  0.718512  0.535622  1
  O  O13  1  0.281577  0.781488  0.464378  1
  O  O14  1  0.718423  0.218512  0.964378  1
  O  O15  1  0.218423  0.281488  0.035622  1
  O  O16  1  0.932198  0.985180  0.250000  1
  O  O17  1  0.432198  0.514820  0.750000  1
  O  O18  1  0.567802  0.485180  0.250000  1
  O  O19  1  0.067802  0.014820  0.750000  1
