# generated using pymatgen
data_VP2O7
_symmetry_space_group_name_H-M   'P 1'
_cell_length_a   5.14665663
_cell_length_b   5.14665663
_cell_length_c   4.55691502
_cell_angle_alpha   82.80666796
_cell_angle_beta   97.19333204
_cell_angle_gamma   79.36738469
_symmetry_Int_Tables_number   1
_chemical_formula_structural   VP2O7
_chemical_formula_sum   'V1 P2 O7'
_cell_volume   116.32817669
_cell_formula_units_Z   1
loop_
 _symmetry_equiv_pos_site_id
 _symmetry_equiv_pos_as_xyz
  1  'x, y, z'
loop_
 _atom_site_type_symbol
 _atom_site_label
 _atom_site_symmetry_multiplicity
 _atom_site_fract_x
 _atom_site_fract_y
 _atom_site_fract_z
 _atom_site_occupancy
  V  V0  1  0.883914  0.883914  0.000000  1
  P  P1  1  0.333717  0.741437  0.584987  1
  P  P2  1  0.741437  0.333717  0.415013  1
  O  O3  1  0.193374  0.917530  0.293620  1
  O  O4  1  0.680074  0.136998  0.196375  1
  O  O5  1  0.850792  0.562246  0.265232  1
  O  O6  1  0.917530  0.193374  0.706380  1
  O  O7  1  0.453031  0.453031  0.500000  1
  O  O8  1  0.562246  0.850792  0.734768  1
  O  O9  1  0.136998  0.680074  0.803625  1
