# generated using pymatgen
data_NaSm2Se3
_symmetry_space_group_name_H-M   'P 1'
_cell_length_a   7.24488050
_cell_length_b   7.24488050
_cell_length_c   7.24954801
_cell_angle_alpha   80.26366865
_cell_angle_beta   99.73633135
_cell_angle_gamma   60.57565445
_symmetry_Int_Tables_number   1
_chemical_formula_structural   NaSm2Se3
_chemical_formula_sum   'Na2 Sm4 Se6'
_cell_volume   312.24380874
_cell_formula_units_Z   2
loop_
 _symmetry_equiv_pos_site_id
 _symmetry_equiv_pos_as_xyz
  1  'x, y, z'
loop_
 _atom_site_type_symbol
 _atom_site_label
 _atom_site_symmetry_multiplicity
 _atom_site_fract_x
 _atom_site_fract_y
 _atom_site_fract_z
 _atom_site_occupancy
  Na  Na0  1  0.416861  0.416861  0.250000  1
  Na  Na1  1  0.583139  0.583139  0.750000  1
  Sm  Sm2  1  0.749360  0.749360  0.250000  1
  Sm  Sm3  1  0.083320  0.083320  0.250000  1
  Sm  Sm4  1  0.916680  0.916680  0.750000  1
  Sm  Sm5  1  0.250640  0.250640  0.750000  1
  Se  Se6  1  0.668711  0.163179  0.001723  1
  Se  Se7  1  0.331289  0.836821  0.998277  1
  Se  Se8  1  0.163179  0.668711  0.498277  1
  Se  Se9  1  0.000000  0.500000  0.000000  1
  Se  Se10  1  0.836821  0.331289  0.501723  1
  Se  Se11  1  0.500000  1.000000  0.500000  1
