# generated using pymatgen
data_Pr2CdSe4
_symmetry_space_group_name_H-M   'P 1'
_cell_length_a   7.81400474
_cell_length_b   7.81400474
_cell_length_c   7.81400474
_cell_angle_alpha   110.87031158
_cell_angle_beta   110.87031158
_cell_angle_gamma   106.70787909
_symmetry_Int_Tables_number   1
_chemical_formula_structural   Pr2CdSe4
_chemical_formula_sum   'Pr4 Cd2 Se8'
_cell_volume   366.64471772
_cell_formula_units_Z   2
loop_
 _symmetry_equiv_pos_site_id
 _symmetry_equiv_pos_as_xyz
  1  'x, y, z'
loop_
 _atom_site_type_symbol
 _atom_site_label
 _atom_site_symmetry_multiplicity
 _atom_site_fract_x
 _atom_site_fract_y
 _atom_site_fract_z
 _atom_site_occupancy
  Pr  Pr0  1  0.240889  0.625000  0.115889  1
  Pr  Pr1  1  0.375000  0.490889  0.615889  1
  Pr  Pr2  1  0.509111  0.125000  0.884111  1
  Pr  Pr3  1  0.875000  0.759111  0.384111  1
  Cd  Cd4  1  0.750000  0.250000  0.500000  1
  Cd  Cd5  1  1.000000  1.000000  0.000000  1
  Se  Se6  1  0.130162  0.754326  0.763578  1
  Se  Se7  1  0.619838  0.883416  0.124164  1
  Se  Se8  1  0.245674  0.009252  0.375836  1
  Se  Se9  1  0.504326  0.380162  0.263578  1
  Se  Se10  1  0.759252  0.495674  0.875836  1
  Se  Se11  1  0.633416  0.869838  0.624164  1
  Se  Se12  1  0.990748  0.366584  0.236422  1
  Se  Se13  1  0.116584  0.240748  0.736422  1
