# generated using pymatgen
data_Ta4SnO12
_symmetry_space_group_name_H-M   'P 1'
_cell_length_a   6.87555498
_cell_length_b   6.87555498
_cell_length_c   6.87555498
_cell_angle_alpha   109.47122063
_cell_angle_beta   109.47122063
_cell_angle_gamma   109.47122063
_symmetry_Int_Tables_number   1
_chemical_formula_structural   Ta4SnO12
_chemical_formula_sum   'Ta4 Sn1 O12'
_cell_volume   250.20811247
_cell_formula_units_Z   1
loop_
 _symmetry_equiv_pos_site_id
 _symmetry_equiv_pos_as_xyz
  1  'x, y, z'
loop_
 _atom_site_type_symbol
 _atom_site_label
 _atom_site_symmetry_multiplicity
 _atom_site_fract_x
 _atom_site_fract_y
 _atom_site_fract_z
 _atom_site_occupancy
  Ta  Ta0  1  1.000000  0.500000  1.000000  1
  Ta  Ta1  1  0.000000  1.000000  0.500000  1
  Ta  Ta2  1  0.500000  0.500000  0.500000  1
  Ta  Ta3  1  0.500000  1.000000  0.000000  1
  Sn  Sn4  1  0.000000  0.000000  0.000000  1
  O  O5  1  0.243007  0.243007  0.486013  1
  O  O6  1  0.243007  0.756993  0.000000  1
  O  O7  1  0.756993  0.513987  0.756993  1
  O  O8  1  0.756993  0.000000  0.243007  1
  O  O9  1  0.756993  0.243007  0.000000  1
  O  O10  1  0.756993  0.756993  0.513987  1
  O  O11  1  0.513987  0.756993  0.756993  1
  O  O12  1  0.486013  0.243007  0.243007  1
  O  O13  1  0.243007  0.486013  0.243007  1
  O  O14  1  0.243007  1.000000  0.756993  1
  O  O15  1  0.000000  0.756993  0.243007  1
  O  O16  1  0.000000  0.243007  0.756993  1
