# generated using pymatgen
data_Zn(CN)2
_symmetry_space_group_name_H-M   'P 1'
_cell_length_a   5.95724354
_cell_length_b   5.95724354
_cell_length_c   5.95130556
_cell_angle_alpha   90.00000000
_cell_angle_beta   90.00000000
_cell_angle_gamma   90.00000000
_symmetry_Int_Tables_number   1
_chemical_formula_structural   Zn(CN)2
_chemical_formula_sum   'Zn2 C4 N4'
_cell_volume   211.20439873
_cell_formula_units_Z   2
loop_
 _symmetry_equiv_pos_site_id
 _symmetry_equiv_pos_as_xyz
  1  'x, y, z'
loop_
 _atom_site_type_symbol
 _atom_site_label
 _atom_site_symmetry_multiplicity
 _atom_site_fract_x
 _atom_site_fract_y
 _atom_site_fract_z
 _atom_site_occupancy
  Zn  Zn0  1  0.000000  0.000000  0.258142  1
  Zn  Zn1  1  0.500000  0.500000  0.758142  1
  C  C2  1  0.198926  0.801074  0.441496  1
  C  C3  1  0.801074  0.198926  0.441496  1
  C  C4  1  0.698926  0.698926  0.941496  1
  C  C5  1  0.301074  0.301074  0.941496  1
  N  N6  1  0.811995  0.811995  0.054434  1
  N  N7  1  0.188005  0.188005  0.054434  1
  N  N8  1  0.688005  0.311995  0.554434  1
  N  N9  1  0.311995  0.688005  0.554434  1
