# generated using pymatgen
data_Zn(FeO2)2
_symmetry_space_group_name_H-M   'P 1'
_cell_length_a   6.04040991
_cell_length_b   6.04040991
_cell_length_c   6.04040991
_cell_angle_alpha   120.36854630
_cell_angle_beta   120.33470526
_cell_angle_gamma   89.39204018
_symmetry_Int_Tables_number   1
_chemical_formula_structural   Zn(FeO2)2
_chemical_formula_sum   'Zn2 Fe4 O8'
_cell_volume   155.00415273
_cell_formula_units_Z   2
loop_
 _symmetry_equiv_pos_site_id
 _symmetry_equiv_pos_as_xyz
  1  'x, y, z'
loop_
 _atom_site_type_symbol
 _atom_site_label
 _atom_site_symmetry_multiplicity
 _atom_site_fract_x
 _atom_site_fract_y
 _atom_site_fract_z
 _atom_site_occupancy
  Zn  Zn0  1  1.000000  0.500000  0.000000  1
  Zn  Zn1  1  0.000000  0.000000  0.500000  1
  Fe  Fe2  1  0.619725  0.369725  0.250000  1
  Fe  Fe3  1  0.380275  0.630275  0.750000  1
  Fe  Fe4  1  0.500000  0.000000  0.500000  1
  Fe  Fe5  1  0.000000  0.000000  0.000000  1
  O  O6  1  0.257614  0.763434  0.494180  1
  O  O7  1  0.769254  0.763434  0.005820  1
  O  O8  1  0.251756  0.766923  0.015168  1
  O  O9  1  0.251756  0.236588  0.484832  1
  O  O10  1  0.748244  0.763412  0.515168  1
  O  O11  1  0.748244  0.233077  0.984832  1
  O  O12  1  0.230746  0.236566  0.994180  1
  O  O13  1  0.742386  0.236566  0.505820  1
