# generated using pymatgen
data_V(NiP4)4
_symmetry_space_group_name_H-M   'P 1'
_cell_length_a   10.18163950
_cell_length_b   10.18163950
_cell_length_c   11.09703105
_cell_angle_alpha   79.54598932
_cell_angle_beta   100.45401068
_cell_angle_gamma   147.69182844
_symmetry_Int_Tables_number   1
_chemical_formula_structural   V(NiP4)4
_chemical_formula_sum   'V2 Ni8 P32'
_cell_volume   603.77812766
_cell_formula_units_Z   2
loop_
 _symmetry_equiv_pos_site_id
 _symmetry_equiv_pos_as_xyz
  1  'x, y, z'
loop_
 _atom_site_type_symbol
 _atom_site_label
 _atom_site_symmetry_multiplicity
 _atom_site_fract_x
 _atom_site_fract_y
 _atom_site_fract_z
 _atom_site_occupancy
  V  V0  1  0.607087  0.607087  0.750000  1
  V  V1  1  0.392913  0.392913  0.250000  1
  Ni  Ni2  1  0.805669  0.306759  0.629014  1
  Ni  Ni3  1  0.306759  0.805669  0.870986  1
  Ni  Ni4  1  0.987853  0.200166  0.926202  1
  Ni  Ni5  1  0.200166  0.987853  0.573798  1
  Ni  Ni6  1  0.012147  0.799834  0.073798  1
  Ni  Ni7  1  0.799834  0.012147  0.426202  1
  Ni  Ni8  1  0.693241  0.194331  0.129014  1
  Ni  Ni9  1  0.194331  0.693241  0.370986  1
  P  P10  1  0.728128  0.736536  0.391295  1
  P  P11  1  0.736536  0.728128  0.108705  1
  P  P12  1  0.271872  0.263464  0.608705  1
  P  P13  1  0.263464  0.271872  0.891295  1
  P  P14  1  0.618798  0.381672  0.336532  1
  P  P15  1  0.381672  0.618798  0.163468  1
  P  P16  1  0.381202  0.618328  0.663468  1
  P  P17  1  0.618328  0.381202  0.836532  1
  P  P18  1  0.011512  0.730714  0.280332  1
  P  P19  1  0.730714  0.011512  0.219668  1
  P  P20  1  0.885633  0.005511  0.633964  1
  P  P21  1  0.005511  0.885633  0.866036  1
  P  P22  1  0.114367  0.994489  0.366036  1
  P  P23  1  0.994489  0.114367  0.133964  1
  P  P24  1  0.657510  0.778640  0.917767  1
  P  P25  1  0.778640  0.657510  0.582233  1
  P  P26  1  0.342490  0.221360  0.082233  1
  P  P27  1  0.221360  0.342490  0.417767  1
  P  P28  1  0.321895  0.603701  0.958441  1
  P  P29  1  0.603701  0.321895  0.541559  1
  P  P30  1  0.678105  0.396299  0.041559  1
  P  P31  1  0.396299  0.678105  0.458441  1
  P  P32  1  0.721980  0.147059  0.946174  1
  P  P33  1  0.147059  0.721980  0.553826  1
  P  P34  1  0.278020  0.852941  0.053826  1
  P  P35  1  0.852941  0.278020  0.446174  1
  P  P36  1  0.443931  0.885573  0.687786  1
  P  P37  1  0.885573  0.443931  0.812214  1
  P  P38  1  0.556069  0.114427  0.312214  1
  P  P39  1  0.114427  0.556069  0.187786  1
  P  P40  1  0.269286  0.988488  0.780332  1
  P  P41  1  0.988488  0.269286  0.719668  1
