# generated using pymatgen
data_LiMn4O8
_symmetry_space_group_name_H-M   'P 1'
_cell_length_a   5.90828346
_cell_length_b   5.90828346
_cell_length_c   5.90828346
_cell_angle_alpha   60.00000000
_cell_angle_beta   60.00000000
_cell_angle_gamma   60.00000000
_symmetry_Int_Tables_number   1
_chemical_formula_structural   LiMn4O8
_chemical_formula_sum   'Li1 Mn4 O8'
_cell_volume   145.83741940
_cell_formula_units_Z   1
loop_
 _symmetry_equiv_pos_site_id
 _symmetry_equiv_pos_as_xyz
  1  'x, y, z'
loop_
 _atom_site_type_symbol
 _atom_site_label
 _atom_site_symmetry_multiplicity
 _atom_site_fract_x
 _atom_site_fract_y
 _atom_site_fract_z
 _atom_site_occupancy
  Li  Li0  1  1.000000  1.000000  1.000000  1
  Mn  Mn1  1  0.624094  0.127717  0.624094  1
  Mn  Mn2  1  0.127717  0.624094  0.624094  1
  Mn  Mn3  1  0.624094  0.624094  0.127717  1
  Mn  Mn4  1  0.624094  0.624094  0.624094  1
  O  O5  1  0.828947  0.390351  0.390351  1
  O  O6  1  0.390351  0.828947  0.390351  1
  O  O7  1  0.390351  0.390351  0.390351  1
  O  O8  1  0.390351  0.390351  0.828947  1
  O  O9  1  0.861226  0.416321  0.861226  1
  O  O10  1  0.416321  0.861226  0.861226  1
  O  O11  1  0.861226  0.861226  0.416321  1
  O  O12  1  0.861226  0.861226  0.861226  1
