# generated using pymatgen
data_UPt3
_symmetry_space_group_name_H-M   'P 1'
_cell_length_a   5.77692367
_cell_length_b   5.77692367
_cell_length_c   4.99760338
_cell_angle_alpha   90.00000000
_cell_angle_beta   90.00000000
_cell_angle_gamma   120.00000000
_symmetry_Int_Tables_number   1
_chemical_formula_structural   UPt3
_chemical_formula_sum   'U2 Pt6'
_cell_volume   144.43940032
_cell_formula_units_Z   2
loop_
 _symmetry_equiv_pos_site_id
 _symmetry_equiv_pos_as_xyz
  1  'x, y, z'
loop_
 _atom_site_type_symbol
 _atom_site_label
 _atom_site_symmetry_multiplicity
 _atom_site_fract_x
 _atom_site_fract_y
 _atom_site_fract_z
 _atom_site_occupancy
  U  U0  1  0.666667  0.333333  0.750000  1
  U  U1  1  0.333333  0.666667  0.250000  1
  Pt  Pt2  1  0.164851  0.329701  0.750000  1
  Pt  Pt3  1  0.164851  0.835149  0.750000  1
  Pt  Pt4  1  0.670299  0.835149  0.750000  1
  Pt  Pt5  1  0.835149  0.670299  0.250000  1
  Pt  Pt6  1  0.835149  0.164851  0.250000  1
  Pt  Pt7  1  0.329701  0.164851  0.250000  1
