# generated using pymatgen
data_RbAg7S4
_symmetry_space_group_name_H-M   'P 1'
_cell_length_a   11.21437606
_cell_length_b   11.21437606
_cell_length_c   8.52521015
_cell_angle_alpha   90.00000000
_cell_angle_beta   90.00000000
_cell_angle_gamma   90.00000000
_symmetry_Int_Tables_number   1
_chemical_formula_structural   RbAg7S4
_chemical_formula_sum   'Rb4 Ag28 S16'
_cell_volume   1072.14944322
_cell_formula_units_Z   4
loop_
 _symmetry_equiv_pos_site_id
 _symmetry_equiv_pos_as_xyz
  1  'x, y, z'
loop_
 _atom_site_type_symbol
 _atom_site_label
 _atom_site_symmetry_multiplicity
 _atom_site_fract_x
 _atom_site_fract_y
 _atom_site_fract_z
 _atom_site_occupancy
  Rb  Rb0  1  0.500000  0.000000  0.124287  1
  Rb  Rb1  1  0.000000  0.500000  0.875713  1
  Rb  Rb2  1  0.500000  0.000000  0.623680  1
  Rb  Rb3  1  0.000000  0.500000  0.376320  1
  Ag  Ag4  1  0.862883  0.018937  0.123040  1
  Ag  Ag5  1  0.018937  0.137117  0.876960  1
  Ag  Ag6  1  0.981063  0.862883  0.876960  1
  Ag  Ag7  1  0.637117  0.481063  0.876960  1
  Ag  Ag8  1  0.362883  0.518937  0.876960  1
  Ag  Ag9  1  0.040343  0.142173  0.383689  1
  Ag  Ag10  1  0.959657  0.857827  0.383689  1
  Ag  Ag11  1  0.642173  0.459657  0.383689  1
  Ag  Ag12  1  0.142173  0.959657  0.616311  1
  Ag  Ag13  1  0.459657  0.357827  0.616311  1
  Ag  Ag14  1  0.540343  0.642173  0.616311  1
  Ag  Ag15  1  0.857827  0.040343  0.616311  1
  Ag  Ag16  1  0.518937  0.637117  0.123040  1
  Ag  Ag17  1  0.481063  0.362883  0.123040  1
  Ag  Ag18  1  0.137117  0.981063  0.123040  1
  Ag  Ag19  1  0.211588  0.227572  0.661344  1
  Ag  Ag20  1  0.727572  0.288412  0.661344  1
  Ag  Ag21  1  0.272428  0.711588  0.661344  1
  Ag  Ag22  1  0.788412  0.772428  0.661344  1
  Ag  Ag23  1  0.288412  0.272428  0.338656  1
  Ag  Ag24  1  0.772428  0.211588  0.338656  1
  Ag  Ag25  1  0.227572  0.788412  0.338656  1
  Ag  Ag26  1  0.711588  0.727572  0.338656  1
  Ag  Ag27  1  0.250000  0.750000  0.000000  1
  Ag  Ag28  1  0.250000  0.250000  0.000000  1
  Ag  Ag29  1  0.750000  0.750000  0.000000  1
  Ag  Ag30  1  0.750000  0.250000  0.000000  1
  Ag  Ag31  1  0.357827  0.540343  0.383689  1
  S  S32  1  0.054557  0.751838  0.624407  1
  S  S33  1  0.942038  0.242953  0.132751  1
  S  S34  1  0.742953  0.557962  0.132751  1
  S  S35  1  0.257047  0.442038  0.132751  1
  S  S36  1  0.251838  0.445443  0.624407  1
  S  S37  1  0.748162  0.554557  0.624407  1
  S  S38  1  0.945443  0.248162  0.624407  1
  S  S39  1  0.445443  0.748162  0.375593  1
  S  S40  1  0.248162  0.054557  0.375593  1
  S  S41  1  0.057962  0.757047  0.132751  1
  S  S42  1  0.751838  0.945443  0.375593  1
  S  S43  1  0.442038  0.742953  0.867249  1
  S  S44  1  0.242953  0.057962  0.867249  1
  S  S45  1  0.757047  0.942038  0.867249  1
  S  S46  1  0.557962  0.257047  0.867249  1
  S  S47  1  0.554557  0.251838  0.375593  1
