# generated using pymatgen
data_SrLaMn2O6
_symmetry_space_group_name_H-M   'P 1'
_cell_length_a   5.53989736
_cell_length_b   5.53989736
_cell_length_c   5.53989736
_cell_angle_alpha   120.54011293
_cell_angle_beta   120.54011293
_cell_angle_gamma   89.06701533
_symmetry_Int_Tables_number   1
_chemical_formula_structural   SrLaMn2O6
_chemical_formula_sum   'Sr1 La1 Mn2 O6'
_cell_volume   119.22509578
_cell_formula_units_Z   1
loop_
 _symmetry_equiv_pos_site_id
 _symmetry_equiv_pos_as_xyz
  1  'x, y, z'
loop_
 _atom_site_type_symbol
 _atom_site_label
 _atom_site_symmetry_multiplicity
 _atom_site_fract_x
 _atom_site_fract_y
 _atom_site_fract_z
 _atom_site_occupancy
  Sr  Sr0  1  0.500000  0.500000  0.000000  1
  La  La1  1  1.000000  0.000000  0.000000  1
  Mn  Mn2  1  0.250000  0.750000  0.500000  1
  Mn  Mn3  1  0.750000  0.250000  0.500000  1
  O  O4  1  0.500000  0.000000  0.500000  1
  O  O5  1  0.457633  0.028027  0.000000  1
  O  O6  1  0.542367  0.542367  0.570393  1
  O  O7  1  1.000000  0.500000  0.500000  1
  O  O8  1  0.971973  0.971973  0.429607  1
  O  O9  1  0.028027  0.457633  0.000000  1
