# generated using pymatgen
data_Nd2Se3
_symmetry_space_group_name_H-M   'P 1'
_cell_length_a   14.82367108
_cell_length_b   14.82367108
_cell_length_c   14.82367108
_cell_angle_alpha   144.86452829
_cell_angle_beta   144.86452829
_cell_angle_gamma   50.53645395
_symmetry_Int_Tables_number   1
_chemical_formula_structural   Nd2Se3
_chemical_formula_sum   'Nd16 Se24'
_cell_volume   1073.45251408
_cell_formula_units_Z   8
loop_
 _symmetry_equiv_pos_site_id
 _symmetry_equiv_pos_as_xyz
  1  'x, y, z'
loop_
 _atom_site_type_symbol
 _atom_site_label
 _atom_site_symmetry_multiplicity
 _atom_site_fract_x
 _atom_site_fract_y
 _atom_site_fract_z
 _atom_site_occupancy
  Nd  Nd0  1  0.174000  0.297356  0.391633  1
  Nd  Nd1  1  0.905723  0.782367  0.608367  1
  Nd  Nd2  1  0.583318  0.083318  0.500000  1
  Nd  Nd3  1  0.375000  0.744671  0.869671  1
  Nd  Nd4  1  0.166682  0.166682  0.000000  1
  Nd  Nd5  1  0.844277  0.952644  0.376644  1
  Nd  Nd6  1  0.875000  0.505329  0.130329  1
  Nd  Nd7  1  0.576000  0.467633  0.623356  1
  Nd  Nd8  1  0.047356  0.424000  0.891633  1
  Nd  Nd9  1  0.833318  0.833318  0.000000  1
  Nd  Nd10  1  0.494671  0.625000  0.369671  1
  Nd  Nd11  1  0.255329  0.125000  0.630329  1
  Nd  Nd12  1  0.532367  0.155723  0.108367  1
  Nd  Nd13  1  0.916682  0.416682  0.500000  1
  Nd  Nd14  1  0.702644  0.094277  0.876644  1
  Nd  Nd15  1  0.217633  0.826000  0.123356  1
  Se  Se16  1  0.530062  0.423917  0.746718  1
  Se  Se17  1  0.241653  0.994564  0.102196  1
  Se  Se18  1  0.508347  0.110543  0.252912  1
  Se  Se19  1  0.892368  0.139457  0.897804  1
  Se  Se20  1  0.857632  0.255436  0.747088  1
  Se  Se21  1  0.219938  0.466656  0.393855  1
  Se  Se22  1  0.677199  0.783344  0.253282  1
  Se  Se23  1  0.072801  0.826083  0.606145  1
  Se  Se24  1  0.185649  0.094192  0.747674  1
  Se  Se25  1  0.905808  0.653482  0.091458  1
  Se  Se26  1  0.173917  0.780062  0.246718  1
  Se  Se27  1  0.562024  0.814351  0.908542  1
  Se  Se28  1  0.533344  0.927199  0.753282  1
  Se  Se29  1  0.346518  0.437976  0.252326  1
  Se  Se30  1  0.889457  0.142368  0.397804  1
  Se  Se31  1  0.744564  0.491653  0.602196  1
  Se  Se32  1  0.860543  0.758347  0.752912  1
  Se  Se33  1  0.576083  0.322801  0.106145  1
  Se  Se34  1  0.844192  0.435649  0.247674  1
  Se  Se35  1  0.216656  0.469938  0.893855  1
  Se  Se36  1  0.187976  0.596518  0.752326  1
  Se  Se37  1  0.564351  0.812024  0.408542  1
  Se  Se38  1  0.005436  0.107632  0.247088  1
  Se  Se39  1  0.403482  0.155808  0.591458  1
