# generated using pymatgen
data_Zr2AlC
_symmetry_space_group_name_H-M   'P 1'
_cell_length_a   3.33035770
_cell_length_b   3.33035770
_cell_length_c   14.61432391
_cell_angle_alpha   90.00000000
_cell_angle_beta   90.00000000
_cell_angle_gamma   120.00000000
_symmetry_Int_Tables_number   1
_chemical_formula_structural   Zr2AlC
_chemical_formula_sum   'Zr4 Al2 C2'
_cell_volume   140.37543819
_cell_formula_units_Z   2
loop_
 _symmetry_equiv_pos_site_id
 _symmetry_equiv_pos_as_xyz
  1  'x, y, z'
loop_
 _atom_site_type_symbol
 _atom_site_label
 _atom_site_symmetry_multiplicity
 _atom_site_fract_x
 _atom_site_fract_y
 _atom_site_fract_z
 _atom_site_occupancy
  Zr  Zr0  1  0.333333  0.666667  0.086779  1
  Zr  Zr1  1  0.666667  0.333333  0.586779  1
  Zr  Zr2  1  0.666667  0.333333  0.913221  1
  Zr  Zr3  1  0.333333  0.666667  0.413221  1
  Al  Al4  1  0.333333  0.666667  0.750000  1
  Al  Al5  1  0.666667  0.333333  0.250000  1
  C  C6  1  0.000000  0.000000  0.000000  1
  C  C7  1  0.000000  0.000000  0.500000  1
