# generated using pymatgen
data_PrFeSi2
_symmetry_space_group_name_H-M   'P 1'
_cell_length_a   8.77685281
_cell_length_b   8.77685281
_cell_length_c   4.03325541
_cell_angle_alpha   90.00000000
_cell_angle_beta   90.00000000
_cell_angle_gamma   152.79666899
_symmetry_Int_Tables_number   1
_chemical_formula_structural   PrFeSi2
_chemical_formula_sum   'Pr2 Fe2 Si4'
_cell_volume   142.03380857
_cell_formula_units_Z   2
loop_
 _symmetry_equiv_pos_site_id
 _symmetry_equiv_pos_as_xyz
  1  'x, y, z'
loop_
 _atom_site_type_symbol
 _atom_site_label
 _atom_site_symmetry_multiplicity
 _atom_site_fract_x
 _atom_site_fract_y
 _atom_site_fract_z
 _atom_site_occupancy
  Pr  Pr0  1  0.107412  0.892588  0.250000  1
  Pr  Pr1  1  0.892588  0.107412  0.750000  1
  Fe  Fe2  1  0.250329  0.749671  0.750000  1
  Fe  Fe3  1  0.749671  0.250329  0.250000  1
  Si  Si4  1  0.310009  0.689991  0.250000  1
  Si  Si5  1  0.689991  0.310009  0.750000  1
  Si  Si6  1  0.537910  0.462090  0.750000  1
  Si  Si7  1  0.462090  0.537910  0.250000  1
