# generated using pymatgen
data_Rb3CoO2
_symmetry_space_group_name_H-M   'P 1'
_cell_length_a   6.28874639
_cell_length_b   7.82580336
_cell_length_c   12.43848185
_cell_angle_alpha   90.00000000
_cell_angle_beta   90.00000000
_cell_angle_gamma   90.00000000
_symmetry_Int_Tables_number   1
_chemical_formula_structural   Rb3CoO2
_chemical_formula_sum   'Rb12 Co4 O8'
_cell_volume   612.15357332
_cell_formula_units_Z   4
loop_
 _symmetry_equiv_pos_site_id
 _symmetry_equiv_pos_as_xyz
  1  'x, y, z'
loop_
 _atom_site_type_symbol
 _atom_site_label
 _atom_site_symmetry_multiplicity
 _atom_site_fract_x
 _atom_site_fract_y
 _atom_site_fract_z
 _atom_site_occupancy
  Rb  Rb0  1  0.776613  0.750000  0.100517  1
  Rb  Rb1  1  0.276613  0.250000  0.399483  1
  Rb  Rb2  1  0.223387  0.250000  0.899483  1
  Rb  Rb3  1  0.723387  0.750000  0.600517  1
  Rb  Rb4  1  0.318301  0.500871  0.137636  1
  Rb  Rb5  1  0.818301  0.499129  0.362364  1
  Rb  Rb6  1  0.681699  0.000871  0.862364  1
  Rb  Rb7  1  0.181699  0.999129  0.637636  1
  Rb  Rb8  1  0.681699  0.499129  0.862364  1
  Rb  Rb9  1  0.181699  0.500871  0.637636  1
  Rb  Rb10  1  0.318301  0.999129  0.137636  1
  Rb  Rb11  1  0.818301  0.000871  0.362364  1
  Co  Co12  1  0.806248  0.250000  0.118910  1
  Co  Co13  1  0.306248  0.750000  0.381090  1
  Co  Co14  1  0.193752  0.750000  0.881090  1
  Co  Co15  1  0.693752  0.250000  0.618910  1
  O  O16  1  0.587450  0.250000  0.029275  1
  O  O17  1  0.087450  0.750000  0.470725  1
  O  O18  1  0.412550  0.750000  0.970725  1
  O  O19  1  0.912550  0.250000  0.529275  1
  O  O20  1  0.015930  0.250000  0.214275  1
  O  O21  1  0.484070  0.250000  0.714275  1
  O  O22  1  0.515930  0.750000  0.285725  1
  O  O23  1  0.984070  0.750000  0.785725  1
