# generated using pymatgen
data_LiMnP2O7
_symmetry_space_group_name_H-M   'P 1'
_cell_length_a   6.22402865
_cell_length_b   6.22402865
_cell_length_c   13.77180200
_cell_angle_alpha   75.67489383
_cell_angle_beta   104.32510617
_cell_angle_gamma   99.05649307
_symmetry_Int_Tables_number   1
_chemical_formula_structural   LiMnP2O7
_chemical_formula_sum   'Li4 Mn4 P8 O28'
_cell_volume   498.20342294
_cell_formula_units_Z   4
loop_
 _symmetry_equiv_pos_site_id
 _symmetry_equiv_pos_as_xyz
  1  'x, y, z'
loop_
 _atom_site_type_symbol
 _atom_site_label
 _atom_site_symmetry_multiplicity
 _atom_site_fract_x
 _atom_site_fract_y
 _atom_site_fract_z
 _atom_site_occupancy
  Li  Li0  1  0.334026  0.895095  0.365166  1
  Li  Li1  1  0.104905  0.665974  0.865166  1
  Li  Li2  1  0.895095  0.334026  0.134834  1
  Li  Li3  1  0.665974  0.104905  0.634834  1
  Mn  Mn4  1  0.245556  0.738861  0.640000  1
  Mn  Mn5  1  0.738861  0.245556  0.860000  1
  Mn  Mn6  1  0.261139  0.754444  0.140000  1
  Mn  Mn7  1  0.754444  0.261139  0.360000  1
  P  P8  1  0.618024  0.735803  0.867281  1
  P  P9  1  0.743135  0.847386  0.075869  1
  P  P10  1  0.847386  0.743135  0.424131  1
  P  P11  1  0.264197  0.381976  0.367281  1
  P  P12  1  0.735803  0.618024  0.632719  1
  P  P13  1  0.152614  0.256865  0.575869  1
  P  P14  1  0.256865  0.152614  0.924131  1
  P  P15  1  0.381976  0.264197  0.132719  1
  O  O16  1  0.774662  0.556957  0.877312  1
  O  O17  1  0.556957  0.774662  0.622688  1
  O  O18  1  0.937386  0.701539  0.128064  1
  O  O19  1  0.737427  0.962193  0.822029  1
  O  O20  1  0.809236  0.577846  0.354110  1
  O  O21  1  0.380188  0.689398  0.811242  1
  O  O22  1  0.604014  0.733864  0.981871  1
  O  O23  1  0.091777  0.812028  0.466034  1
  O  O24  1  0.812028  0.091777  0.033966  1
  O  O25  1  0.733864  0.604014  0.518129  1
  O  O26  1  0.577846  0.809236  0.145890  1
  O  O27  1  0.689398  0.380188  0.688758  1
  O  O28  1  0.298461  0.062614  0.628064  1
  O  O29  1  0.962193  0.737427  0.677971  1
  O  O30  1  0.037807  0.262573  0.322029  1
  O  O31  1  0.701539  0.937386  0.371936  1
  O  O32  1  0.310602  0.619812  0.311242  1
  O  O33  1  0.422154  0.190764  0.854110  1
  O  O34  1  0.266136  0.395986  0.481871  1
  O  O35  1  0.187972  0.908223  0.966034  1
  O  O36  1  0.908223  0.187972  0.533966  1
  O  O37  1  0.395986  0.266136  0.018129  1
  O  O38  1  0.619812  0.310602  0.188758  1
  O  O39  1  0.190764  0.422154  0.645890  1
  O  O40  1  0.262573  0.037807  0.177971  1
  O  O41  1  0.062614  0.298461  0.871936  1
  O  O42  1  0.443043  0.225338  0.377312  1
  O  O43  1  0.225338  0.443043  0.122688  1
