# generated using pymatgen
data_LiMn3O4
_symmetry_space_group_name_H-M   'P 1'
_cell_length_a   5.27862336
_cell_length_b   5.27862336
_cell_length_c   3.15988419
_cell_angle_alpha   88.31131065
_cell_angle_beta   91.68868935
_cell_angle_gamma   73.21741627
_symmetry_Int_Tables_number   1
_chemical_formula_structural   LiMn3O4
_chemical_formula_sum   'Li1 Mn3 O4'
_cell_volume   84.19345895
_cell_formula_units_Z   1
loop_
 _symmetry_equiv_pos_site_id
 _symmetry_equiv_pos_as_xyz
  1  'x, y, z'
loop_
 _atom_site_type_symbol
 _atom_site_label
 _atom_site_symmetry_multiplicity
 _atom_site_fract_x
 _atom_site_fract_y
 _atom_site_fract_z
 _atom_site_occupancy
  Li  Li0  1  0.000000  1.000000  0.500000  1
  Mn  Mn1  1  0.000000  0.500000  0.000000  1
  Mn  Mn2  1  0.500000  0.000000  0.000000  1
  Mn  Mn3  1  0.500000  0.500000  0.500000  1
  O  O4  1  0.261918  0.738082  0.024592  1
  O  O5  1  0.746670  0.746670  0.500000  1
  O  O6  1  0.738082  0.261918  0.975408  1
  O  O7  1  0.253330  0.253330  0.500000  1
