# generated using pymatgen
data_Sc3Ga2
_symmetry_space_group_name_H-M   'P 1'
_cell_length_a   10.39042443
_cell_length_b   10.39042443
_cell_length_c   10.39042443
_cell_angle_alpha   117.05035013
_cell_angle_beta   117.05035013
_cell_angle_gamma   95.18968920
_symmetry_Int_Tables_number   1
_chemical_formula_structural   Sc3Ga2
_chemical_formula_sum   'Sc24 Ga16'
_cell_volume   824.90597422
_cell_formula_units_Z   8
loop_
 _symmetry_equiv_pos_site_id
 _symmetry_equiv_pos_as_xyz
  1  'x, y, z'
loop_
 _atom_site_type_symbol
 _atom_site_label
 _atom_site_symmetry_multiplicity
 _atom_site_fract_x
 _atom_site_fract_y
 _atom_site_fract_z
 _atom_site_occupancy
  Sc  Sc0  1  0.570013  0.840159  0.138148  1
  Sc  Sc1  1  0.702012  0.431865  0.861852  1
  Sc  Sc2  1  0.068135  0.797988  0.138148  1
  Sc  Sc3  1  0.431865  0.570013  0.729853  1
  Sc  Sc4  1  0.840159  0.702012  0.270147  1
  Sc  Sc5  1  0.797988  0.659841  0.729853  1
  Sc  Sc6  1  0.929987  0.068135  0.270147  1
  Sc  Sc7  1  0.659841  0.929987  0.861852  1
  Sc  Sc8  1  0.429987  0.159841  0.861852  1
  Sc  Sc9  1  0.297988  0.568135  0.138148  1
  Sc  Sc10  1  0.931865  0.202012  0.861852  1
  Sc  Sc11  1  0.568135  0.429987  0.270147  1
  Sc  Sc12  1  0.159841  0.297988  0.729853  1
  Sc  Sc13  1  0.202012  0.340159  0.270147  1
  Sc  Sc14  1  0.070013  0.931865  0.729853  1
  Sc  Sc15  1  0.340159  0.070013  0.138148  1
  Sc  Sc16  1  0.146622  0.646622  0.500000  1
  Sc  Sc17  1  0.646622  0.146622  0.500000  1
  Sc  Sc18  1  0.353378  0.853378  0.500000  1
  Sc  Sc19  1  0.853378  0.353378  0.500000  1
  Sc  Sc20  1  0.669925  0.830075  0.500000  1
  Sc  Sc21  1  0.830075  0.330075  0.160151  1
  Sc  Sc22  1  0.169925  0.669925  0.839849  1
  Sc  Sc23  1  0.330075  0.169925  0.500000  1
  Ga  Ga24  1  0.876084  0.023453  0.500000  1
  Ga  Ga25  1  0.523453  0.376084  0.500000  1
  Ga  Ga26  1  0.123916  0.976547  0.500000  1
  Ga  Ga27  1  0.376084  0.876084  0.852632  1
  Ga  Ga28  1  0.023453  0.523453  0.147368  1
  Ga  Ga29  1  0.976547  0.476547  0.852632  1
  Ga  Ga30  1  0.623916  0.123916  0.147368  1
  Ga  Ga31  1  0.476547  0.623916  0.500000  1
  Ga  Ga32  1  0.881561  0.618439  0.500000  1
  Ga  Ga33  1  0.618439  0.118439  0.736878  1
  Ga  Ga34  1  0.381561  0.881561  0.263122  1
  Ga  Ga35  1  0.118439  0.381561  0.500000  1
  Ga  Ga36  1  0.500000  0.500000  0.000000  1
  Ga  Ga37  1  0.000000  0.000000  0.000000  1
  Ga  Ga38  1  0.750000  0.750000  0.000000  1
  Ga  Ga39  1  0.250000  0.250000  0.000000  1
