# generated using pymatgen
data_Er3Al5O12
_symmetry_space_group_name_H-M   'P 1'
_cell_length_a   10.43577613
_cell_length_b   10.43577613
_cell_length_c   10.43577613
_cell_angle_alpha   109.47122063
_cell_angle_beta   109.47122063
_cell_angle_gamma   109.47122063
_symmetry_Int_Tables_number   1
_chemical_formula_structural   Er3Al5O12
_chemical_formula_sum   'Er12 Al20 O48'
_cell_volume   874.88782144
_cell_formula_units_Z   4
loop_
 _symmetry_equiv_pos_site_id
 _symmetry_equiv_pos_as_xyz
  1  'x, y, z'
loop_
 _atom_site_type_symbol
 _atom_site_label
 _atom_site_symmetry_multiplicity
 _atom_site_fract_x
 _atom_site_fract_y
 _atom_site_fract_z
 _atom_site_occupancy
  Er  Er0  1  0.250000  0.875000  0.625000  1
  Er  Er1  1  0.875000  0.625000  0.250000  1
  Er  Er2  1  0.625000  0.875000  0.750000  1
  Er  Er3  1  0.875000  0.750000  0.625000  1
  Er  Er4  1  0.625000  0.250000  0.875000  1
  Er  Er5  1  0.750000  0.625000  0.875000  1
  Er  Er6  1  0.750000  0.125000  0.375000  1
  Er  Er7  1  0.125000  0.375000  0.750000  1
  Er  Er8  1  0.375000  0.125000  0.250000  1
  Er  Er9  1  0.125000  0.250000  0.375000  1
  Er  Er10  1  0.375000  0.750000  0.125000  1
  Er  Er11  1  0.250000  0.375000  0.125000  1
  Al  Al12  1  0.250000  0.125000  0.875000  1
  Al  Al13  1  0.750000  0.875000  0.125000  1
  Al  Al14  1  0.375000  0.250000  0.625000  1
  Al  Al15  1  0.625000  0.375000  0.250000  1
  Al  Al16  1  0.125000  0.750000  0.875000  1
  Al  Al17  1  0.875000  0.125000  0.750000  1
  Al  Al18  1  0.750000  0.375000  0.625000  1
  Al  Al19  1  0.375000  0.625000  0.750000  1
  Al  Al20  1  0.125000  0.875000  0.250000  1
  Al  Al21  1  0.875000  0.250000  0.125000  1
  Al  Al22  1  0.625000  0.750000  0.375000  1
  Al  Al23  1  0.250000  0.625000  0.375000  1
  Al  Al24  1  0.500000  0.500000  0.500000  1
  Al  Al25  1  0.500000  0.500000  0.000000  1
  Al  Al26  1  0.500000  0.000000  0.500000  1
  Al  Al27  1  1.000000  0.500000  0.500000  1
  Al  Al28  1  0.500000  0.000000  0.000000  1
  Al  Al29  1  0.000000  0.000000  0.500000  1
  Al  Al30  1  0.000000  0.500000  0.000000  1
  Al  Al31  1  0.000000  0.000000  0.000000  1
  O  O32  1  0.700819  0.679199  0.081212  1
  O  O33  1  0.820801  0.521620  0.402013  1
  O  O34  1  0.418788  0.097987  0.619608  1
  O  O35  1  0.799181  0.880392  0.978380  1
  O  O36  1  0.799181  0.418788  0.820801  1
  O  O37  1  0.880392  0.978380  0.799181  1
  O  O38  1  0.097987  0.978380  0.679199  1
  O  O39  1  0.978380  0.799181  0.880392  1
  O  O40  1  0.402013  0.081212  0.880392  1
  O  O41  1  0.521620  0.619608  0.700819  1
  O  O42  1  0.619608  0.700819  0.521620  1
  O  O43  1  0.820801  0.799181  0.418788  1
  O  O44  1  0.978380  0.679199  0.097987  1
  O  O45  1  0.880392  0.402013  0.081212  1
  O  O46  1  0.418788  0.820801  0.799181  1
  O  O47  1  0.679199  0.097987  0.978380  1
  O  O48  1  0.081212  0.880392  0.402013  1
  O  O49  1  0.402013  0.820801  0.521620  1
  O  O50  1  0.097987  0.619608  0.418788  1
  O  O51  1  0.597987  0.918788  0.119608  1
  O  O52  1  0.619608  0.418788  0.097987  1
  O  O53  1  0.081212  0.700819  0.679199  1
  O  O54  1  0.521620  0.402013  0.820801  1
  O  O55  1  0.700819  0.521620  0.619608  1
  O  O56  1  0.299181  0.320801  0.918788  1
  O  O57  1  0.179199  0.478380  0.597987  1
  O  O58  1  0.581212  0.902013  0.380392  1
  O  O59  1  0.200819  0.119608  0.021620  1
  O  O60  1  0.200819  0.581212  0.179199  1
  O  O61  1  0.119608  0.021620  0.200819  1
  O  O62  1  0.902013  0.021620  0.320801  1
  O  O63  1  0.021620  0.200819  0.119608  1
  O  O64  1  0.299181  0.478380  0.380392  1
  O  O65  1  0.478380  0.597987  0.179199  1
  O  O66  1  0.918788  0.299181  0.320801  1
  O  O67  1  0.320801  0.918788  0.299181  1
  O  O68  1  0.380392  0.581212  0.902013  1
  O  O69  1  0.902013  0.380392  0.581212  1
  O  O70  1  0.597987  0.179199  0.478380  1
  O  O71  1  0.918788  0.119608  0.597987  1
  O  O72  1  0.320801  0.902013  0.021620  1
  O  O73  1  0.581212  0.179199  0.200819  1
  O  O74  1  0.119608  0.597987  0.918788  1
  O  O75  1  0.021620  0.320801  0.902013  1
  O  O76  1  0.179199  0.200819  0.581212  1
  O  O77  1  0.380392  0.299181  0.478380  1
  O  O78  1  0.478380  0.380392  0.299181  1
  O  O79  1  0.679199  0.081212  0.700819  1
