# generated using pymatgen
data_V(PO3)3
_symmetry_space_group_name_H-M   'P 1'
_cell_length_a   8.55569175
_cell_length_b   8.59838316
_cell_length_c   8.71541211
_cell_angle_alpha   90.00000000
_cell_angle_beta   90.00000000
_cell_angle_gamma   90.00000000
_symmetry_Int_Tables_number   1
_chemical_formula_structural   V(PO3)3
_chemical_formula_sum   'V4 P12 O36'
_cell_volume   641.15030169
_cell_formula_units_Z   4
loop_
 _symmetry_equiv_pos_site_id
 _symmetry_equiv_pos_as_xyz
  1  'x, y, z'
loop_
 _atom_site_type_symbol
 _atom_site_label
 _atom_site_symmetry_multiplicity
 _atom_site_fract_x
 _atom_site_fract_y
 _atom_site_fract_z
 _atom_site_occupancy
  V  V0  1  0.629529  0.144033  0.155761  1
  V  V1  1  0.370471  0.644033  0.344239  1
  V  V2  1  0.870471  0.855967  0.655761  1
  V  V3  1  0.129529  0.355967  0.844239  1
  P  P4  1  0.201806  0.309197  0.445745  1
  P  P5  1  0.813797  0.484354  0.689522  1
  P  P6  1  0.798194  0.809197  0.054255  1
  P  P7  1  0.033376  0.822557  0.313285  1
  P  P8  1  0.966624  0.322557  0.186715  1
  P  P9  1  0.298194  0.690803  0.945745  1
  P  P10  1  0.701806  0.190803  0.554255  1
  P  P11  1  0.686203  0.515646  0.189522  1
  P  P12  1  0.466624  0.177443  0.813285  1
  P  P13  1  0.186203  0.984354  0.810478  1
  P  P14  1  0.313797  0.015646  0.310478  1
  P  P15  1  0.533376  0.677443  0.686715  1
  O  O16  1  0.454839  0.719674  0.848157  1
  O  O17  1  0.809221  0.081706  0.637123  1
  O  O18  1  0.590218  0.126536  0.923406  1
  O  O19  1  0.638080  0.809343  0.641168  1
  O  O20  1  0.138080  0.690657  0.358832  1
  O  O21  1  0.846527  0.841831  0.892728  1
  O  O22  1  0.360143  0.030615  0.758489  1
  O  O23  1  0.361920  0.309343  0.858832  1
  O  O24  1  0.954839  0.780326  0.151843  1
  O  O25  1  0.909782  0.873464  0.423406  1
  O  O26  1  0.104850  0.900823  0.681176  1
  O  O27  1  0.896177  0.624326  0.624771  1
  O  O28  1  0.603823  0.375674  0.124771  1
  O  O29  1  0.090218  0.373464  0.076594  1
  O  O30  1  0.639857  0.530615  0.741511  1
  O  O31  1  0.221368  0.862721  0.946218  1
  O  O32  1  0.861920  0.190657  0.141168  1
  O  O33  1  0.604850  0.599177  0.318824  1
  O  O34  1  0.395150  0.099177  0.181176  1
  O  O35  1  0.278632  0.137279  0.446218  1
  O  O36  1  0.103823  0.124326  0.875229  1
  O  O37  1  0.653473  0.158169  0.392728  1
  O  O38  1  0.396177  0.875674  0.375229  1
  O  O39  1  0.139857  0.969385  0.258489  1
  O  O40  1  0.309221  0.418294  0.362877  1
  O  O41  1  0.409782  0.626536  0.576594  1
  O  O42  1  0.346527  0.658169  0.107272  1
  O  O43  1  0.895150  0.400823  0.818824  1
  O  O44  1  0.153473  0.341831  0.607272  1
  O  O45  1  0.690779  0.918294  0.137123  1
  O  O46  1  0.778632  0.362721  0.553782  1
  O  O47  1  0.721368  0.637279  0.053782  1
  O  O48  1  0.545161  0.219674  0.651843  1
  O  O49  1  0.860143  0.469385  0.241511  1
  O  O50  1  0.190779  0.581706  0.862877  1
  O  O51  1  0.045161  0.280326  0.348157  1
