# generated using pymatgen
data_Ti2Cd
_symmetry_space_group_name_H-M   'P 1'
_cell_length_a   7.07814837
_cell_length_b   7.07814837
_cell_length_c   7.07814837
_cell_angle_alpha   156.66155915
_cell_angle_beta   156.66155915
_cell_angle_gamma   33.24211633
_symmetry_Int_Tables_number   1
_chemical_formula_structural   Ti2Cd
_chemical_formula_sum   'Ti2 Cd1'
_cell_volume   55.60429474
_cell_formula_units_Z   1
loop_
 _symmetry_equiv_pos_site_id
 _symmetry_equiv_pos_as_xyz
  1  'x, y, z'
loop_
 _atom_site_type_symbol
 _atom_site_label
 _atom_site_symmetry_multiplicity
 _atom_site_fract_x
 _atom_site_fract_y
 _atom_site_fract_z
 _atom_site_occupancy
  Ti  Ti0  1  0.677922  0.677922  1.000000  1
  Ti  Ti1  1  0.322078  0.322078  0.000000  1
  Cd  Cd2  1  0.000000  0.000000  0.000000  1
