# generated using pymatgen
data_Er2Fe14B
_symmetry_space_group_name_H-M   'P 1'
_cell_length_a   8.71696372
_cell_length_b   8.71696372
_cell_length_c   11.84635182
_cell_angle_alpha   90.00000000
_cell_angle_beta   90.00000000
_cell_angle_gamma   90.00000000
_symmetry_Int_Tables_number   1
_chemical_formula_structural   Er2Fe14B
_chemical_formula_sum   'Er8 Fe56 B4'
_cell_volume   900.15045085
_cell_formula_units_Z   4
loop_
 _symmetry_equiv_pos_site_id
 _symmetry_equiv_pos_as_xyz
  1  'x, y, z'
loop_
 _atom_site_type_symbol
 _atom_site_label
 _atom_site_symmetry_multiplicity
 _atom_site_fract_x
 _atom_site_fract_y
 _atom_site_fract_z
 _atom_site_occupancy
  Er  Er0  1  0.266698  0.733302  0.000000  1
  Er  Er1  1  0.766698  0.766698  0.500000  1
  Er  Er2  1  0.233302  0.233302  0.500000  1
  Er  Er3  1  0.733302  0.266698  0.000000  1
  Er  Er4  1  0.856436  0.856436  0.000000  1
  Er  Er5  1  0.643564  0.356436  0.500000  1
  Er  Er6  1  0.356436  0.643564  0.500000  1
  Er  Er7  1  0.143564  0.143564  0.000000  1
  Fe  Fe8  1  0.141498  0.462832  0.325686  1
  Fe  Fe9  1  0.858502  0.537168  0.325686  1
  Fe  Fe10  1  0.462832  0.141498  0.674314  1
  Fe  Fe11  1  0.962832  0.358502  0.825686  1
  Fe  Fe12  1  0.037168  0.641498  0.825686  1
  Fe  Fe13  1  0.358502  0.962832  0.174314  1
  Fe  Fe14  1  0.641498  0.037168  0.174314  1
  Fe  Fe15  1  0.537168  0.858502  0.674314  1
  Fe  Fe16  1  0.858502  0.537168  0.674314  1
  Fe  Fe17  1  0.141498  0.462832  0.674314  1
  Fe  Fe18  1  0.537168  0.858502  0.325686  1
  Fe  Fe19  1  0.037168  0.641498  0.174314  1
  Fe  Fe20  1  0.962832  0.358502  0.174314  1
  Fe  Fe21  1  0.641498  0.037168  0.825686  1
  Fe  Fe22  1  0.358502  0.962832  0.825686  1
  Fe  Fe23  1  0.462832  0.141498  0.325686  1
  Fe  Fe24  1  0.066014  0.724366  0.374062  1
  Fe  Fe25  1  0.933986  0.275634  0.374062  1
  Fe  Fe26  1  0.724366  0.066014  0.625938  1
  Fe  Fe27  1  0.224366  0.433986  0.874062  1
  Fe  Fe28  1  0.775634  0.566014  0.874062  1
  Fe  Fe29  1  0.433986  0.224366  0.125938  1
  Fe  Fe30  1  0.566014  0.775634  0.125938  1
  Fe  Fe31  1  0.275634  0.933986  0.625938  1
  Fe  Fe32  1  0.933986  0.275634  0.625938  1
  Fe  Fe33  1  0.066014  0.724366  0.625938  1
  Fe  Fe34  1  0.275634  0.933986  0.374062  1
  Fe  Fe35  1  0.775634  0.566014  0.125938  1
  Fe  Fe36  1  0.224366  0.433986  0.125938  1
  Fe  Fe37  1  0.566014  0.775634  0.874062  1
  Fe  Fe38  1  0.433986  0.224366  0.874062  1
  Fe  Fe39  1  0.724366  0.066014  0.374062  1
  Fe  Fe40  1  0.817021  0.817021  0.745905  1
  Fe  Fe41  1  0.182979  0.182979  0.745905  1
  Fe  Fe42  1  0.817021  0.817021  0.254095  1
  Fe  Fe43  1  0.317021  0.682979  0.245905  1
  Fe  Fe44  1  0.682979  0.317021  0.245905  1
  Fe  Fe45  1  0.682979  0.317021  0.754095  1
  Fe  Fe46  1  0.317021  0.682979  0.754095  1
  Fe  Fe47  1  0.182979  0.182979  0.254095  1
  Fe  Fe48  1  0.597149  0.597149  0.699448  1
  Fe  Fe49  1  0.402851  0.402851  0.699448  1
  Fe  Fe50  1  0.597149  0.597149  0.300552  1
  Fe  Fe51  1  0.097149  0.902851  0.199448  1
  Fe  Fe52  1  0.902851  0.097149  0.199448  1
  Fe  Fe53  1  0.902851  0.097149  0.800552  1
  Fe  Fe54  1  0.097149  0.902851  0.800552  1
  Fe  Fe55  1  0.402851  0.402851  0.300552  1
  Fe  Fe56  1  0.000000  0.000000  0.616001  1
  Fe  Fe57  1  0.500000  0.500000  0.116001  1
  Fe  Fe58  1  0.500000  0.500000  0.883999  1
  Fe  Fe59  1  0.000000  0.000000  0.383999  1
  Fe  Fe60  1  0.500000  0.000000  0.000000  1
  Fe  Fe61  1  0.500000  0.000000  0.500000  1
  Fe  Fe62  1  0.000000  0.500000  0.500000  1
  Fe  Fe63  1  0.000000  0.500000  0.000000  1
  B  B64  1  0.624910  0.624910  0.000000  1
  B  B65  1  0.875090  0.124910  0.500000  1
  B  B66  1  0.124910  0.875090  0.500000  1
  B  B67  1  0.375090  0.375090  0.000000  1
