# generated using pymatgen
data_Sc3Co2Ge3
_symmetry_space_group_name_H-M   'P 1'
_cell_length_a   5.34826593
_cell_length_b   5.34826593
_cell_length_c   13.29105646
_cell_angle_alpha   90.00000000
_cell_angle_beta   90.00000000
_cell_angle_gamma   135.60050798
_symmetry_Int_Tables_number   1
_chemical_formula_structural   Sc3Co2Ge3
_chemical_formula_sum   'Sc6 Co4 Ge6'
_cell_volume   265.99328719
_cell_formula_units_Z   2
loop_
 _symmetry_equiv_pos_site_id
 _symmetry_equiv_pos_as_xyz
  1  'x, y, z'
loop_
 _atom_site_type_symbol
 _atom_site_label
 _atom_site_symmetry_multiplicity
 _atom_site_fract_x
 _atom_site_fract_y
 _atom_site_fract_z
 _atom_site_occupancy
  Sc  Sc0  1  0.579966  0.420034  0.889451  1
  Sc  Sc1  1  0.420034  0.579966  0.110549  1
  Sc  Sc2  1  0.420034  0.579966  0.389451  1
  Sc  Sc3  1  0.579966  0.420034  0.610549  1
  Sc  Sc4  1  0.853431  0.146569  0.750000  1
  Sc  Sc5  1  0.146569  0.853431  0.250000  1
  Co  Co6  1  0.290973  0.709027  0.902035  1
  Co  Co7  1  0.709027  0.290973  0.097965  1
  Co  Co8  1  0.709027  0.290973  0.402035  1
  Co  Co9  1  0.290973  0.709027  0.597965  1
  Ge  Ge10  1  0.876796  0.123204  0.960154  1
  Ge  Ge11  1  0.123204  0.876796  0.039846  1
  Ge  Ge12  1  0.123204  0.876796  0.460154  1
  Ge  Ge13  1  0.876796  0.123204  0.539846  1
  Ge  Ge14  1  0.153547  0.846453  0.750000  1
  Ge  Ge15  1  0.846453  0.153547  0.250000  1
