# generated using pymatgen
data_Li3Co2P5O16
_symmetry_space_group_name_H-M   'P 1'
_cell_length_a   5.05767885
_cell_length_b   6.93198969
_cell_length_c   18.20156295
_cell_angle_alpha   90.00000000
_cell_angle_beta   92.37367440
_cell_angle_gamma   90.00000000
_symmetry_Int_Tables_number   1
_chemical_formula_structural   Li3Co2P5O16
_chemical_formula_sum   'Li6 Co4 P10 O32'
_cell_volume   637.59520072
_cell_formula_units_Z   2
loop_
 _symmetry_equiv_pos_site_id
 _symmetry_equiv_pos_as_xyz
  1  'x, y, z'
loop_
 _atom_site_type_symbol
 _atom_site_label
 _atom_site_symmetry_multiplicity
 _atom_site_fract_x
 _atom_site_fract_y
 _atom_site_fract_z
 _atom_site_occupancy
  Li  Li0  1  0.739755  0.327781  0.465748  1
  Li  Li1  1  0.500000  0.979218  0.250000  1
  Li  Li2  1  0.260245  0.672219  0.534252  1
  Li  Li3  1  0.260245  0.327781  0.034252  1
  Li  Li4  1  0.500000  0.020782  0.750000  1
  Li  Li5  1  0.739755  0.672219  0.965748  1
  Co  Co6  1  0.732579  0.826802  0.410626  1
  Co  Co7  1  0.732579  0.173198  0.910626  1
  Co  Co8  1  0.267421  0.826802  0.089374  1
  Co  Co9  1  0.267421  0.173198  0.589374  1
  P  P10  1  0.261197  0.531709  0.375662  1
  P  P11  1  0.000000  0.245069  0.750000  1
  P  P12  1  0.772937  0.874325  0.586370  1
  P  P13  1  0.738803  0.468291  0.624338  1
  P  P14  1  0.000000  0.754931  0.250000  1
  P  P15  1  0.738803  0.531709  0.124338  1
  P  P16  1  0.227063  0.874325  0.913630  1
  P  P17  1  0.261197  0.468291  0.875662  1
  P  P18  1  0.227063  0.125675  0.413630  1
  P  P19  1  0.772937  0.125675  0.086370  1
  O  O20  1  0.061789  0.081496  0.070977  1
  O  O21  1  0.822648  0.134089  0.799122  1
  O  O22  1  0.806568  0.612648  0.205324  1
  O  O23  1  0.621237  0.023044  0.629890  1
  O  O24  1  0.378763  0.976956  0.370110  1
  O  O25  1  0.061789  0.918504  0.570977  1
  O  O26  1  0.193432  0.387352  0.794676  1
  O  O27  1  0.444292  0.552628  0.107851  1
  O  O28  1  0.617066  0.796415  0.518330  1
  O  O29  1  0.801431  0.688430  0.643135  1
  O  O30  1  0.444292  0.447372  0.607851  1
  O  O31  1  0.081379  0.382888  0.931688  1
  O  O32  1  0.555708  0.447372  0.892149  1
  O  O33  1  0.555708  0.552628  0.392149  1
  O  O34  1  0.938211  0.918504  0.929023  1
  O  O35  1  0.198569  0.688430  0.856865  1
  O  O36  1  0.378763  0.023044  0.870110  1
  O  O37  1  0.918621  0.382888  0.568312  1
  O  O38  1  0.177352  0.865911  0.200878  1
  O  O39  1  0.081379  0.617112  0.431688  1
  O  O40  1  0.822648  0.865911  0.299122  1
  O  O41  1  0.193432  0.612648  0.294676  1
  O  O42  1  0.198569  0.311570  0.356865  1
  O  O43  1  0.621237  0.976956  0.129890  1
  O  O44  1  0.801431  0.311570  0.143135  1
  O  O45  1  0.177352  0.134089  0.700878  1
  O  O46  1  0.382934  0.796415  0.981670  1
  O  O47  1  0.806568  0.387352  0.705324  1
  O  O48  1  0.918621  0.617112  0.068312  1
  O  O49  1  0.617066  0.203585  0.018330  1
  O  O50  1  0.938211  0.081496  0.429023  1
  O  O51  1  0.382934  0.203585  0.481670  1
