# generated using pymatgen
data_Na2TbO3
_symmetry_space_group_name_H-M   'P 1'
_cell_length_a   5.90616162
_cell_length_b   5.90616162
_cell_length_c   5.91680089
_cell_angle_alpha   79.26935848
_cell_angle_beta   100.73064152
_cell_angle_gamma   61.43665888
_symmetry_Int_Tables_number   1
_chemical_formula_structural   Na2TbO3
_chemical_formula_sum   'Na4 Tb2 O6'
_cell_volume   168.80294315
_cell_formula_units_Z   2
loop_
 _symmetry_equiv_pos_site_id
 _symmetry_equiv_pos_as_xyz
  1  'x, y, z'
loop_
 _atom_site_type_symbol
 _atom_site_label
 _atom_site_symmetry_multiplicity
 _atom_site_fract_x
 _atom_site_fract_y
 _atom_site_fract_z
 _atom_site_occupancy
  Na  Na0  1  0.919564  0.919564  0.250000  1
  Na  Na1  1  0.245731  0.245731  0.250000  1
  Na  Na2  1  0.080436  0.080436  0.750000  1
  Na  Na3  1  0.754269  0.754269  0.750000  1
  Tb  Tb4  1  0.594508  0.594508  0.250000  1
  Tb  Tb5  1  0.405492  0.405492  0.750000  1
  O  O6  1  0.644769  0.214974  0.507769  1
  O  O7  1  0.355231  0.785026  0.492231  1
  O  O8  1  0.214974  0.644769  0.992231  1
  O  O9  1  0.000000  0.500000  0.500000  1
  O  O10  1  0.785026  0.355231  0.007769  1
  O  O11  1  0.500000  0.000000  0.000000  1
