# generated using pymatgen
data_KAsO2
_symmetry_space_group_name_H-M   'P 1'
_cell_length_a   5.51303435
_cell_length_b   7.45400481
_cell_length_c   7.55211108
_cell_angle_alpha   90.00000000
_cell_angle_beta   90.00000000
_cell_angle_gamma   90.00000000
_symmetry_Int_Tables_number   1
_chemical_formula_structural   KAsO2
_chemical_formula_sum   'K4 As4 O8'
_cell_volume   310.34784656
_cell_formula_units_Z   4
loop_
 _symmetry_equiv_pos_site_id
 _symmetry_equiv_pos_as_xyz
  1  'x, y, z'
loop_
 _atom_site_type_symbol
 _atom_site_label
 _atom_site_symmetry_multiplicity
 _atom_site_fract_x
 _atom_site_fract_y
 _atom_site_fract_z
 _atom_site_occupancy
  K  K0  1  0.250000  0.364430  0.407327  1
  K  K1  1  0.750000  0.364430  0.092673  1
  K  K2  1  0.750000  0.635570  0.592673  1
  K  K3  1  0.250000  0.635570  0.907327  1
  As  As4  1  0.250000  0.849249  0.376382  1
  As  As5  1  0.750000  0.150751  0.623618  1
  As  As6  1  0.750000  0.849249  0.123618  1
  As  As7  1  0.250000  0.150751  0.876382  1
  O  O8  1  0.500000  0.265388  0.750000  1
  O  O9  1  0.000000  0.734612  0.250000  1
  O  O10  1  0.500000  0.734612  0.250000  1
  O  O11  1  0.000000  0.265388  0.750000  1
  O  O12  1  0.250000  0.709056  0.557455  1
  O  O13  1  0.250000  0.290944  0.057455  1
  O  O14  1  0.750000  0.709056  0.942545  1
  O  O15  1  0.750000  0.290944  0.442545  1
