# generated using pymatgen
data_CaAl9Ni
_symmetry_space_group_name_H-M   'P 1'
_cell_length_a   7.55400694
_cell_length_b   7.55400694
_cell_length_c   7.97031321
_cell_angle_alpha   90.00000000
_cell_angle_beta   90.00000000
_cell_angle_gamma   120.00000000
_symmetry_Int_Tables_number   1
_chemical_formula_structural   CaAl9Ni
_chemical_formula_sum   'Ca2 Al18 Ni2'
_cell_volume   393.87714281
_cell_formula_units_Z   2
loop_
 _symmetry_equiv_pos_site_id
 _symmetry_equiv_pos_as_xyz
  1  'x, y, z'
loop_
 _atom_site_type_symbol
 _atom_site_label
 _atom_site_symmetry_multiplicity
 _atom_site_fract_x
 _atom_site_fract_y
 _atom_site_fract_z
 _atom_site_occupancy
  Ca  Ca0  1  0.000000  0.000000  0.250000  1
  Ca  Ca1  1  0.000000  0.000000  0.750000  1
  Al  Al2  1  0.475690  0.951380  0.250000  1
  Al  Al3  1  0.524310  0.475690  0.750000  1
  Al  Al4  1  0.951380  0.475690  0.750000  1
  Al  Al5  1  0.048620  0.524310  0.250000  1
  Al  Al6  1  0.475690  0.524310  0.250000  1
  Al  Al7  1  0.524310  0.048620  0.750000  1
  Al  Al8  1  0.208179  0.416358  0.516166  1
  Al  Al9  1  0.791821  0.208179  0.016166  1
  Al  Al10  1  0.416358  0.208179  0.016166  1
  Al  Al11  1  0.583642  0.791821  0.516166  1
  Al  Al12  1  0.208179  0.791821  0.516166  1
  Al  Al13  1  0.791821  0.583642  0.483834  1
  Al  Al14  1  0.791821  0.208179  0.483834  1
  Al  Al15  1  0.791821  0.583642  0.016166  1
  Al  Al16  1  0.416358  0.208179  0.483834  1
  Al  Al17  1  0.583642  0.791821  0.983834  1
  Al  Al18  1  0.208179  0.416358  0.983834  1
  Al  Al19  1  0.208179  0.791821  0.983834  1
  Ni  Ni20  1  0.333333  0.666667  0.750000  1
  Ni  Ni21  1  0.666667  0.333333  0.250000  1
