# generated using pymatgen
data_Mg2H2O3
_symmetry_space_group_name_H-M   'P 1'
_cell_length_a   3.09962884
_cell_length_b   3.09962884
_cell_length_c   7.53697249
_cell_angle_alpha   90.00000000
_cell_angle_beta   90.00000000
_cell_angle_gamma   120.00000000
_symmetry_Int_Tables_number   1
_chemical_formula_structural   Mg2H2O3
_chemical_formula_sum   'Mg2 H2 O3'
_cell_volume   62.71146525
_cell_formula_units_Z   1
loop_
 _symmetry_equiv_pos_site_id
 _symmetry_equiv_pos_as_xyz
  1  'x, y, z'
loop_
 _atom_site_type_symbol
 _atom_site_label
 _atom_site_symmetry_multiplicity
 _atom_site_fract_x
 _atom_site_fract_y
 _atom_site_fract_z
 _atom_site_occupancy
  Mg  Mg0  1  0.333333  0.666667  0.162922  1
  Mg  Mg1  1  0.666667  0.333333  0.837078  1
  H  H2  1  0.333333  0.666667  0.568765  1
  H  H3  1  0.666667  0.333333  0.431235  1
  O  O4  1  0.333333  0.666667  0.697263  1
  O  O5  1  0.666667  0.333333  0.302737  1
  O  O6  1  0.000000  0.000000  0.000000  1
