# generated using pymatgen
data_LuAgSn
_symmetry_space_group_name_H-M   'P 1'
_cell_length_a   7.32429198
_cell_length_b   7.32429198
_cell_length_c   4.46229916
_cell_angle_alpha   90.00000000
_cell_angle_beta   90.00000000
_cell_angle_gamma   120.00000000
_symmetry_Int_Tables_number   1
_chemical_formula_structural   LuAgSn
_chemical_formula_sum   'Lu3 Ag3 Sn3'
_cell_volume   207.31017220
_cell_formula_units_Z   3
loop_
 _symmetry_equiv_pos_site_id
 _symmetry_equiv_pos_as_xyz
  1  'x, y, z'
loop_
 _atom_site_type_symbol
 _atom_site_label
 _atom_site_symmetry_multiplicity
 _atom_site_fract_x
 _atom_site_fract_y
 _atom_site_fract_z
 _atom_site_occupancy
  Lu  Lu0  1  0.000000  0.432140  0.000000  1
  Lu  Lu1  1  0.567860  0.567860  0.000000  1
  Lu  Lu2  1  0.432140  0.000000  0.000000  1
  Ag  Ag3  1  0.246665  0.246665  0.500000  1
  Ag  Ag4  1  0.753335  0.000000  0.500000  1
  Ag  Ag5  1  0.000000  0.753335  0.500000  1
  Sn  Sn6  1  0.333333  0.666667  0.500000  1
  Sn  Sn7  1  0.000000  0.000000  0.000000  1
  Sn  Sn8  1  0.666667  0.333333  0.500000  1
