# generated using pymatgen
data_Li13Sn5
_symmetry_space_group_name_H-M   'P 1'
_cell_length_a   4.69252855
_cell_length_b   4.69252855
_cell_length_c   17.08969006
_cell_angle_alpha   90.00000000
_cell_angle_beta   90.00000000
_cell_angle_gamma   120.00000000
_symmetry_Int_Tables_number   1
_chemical_formula_structural   Li13Sn5
_chemical_formula_sum   'Li13 Sn5'
_cell_volume   325.89572635
_cell_formula_units_Z   1
loop_
 _symmetry_equiv_pos_site_id
 _symmetry_equiv_pos_as_xyz
  1  'x, y, z'
loop_
 _atom_site_type_symbol
 _atom_site_label
 _atom_site_symmetry_multiplicity
 _atom_site_fract_x
 _atom_site_fract_y
 _atom_site_fract_z
 _atom_site_occupancy
  Li  Li0  1  0.000000  0.000000  0.500000  1
  Li  Li1  1  0.000000  0.000000  0.671641  1
  Li  Li2  1  0.000000  0.000000  0.328359  1
  Li  Li3  1  0.000000  0.000000  0.836472  1
  Li  Li4  1  0.000000  0.000000  0.163528  1
  Li  Li5  1  0.333333  0.666667  0.946695  1
  Li  Li6  1  0.666667  0.333333  0.053305  1
  Li  Li7  1  0.333333  0.666667  0.446228  1
  Li  Li8  1  0.666667  0.333333  0.553772  1
  Li  Li9  1  0.333333  0.666667  0.283718  1
  Li  Li10  1  0.666667  0.333333  0.716282  1
  Li  Li11  1  0.333333  0.666667  0.112039  1
  Li  Li12  1  0.666667  0.333333  0.887961  1
  Sn  Sn13  1  0.000000  0.000000  0.000000  1
  Sn  Sn14  1  0.333333  0.666667  0.778273  1
  Sn  Sn15  1  0.666667  0.333333  0.221727  1
  Sn  Sn16  1  0.333333  0.666667  0.608037  1
  Sn  Sn17  1  0.666667  0.333333  0.391963  1
