# generated using pymatgen
data_KNO3
_symmetry_space_group_name_H-M   'P 1'
_cell_length_a   4.64108982
_cell_length_b   5.45672365
_cell_length_c   7.04007244
_cell_angle_alpha   90.00000000
_cell_angle_beta   104.38288016
_cell_angle_gamma   90.00000000
_symmetry_Int_Tables_number   1
_chemical_formula_structural   KNO3
_chemical_formula_sum   'K2 N2 O6'
_cell_volume   172.70275815
_cell_formula_units_Z   2
loop_
 _symmetry_equiv_pos_site_id
 _symmetry_equiv_pos_as_xyz
  1  'x, y, z'
loop_
 _atom_site_type_symbol
 _atom_site_label
 _atom_site_symmetry_multiplicity
 _atom_site_fract_x
 _atom_site_fract_y
 _atom_site_fract_z
 _atom_site_occupancy
  K  K0  1  0.222432  0.250000  0.764102  1
  K  K1  1  0.777568  0.750000  0.235898  1
  N  N2  1  0.183012  0.250000  0.227626  1
  N  N3  1  0.816988  0.750000  0.772374  1
  O  O4  1  0.733591  0.951496  0.830930  1
  O  O5  1  0.733591  0.548504  0.830930  1
  O  O6  1  0.990134  0.750000  0.657712  1
  O  O7  1  0.009866  0.250000  0.342288  1
  O  O8  1  0.266409  0.048504  0.169070  1
  O  O9  1  0.266409  0.451496  0.169070  1
