# generated using pymatgen
data_Na3AgO2
_symmetry_space_group_name_H-M   'P 1'
_cell_length_a   6.85838075
_cell_length_b   6.85838075
_cell_length_c   6.85838075
_cell_angle_alpha   132.47488478
_cell_angle_beta   128.12891683
_cell_angle_gamma   72.98033437
_symmetry_Int_Tables_number   1
_chemical_formula_structural   Na3AgO2
_chemical_formula_sum   'Na6 Ag2 O4'
_cell_volume   182.82923730
_cell_formula_units_Z   2
loop_
 _symmetry_equiv_pos_site_id
 _symmetry_equiv_pos_as_xyz
  1  'x, y, z'
loop_
 _atom_site_type_symbol
 _atom_site_label
 _atom_site_symmetry_multiplicity
 _atom_site_fract_x
 _atom_site_fract_y
 _atom_site_fract_z
 _atom_site_occupancy
  Na  Na0  1  0.010673  0.760673  0.250000  1
  Na  Na1  1  0.250000  0.500000  0.750000  1
  Na  Na2  1  0.510673  0.760673  0.750000  1
  Na  Na3  1  0.989327  0.239327  0.750000  1
  Na  Na4  1  0.750000  0.500000  0.250000  1
  Na  Na5  1  0.489327  0.239327  0.250000  1
  Ag  Ag6  1  0.000000  0.000000  0.000000  1
  Ag  Ag7  1  0.500000  0.000000  0.500000  1
  O  O8  1  0.864539  0.138115  0.273576  1
  O  O9  1  0.635461  0.409038  0.773576  1
  O  O10  1  0.135461  0.861885  0.726424  1
  O  O11  1  0.364539  0.590962  0.226424  1
