# generated using pymatgen
data_Sr11Bi10
_symmetry_space_group_name_H-M   'P 1'
_cell_length_a   13.06933547
_cell_length_b   13.06933547
_cell_length_c   13.06933547
_cell_angle_alpha   120.32222728
_cell_angle_beta   120.32222728
_cell_angle_gamma   89.44278623
_symmetry_Int_Tables_number   1
_chemical_formula_structural   Sr11Bi10
_chemical_formula_sum   'Sr22 Bi20'
_cell_volume   1570.73483526
_cell_formula_units_Z   2
loop_
 _symmetry_equiv_pos_site_id
 _symmetry_equiv_pos_as_xyz
  1  'x, y, z'
loop_
 _atom_site_type_symbol
 _atom_site_label
 _atom_site_symmetry_multiplicity
 _atom_site_fract_x
 _atom_site_fract_y
 _atom_site_fract_z
 _atom_site_occupancy
  Sr  Sr0  1  0.190349  0.939763  0.749414  1
  Sr  Sr1  1  0.190349  0.440935  0.250586  1
  Sr  Sr2  1  0.440935  0.190349  0.250586  1
  Sr  Sr3  1  0.939763  0.190349  0.749414  1
  Sr  Sr4  1  0.809651  0.060237  0.250586  1
  Sr  Sr5  1  0.809651  0.559065  0.749414  1
  Sr  Sr6  1  0.559065  0.809651  0.749414  1
  Sr  Sr7  1  0.060237  0.809651  0.250586  1
  Sr  Sr8  1  0.165345  0.834655  0.000000  1
  Sr  Sr9  1  0.834655  0.165345  0.000000  1
  Sr  Sr10  1  0.165345  0.165345  0.330690  1
  Sr  Sr11  1  0.834655  0.834655  0.669311  1
  Sr  Sr12  1  0.338554  0.338554  0.000000  1
  Sr  Sr13  1  0.661446  0.661446  0.000000  1
  Sr  Sr14  1  0.396124  0.057268  0.661144  1
  Sr  Sr15  1  0.396124  0.734980  0.338856  1
  Sr  Sr16  1  0.734980  0.396124  0.338856  1
  Sr  Sr17  1  0.057268  0.396124  0.661144  1
  Sr  Sr18  1  0.603876  0.942733  0.338856  1
  Sr  Sr19  1  0.603876  0.265020  0.661144  1
  Sr  Sr20  1  0.265020  0.603876  0.661144  1
  Sr  Sr21  1  0.942732  0.603876  0.338856  1
  Bi  Bi22  1  0.350408  1.000000  0.350408  1
  Bi  Bi23  1  0.649592  1.000000  0.649592  1
  Bi  Bi24  1  0.000000  0.350408  0.350408  1
  Bi  Bi25  1  0.000000  0.649592  0.649592  1
  Bi  Bi26  1  0.125676  0.125676  0.000000  1
  Bi  Bi27  1  0.874324  0.874324  0.000000  1
  Bi  Bi28  1  0.372205  0.627795  0.000000  1
  Bi  Bi29  1  0.627795  0.372205  0.000000  1
  Bi  Bi30  1  0.372205  0.372205  0.744410  1
  Bi  Bi31  1  0.627795  0.627795  0.255590  1
  Bi  Bi32  1  0.250000  0.750000  0.500000  1
  Bi  Bi33  1  0.750000  0.250000  0.500000  1
  Bi  Bi34  1  0.532770  0.120248  0.000000  1
  Bi  Bi35  1  0.120248  0.532770  0.000000  1
  Bi  Bi36  1  0.532770  0.532770  0.412523  1
  Bi  Bi37  1  0.120248  0.120248  0.587477  1
  Bi  Bi38  1  0.467230  0.879752  0.000000  1
  Bi  Bi39  1  0.879752  0.467230  0.000000  1
  Bi  Bi40  1  0.467230  0.467230  0.587477  1
  Bi  Bi41  1  0.879752  0.879752  0.412523  1
