# generated using pymatgen
data_La2Fe2I
_symmetry_space_group_name_H-M   'P 1'
_cell_length_a   4.07097668
_cell_length_b   4.07097668
_cell_length_c   18.22854254
_cell_angle_alpha   90.00000000
_cell_angle_beta   90.00000000
_cell_angle_gamma   120.00000000
_symmetry_Int_Tables_number   1
_chemical_formula_structural   La2Fe2I
_chemical_formula_sum   'La4 Fe4 I2'
_cell_volume   261.62534113
_cell_formula_units_Z   2
loop_
 _symmetry_equiv_pos_site_id
 _symmetry_equiv_pos_as_xyz
  1  'x, y, z'
loop_
 _atom_site_type_symbol
 _atom_site_label
 _atom_site_symmetry_multiplicity
 _atom_site_fract_x
 _atom_site_fract_y
 _atom_site_fract_z
 _atom_site_occupancy
  La  La0  1  0.000000  0.000000  0.105666  1
  La  La1  1  0.000000  0.000000  0.605666  1
  La  La2  1  0.000000  0.000000  0.894334  1
  La  La3  1  0.000000  0.000000  0.394334  1
  Fe  Fe4  1  0.666667  0.333333  0.998207  1
  Fe  Fe5  1  0.333333  0.666667  0.498207  1
  Fe  Fe6  1  0.333333  0.666667  0.001793  1
  Fe  Fe7  1  0.666667  0.333333  0.501793  1
  I  I8  1  0.666667  0.333333  0.250000  1
  I  I9  1  0.333333  0.666667  0.750000  1
