# generated using pymatgen
data_Al2CdO4
_symmetry_space_group_name_H-M   'P 1'
_cell_length_a   5.99439604
_cell_length_b   5.99439604
_cell_length_c   5.99439604
_cell_angle_alpha   60.00000000
_cell_angle_beta   60.00000000
_cell_angle_gamma   60.00000000
_symmetry_Int_Tables_number   1
_chemical_formula_structural   Al2CdO4
_chemical_formula_sum   'Al4 Cd2 O8'
_cell_volume   152.30750384
_cell_formula_units_Z   2
loop_
 _symmetry_equiv_pos_site_id
 _symmetry_equiv_pos_as_xyz
  1  'x, y, z'
loop_
 _atom_site_type_symbol
 _atom_site_label
 _atom_site_symmetry_multiplicity
 _atom_site_fract_x
 _atom_site_fract_y
 _atom_site_fract_z
 _atom_site_occupancy
  Al  Al0  1  0.125000  0.125000  0.125000  1
  Al  Al1  1  0.625000  0.125000  0.125000  1
  Al  Al2  1  0.125000  0.125000  0.625000  1
  Al  Al3  1  0.125000  0.625000  0.125000  1
  Cd  Cd4  1  0.500000  0.500000  0.500000  1
  Cd  Cd5  1  0.750000  0.750000  0.750000  1
  O  O6  1  0.354549  0.354549  0.354549  1
  O  O7  1  0.936353  0.354549  0.354549  1
  O  O8  1  0.354549  0.354549  0.936353  1
  O  O9  1  0.354549  0.936353  0.354549  1
  O  O10  1  0.895451  0.895451  0.895451  1
  O  O11  1  0.313647  0.895451  0.895451  1
  O  O12  1  0.895451  0.895451  0.313647  1
  O  O13  1  0.895451  0.313647  0.895451  1
