# generated using pymatgen
data_Pr2CdS4
_symmetry_space_group_name_H-M   'P 1'
_cell_length_a   7.49654685
_cell_length_b   7.49654685
_cell_length_c   7.49654685
_cell_angle_alpha   110.79182764
_cell_angle_beta   110.79182764
_cell_angle_gamma   106.86111468
_symmetry_Int_Tables_number   1
_chemical_formula_structural   Pr2CdS4
_chemical_formula_sum   'Pr4 Cd2 S8'
_cell_volume   323.80927995
_cell_formula_units_Z   2
loop_
 _symmetry_equiv_pos_site_id
 _symmetry_equiv_pos_as_xyz
  1  'x, y, z'
loop_
 _atom_site_type_symbol
 _atom_site_label
 _atom_site_symmetry_multiplicity
 _atom_site_fract_x
 _atom_site_fract_y
 _atom_site_fract_z
 _atom_site_occupancy
  Pr  Pr0  1  0.236557  0.625000  0.111557  1
  Pr  Pr1  1  0.375000  0.486557  0.611557  1
  Pr  Pr2  1  0.513443  0.125000  0.888443  1
  Pr  Pr3  1  0.875000  0.763443  0.388443  1
  Cd  Cd4  1  0.750000  0.250000  0.500000  1
  Cd  Cd5  1  1.000000  1.000000  0.000000  1
  S  S6  1  0.116899  0.241970  0.734731  1
  S  S7  1  0.633101  0.867832  0.625071  1
  S  S8  1  0.242762  0.008030  0.374929  1
  S  S9  1  0.507238  0.382168  0.265269  1
  S  S10  1  0.617832  0.883101  0.125071  1
  S  S11  1  0.758030  0.492762  0.874929  1
  S  S12  1  0.132168  0.757238  0.765269  1
  S  S13  1  0.991970  0.366899  0.234731  1
