# generated using pymatgen
data_Er4(Al8Pt3)3
_symmetry_space_group_name_H-M   'P 1'
_cell_length_a   7.52154728
_cell_length_b   7.52208909
_cell_length_c   13.14464740
_cell_angle_alpha   84.59438211
_cell_angle_beta   100.96226726
_cell_angle_gamma   119.82536900
_symmetry_Int_Tables_number   1
_chemical_formula_structural   Er4(Al8Pt3)3
_chemical_formula_sum   'Er4 Al24 Pt9'
_cell_volume   633.41567598
_cell_formula_units_Z   1
loop_
 _symmetry_equiv_pos_site_id
 _symmetry_equiv_pos_as_xyz
  1  'x, y, z'
loop_
 _atom_site_type_symbol
 _atom_site_label
 _atom_site_symmetry_multiplicity
 _atom_site_fract_x
 _atom_site_fract_y
 _atom_site_fract_z
 _atom_site_occupancy
  Er  Er0  1  0.732740  0.999016  0.192292  1
  Er  Er1  1  0.267260  0.000984  0.807708  1
  Er  Er2  1  0.062356  0.668194  0.192223  1
  Er  Er3  1  0.937644  0.331806  0.807777  1
  Al  Al4  1  0.807568  0.869135  0.815460  1
  Al  Al5  1  0.192432  0.130865  0.184540  1
  Al  Al6  1  0.982193  0.665937  0.944005  1
  Al  Al7  1  0.017807  0.334063  0.055995  1
  Al  Al8  1  0.397866  0.663719  0.816841  1
  Al  Al9  1  0.602134  0.336281  0.183159  1
  Al  Al10  1  0.882728  0.665230  0.671143  1
  Al  Al11  1  0.117272  0.334770  0.328857  1
  Al  Al12  1  0.602897  0.457845  0.816274  1
  Al  Al13  1  0.397103  0.542155  0.183726  1
  Al  Al14  1  0.229935  0.339687  0.669704  1
  Al  Al15  1  0.770065  0.660313  0.330296  1
  Al  Al16  1  0.853082  0.333069  0.558843  1
  Al  Al17  1  0.185608  0.999090  0.558836  1
  Al  Al18  1  0.814392  0.000910  0.441164  1
  Al  Al19  1  0.352620  0.999094  0.056036  1
  Al  Al20  1  0.647380  0.000906  0.943964  1
  Al  Al21  1  0.556085  0.993712  0.671379  1
  Al  Al22  1  0.443915  0.006288  0.328621  1
  Al  Al23  1  0.520828  0.667188  0.561705  1
  Al  Al24  1  0.479172  0.332812  0.438295  1
  Al  Al25  1  0.683806  0.668359  0.047388  1
  Al  Al26  1  0.316194  0.331641  0.952612  1
  Al  Al27  1  0.146918  0.666931  0.441157  1
  Pt  Pt28  1  0.328420  0.671342  0.000076  1
  Pt  Pt29  1  0.545692  0.324587  0.637381  1
  Pt  Pt30  1  0.454308  0.675413  0.362619  1
  Pt  Pt31  1  0.888049  0.008506  0.639016  1
  Pt  Pt32  1  0.111951  0.991494  0.360984  1
  Pt  Pt33  1  0.671580  0.328658  0.999924  1
  Pt  Pt34  1  0.204088  0.666610  0.639016  1
  Pt  Pt35  1  0.795912  0.333390  0.360984  1
  Pt  Pt36  1  0.000000  0.000000  0.000000  1
