# generated using pymatgen
data_ZnFe5O8
_symmetry_space_group_name_H-M   'P 1'
_cell_length_a   6.07038097
_cell_length_b   6.07038097
_cell_length_c   6.07038097
_cell_angle_alpha   60.00000000
_cell_angle_beta   60.00000000
_cell_angle_gamma   60.00000000
_symmetry_Int_Tables_number   1
_chemical_formula_structural   ZnFe5O8
_chemical_formula_sum   'Zn1 Fe5 O8'
_cell_volume   158.17317957
_cell_formula_units_Z   1
loop_
 _symmetry_equiv_pos_site_id
 _symmetry_equiv_pos_as_xyz
  1  'x, y, z'
loop_
 _atom_site_type_symbol
 _atom_site_label
 _atom_site_symmetry_multiplicity
 _atom_site_fract_x
 _atom_site_fract_y
 _atom_site_fract_z
 _atom_site_occupancy
  Zn  Zn0  1  0.250000  0.250000  0.250000  1
  Fe  Fe1  1  0.500000  0.500000  0.500000  1
  Fe  Fe2  1  0.374659  0.875114  0.875114  1
  Fe  Fe3  1  0.875114  0.875114  0.875114  1
  Fe  Fe4  1  0.875114  0.875114  0.374659  1
  Fe  Fe5  1  0.875114  0.374659  0.875114  1
  O  O6  1  0.637649  0.087054  0.637649  1
  O  O7  1  0.637649  0.637649  0.637649  1
  O  O8  1  0.637649  0.637649  0.087054  1
  O  O9  1  0.087054  0.637649  0.637649  1
  O  O10  1  0.655829  0.114724  0.114724  1
  O  O11  1  0.114724  0.114724  0.655829  1
  O  O12  1  0.114724  0.114724  0.114724  1
  O  O13  1  0.114724  0.655829  0.114724  1
