# generated using pymatgen
data_Ca3(GaPd)2
_symmetry_space_group_name_H-M   'P 1'
_cell_length_a   5.82647039
_cell_length_b   7.97073016
_cell_length_c   13.97464491
_cell_angle_alpha   90.00000000
_cell_angle_beta   90.00000000
_cell_angle_gamma   90.00000000
_symmetry_Int_Tables_number   1
_chemical_formula_structural   Ca3(GaPd)2
_chemical_formula_sum   'Ca12 Ga8 Pd8'
_cell_volume   648.99960430
_cell_formula_units_Z   4
loop_
 _symmetry_equiv_pos_site_id
 _symmetry_equiv_pos_as_xyz
  1  'x, y, z'
loop_
 _atom_site_type_symbol
 _atom_site_label
 _atom_site_symmetry_multiplicity
 _atom_site_fract_x
 _atom_site_fract_y
 _atom_site_fract_z
 _atom_site_occupancy
  Ca  Ca0  1  0.140295  0.606393  0.099410  1
  Ca  Ca1  1  0.140295  0.893607  0.900590  1
  Ca  Ca2  1  0.859705  0.106393  0.400590  1
  Ca  Ca3  1  0.859705  0.393607  0.599410  1
  Ca  Ca4  1  0.859705  0.393607  0.900590  1
  Ca  Ca5  1  0.859705  0.106393  0.099410  1
  Ca  Ca6  1  0.140295  0.893607  0.599410  1
  Ca  Ca7  1  0.140295  0.606393  0.400590  1
  Ca  Ca8  1  0.365454  0.256102  0.250000  1
  Ca  Ca9  1  0.365454  0.243898  0.750000  1
  Ca  Ca10  1  0.634546  0.756102  0.250000  1
  Ca  Ca11  1  0.634546  0.743898  0.750000  1
  Ga  Ga12  1  0.371583  0.250000  0.000000  1
  Ga  Ga13  1  0.628417  0.750000  0.500000  1
  Ga  Ga14  1  0.628417  0.750000  0.000000  1
  Ga  Ga15  1  0.371583  0.250000  0.500000  1
  Ga  Ga16  1  0.853169  0.405692  0.250000  1
  Ga  Ga17  1  0.853169  0.094308  0.750000  1
  Ga  Ga18  1  0.146831  0.905692  0.250000  1
  Ga  Ga19  1  0.146831  0.594308  0.750000  1
  Pd  Pd20  1  0.633378  0.467372  0.092103  1
  Pd  Pd21  1  0.633378  0.032628  0.907897  1
  Pd  Pd22  1  0.366622  0.967372  0.407897  1
  Pd  Pd23  1  0.366622  0.532628  0.592103  1
  Pd  Pd24  1  0.366622  0.532628  0.907897  1
  Pd  Pd25  1  0.366622  0.967372  0.092103  1
  Pd  Pd26  1  0.633378  0.032628  0.592103  1
  Pd  Pd27  1  0.633378  0.467372  0.407897  1
