# generated using pymatgen
data_Sm2CdS4
_symmetry_space_group_name_H-M   'P 1'
_cell_length_a   7.39012761
_cell_length_b   7.39012761
_cell_length_c   7.39012761
_cell_angle_alpha   110.61098714
_cell_angle_beta   110.61098714
_cell_angle_gamma   107.21497506
_symmetry_Int_Tables_number   1
_chemical_formula_structural   Sm2CdS4
_chemical_formula_sum   'Sm4 Cd2 S8'
_cell_volume   310.33518515
_cell_formula_units_Z   2
loop_
 _symmetry_equiv_pos_site_id
 _symmetry_equiv_pos_as_xyz
  1  'x, y, z'
loop_
 _atom_site_type_symbol
 _atom_site_label
 _atom_site_symmetry_multiplicity
 _atom_site_fract_x
 _atom_site_fract_y
 _atom_site_fract_z
 _atom_site_occupancy
  Sm  Sm0  1  0.736043  0.125000  0.111043  1
  Sm  Sm1  1  0.875000  0.986043  0.611043  1
  Sm  Sm2  1  0.013957  0.625000  0.888957  1
  Sm  Sm3  1  0.375000  0.263957  0.388957  1
  Cd  Cd4  1  0.250000  0.750000  0.500000  1
  Cd  Cd5  1  0.500000  0.500000  0.000000  1
  S  S6  1  0.633392  0.258057  0.762570  1
  S  S7  1  0.116608  0.379178  0.124665  1
  S  S8  1  0.741943  0.504513  0.375335  1
  S  S9  1  0.008057  0.883392  0.262570  1
  S  S10  1  0.254513  0.991943  0.875335  1
  S  S11  1  0.129178  0.366608  0.624665  1
  S  S12  1  0.495487  0.870822  0.237430  1
  S  S13  1  0.620822  0.745487  0.737430  1
