# generated using pymatgen
data_La5S8
_symmetry_space_group_name_H-M   'P 1'
_cell_length_a   7.57566221
_cell_length_b   7.57566221
_cell_length_c   7.57566221
_cell_angle_alpha   109.43111928
_cell_angle_beta   109.43111928
_cell_angle_gamma   109.55145316
_symmetry_Int_Tables_number   1
_chemical_formula_structural   La5S8
_chemical_formula_sum   'La5 S8'
_cell_volume   334.68733230
_cell_formula_units_Z   1
loop_
 _symmetry_equiv_pos_site_id
 _symmetry_equiv_pos_as_xyz
  1  'x, y, z'
loop_
 _atom_site_type_symbol
 _atom_site_label
 _atom_site_symmetry_multiplicity
 _atom_site_fract_x
 _atom_site_fract_y
 _atom_site_fract_z
 _atom_site_occupancy
  La  La0  1  0.119126  0.499243  0.884357  1
  La  La1  1  0.250000  0.750000  0.500000  1
  La  La2  1  0.614886  0.234769  0.115643  1
  La  La3  1  0.500757  0.385114  0.619883  1
  La  La4  1  0.765231  0.880874  0.380117  1
  S  S5  1  0.868158  0.605798  0.101132  1
  S  S6  1  0.877797  0.608861  0.585492  1
  S  S7  1  0.391139  0.976631  0.268936  1
  S  S8  1  0.023369  0.292305  0.414508  1
  S  S9  1  0.232975  0.131842  0.737640  1
  S  S10  1  0.504666  0.767025  0.898868  1
  S  S11  1  0.394202  0.495334  0.262360  1
  S  S12  1  0.707695  0.122203  0.731064  1
