# generated using pymatgen
data_LiNi2P3O11
_symmetry_space_group_name_H-M   'P 1'
_cell_length_a   7.20701931
_cell_length_b   7.20701931
_cell_length_c   8.80379232
_cell_angle_alpha   70.19778086
_cell_angle_beta   109.80221914
_cell_angle_gamma   105.17559502
_symmetry_Int_Tables_number   1
_chemical_formula_structural   LiNi2P3O11
_chemical_formula_sum   'Li2 Ni4 P6 O22'
_cell_volume   399.17687839
_cell_formula_units_Z   2
loop_
 _symmetry_equiv_pos_site_id
 _symmetry_equiv_pos_as_xyz
  1  'x, y, z'
loop_
 _atom_site_type_symbol
 _atom_site_label
 _atom_site_symmetry_multiplicity
 _atom_site_fract_x
 _atom_site_fract_y
 _atom_site_fract_z
 _atom_site_occupancy
  Li  Li0  1  0.520132  0.010065  0.730276  1
  Li  Li1  1  0.010065  0.520132  0.269724  1
  Ni  Ni2  1  0.120288  0.371494  0.705138  1
  Ni  Ni3  1  0.371494  0.120288  0.294862  1
  Ni  Ni4  1  0.630316  0.879475  0.204920  1
  Ni  Ni5  1  0.879475  0.630316  0.795080  1
  P  P6  1  0.684077  0.449957  0.468274  1
  P  P7  1  0.955435  0.955435  0.000000  1
  P  P8  1  0.548609  0.318705  0.966020  1
  P  P9  1  0.045824  0.045824  0.500000  1
  P  P10  1  0.449957  0.684077  0.531726  1
  P  P11  1  0.318705  0.548609  0.033980  1
  O  O12  1  0.149034  0.531987  0.873282  1
  O  O13  1  0.044390  0.263451  0.497950  1
  O  O14  1  0.509032  0.509032  0.000000  1
  O  O15  1  0.469831  0.853117  0.371419  1
  O  O16  1  0.759480  0.375111  0.946959  1
  O  O17  1  0.008493  0.893519  0.660141  1
  O  O18  1  0.954541  0.736171  0.002765  1
  O  O19  1  0.107960  0.988660  0.161273  1
  O  O20  1  0.375111  0.759480  0.053041  1
  O  O21  1  0.235460  0.623721  0.542060  1
  O  O22  1  0.389346  0.271165  0.809915  1
  O  O23  1  0.623721  0.235460  0.457940  1
  O  O24  1  0.494470  0.494470  0.500000  1
  O  O25  1  0.893519  0.008493  0.339859  1
  O  O26  1  0.853117  0.469831  0.628581  1
  O  O27  1  0.988660  0.107960  0.838727  1
  O  O28  1  0.531987  0.149034  0.126718  1
  O  O29  1  0.736171  0.954541  0.997235  1
  O  O30  1  0.271165  0.389346  0.190085  1
  O  O31  1  0.263451  0.044390  0.502050  1
  O  O32  1  0.734506  0.605150  0.312066  1
  O  O33  1  0.605150  0.734506  0.687934  1
