# generated using pymatgen
data_Er2Se3
_symmetry_space_group_name_H-M   'P 1'
_cell_length_a   14.31734531
_cell_length_b   14.31734531
_cell_length_c   14.31734531
_cell_angle_alpha   144.89224469
_cell_angle_beta   144.89224469
_cell_angle_gamma   50.49513332
_symmetry_Int_Tables_number   1
_chemical_formula_structural   Er2Se3
_chemical_formula_sum   'Er16 Se24'
_cell_volume   965.85750586
_cell_formula_units_Z   8
loop_
 _symmetry_equiv_pos_site_id
 _symmetry_equiv_pos_as_xyz
  1  'x, y, z'
loop_
 _atom_site_type_symbol
 _atom_site_label
 _atom_site_symmetry_multiplicity
 _atom_site_fract_x
 _atom_site_fract_y
 _atom_site_fract_z
 _atom_site_occupancy
  Er  Er0  1  0.905157  0.779394  0.606055  1
  Er  Er1  1  0.583344  0.083344  0.500000  1
  Er  Er2  1  0.375000  0.741827  0.866827  1
  Er  Er3  1  0.844843  0.950898  0.374237  1
  Er  Er4  1  0.166656  0.166656  0.000000  1
  Er  Er5  1  0.576660  0.470606  0.625763  1
  Er  Er6  1  0.875000  0.508173  0.133173  1
  Er  Er7  1  0.049102  0.423340  0.893945  1
  Er  Er8  1  0.491827  0.625000  0.366827  1
  Er  Er9  1  0.833344  0.833344  0.000000  1
  Er  Er10  1  0.258173  0.125000  0.633173  1
  Er  Er11  1  0.529394  0.155157  0.106055  1
  Er  Er12  1  0.916656  0.416656  0.500000  1
  Er  Er13  1  0.700898  0.094843  0.874237  1
  Er  Er14  1  0.173340  0.299102  0.393945  1
  Er  Er15  1  0.220606  0.826660  0.125763  1
  Se  Se16  1  0.535973  0.421947  0.747227  1
  Se  Se17  1  0.245426  0.000354  0.114886  1
  Se  Se18  1  0.885467  0.130540  0.885114  1
  Se  Se19  1  0.504574  0.119460  0.254928  1
  Se  Se20  1  0.864533  0.249646  0.745072  1
  Se  Se21  1  0.674721  0.788746  0.252773  1
  Se  Se22  1  0.075279  0.828053  0.614026  1
  Se  Se23  1  0.188563  0.090096  0.743712  1
  Se  Se24  1  0.909904  0.653617  0.098468  1
  Se  Se25  1  0.214027  0.461254  0.385974  1
  Se  Se26  1  0.555149  0.811437  0.901532  1
  Se  Se27  1  0.171947  0.785973  0.247227  1
  Se  Se28  1  0.538746  0.924721  0.752773  1
  Se  Se29  1  0.346383  0.444851  0.256288  1
  Se  Se30  1  0.750354  0.495426  0.614886  1
  Se  Se31  1  0.869460  0.754574  0.754928  1
  Se  Se32  1  0.578053  0.325279  0.114026  1
  Se  Se33  1  0.880540  0.135467  0.385114  1
  Se  Se34  1  0.840096  0.438563  0.243712  1
  Se  Se35  1  0.211254  0.464027  0.885974  1
  Se  Se36  1  0.194851  0.596383  0.756288  1
  Se  Se37  1  0.999646  0.114533  0.245072  1
  Se  Se38  1  0.403617  0.159904  0.598468  1
  Se  Se39  1  0.561437  0.805149  0.401532  1
