# generated using pymatgen
data_Ba3P2
_symmetry_space_group_name_H-M   'P 1'
_cell_length_a   16.40778747
_cell_length_b   16.40778747
_cell_length_c   16.40778747
_cell_angle_alpha   144.86621752
_cell_angle_beta   144.86621752
_cell_angle_gamma   50.53393548
_symmetry_Int_Tables_number   1
_chemical_formula_structural   Ba3P2
_chemical_formula_sum   'Ba24 P16'
_cell_volume   1455.55846757
_cell_formula_units_Z   8
loop_
 _symmetry_equiv_pos_site_id
 _symmetry_equiv_pos_as_xyz
  1  'x, y, z'
loop_
 _atom_site_type_symbol
 _atom_site_label
 _atom_site_symmetry_multiplicity
 _atom_site_fract_x
 _atom_site_fract_y
 _atom_site_fract_z
 _atom_site_occupancy
  Ba  Ba0  1  0.874099  0.122122  0.867929  1
  Ba  Ba1  1  0.544230  0.419409  0.743276  1
  Ba  Ba2  1  0.254193  0.006170  0.132071  1
  Ba  Ba3  1  0.495807  0.127878  0.251976  1
  Ba  Ba4  1  0.875901  0.243830  0.748024  1
  Ba  Ba5  1  0.676133  0.800954  0.256724  1
  Ba  Ba6  1  0.205770  0.449046  0.375179  1
  Ba  Ba7  1  0.564767  0.814210  0.917376  1
  Ba  Ba8  1  0.073867  0.830591  0.624821  1
  Ba  Ba9  1  0.185790  0.103166  0.750557  1
  Ba  Ba10  1  0.896834  0.647392  0.082624  1
  Ba  Ba11  1  0.169409  0.794230  0.243276  1
  Ba  Ba12  1  0.550954  0.926133  0.756724  1
  Ba  Ba13  1  0.352608  0.435233  0.249443  1
  Ba  Ba14  1  0.872122  0.124099  0.367929  1
  Ba  Ba15  1  0.199046  0.455770  0.875179  1
  Ba  Ba16  1  0.756170  0.504193  0.632071  1
  Ba  Ba17  1  0.877878  0.745807  0.751976  1
  Ba  Ba18  1  0.580591  0.323867  0.124821  1
  Ba  Ba19  1  0.853166  0.435790  0.250557  1
  Ba  Ba20  1  0.185233  0.602608  0.749443  1
  Ba  Ba21  1  0.993830  0.125901  0.248024  1
  Ba  Ba22  1  0.564210  0.814767  0.417376  1
  Ba  Ba23  1  0.397392  0.146834  0.582624  1
  P  P24  1  0.584654  0.084654  0.500000  1
  P  P25  1  0.375000  0.746085  0.871085  1
  P  P26  1  0.165346  0.165346  0.000000  1
  P  P27  1  0.850046  0.950643  0.377082  1
  P  P28  1  0.875000  0.503915  0.128915  1
  P  P29  1  0.573562  0.472964  0.622918  1
  P  P30  1  0.049357  0.426438  0.899403  1
  P  P31  1  0.496085  0.625000  0.371085  1
  P  P32  1  0.834654  0.834654  0.000000  1
  P  P33  1  0.527036  0.149954  0.100597  1
  P  P34  1  0.253915  0.125000  0.628915  1
  P  P35  1  0.915346  0.415346  0.500000  1
  P  P36  1  0.700643  0.100046  0.877082  1
  P  P37  1  0.176438  0.299357  0.399403  1
  P  P38  1  0.222964  0.823562  0.122918  1
  P  P39  1  0.899954  0.777036  0.600597  1
