# generated using pymatgen
data_Ce(Al5Ru)2
_symmetry_space_group_name_H-M   'P 1'
_cell_length_a   6.87946507
_cell_length_b   6.87946507
_cell_length_c   9.15261857
_cell_angle_alpha   90.00000000
_cell_angle_beta   90.00000000
_cell_angle_gamma   97.27843223
_symmetry_Int_Tables_number   1
_chemical_formula_structural   Ce(Al5Ru)2
_chemical_formula_sum   'Ce2 Al20 Ru4'
_cell_volume   429.67597595
_cell_formula_units_Z   2
loop_
 _symmetry_equiv_pos_site_id
 _symmetry_equiv_pos_as_xyz
  1  'x, y, z'
loop_
 _atom_site_type_symbol
 _atom_site_label
 _atom_site_symmetry_multiplicity
 _atom_site_fract_x
 _atom_site_fract_y
 _atom_site_fract_z
 _atom_site_occupancy
  Ce  Ce0  1  0.123334  0.876666  0.750000  1
  Ce  Ce1  1  0.876666  0.123334  0.250000  1
  Al  Al2  1  0.859952  0.589077  0.250000  1
  Al  Al3  1  0.519722  0.778823  0.250000  1
  Al  Al4  1  0.840716  0.159284  0.601175  1
  Al  Al5  1  0.140048  0.410923  0.750000  1
  Al  Al6  1  0.377370  0.622630  0.551467  1
  Al  Al7  1  0.159284  0.840716  0.101175  1
  Al  Al8  1  0.773546  0.773546  0.500000  1
  Al  Al9  1  0.589077  0.859952  0.750000  1
  Al  Al10  1  0.159284  0.840716  0.398825  1
  Al  Al11  1  0.480278  0.221177  0.750000  1
  Al  Al12  1  0.840716  0.159284  0.898825  1
  Al  Al13  1  0.773546  0.773546  0.000000  1
  Al  Al14  1  0.221177  0.480278  0.250000  1
  Al  Al15  1  0.377370  0.622630  0.948533  1
  Al  Al16  1  0.226454  0.226454  0.000000  1
  Al  Al17  1  0.622630  0.377370  0.051467  1
  Al  Al18  1  0.410923  0.140048  0.250000  1
  Al  Al19  1  0.778823  0.519722  0.750000  1
  Al  Al20  1  0.622630  0.377370  0.448533  1
  Al  Al21  1  0.226454  0.226454  0.500000  1
  Ru  Ru22  1  0.000000  0.500000  0.500000  1
  Ru  Ru23  1  0.000000  0.500000  0.000000  1
  Ru  Ru24  1  0.500000  0.000000  0.500000  1
  Ru  Ru25  1  0.500000  0.000000  0.000000  1
