# generated using pymatgen
data_Y2U3O11
_symmetry_space_group_name_H-M   'P 1'
_cell_length_a   9.96308331
_cell_length_b   9.96308331
_cell_length_c   9.96308331
_cell_angle_alpha   158.10934413
_cell_angle_beta   148.28672493
_cell_angle_gamma   38.86867009
_symmetry_Int_Tables_number   1
_chemical_formula_structural   Y2U3O11
_chemical_formula_sum   'Y2 U3 O11'
_cell_volume   193.53326933
_cell_formula_units_Z   1
loop_
 _symmetry_equiv_pos_site_id
 _symmetry_equiv_pos_as_xyz
  1  'x, y, z'
loop_
 _atom_site_type_symbol
 _atom_site_label
 _atom_site_symmetry_multiplicity
 _atom_site_fract_x
 _atom_site_fract_y
 _atom_site_fract_z
 _atom_site_occupancy
  Y  Y0  1  0.797095  0.797095  0.000000  1
  Y  Y1  1  0.202905  0.202905  0.000000  1
  U  U2  1  0.598173  0.598173  0.000000  1
  U  U3  1  0.000000  0.000000  0.000000  1
  U  U4  1  0.401827  0.401827  0.000000  1
  O  O5  1  0.070732  0.307508  0.763224  1
  O  O6  1  0.455715  0.692492  0.763224  1
  O  O7  1  0.544285  0.307508  0.236776  1
  O  O8  1  0.862346  0.100646  0.761701  1
  O  O9  1  0.929268  0.692492  0.236776  1
  O  O10  1  0.219333  0.500000  0.719333  1
  O  O11  1  0.338945  0.100646  0.238299  1
  O  O12  1  0.500000  0.000000  0.500000  1
  O  O13  1  0.661055  0.899354  0.761701  1
  O  O14  1  0.780667  0.500000  0.280667  1
  O  O15  1  0.137654  0.899354  0.238299  1
