# generated using pymatgen
data_Nb3S5
_symmetry_space_group_name_H-M   'P 1'
_cell_length_a   7.93508722
_cell_length_b   8.91958817
_cell_length_c   9.26178396
_cell_angle_alpha   93.96839381
_cell_angle_beta   94.85254609
_cell_angle_gamma   113.55439970
_symmetry_Int_Tables_number   1
_chemical_formula_structural   Nb3S5
_chemical_formula_sum   'Nb12 S20'
_cell_volume   594.93621512
_cell_formula_units_Z   4
loop_
 _symmetry_equiv_pos_site_id
 _symmetry_equiv_pos_as_xyz
  1  'x, y, z'
loop_
 _atom_site_type_symbol
 _atom_site_label
 _atom_site_symmetry_multiplicity
 _atom_site_fract_x
 _atom_site_fract_y
 _atom_site_fract_z
 _atom_site_occupancy
  Nb  Nb0  1  0.008700  0.005590  0.999845  1
  Nb  Nb1  1  0.605283  0.402386  0.597917  1
  Nb  Nb2  1  0.502287  0.999608  0.503612  1
  Nb  Nb3  1  0.204485  0.800806  0.197539  1
  Nb  Nb4  1  0.098104  0.401465  0.099338  1
  Nb  Nb5  1  0.799116  0.199921  0.800352  1
  Nb  Nb6  1  0.704896  0.799208  0.696030  1
  Nb  Nb7  1  0.408510  0.605088  0.399031  1
  Nb  Nb8  1  0.299675  0.198420  0.290934  1
  Nb  Nb9  1  0.896118  0.592648  0.899141  1
  Nb  Nb10  1  0.860196  0.695533  0.397844  1
  Nb  Nb11  1  0.455348  0.090852  0.995834  1
  S  S12  1  0.072413  0.551317  0.330206  1
  S  S13  1  0.396914  0.651906  0.137627  1
  S  S14  1  0.671463  0.948443  0.926842  1
  S  S15  1  0.569546  0.548327  0.823521  1
  S  S16  1  0.997542  0.053943  0.738507  1
  S  S17  1  0.911748  0.649262  0.645967  1
  S  S18  1  0.277969  0.352866  0.522784  1
  S  S19  1  0.167309  0.948723  0.427201  1
  S  S20  1  0.594253  0.442115  0.328734  1
  S  S21  1  0.507444  0.050967  0.246770  1
  S  S22  1  0.869777  0.750178  0.129503  1
  S  S23  1  0.764043  0.345601  0.031068  1
  S  S24  1  0.190254  0.837517  0.931017  1
  S  S25  1  0.095024  0.449204  0.839402  1
  S  S26  1  0.466211  0.148982  0.728879  1
  S  S27  1  0.374668  0.746019  0.629086  1
  S  S28  1  0.798504  0.251648  0.541233  1
  S  S29  1  0.702735  0.868234  0.436489  1
  S  S30  1  0.972038  0.148350  0.227308  1
  S  S31  1  0.295826  0.266476  0.030838  1
