# generated using pymatgen
data_CoGe2
_symmetry_space_group_name_H-M   'P 1'
_cell_length_a   6.15815512
_cell_length_b   6.15815512
_cell_length_c   5.67677791
_cell_angle_alpha   90.00000000
_cell_angle_beta   90.00000000
_cell_angle_gamma   125.12635302
_symmetry_Int_Tables_number   1
_chemical_formula_structural   CoGe2
_chemical_formula_sum   'Co4 Ge8'
_cell_volume   176.07410136
_cell_formula_units_Z   4
loop_
 _symmetry_equiv_pos_site_id
 _symmetry_equiv_pos_as_xyz
  1  'x, y, z'
loop_
 _atom_site_type_symbol
 _atom_site_label
 _atom_site_symmetry_multiplicity
 _atom_site_fract_x
 _atom_site_fract_y
 _atom_site_fract_z
 _atom_site_occupancy
  Co  Co0  1  0.383196  0.616804  0.000000  1
  Co  Co1  1  0.883196  0.116804  0.500000  1
  Co  Co2  1  0.616804  0.383196  1.000000  1
  Co  Co3  1  0.116804  0.883196  0.500000  1
  Ge  Ge4  1  0.341133  0.341133  0.658834  1
  Ge  Ge5  1  0.658867  0.658867  0.341166  1
  Ge  Ge6  1  0.158867  0.158867  0.158834  1
  Ge  Ge7  1  0.841133  0.841133  0.841166  1
  Ge  Ge8  1  0.998978  0.498978  0.750000  1
  Ge  Ge9  1  0.501022  0.001022  0.250000  1
  Ge  Ge10  1  0.001022  0.501022  0.250000  1
  Ge  Ge11  1  0.498978  0.998978  0.750000  1
