# generated using pymatgen
data_Li13(Ga7Cu2)3
_symmetry_space_group_name_H-M   'P 1'
_cell_length_a   11.81592171
_cell_length_b   11.81592171
_cell_length_c   11.81592171
_cell_angle_alpha   109.47122063
_cell_angle_beta   109.47122063
_cell_angle_gamma   109.47122063
_symmetry_Int_Tables_number   1
_chemical_formula_structural   Li13(Ga7Cu2)3
_chemical_formula_sum   'Li26 Ga42 Cu12'
_cell_volume   1269.93333548
_cell_formula_units_Z   2
loop_
 _symmetry_equiv_pos_site_id
 _symmetry_equiv_pos_as_xyz
  1  'x, y, z'
loop_
 _atom_site_type_symbol
 _atom_site_label
 _atom_site_symmetry_multiplicity
 _atom_site_fract_x
 _atom_site_fract_y
 _atom_site_fract_z
 _atom_site_occupancy
  Li  Li0  1  0.704835  0.204835  0.500000  1
  Li  Li1  1  0.204835  0.500000  0.704835  1
  Li  Li2  1  0.500000  0.295165  0.795165  1
  Li  Li3  1  0.795165  0.500000  0.295165  1
  Li  Li4  1  0.500000  0.704835  0.204835  1
  Li  Li5  1  0.295165  0.795165  0.500000  1
  Li  Li6  1  0.627409  0.627409  0.627409  1
  Li  Li7  1  0.000000  0.372591  0.000000  1
  Li  Li8  1  0.000000  0.000000  0.372591  1
  Li  Li9  1  0.372591  0.000000  0.000000  1
  Li  Li10  1  0.372591  0.372591  0.372591  1
  Li  Li11  1  1.000000  0.627409  1.000000  1
  Li  Li12  1  0.000000  0.000000  0.627409  1
  Li  Li13  1  0.627409  0.000000  0.000000  1
  Li  Li14  1  0.304498  0.188782  0.884285  1
  Li  Li15  1  0.420213  0.115715  0.304498  1
  Li  Li16  1  0.115715  0.695502  0.811218  1
  Li  Li17  1  0.579787  0.884285  0.695502  1
  Li  Li18  1  0.115715  0.304498  0.420213  1
  Li  Li19  1  0.811218  0.115715  0.695502  1
  Li  Li20  1  0.884285  0.695502  0.579787  1
  Li  Li21  1  0.884285  0.304498  0.188782  1
  Li  Li22  1  0.188783  0.884285  0.304498  1
  Li  Li23  1  0.304498  0.420213  0.115715  1
  Li  Li24  1  0.695502  0.811218  0.115715  1
  Li  Li25  1  0.695502  0.579787  0.884285  1
  Ga  Ga26  1  0.500000  0.093107  0.593107  1
  Ga  Ga27  1  0.906893  0.406893  0.500000  1
  Ga  Ga28  1  0.406893  0.500000  0.906893  1
  Ga  Ga29  1  0.093107  0.593107  0.500000  1
  Ga  Ga30  1  0.593107  0.500000  0.093107  1
  Ga  Ga31  1  0.500000  0.906893  0.406893  1
  Ga  Ga32  1  0.159520  0.097341  0.256861  1
  Ga  Ga33  1  0.902659  0.743139  0.840480  1
  Ga  Ga34  1  0.062180  0.159520  0.902659  1
  Ga  Ga35  1  0.097341  0.937820  0.840480  1
  Ga  Ga36  1  0.743139  0.840480  0.902659  1
  Ga  Ga37  1  0.902659  0.062180  0.159520  1
  Ga  Ga38  1  0.937820  0.840480  0.097341  1
  Ga  Ga39  1  0.256861  0.159520  0.097341  1
  Ga  Ga40  1  0.097341  0.256861  0.159520  1
  Ga  Ga41  1  0.840480  0.902659  0.743139  1
  Ga  Ga42  1  0.159520  0.902659  0.062180  1
  Ga  Ga43  1  0.840480  0.097341  0.937820  1
  Ga  Ga44  1  0.564260  0.348870  0.594747  1
  Ga  Ga45  1  0.969513  0.405253  0.754122  1
  Ga  Ga46  1  0.215391  0.245878  0.651130  1
  Ga  Ga47  1  0.030487  0.784609  0.435740  1
  Ga  Ga48  1  0.405253  0.754122  0.969513  1
  Ga  Ga49  1  0.651130  0.215391  0.245878  1
  Ga  Ga50  1  0.784609  0.435740  0.030487  1
  Ga  Ga51  1  0.594747  0.564260  0.348870  1
  Ga  Ga52  1  0.348870  0.594747  0.564260  1
  Ga  Ga53  1  0.754122  0.969513  0.405253  1
  Ga  Ga54  1  0.245878  0.651130  0.215391  1
  Ga  Ga55  1  0.435740  0.030487  0.784609  1
  Ga  Ga56  1  0.435740  0.651130  0.405253  1
  Ga  Ga57  1  0.030487  0.594747  0.245878  1
  Ga  Ga58  1  0.784609  0.754122  0.348870  1
  Ga  Ga59  1  0.969513  0.215391  0.564260  1
  Ga  Ga60  1  0.594747  0.245878  0.030487  1
  Ga  Ga61  1  0.348870  0.784609  0.754122  1
  Ga  Ga62  1  0.215391  0.564260  0.969513  1
  Ga  Ga63  1  0.405253  0.435740  0.651130  1
  Ga  Ga64  1  0.651130  0.405253  0.435740  1
  Ga  Ga65  1  0.245878  0.030487  0.594747  1
  Ga  Ga66  1  0.754122  0.348870  0.784609  1
  Ga  Ga67  1  0.564260  0.969513  0.215391  1
  Cu  Cu68  1  0.317559  0.177511  0.495070  1
  Cu  Cu69  1  0.822489  0.504930  0.682441  1
  Cu  Cu70  1  0.140047  0.317559  0.822489  1
  Cu  Cu71  1  0.177511  0.859953  0.682441  1
  Cu  Cu72  1  0.504930  0.682441  0.822489  1
  Cu  Cu73  1  0.822489  0.140047  0.317559  1
  Cu  Cu74  1  0.859953  0.682441  0.177511  1
  Cu  Cu75  1  0.495070  0.317559  0.177511  1
  Cu  Cu76  1  0.177511  0.495070  0.317559  1
  Cu  Cu77  1  0.682441  0.822489  0.504930  1
  Cu  Cu78  1  0.317559  0.822489  0.140047  1
  Cu  Cu79  1  0.682441  0.177511  0.859953  1
