# generated using pymatgen
data_MgAu3
_symmetry_space_group_name_H-M   'P 1'
_cell_length_a   10.52746545
_cell_length_b   10.52746545
_cell_length_c   9.60060751
_cell_angle_alpha   90.00000000
_cell_angle_beta   90.00000000
_cell_angle_gamma   147.43450903
_symmetry_Int_Tables_number   1
_chemical_formula_structural   MgAu3
_chemical_formula_sum   'Mg8 Au24'
_cell_volume   572.71837820
_cell_formula_units_Z   8
loop_
 _symmetry_equiv_pos_site_id
 _symmetry_equiv_pos_as_xyz
  1  'x, y, z'
loop_
 _atom_site_type_symbol
 _atom_site_label
 _atom_site_symmetry_multiplicity
 _atom_site_fract_x
 _atom_site_fract_y
 _atom_site_fract_z
 _atom_site_occupancy
  Mg  Mg0  1  0.123687  0.876313  0.499166  1
  Mg  Mg1  1  0.876313  0.123687  0.500834  1
  Mg  Mg2  1  0.876313  0.123687  0.999166  1
  Mg  Mg3  1  0.123687  0.876313  0.000834  1
  Mg  Mg4  1  0.459431  0.540569  0.250000  1
  Mg  Mg5  1  0.540569  0.459431  0.750000  1
  Mg  Mg6  1  0.706895  0.293105  0.250000  1
  Mg  Mg7  1  0.293105  0.706895  0.750000  1
  Au  Au8  1  0.251594  0.251594  0.000000  1
  Au  Au9  1  0.748406  0.748406  0.500000  1
  Au  Au10  1  0.748406  0.748406  1.000000  1
  Au  Au11  1  0.251594  0.251594  0.500000  1
  Au  Au12  1  0.374230  0.625770  0.001494  1
  Au  Au13  1  0.625770  0.374230  0.998506  1
  Au  Au14  1  0.625770  0.374230  0.501494  1
  Au  Au15  1  0.374230  0.625770  0.498506  1
  Au  Au16  1  0.414566  0.080811  0.750000  1
  Au  Au17  1  0.080811  0.414566  0.250000  1
  Au  Au18  1  0.585434  0.919189  0.250000  1
  Au  Au19  1  0.919189  0.585434  0.750000  1
  Au  Au20  1  0.166433  0.333720  0.750000  1
  Au  Au21  1  0.333720  0.166433  0.250000  1
  Au  Au22  1  0.833567  0.666280  0.250000  1
  Au  Au23  1  0.666280  0.833567  0.750000  1
  Au  Au24  1  0.000000  0.500000  0.500000  1
  Au  Au25  1  0.500000  0.000000  0.500000  1
  Au  Au26  1  0.000000  0.500000  0.000000  1
  Au  Au27  1  0.500000  0.000000  0.000000  1
  Au  Au28  1  0.207806  0.792194  0.250000  1
  Au  Au29  1  0.792194  0.207806  0.750000  1
  Au  Au30  1  0.955860  0.044140  0.250000  1
  Au  Au31  1  0.044140  0.955860  0.750000  1
