# generated using pymatgen
data_LiCr2(PO4)3
_symmetry_space_group_name_H-M   'P 1'
_cell_length_a   4.77256307
_cell_length_b   4.77256307
_cell_length_c   19.13264583
_cell_angle_alpha   89.29171407
_cell_angle_beta   90.70828593
_cell_angle_gamma   113.43872380
_symmetry_Int_Tables_number   1
_chemical_formula_structural   LiCr2(PO4)3
_chemical_formula_sum   'Li2 Cr4 P6 O24'
_cell_volume   399.78854625
_cell_formula_units_Z   2
loop_
 _symmetry_equiv_pos_site_id
 _symmetry_equiv_pos_as_xyz
  1  'x, y, z'
loop_
 _atom_site_type_symbol
 _atom_site_label
 _atom_site_symmetry_multiplicity
 _atom_site_fract_x
 _atom_site_fract_y
 _atom_site_fract_z
 _atom_site_occupancy
  Li  Li0  1  0.999803  0.000197  0.834573  1
  Li  Li1  1  0.000197  0.999803  0.165427  1
  Cr  Cr2  1  0.004753  0.995247  0.666729  1
  Cr  Cr3  1  0.000000  1.000000  0.500000  1
  Cr  Cr4  1  0.995247  0.004753  0.333271  1
  Cr  Cr5  1  0.000000  0.000000  0.000000  1
  P  P6  1  0.350131  0.649869  0.255223  1
  P  P7  1  0.353307  0.646693  0.920562  1
  P  P8  1  0.650900  0.349100  0.417428  1
  P  P9  1  0.349100  0.650900  0.582572  1
  P  P10  1  0.646693  0.353307  0.079438  1
  P  P11  1  0.649869  0.350131  0.744777  1
  O  O12  1  0.244118  0.755882  0.515414  1
  O  O13  1  0.710953  0.778042  0.582840  1
  O  O14  1  0.755882  0.244118  0.484586  1
  O  O15  1  0.292974  0.224305  0.073868  1
  O  O16  1  0.703911  0.776992  0.260443  1
  O  O17  1  0.775695  0.707026  0.073868  1
  O  O18  1  0.259788  0.740212  0.850017  1
  O  O19  1  0.246427  0.753573  0.649339  1
  O  O20  1  0.776992  0.703911  0.739557  1
  O  O21  1  0.233225  0.766775  0.319568  1
  O  O22  1  0.221958  0.289047  0.582840  1
  O  O23  1  0.258038  0.741962  0.184064  1
  O  O24  1  0.741962  0.258038  0.815936  1
  O  O25  1  0.766775  0.233225  0.680432  1
  O  O26  1  0.753573  0.246427  0.350661  1
  O  O27  1  0.766411  0.233589  0.015493  1
  O  O28  1  0.707026  0.775695  0.926132  1
  O  O29  1  0.289047  0.221958  0.417160  1
  O  O30  1  0.224305  0.292974  0.926132  1
  O  O31  1  0.778042  0.710953  0.417160  1
  O  O32  1  0.296089  0.223008  0.739557  1
  O  O33  1  0.233589  0.766411  0.984507  1
  O  O34  1  0.740212  0.259788  0.149983  1
  O  O35  1  0.223008  0.296089  0.260443  1
