# generated using pymatgen
data_Ga2Te4O11
_symmetry_space_group_name_H-M   'P 1'
_cell_length_a   5.24462346
_cell_length_b   6.66145771
_cell_length_c   8.39387058
_cell_angle_alpha   104.59457870
_cell_angle_beta   89.07385944
_cell_angle_gamma   110.16792362
_symmetry_Int_Tables_number   1
_chemical_formula_structural   Ga2Te4O11
_chemical_formula_sum   'Ga2 Te4 O11'
_cell_volume   265.58409304
_cell_formula_units_Z   1
loop_
 _symmetry_equiv_pos_site_id
 _symmetry_equiv_pos_as_xyz
  1  'x, y, z'
loop_
 _atom_site_type_symbol
 _atom_site_label
 _atom_site_symmetry_multiplicity
 _atom_site_fract_x
 _atom_site_fract_y
 _atom_site_fract_z
 _atom_site_occupancy
  Ga  Ga0  1  0.390154  0.574936  0.605162  1
  Ga  Ga1  1  0.100320  0.974668  0.988803  1
  Te  Te2  1  0.355529  0.599500  0.190659  1
  Te  Te3  1  0.677985  0.182520  0.260466  1
  Te  Te4  1  0.148157  0.008173  0.605461  1
  Te  Te5  1  0.812344  0.445409  0.802418  1
  O  O6  1  0.442305  0.181822  0.089618  1
  O  O7  1  0.973869  0.442833  0.190252  1
  O  O8  1  0.828812  0.970811  0.137581  1
  O  O9  1  0.477930  0.540386  0.382973  1
  O  O10  1  0.085137  0.127713  0.831236  1
  O  O11  1  0.019395  0.400738  0.615355  1
  O  O12  1  0.448158  0.267137  0.595539  1
  O  O13  1  0.352407  0.888843  0.300546  1
  O  O14  1  0.372640  0.867205  0.664288  1
  O  O15  1  0.116430  0.689541  0.943249  1
  O  O16  1  0.701626  0.672966  0.756295  1
