# generated using pymatgen
data_Ti3Pt5
_symmetry_space_group_name_H-M   'P 1'
_cell_length_a   7.43133001
_cell_length_b   7.43133001
_cell_length_c   7.43133001
_cell_angle_alpha   136.61311894
_cell_angle_beta   112.50655699
_cell_angle_gamma   83.71228827
_symmetry_Int_Tables_number   1
_chemical_formula_structural   Ti3Pt5
_chemical_formula_sum   'Ti6 Pt10'
_cell_volume   251.06930086
_cell_formula_units_Z   2
loop_
 _symmetry_equiv_pos_site_id
 _symmetry_equiv_pos_as_xyz
  1  'x, y, z'
loop_
 _atom_site_type_symbol
 _atom_site_label
 _atom_site_symmetry_multiplicity
 _atom_site_fract_x
 _atom_site_fract_y
 _atom_site_fract_z
 _atom_site_occupancy
  Ti  Ti0  1  0.355170  0.564671  0.209501  1
  Ti  Ti1  1  0.144830  0.854331  0.709501  1
  Ti  Ti2  1  0.644830  0.435329  0.790499  1
  Ti  Ti3  1  0.855170  0.145669  0.290499  1
  Ti  Ti4  1  0.750000  0.000000  0.750000  1
  Ti  Ti5  1  0.250000  0.000000  0.250000  1
  Pt  Pt6  1  0.896076  0.683324  0.787248  1
  Pt  Pt7  1  0.603924  0.891171  0.287248  1
  Pt  Pt8  1  0.103924  0.316676  0.212752  1
  Pt  Pt9  1  0.396076  0.108829  0.712752  1
  Pt  Pt10  1  0.506899  0.756899  0.750000  1
  Pt  Pt11  1  0.993101  0.243101  0.750000  1
  Pt  Pt12  1  0.493101  0.243101  0.250000  1
  Pt  Pt13  1  0.006899  0.756899  0.250000  1
  Pt  Pt14  1  0.250000  0.500000  0.750000  1
  Pt  Pt15  1  0.750000  0.500000  0.250000  1
