# generated using pymatgen
data_LiErSe2
_symmetry_space_group_name_H-M   'P 1'
_cell_length_a   7.01473121
_cell_length_b   7.01473121
_cell_length_c   7.01473121
_cell_angle_alpha   132.50764592
_cell_angle_beta   132.50764592
_cell_angle_gamma   69.42842741
_symmetry_Int_Tables_number   1
_chemical_formula_structural   LiErSe2
_chemical_formula_sum   'Li2 Er2 Se4'
_cell_volume   184.03423515
_cell_formula_units_Z   2
loop_
 _symmetry_equiv_pos_site_id
 _symmetry_equiv_pos_as_xyz
  1  'x, y, z'
loop_
 _atom_site_type_symbol
 _atom_site_label
 _atom_site_symmetry_multiplicity
 _atom_site_fract_x
 _atom_site_fract_y
 _atom_site_fract_z
 _atom_site_occupancy
  Li  Li0  1  0.000000  0.000000  0.000000  1
  Li  Li1  1  0.750000  0.250000  0.500000  1
  Er  Er2  1  0.250000  0.750000  0.500000  1
  Er  Er3  1  0.500000  0.500000  0.000000  1
  Se  Se4  1  0.745737  0.745737  0.000000  1
  Se  Se5  1  0.495737  0.995737  0.500000  1
  Se  Se6  1  0.254263  0.254263  0.000000  1
  Se  Se7  1  0.004263  0.504263  0.500000  1
