# generated using pymatgen
data_V3(PO4)4
_symmetry_space_group_name_H-M   'P 1'
_cell_length_a   7.80034955
_cell_length_b   7.64238564
_cell_length_c   10.26868197
_cell_angle_alpha   90.00000000
_cell_angle_beta   94.40698802
_cell_angle_gamma   90.00000000
_symmetry_Int_Tables_number   1
_chemical_formula_structural   V3(PO4)4
_chemical_formula_sum   'V6 P8 O32'
_cell_volume   610.33991762
_cell_formula_units_Z   2
loop_
 _symmetry_equiv_pos_site_id
 _symmetry_equiv_pos_as_xyz
  1  'x, y, z'
loop_
 _atom_site_type_symbol
 _atom_site_label
 _atom_site_symmetry_multiplicity
 _atom_site_fract_x
 _atom_site_fract_y
 _atom_site_fract_z
 _atom_site_occupancy
  V  V0  1  0.769716  0.478617  0.375172  1
  V  V1  1  0.227678  0.034255  0.133388  1
  V  V2  1  0.660318  0.141027  0.820854  1
  V  V3  1  0.230284  0.978617  0.624828  1
  V  V4  1  0.772322  0.534255  0.866612  1
  V  V5  1  0.339682  0.641027  0.179146  1
  P  P6  1  0.451623  0.829096  0.397350  1
  P  P7  1  0.559549  0.299803  0.107229  1
  P  P8  1  0.049219  0.200439  0.851156  1
  P  P9  1  0.959169  0.672103  0.625857  1
  P  P10  1  0.548377  0.329096  0.602650  1
  P  P11  1  0.040831  0.172103  0.374143  1
  P  P12  1  0.950781  0.700439  0.148844  1
  P  P13  1  0.440451  0.799803  0.892771  1
  O  O14  1  0.536630  0.629507  0.872170  1
  O  O15  1  0.596099  0.950768  0.410600  1
  O  O16  1  0.403901  0.450768  0.589400  1
  O  O17  1  0.427846  0.452403  0.091564  1
  O  O18  1  0.687470  0.363796  0.728244  1
  O  O19  1  0.188808  0.133525  0.481239  1
  O  O20  1  0.882915  0.076027  0.829721  1
  O  O21  1  0.509104  0.134101  0.660351  1
  O  O22  1  0.985683  0.368091  0.392821  1
  O  O23  1  0.490896  0.634101  0.339649  1
  O  O24  1  0.312530  0.863796  0.271756  1
  O  O25  1  0.341383  0.818812  0.517656  1
  O  O26  1  0.572154  0.952403  0.908436  1
  O  O27  1  0.645887  0.296269  0.969911  1
  O  O28  1  0.014317  0.868091  0.607179  1
  O  O29  1  0.152582  0.169560  0.732842  1
  O  O30  1  0.700156  0.342933  0.213080  1
  O  O31  1  0.015773  0.885343  0.123139  1
  O  O32  1  0.811192  0.633525  0.518761  1
  O  O33  1  0.299844  0.842933  0.786920  1
  O  O34  1  0.117085  0.576027  0.170279  1
  O  O35  1  0.095130  0.540551  0.649254  1
  O  O36  1  0.658617  0.318812  0.482344  1
  O  O37  1  0.847418  0.669560  0.267158  1
  O  O38  1  0.152671  0.186291  0.244348  1
  O  O39  1  0.839216  0.638197  0.028358  1
  O  O40  1  0.984227  0.385343  0.876861  1
  O  O41  1  0.904870  0.040551  0.350746  1
  O  O42  1  0.847329  0.686291  0.755652  1
  O  O43  1  0.160784  0.138197  0.971642  1
  O  O44  1  0.354113  0.796269  0.030089  1
  O  O45  1  0.463370  0.129507  0.127830  1
