# generated using pymatgen
data_TmCd3
_symmetry_space_group_name_H-M   'P 1'
_cell_length_a   6.47373802
_cell_length_b   6.47373802
_cell_length_c   4.85820774
_cell_angle_alpha   90.00000000
_cell_angle_beta   90.00000000
_cell_angle_gamma   112.42633303
_symmetry_Int_Tables_number   1
_chemical_formula_structural   TmCd3
_chemical_formula_sum   'Tm2 Cd6'
_cell_volume   188.20559883
_cell_formula_units_Z   2
loop_
 _symmetry_equiv_pos_site_id
 _symmetry_equiv_pos_as_xyz
  1  'x, y, z'
loop_
 _atom_site_type_symbol
 _atom_site_label
 _atom_site_symmetry_multiplicity
 _atom_site_fract_x
 _atom_site_fract_y
 _atom_site_fract_z
 _atom_site_occupancy
  Tm  Tm0  1  0.631413  0.368587  0.250000  1
  Tm  Tm1  1  0.368587  0.631413  0.750000  1
  Cd  Cd2  1  0.177504  0.822496  0.250000  1
  Cd  Cd3  1  0.822496  0.177504  0.750000  1
  Cd  Cd4  1  0.119236  0.311785  0.250000  1
  Cd  Cd5  1  0.880764  0.688215  0.750000  1
  Cd  Cd6  1  0.311785  0.119236  0.750000  1
  Cd  Cd7  1  0.688215  0.880764  0.250000  1
