# generated using pymatgen
data_Mg2V2O7
_symmetry_space_group_name_H-M   'P 1'
_cell_length_a   5.04397647
_cell_length_b   5.49359174
_cell_length_c   10.68926060
_cell_angle_alpha   101.70410603
_cell_angle_beta   101.93650479
_cell_angle_gamma   98.74830572
_symmetry_Int_Tables_number   1
_chemical_formula_structural   Mg2V2O7
_chemical_formula_sum   'Mg4 V4 O14'
_cell_volume   277.88290524
_cell_formula_units_Z   2
loop_
 _symmetry_equiv_pos_site_id
 _symmetry_equiv_pos_as_xyz
  1  'x, y, z'
loop_
 _atom_site_type_symbol
 _atom_site_label
 _atom_site_symmetry_multiplicity
 _atom_site_fract_x
 _atom_site_fract_y
 _atom_site_fract_z
 _atom_site_occupancy
  Mg  Mg0  1  0.514723  0.792448  0.086513  1
  Mg  Mg1  1  0.485277  0.207552  0.913487  1
  Mg  Mg2  1  0.429970  0.212659  0.417940  1
  Mg  Mg3  1  0.570030  0.787341  0.582060  1
  V  V4  1  0.037977  0.349842  0.641174  1
  V  V5  1  0.962023  0.650158  0.358826  1
  V  V6  1  0.852297  0.797865  0.868528  1
  V  V7  1  0.147703  0.202135  0.131472  1
  O  O8  1  0.288941  0.445628  0.560356  1
  O  O9  1  0.711059  0.554372  0.439644  1
  O  O10  1  0.622936  0.953224  0.783228  1
  O  O11  1  0.377064  0.046776  0.216772  1
  O  O12  1  0.760942  0.116057  0.541372  1
  O  O13  1  0.239058  0.883943  0.458628  1
  O  O14  1  0.311688  0.425528  0.067248  1
  O  O15  1  0.688312  0.574472  0.932752  1
  O  O16  1  0.905601  0.623811  0.714735  1
  O  O17  1  0.094399  0.376189  0.285265  1
  O  O18  1  0.208405  0.926151  0.962084  1
  O  O19  1  0.791595  0.073849  0.037916  1
  O  O20  1  0.182699  0.235048  0.765933  1
  O  O21  1  0.817301  0.764952  0.234067  1
