# generated using pymatgen
data_Pr(SiAg)2
_symmetry_space_group_name_H-M   'P 1'
_cell_length_a   6.16796075
_cell_length_b   6.16796075
_cell_length_c   6.16796075
_cell_angle_alpha   139.48812623
_cell_angle_beta   139.48812623
_cell_angle_gamma   58.63133688
_symmetry_Int_Tables_number   1
_chemical_formula_structural   Pr(SiAg)2
_chemical_formula_sum   'Pr1 Si2 Ag2'
_cell_volume   98.09774772
_cell_formula_units_Z   1
loop_
 _symmetry_equiv_pos_site_id
 _symmetry_equiv_pos_as_xyz
  1  'x, y, z'
loop_
 _atom_site_type_symbol
 _atom_site_label
 _atom_site_symmetry_multiplicity
 _atom_site_fract_x
 _atom_site_fract_y
 _atom_site_fract_z
 _atom_site_occupancy
  Pr  Pr0  1  0.000000  0.000000  0.000000  1
  Si  Si1  1  0.608728  0.608728  0.000000  1
  Si  Si2  1  0.391272  0.391272  0.000000  1
  Ag  Ag3  1  0.750000  0.250000  0.500000  1
  Ag  Ag4  1  0.250000  0.750000  0.500000  1
