# generated using pymatgen
data_Na4(BSe)9
_symmetry_space_group_name_H-M   'P 1'
_cell_length_a   11.14408518
_cell_length_b   16.49581407
_cell_length_c   11.70885206
_cell_angle_alpha   90.00000000
_cell_angle_beta   118.05139413
_cell_angle_gamma   90.00000000
_symmetry_Int_Tables_number   1
_chemical_formula_structural   Na4(BSe)9
_chemical_formula_sum   'Na16 B36 Se36'
_cell_volume   1899.59082804
_cell_formula_units_Z   4
loop_
 _symmetry_equiv_pos_site_id
 _symmetry_equiv_pos_as_xyz
  1  'x, y, z'
loop_
 _atom_site_type_symbol
 _atom_site_label
 _atom_site_symmetry_multiplicity
 _atom_site_fract_x
 _atom_site_fract_y
 _atom_site_fract_z
 _atom_site_occupancy
  Na  Na0  1  0.813410  0.577821  0.795451  1
  Na  Na1  1  0.186590  0.077821  0.704549  1
  Na  Na2  1  0.186590  0.422179  0.204549  1
  Na  Na3  1  0.813410  0.922179  0.295451  1
  Na  Na4  1  0.532601  0.340014  0.566547  1
  Na  Na5  1  0.467399  0.840014  0.933453  1
  Na  Na6  1  0.467399  0.659986  0.433453  1
  Na  Na7  1  0.532601  0.159986  0.066547  1
  Na  Na8  1  0.063270  0.757934  0.763895  1
  Na  Na9  1  0.936730  0.257934  0.736105  1
  Na  Na10  1  0.936730  0.242066  0.236105  1
  Na  Na11  1  0.063270  0.742066  0.263895  1
  Na  Na12  1  0.030711  0.376706  0.540358  1
  Na  Na13  1  0.969289  0.876706  0.959642  1
  Na  Na14  1  0.969289  0.623294  0.459642  1
  Na  Na15  1  0.030711  0.123294  0.040358  1
  B  B16  1  0.499462  0.510683  0.144331  1
  B  B17  1  0.500538  0.010683  0.355669  1
  B  B18  1  0.500538  0.489317  0.855669  1
  B  B19  1  0.499462  0.989317  0.644331  1
  B  B20  1  0.176892  0.864261  0.511047  1
  B  B21  1  0.823108  0.364261  0.988953  1
  B  B22  1  0.823108  0.135739  0.488953  1
  B  B23  1  0.176892  0.635739  0.011047  1
  B  B24  1  0.615860  0.565287  0.107043  1
  B  B25  1  0.384140  0.065287  0.392957  1
  B  B26  1  0.384140  0.434713  0.892957  1
  B  B27  1  0.615860  0.934713  0.607043  1
  B  B28  1  0.718166  0.724043  0.059885  1
  B  B29  1  0.281834  0.224043  0.440115  1
  B  B30  1  0.281834  0.275957  0.940115  1
  B  B31  1  0.718166  0.775957  0.559885  1
  B  B32  1  0.536750  0.583429  0.938872  1
  B  B33  1  0.463250  0.083429  0.561128  1
  B  B34  1  0.463250  0.416571  0.061128  1
  B  B35  1  0.536750  0.916571  0.438872  1
  B  B36  1  0.654353  0.501664  0.004850  1
  B  B37  1  0.345647  0.001664  0.495150  1
  B  B38  1  0.345647  0.498336  0.995150  1
  B  B39  1  0.654353  0.998336  0.504850  1
  B  B40  1  0.369802  0.541501  0.869139  1
  B  B41  1  0.630198  0.041501  0.630861  1
  B  B42  1  0.630198  0.458499  0.130861  1
  B  B43  1  0.369802  0.958499  0.369139  1
  B  B44  1  0.440071  0.588895  0.024602  1
  B  B45  1  0.559929  0.088895  0.475398  1
  B  B46  1  0.559929  0.411105  0.975398  1
  B  B47  1  0.440071  0.911105  0.524602  1
  B  B48  1  0.303737  0.553909  0.588773  1
  B  B49  1  0.696263  0.053909  0.911227  1
  B  B50  1  0.696263  0.446091  0.411227  1
  B  B51  1  0.303737  0.946091  0.088773  1
  Se  Se52  1  0.208758  0.577024  0.405005  1
  Se  Se53  1  0.791242  0.077024  0.094995  1
  Se  Se54  1  0.791242  0.422976  0.594995  1
  Se  Se55  1  0.208758  0.922976  0.905005  1
  Se  Se56  1  0.021001  0.695771  0.994440  1
  Se  Se57  1  0.978999  0.195771  0.505560  1
  Se  Se58  1  0.978999  0.304229  0.005560  1
  Se  Se59  1  0.021001  0.804229  0.494440  1
  Se  Se60  1  0.519950  0.506137  0.325911  1
  Se  Se61  1  0.480050  0.006137  0.174089  1
  Se  Se62  1  0.480050  0.493863  0.674089  1
  Se  Se63  1  0.519950  0.993863  0.825911  1
  Se  Se64  1  0.797286  0.669094  0.583459  1
  Se  Se65  1  0.202714  0.169094  0.916541  1
  Se  Se66  1  0.202714  0.330906  0.416541  1
  Se  Se67  1  0.797286  0.830906  0.083459  1
  Se  Se68  1  0.351001  0.688820  0.048710  1
  Se  Se69  1  0.648999  0.188820  0.451290  1
  Se  Se70  1  0.648999  0.311180  0.951290  1
  Se  Se71  1  0.351001  0.811180  0.548710  1
  Se  Se72  1  0.593987  0.685146  0.882578  1
  Se  Se73  1  0.406013  0.185146  0.617422  1
  Se  Se74  1  0.406013  0.314854  0.117422  1
  Se  Se75  1  0.593987  0.814854  0.382578  1
  Se  Se76  1  0.225812  0.588130  0.702071  1
  Se  Se77  1  0.774188  0.088130  0.797929  1
  Se  Se78  1  0.774188  0.411870  0.297929  1
  Se  Se79  1  0.225812  0.911870  0.202071  1
  Se  Se80  1  0.739566  0.657040  0.208254  1
  Se  Se81  1  0.260434  0.157040  0.291746  1
  Se  Se82  1  0.260434  0.342960  0.791746  1
  Se  Se83  1  0.739566  0.842960  0.708254  1
  Se  Se84  1  0.160614  0.516386  0.982304  1
  Se  Se85  1  0.839386  0.016386  0.517696  1
  Se  Se86  1  0.839386  0.483614  0.017696  1
  Se  Se87  1  0.160614  0.983614  0.482304  1
