# generated using pymatgen
data_BiPbF5
_symmetry_space_group_name_H-M   'P 1'
_cell_length_a   4.24825970
_cell_length_b   4.34091010
_cell_length_c   7.25509168
_cell_angle_alpha   90.30017887
_cell_angle_beta   106.05627031
_cell_angle_gamma   118.47458927
_symmetry_Int_Tables_number   1
_chemical_formula_structural   BiPbF5
_chemical_formula_sum   'Bi1 Pb1 F5'
_cell_volume   111.52185166
_cell_formula_units_Z   1
loop_
 _symmetry_equiv_pos_site_id
 _symmetry_equiv_pos_as_xyz
  1  'x, y, z'
loop_
 _atom_site_type_symbol
 _atom_site_label
 _atom_site_symmetry_multiplicity
 _atom_site_fract_x
 _atom_site_fract_y
 _atom_site_fract_z
 _atom_site_occupancy
  Bi  Bi0  1  0.881364  0.903572  0.960182  1
  Pb  Pb1  1  0.964897  0.529805  0.445053  1
  F  F2  1  0.792237  0.870082  0.632060  1
  F  F3  1  0.581754  0.740495  0.181357  1
  F  F4  1  0.300811  0.145372  0.373075  1
  F  F5  1  0.702659  0.316101  0.974714  1
  F  F6  1  0.272278  0.619572  0.808559  1
