# generated using pymatgen
data_Sr(RuO3)2
_symmetry_space_group_name_H-M   'P 1'
_cell_length_a   5.46611854
_cell_length_b   5.46611854
_cell_length_c   5.46611854
_cell_angle_alpha   119.93854162
_cell_angle_beta   119.90576583
_cell_angle_gamma   90.13488901
_symmetry_Int_Tables_number   1
_chemical_formula_structural   Sr(RuO3)2
_chemical_formula_sum   'Sr1 Ru2 O6'
_cell_volume   115.61961021
_cell_formula_units_Z   1
loop_
 _symmetry_equiv_pos_site_id
 _symmetry_equiv_pos_as_xyz
  1  'x, y, z'
loop_
 _atom_site_type_symbol
 _atom_site_label
 _atom_site_symmetry_multiplicity
 _atom_site_fract_x
 _atom_site_fract_y
 _atom_site_fract_z
 _atom_site_occupancy
  Sr  Sr0  1  0.002459  1.000000  0.002459  1
  Ru  Ru1  1  0.749770  0.250458  0.499312  1
  Ru  Ru2  1  0.248855  0.749542  0.499312  1
  O  O3  1  0.026711  0.525658  0.997757  1
  O  O4  1  0.026711  0.028954  0.501052  1
  O  O5  1  0.933872  0.500000  0.433872  1
  O  O6  1  0.548426  0.000000  0.548426  1
  O  O7  1  0.472098  0.474342  0.501052  1
  O  O8  1  0.472098  0.971046  0.997757  1
