# generated using pymatgen
data_La2Zn17
_symmetry_space_group_name_H-M   'P 1'
_cell_length_a   6.91007029
_cell_length_b   6.91007029
_cell_length_c   6.91007029
_cell_angle_alpha   82.69877004
_cell_angle_beta   82.69877004
_cell_angle_gamma   82.69877004
_symmetry_Int_Tables_number   1
_chemical_formula_structural   La2Zn17
_chemical_formula_sum   'La2 Zn17'
_cell_volume   322.55027685
_cell_formula_units_Z   1
loop_
 _symmetry_equiv_pos_site_id
 _symmetry_equiv_pos_as_xyz
  1  'x, y, z'
loop_
 _atom_site_type_symbol
 _atom_site_label
 _atom_site_symmetry_multiplicity
 _atom_site_fract_x
 _atom_site_fract_y
 _atom_site_fract_z
 _atom_site_occupancy
  La  La0  1  0.336486  0.336486  0.336486  1
  La  La1  1  0.663514  0.663514  0.663514  1
  Zn  Zn2  1  0.160268  0.651450  0.651450  1
  Zn  Zn3  1  0.651450  0.651450  0.160268  1
  Zn  Zn4  1  0.901622  0.901622  0.901622  1
  Zn  Zn5  1  0.098378  0.098378  0.098378  1
  Zn  Zn6  1  0.500000  0.000000  0.000000  1
  Zn  Zn7  1  0.000000  0.500000  0.000000  1
  Zn  Zn8  1  0.000000  1.000000  0.500000  1
  Zn  Zn9  1  0.000000  0.290522  0.709478  1
  Zn  Zn10  1  0.709478  0.000000  0.290522  1
  Zn  Zn11  1  0.290522  0.709478  0.000000  1
  Zn  Zn12  1  0.000000  0.709478  0.290522  1
  Zn  Zn13  1  0.290522  0.000000  0.709478  1
  Zn  Zn14  1  0.709478  0.290522  0.000000  1
  Zn  Zn15  1  0.348550  0.348550  0.839732  1
  Zn  Zn16  1  0.839732  0.348550  0.348550  1
  Zn  Zn17  1  0.348550  0.839732  0.348550  1
  Zn  Zn18  1  0.651450  0.160268  0.651450  1
