# generated using pymatgen
data_Ca3Au
_symmetry_space_group_name_H-M   'P 1'
_cell_length_a   6.81694396
_cell_length_b   7.86182187
_cell_length_c   9.91693515
_cell_angle_alpha   90.00000000
_cell_angle_beta   90.00000000
_cell_angle_gamma   90.00000000
_symmetry_Int_Tables_number   1
_chemical_formula_structural   Ca3Au
_chemical_formula_sum   'Ca12 Au4'
_cell_volume   531.48424684
_cell_formula_units_Z   4
loop_
 _symmetry_equiv_pos_site_id
 _symmetry_equiv_pos_as_xyz
  1  'x, y, z'
loop_
 _atom_site_type_symbol
 _atom_site_label
 _atom_site_symmetry_multiplicity
 _atom_site_fract_x
 _atom_site_fract_y
 _atom_site_fract_z
 _atom_site_occupancy
  Ca  Ca0  1  0.662723  0.174933  0.436283  1
  Ca  Ca1  1  0.162723  0.325067  0.563717  1
  Ca  Ca2  1  0.837277  0.674933  0.063717  1
  Ca  Ca3  1  0.337277  0.825067  0.936283  1
  Ca  Ca4  1  0.143527  0.036497  0.250000  1
  Ca  Ca5  1  0.643527  0.463503  0.750000  1
  Ca  Ca6  1  0.356473  0.536497  0.250000  1
  Ca  Ca7  1  0.856473  0.963503  0.750000  1
  Ca  Ca8  1  0.662723  0.174933  0.063717  1
  Ca  Ca9  1  0.162723  0.325067  0.936283  1
  Ca  Ca10  1  0.837277  0.674933  0.436283  1
  Ca  Ca11  1  0.337277  0.825067  0.563717  1
  Au  Au12  1  0.049901  0.621996  0.750000  1
  Au  Au13  1  0.549901  0.878004  0.250000  1
  Au  Au14  1  0.450099  0.121996  0.750000  1
  Au  Au15  1  0.950099  0.378004  0.250000  1
