# generated using pymatgen
data_LiMo2P2O11
_symmetry_space_group_name_H-M   'P 1'
_cell_length_a   7.91329231
_cell_length_b   12.89570843
_cell_length_c   8.66521751
_cell_angle_alpha   90.00000000
_cell_angle_beta   107.38087679
_cell_angle_gamma   90.00000000
_symmetry_Int_Tables_number   1
_chemical_formula_structural   LiMo2P2O11
_chemical_formula_sum   'Li4 Mo8 P8 O44'
_cell_volume   843.88845937
_cell_formula_units_Z   4
loop_
 _symmetry_equiv_pos_site_id
 _symmetry_equiv_pos_as_xyz
  1  'x, y, z'
loop_
 _atom_site_type_symbol
 _atom_site_label
 _atom_site_symmetry_multiplicity
 _atom_site_fract_x
 _atom_site_fract_y
 _atom_site_fract_z
 _atom_site_occupancy
  Li  Li0  1  0.156245  0.750000  0.464011  1
  Li  Li1  1  0.500000  0.000000  0.000000  1
  Li  Li2  1  0.500000  0.500000  0.000000  1
  Li  Li3  1  0.843755  0.250000  0.535989  1
  Mo  Mo4  1  0.264407  0.250000  0.809536  1
  Mo  Mo5  1  0.311702  0.750000  0.847298  1
  Mo  Mo6  1  0.269637  0.498446  0.348113  1
  Mo  Mo7  1  0.269637  0.001554  0.348113  1
  Mo  Mo8  1  0.730363  0.998446  0.651887  1
  Mo  Mo9  1  0.730363  0.501554  0.651887  1
  Mo  Mo10  1  0.688298  0.250000  0.152702  1
  Mo  Mo11  1  0.735593  0.750000  0.190464  1
  P  P12  1  0.814242  0.008021  0.263984  1
  P  P13  1  0.814242  0.491979  0.263984  1
  P  P14  1  0.861297  0.750000  0.598398  1
  P  P15  1  0.678650  0.250000  0.755163  1
  P  P16  1  0.321350  0.750000  0.244837  1
  P  P17  1  0.138703  0.250000  0.401602  1
  P  P18  1  0.185758  0.508021  0.736016  1
  P  P19  1  0.185758  0.991979  0.736016  1
  O  O20  1  0.248167  0.346141  0.389715  1
  O  O21  1  0.958392  0.250000  0.269825  1
  O  O22  1  0.900257  0.750000  0.431150  1
  O  O23  1  0.998163  0.501480  0.754519  1
  O  O24  1  0.998163  0.998520  0.754519  1
  O  O25  1  0.814351  0.031987  0.435599  1
  O  O26  1  0.814351  0.468013  0.435599  1
  O  O27  1  0.708043  0.405608  0.143786  1
  O  O28  1  0.096651  0.250000  0.894723  1
  O  O29  1  0.041608  0.750000  0.730175  1
  O  O30  1  0.099743  0.250000  0.568850  1
  O  O31  1  0.001837  0.498520  0.245481  1
  O  O32  1  0.001837  0.001480  0.245481  1
  O  O33  1  0.185649  0.968013  0.564401  1
  O  O34  1  0.185649  0.531987  0.564401  1
  O  O35  1  0.291957  0.905608  0.856214  1
  O  O36  1  0.291957  0.594392  0.856214  1
  O  O37  1  0.295043  0.410210  0.809733  1
  O  O38  1  0.295043  0.089790  0.809733  1
  O  O39  1  0.903349  0.750000  0.105277  1
  O  O40  1  0.248167  0.153859  0.389715  1
  O  O41  1  0.253018  0.843065  0.326316  1
  O  O42  1  0.253018  0.656935  0.326316  1
  O  O43  1  0.352156  0.750000  0.661475  1
  O  O44  1  0.238259  0.750000  0.061507  1
  O  O45  1  0.538083  0.750000  0.976311  1
  O  O46  1  0.476778  0.250000  0.708605  1
  O  O47  1  0.334079  0.484390  0.176509  1
  O  O48  1  0.334079  0.015610  0.176509  1
  O  O49  1  0.500000  0.000000  0.500000  1
  O  O50  1  0.500000  0.500000  0.500000  1
  O  O51  1  0.665921  0.984390  0.823491  1
  O  O52  1  0.665921  0.515610  0.823491  1
  O  O53  1  0.523222  0.750000  0.291395  1
  O  O54  1  0.461917  0.250000  0.023689  1
  O  O55  1  0.761741  0.250000  0.938493  1
  O  O56  1  0.647844  0.250000  0.338525  1
  O  O57  1  0.746982  0.343065  0.673684  1
  O  O58  1  0.746982  0.156935  0.673684  1
  O  O59  1  0.751833  0.846141  0.610285  1
  O  O60  1  0.751833  0.653859  0.610285  1
  O  O61  1  0.704957  0.910210  0.190267  1
  O  O62  1  0.704957  0.589790  0.190267  1
  O  O63  1  0.708043  0.094392  0.143786  1
