# generated using pymatgen
data_MnPO4
_symmetry_space_group_name_H-M   'P 1'
_cell_length_a   4.71115870
_cell_length_b   4.71115870
_cell_length_c   6.53498761
_cell_angle_alpha   90.00000000
_cell_angle_beta   90.00000000
_cell_angle_gamma   111.23461837
_symmetry_Int_Tables_number   1
_chemical_formula_structural   MnPO4
_chemical_formula_sum   'Mn2 P2 O8'
_cell_volume   135.19640322
_cell_formula_units_Z   2
loop_
 _symmetry_equiv_pos_site_id
 _symmetry_equiv_pos_as_xyz
  1  'x, y, z'
loop_
 _atom_site_type_symbol
 _atom_site_label
 _atom_site_symmetry_multiplicity
 _atom_site_fract_x
 _atom_site_fract_y
 _atom_site_fract_z
 _atom_site_occupancy
  Mn  Mn0  1  0.000000  0.000000  0.000000  1
  Mn  Mn1  1  0.000000  0.000000  0.500000  1
  P  P2  1  0.348023  0.651977  0.750000  1
  P  P3  1  0.651977  0.348023  0.250000  1
  O  O4  1  0.704602  0.775824  0.750000  1
  O  O5  1  0.760182  0.239818  0.447322  1
  O  O6  1  0.239818  0.760182  0.947322  1
  O  O7  1  0.224176  0.295398  0.750000  1
  O  O8  1  0.295398  0.224176  0.250000  1
  O  O9  1  0.239818  0.760182  0.552678  1
  O  O10  1  0.760182  0.239818  0.052678  1
  O  O11  1  0.775824  0.704602  0.250000  1
