# generated using pymatgen
data_MgGeO3
_symmetry_space_group_name_H-M   'P 1'
_cell_length_a   5.47043343
_cell_length_b   5.47043343
_cell_length_c   5.47043343
_cell_angle_alpha   54.54173780
_cell_angle_beta   54.54173780
_cell_angle_gamma   54.54173780
_symmetry_Int_Tables_number   1
_chemical_formula_structural   MgGeO3
_chemical_formula_sum   'Mg2 Ge2 O6'
_cell_volume   101.02990507
_cell_formula_units_Z   2
loop_
 _symmetry_equiv_pos_site_id
 _symmetry_equiv_pos_as_xyz
  1  'x, y, z'
loop_
 _atom_site_type_symbol
 _atom_site_label
 _atom_site_symmetry_multiplicity
 _atom_site_fract_x
 _atom_site_fract_y
 _atom_site_fract_z
 _atom_site_occupancy
  Mg  Mg0  1  0.641036  0.641036  0.641036  1
  Mg  Mg1  1  0.358964  0.358964  0.358964  1
  Ge  Ge2  1  0.846672  0.846672  0.846672  1
  Ge  Ge3  1  0.153328  0.153328  0.153328  1
  O  O4  1  0.219345  0.559483  0.953996  1
  O  O5  1  0.559483  0.953996  0.219345  1
  O  O6  1  0.953996  0.219345  0.559483  1
  O  O7  1  0.780655  0.440517  0.046004  1
  O  O8  1  0.046004  0.780655  0.440517  1
  O  O9  1  0.440517  0.046004  0.780655  1
