# generated using pymatgen
data_Co3(PO4)4
_symmetry_space_group_name_H-M   'P 1'
_cell_length_a   8.42656726
_cell_length_b   5.08924883
_cell_length_c   15.54395457
_cell_angle_alpha   90.00000000
_cell_angle_beta   113.15307913
_cell_angle_gamma   90.00000000
_symmetry_Int_Tables_number   1
_chemical_formula_structural   Co3(PO4)4
_chemical_formula_sum   'Co6 P8 O32'
_cell_volume   612.91128977
_cell_formula_units_Z   2
loop_
 _symmetry_equiv_pos_site_id
 _symmetry_equiv_pos_as_xyz
  1  'x, y, z'
loop_
 _atom_site_type_symbol
 _atom_site_label
 _atom_site_symmetry_multiplicity
 _atom_site_fract_x
 _atom_site_fract_y
 _atom_site_fract_z
 _atom_site_occupancy
  Co  Co0  1  0.686257  0.412302  0.199592  1
  Co  Co1  1  0.686257  0.087698  0.699592  1
  Co  Co2  1  0.313743  0.912302  0.300408  1
  Co  Co3  1  0.313743  0.587698  0.800408  1
  Co  Co4  1  0.000000  0.500000  0.500000  1
  Co  Co5  1  0.000000  0.000000  0.000000  1
  P  P6  1  0.974272  0.510151  0.853741  1
  P  P7  1  0.580143  0.048781  0.883543  1
  P  P8  1  0.974272  0.989849  0.353741  1
  P  P9  1  0.419857  0.548781  0.616457  1
  P  P10  1  0.419857  0.951219  0.116457  1
  P  P11  1  0.025728  0.010151  0.646259  1
  P  P12  1  0.025728  0.489849  0.146259  1
  P  P13  1  0.580143  0.451219  0.383543  1
  O  O14  1  0.752167  0.036825  0.969716  1
  O  O15  1  0.857950  0.524223  0.164073  1
  O  O16  1  0.047497  0.203640  0.122083  1
  O  O17  1  0.952503  0.703640  0.377917  1
  O  O18  1  0.142050  0.024223  0.335927  1
  O  O19  1  0.182120  0.590230  0.230918  1
  O  O20  1  0.857950  0.975777  0.664073  1
  O  O21  1  0.390626  0.991277  0.207515  1
  O  O22  1  0.007740  0.832242  0.561911  1
  O  O23  1  0.247833  0.963175  0.030284  1
  O  O24  1  0.007740  0.667758  0.061911  1
  O  O25  1  0.517578  0.803119  0.616393  1
  O  O26  1  0.534161  0.179218  0.106466  1
  O  O27  1  0.952503  0.796360  0.877917  1
  O  O28  1  0.482422  0.303119  0.883607  1
  O  O29  1  0.752167  0.463175  0.469716  1
  O  O30  1  0.992260  0.167758  0.438089  1
  O  O31  1  0.817880  0.090230  0.269082  1
  O  O32  1  0.247833  0.536825  0.530284  1
  O  O33  1  0.465839  0.820782  0.893534  1
  O  O34  1  0.609374  0.008723  0.792485  1
  O  O35  1  0.142050  0.475777  0.835927  1
  O  O36  1  0.182120  0.909770  0.730918  1
  O  O37  1  0.390626  0.508723  0.707515  1
  O  O38  1  0.047497  0.296360  0.622083  1
  O  O39  1  0.992260  0.332242  0.938089  1
  O  O40  1  0.609374  0.491277  0.292485  1
  O  O41  1  0.482422  0.196881  0.383607  1
  O  O42  1  0.534161  0.320782  0.606466  1
  O  O43  1  0.817880  0.409770  0.769082  1
  O  O44  1  0.517578  0.696881  0.116393  1
  O  O45  1  0.465839  0.679218  0.393534  1
