# generated using pymatgen
data_Lu3Ge3Ir2
_symmetry_space_group_name_H-M   'P 1'
_cell_length_a   5.56828078
_cell_length_b   5.56828078
_cell_length_c   14.11159964
_cell_angle_alpha   90.00000000
_cell_angle_beta   90.00000000
_cell_angle_gamma   134.74874404
_symmetry_Int_Tables_number   1
_chemical_formula_structural   Lu3Ge3Ir2
_chemical_formula_sum   'Lu6 Ge6 Ir4'
_cell_volume   310.74178900
_cell_formula_units_Z   2
loop_
 _symmetry_equiv_pos_site_id
 _symmetry_equiv_pos_as_xyz
  1  'x, y, z'
loop_
 _atom_site_type_symbol
 _atom_site_label
 _atom_site_symmetry_multiplicity
 _atom_site_fract_x
 _atom_site_fract_y
 _atom_site_fract_z
 _atom_site_occupancy
  Lu  Lu0  1  0.415723  0.584277  0.389709  1
  Lu  Lu1  1  0.415723  0.584277  0.110291  1
  Lu  Lu2  1  0.856859  0.143141  0.750000  1
  Lu  Lu3  1  0.143140  0.856859  0.250000  1
  Lu  Lu4  1  0.584277  0.415723  0.610291  1
  Lu  Lu5  1  0.584277  0.415723  0.889709  1
  Ge  Ge6  1  0.878333  0.121667  0.535148  1
  Ge  Ge7  1  0.878333  0.121667  0.964852  1
  Ge  Ge8  1  0.848098  0.151902  0.250000  1
  Ge  Ge9  1  0.121667  0.878333  0.035148  1
  Ge  Ge10  1  0.121667  0.878333  0.464852  1
  Ge  Ge11  1  0.151902  0.848098  0.750000  1
  Ir  Ir12  1  0.299754  0.700246  0.603214  1
  Ir  Ir13  1  0.700246  0.299754  0.103214  1
  Ir  Ir14  1  0.299754  0.700246  0.896786  1
  Ir  Ir15  1  0.700246  0.299754  0.396786  1
