# generated using pymatgen
data_LiClO4
_symmetry_space_group_name_H-M   'P 1'
_cell_length_a   4.92801763
_cell_length_b   6.99402017
_cell_length_c   8.77017924
_cell_angle_alpha   90.00000000
_cell_angle_beta   90.00000000
_cell_angle_gamma   90.00000000
_symmetry_Int_Tables_number   1
_chemical_formula_structural   LiClO4
_chemical_formula_sum   'Li4 Cl4 O16'
_cell_volume   302.27873954
_cell_formula_units_Z   4
loop_
 _symmetry_equiv_pos_site_id
 _symmetry_equiv_pos_as_xyz
  1  'x, y, z'
loop_
 _atom_site_type_symbol
 _atom_site_label
 _atom_site_symmetry_multiplicity
 _atom_site_fract_x
 _atom_site_fract_y
 _atom_site_fract_z
 _atom_site_occupancy
  Li  Li0  1  0.000000  0.000000  0.500000  1
  Li  Li1  1  0.500000  0.000000  0.000000  1
  Li  Li2  1  0.000000  0.500000  0.500000  1
  Li  Li3  1  0.500000  0.500000  0.000000  1
  Cl  Cl4  1  0.540099  0.250000  0.317651  1
  Cl  Cl5  1  0.040099  0.750000  0.182349  1
  Cl  Cl6  1  0.459901  0.750000  0.682349  1
  Cl  Cl7  1  0.959901  0.250000  0.817651  1
  O  O8  1  0.954828  0.250000  0.649638  1
  O  O9  1  0.454828  0.750000  0.850362  1
  O  O10  1  0.045172  0.750000  0.350362  1
  O  O11  1  0.545172  0.250000  0.149638  1
  O  O12  1  0.823259  0.421520  0.870567  1
  O  O13  1  0.323259  0.578480  0.629433  1
  O  O14  1  0.176741  0.921520  0.129433  1
  O  O15  1  0.676741  0.078480  0.370567  1
  O  O16  1  0.176741  0.578480  0.129433  1
  O  O17  1  0.676741  0.421520  0.370567  1
  O  O18  1  0.823259  0.078480  0.870567  1
  O  O19  1  0.323259  0.921520  0.629433  1
  O  O20  1  0.239572  0.250000  0.871555  1
  O  O21  1  0.739572  0.750000  0.628445  1
  O  O22  1  0.760428  0.750000  0.128445  1
  O  O23  1  0.260428  0.250000  0.371555  1
