# generated using pymatgen
data_U16N25
_symmetry_space_group_name_H-M   'P 1'
_cell_length_a   9.23648127
_cell_length_b   9.23648127
_cell_length_c   9.23648127
_cell_angle_alpha   109.53989551
_cell_angle_beta   109.53989551
_cell_angle_gamma   109.53989551
_symmetry_Int_Tables_number   1
_chemical_formula_structural   U16N25
_chemical_formula_sum   'U16 N25'
_cell_volume   605.04627592
_cell_formula_units_Z   1
loop_
 _symmetry_equiv_pos_site_id
 _symmetry_equiv_pos_as_xyz
  1  'x, y, z'
loop_
 _atom_site_type_symbol
 _atom_site_label
 _atom_site_symmetry_multiplicity
 _atom_site_fract_x
 _atom_site_fract_y
 _atom_site_fract_z
 _atom_site_occupancy
  U  U0  1  0.772666  0.021368  0.250932  1
  U  U1  1  0.750245  0.230898  0.978057  1
  U  U2  1  0.979166  0.979166  0.979166  1
  U  U3  1  0.521793  0.248243  0.268773  1
  U  U4  1  0.248243  0.268773  0.521793  1
  U  U5  1  0.021368  0.250932  0.772666  1
  U  U6  1  0.726418  0.493746  0.749073  1
  U  U7  1  0.500902  0.499615  0.004464  1
  U  U8  1  0.268773  0.521793  0.248243  1
  U  U9  1  0.978057  0.750245  0.230898  1
  U  U10  1  0.749073  0.726418  0.493746  1
  U  U11  1  0.493746  0.749073  0.726418  1
  U  U12  1  0.004464  0.500902  0.499615  1
  U  U13  1  0.250932  0.772666  0.021368  1
  U  U14  1  0.230898  0.978057  0.750245  1
  U  U15  1  0.499615  0.004464  0.500902  1
  N  N16  1  0.024518  0.022800  0.260268  1
  N  N17  1  0.763538  0.240459  0.734258  1
  N  N18  1  0.000552  0.264824  0.527679  1
  N  N19  1  0.468388  0.238742  0.494951  1
  N  N20  1  0.477134  0.005891  0.735464  1
  N  N21  1  0.268506  0.237240  0.767303  1
  N  N22  1  0.022800  0.260268  0.024518  1
  N  N23  1  0.260268  0.024518  0.022800  1
  N  N24  1  0.240459  0.734258  0.763538  1
  N  N25  1  0.264824  0.527679  0.000552  1
  N  N26  1  0.487124  0.519863  0.769298  1
  N  N27  1  0.769298  0.487124  0.519863  1
  N  N28  1  0.238742  0.494951  0.468388  1
  N  N29  1  0.494951  0.468388  0.238742  1
  N  N30  1  0.735464  0.477134  0.005891  1
  N  N31  1  0.767303  0.268506  0.237240  1
  N  N32  1  0.984933  0.731015  0.980282  1
  N  N33  1  0.731015  0.980282  0.984933  1
  N  N34  1  0.734258  0.763538  0.240459  1
  N  N35  1  0.527679  0.000552  0.264824  1
  N  N36  1  0.519863  0.769298  0.487124  1
  N  N37  1  0.732612  0.732612  0.732612  1
  N  N38  1  0.005891  0.735464  0.477134  1
  N  N39  1  0.237240  0.767303  0.268506  1
  N  N40  1  0.980282  0.984933  0.731015  1
