# generated using pymatgen
data_Hf11Ga10
_symmetry_space_group_name_H-M   'P 1'
_cell_length_a   10.40232238
_cell_length_b   10.40232238
_cell_length_c   10.40232238
_cell_angle_alpha   120.24311521
_cell_angle_beta   120.24311521
_cell_angle_gamma   89.57942538
_symmetry_Int_Tables_number   1
_chemical_formula_structural   Hf11Ga10
_chemical_formula_sum   'Hf22 Ga20'
_cell_volume   792.98398098
_cell_formula_units_Z   2
loop_
 _symmetry_equiv_pos_site_id
 _symmetry_equiv_pos_as_xyz
  1  'x, y, z'
loop_
 _atom_site_type_symbol
 _atom_site_label
 _atom_site_symmetry_multiplicity
 _atom_site_fract_x
 _atom_site_fract_y
 _atom_site_fract_z
 _atom_site_occupancy
  Hf  Hf0  1  0.321367  0.321367  0.000000  1
  Hf  Hf1  1  0.678633  0.678633  0.000000  1
  Hf  Hf2  1  0.174818  0.174818  0.349636  1
  Hf  Hf3  1  0.174818  0.825182  0.000000  1
  Hf  Hf4  1  0.825182  0.174818  0.000000  1
  Hf  Hf5  1  0.825182  0.825182  0.650364  1
  Hf  Hf6  1  0.438844  0.188086  0.250758  1
  Hf  Hf7  1  0.188086  0.937328  0.749242  1
  Hf  Hf8  1  0.188086  0.438844  0.250758  1
  Hf  Hf9  1  0.561156  0.811914  0.749242  1
  Hf  Hf10  1  0.062672  0.811914  0.250758  1
  Hf  Hf11  1  0.811914  0.062672  0.250758  1
  Hf  Hf12  1  0.811914  0.561156  0.749242  1
  Hf  Hf13  1  0.937328  0.188086  0.749242  1
  Hf  Hf14  1  0.729922  0.396371  0.333551  1
  Hf  Hf15  1  0.396371  0.062820  0.666449  1
  Hf  Hf16  1  0.396371  0.729922  0.333551  1
  Hf  Hf17  1  0.270078  0.603629  0.666449  1
  Hf  Hf18  1  0.937180  0.603629  0.333551  1
  Hf  Hf19  1  0.603629  0.937180  0.333551  1
  Hf  Hf20  1  0.603629  0.270078  0.666449  1
  Hf  Hf21  1  0.062820  0.396371  0.666449  1
  Ga  Ga22  1  0.750000  0.250000  0.500000  1
  Ga  Ga23  1  0.250000  0.750000  0.500000  1
  Ga  Ga24  1  0.107566  0.107566  0.000000  1
  Ga  Ga25  1  0.892434  0.892434  0.000000  1
  Ga  Ga26  1  0.372563  0.372563  0.745126  1
  Ga  Ga27  1  0.372563  0.627437  0.000000  1
  Ga  Ga28  1  0.627437  0.372563  0.000000  1
  Ga  Ga29  1  0.627437  0.627437  0.254874  1
  Ga  Ga30  1  0.000000  0.356836  0.356836  1
  Ga  Ga31  1  0.356836  1.000000  0.356836  1
  Ga  Ga32  1  0.643164  1.000000  0.643164  1
  Ga  Ga33  1  0.000000  0.643164  0.643164  1
  Ga  Ga34  1  0.533147  0.533147  0.412786  1
  Ga  Ga35  1  0.533147  0.120361  0.000000  1
  Ga  Ga36  1  0.120361  0.533147  0.000000  1
  Ga  Ga37  1  0.466853  0.879639  0.000000  1
  Ga  Ga38  1  0.879639  0.466853  0.000000  1
  Ga  Ga39  1  0.879639  0.879639  0.412786  1
  Ga  Ga40  1  0.466853  0.466853  0.587214  1
  Ga  Ga41  1  0.120361  0.120361  0.587214  1
