# generated using pymatgen
data_SrAg
_symmetry_space_group_name_H-M   'P 1'
_cell_length_a   4.86451571
_cell_length_b   6.40569276
_cell_length_c   16.61714200
_cell_angle_alpha   90.00000000
_cell_angle_beta   90.00000000
_cell_angle_gamma   90.00000000
_symmetry_Int_Tables_number   1
_chemical_formula_structural   SrAg
_chemical_formula_sum   'Sr8 Ag8'
_cell_volume   517.79999976
_cell_formula_units_Z   8
loop_
 _symmetry_equiv_pos_site_id
 _symmetry_equiv_pos_as_xyz
  1  'x, y, z'
loop_
 _atom_site_type_symbol
 _atom_site_label
 _atom_site_symmetry_multiplicity
 _atom_site_fract_x
 _atom_site_fract_y
 _atom_site_fract_z
 _atom_site_occupancy
  Sr  Sr0  1  0.250000  0.754098  0.534779  1
  Sr  Sr1  1  0.750000  0.245902  0.465221  1
  Sr  Sr2  1  0.750000  0.254098  0.965221  1
  Sr  Sr3  1  0.250000  0.745902  0.034779  1
  Sr  Sr4  1  0.250000  0.987474  0.785047  1
  Sr  Sr5  1  0.750000  0.012526  0.214953  1
  Sr  Sr6  1  0.750000  0.487474  0.714953  1
  Sr  Sr7  1  0.250000  0.512526  0.285047  1
  Ag  Ag8  1  0.250000  0.243573  0.607622  1
  Ag  Ag9  1  0.750000  0.756427  0.392378  1
  Ag  Ag10  1  0.750000  0.743573  0.892378  1
  Ag  Ag11  1  0.250000  0.256427  0.107622  1
  Ag  Ag12  1  0.250000  0.496695  0.857076  1
  Ag  Ag13  1  0.750000  0.503305  0.142924  1
  Ag  Ag14  1  0.750000  0.996695  0.642924  1
  Ag  Ag15  1  0.250000  0.003305  0.357076  1
