# generated using pymatgen
data_V2(PO4)3
_symmetry_space_group_name_H-M   'P 1'
_cell_length_a   8.50327448
_cell_length_b   8.58097679
_cell_length_c   14.57427614
_cell_angle_alpha   90.00000000
_cell_angle_beta   125.21432843
_cell_angle_gamma   90.00000000
_symmetry_Int_Tables_number   1
_chemical_formula_structural   V2(PO4)3
_chemical_formula_sum   'V8 P12 O48'
_cell_volume   868.82509879
_cell_formula_units_Z   4
loop_
 _symmetry_equiv_pos_site_id
 _symmetry_equiv_pos_as_xyz
  1  'x, y, z'
loop_
 _atom_site_type_symbol
 _atom_site_label
 _atom_site_symmetry_multiplicity
 _atom_site_fract_x
 _atom_site_fract_y
 _atom_site_fract_z
 _atom_site_occupancy
  V  V0  1  0.130114  0.031653  0.383580  1
  V  V1  1  0.869886  0.531653  0.116420  1
  V  V2  1  0.629511  0.968499  0.880672  1
  V  V3  1  0.370489  0.468499  0.619328  1
  V  V4  1  0.629511  0.531501  0.380672  1
  V  V5  1  0.370489  0.031501  0.119328  1
  V  V6  1  0.130114  0.468347  0.883580  1
  V  V7  1  0.869886  0.968347  0.616420  1
  P  P8  1  0.033781  0.748931  0.504312  1
  P  P9  1  0.749709  0.884494  0.143452  1
  P  P10  1  0.466843  0.615771  0.856953  1
  P  P11  1  0.250291  0.384494  0.356548  1
  P  P12  1  0.533157  0.115771  0.643047  1
  P  P13  1  0.966219  0.248931  0.995688  1
  P  P14  1  0.033781  0.751069  0.004312  1
  P  P15  1  0.466843  0.884229  0.356953  1
  P  P16  1  0.749709  0.615506  0.643452  1
  P  P17  1  0.533157  0.384229  0.143047  1
  P  P18  1  0.966219  0.251069  0.495688  1
  P  P19  1  0.250291  0.115506  0.856548  1
  O  O20  1  0.694214  0.394352  0.126887  1
  O  O21  1  0.966182  0.175435  0.400810  1
  O  O22  1  0.146523  0.353264  0.572822  1
  O  O23  1  0.413315  0.087602  0.840048  1
  O  O24  1  0.040098  0.865820  0.426155  1
  O  O25  1  0.792639  0.707134  0.161157  1
  O  O26  1  0.672676  0.927871  0.021914  1
  O  O27  1  0.478601  0.785506  0.823348  1
  O  O28  1  0.417641  0.506941  0.757468  1
  O  O29  1  0.217174  0.648041  0.558301  1
  O  O30  1  0.924646  0.983647  0.225497  1
  O  O31  1  0.664135  0.566795  0.958313  1
  O  O32  1  0.075354  0.483647  0.274503  1
  O  O33  1  0.335865  0.066795  0.541687  1
  O  O34  1  0.782826  0.148041  0.941699  1
  O  O35  1  0.327324  0.427871  0.478086  1
  O  O36  1  0.582359  0.006941  0.742532  1
  O  O37  1  0.305786  0.605648  0.873113  1
  O  O38  1  0.521399  0.285506  0.676652  1
  O  O39  1  0.959902  0.365820  0.073845  1
  O  O40  1  0.033818  0.675435  0.099190  1
  O  O41  1  0.305786  0.894352  0.373113  1
  O  O42  1  0.586685  0.587602  0.659952  1
  O  O43  1  0.853477  0.853264  0.927178  1
  O  O44  1  0.146523  0.146736  0.072822  1
  O  O45  1  0.413315  0.412398  0.340048  1
  O  O46  1  0.694214  0.105648  0.626887  1
  O  O47  1  0.966182  0.324565  0.900810  1
  O  O48  1  0.040098  0.634180  0.926155  1
  O  O49  1  0.478601  0.714494  0.323348  1
  O  O50  1  0.792639  0.792866  0.661157  1
  O  O51  1  0.417641  0.993059  0.257468  1
  O  O52  1  0.672676  0.572129  0.521914  1
  O  O53  1  0.217174  0.851959  0.058301  1
  O  O54  1  0.664135  0.933205  0.458313  1
  O  O55  1  0.924646  0.516353  0.725497  1
  O  O56  1  0.335865  0.433205  0.041687  1
  O  O57  1  0.075354  0.016353  0.774503  1
  O  O58  1  0.782826  0.351959  0.441699  1
  O  O59  1  0.582359  0.493059  0.242532  1
  O  O60  1  0.521399  0.214494  0.176652  1
  O  O61  1  0.327324  0.072129  0.978086  1
  O  O62  1  0.207361  0.292866  0.838843  1
  O  O63  1  0.959902  0.134180  0.573845  1
  O  O64  1  0.586685  0.912398  0.159952  1
  O  O65  1  0.853477  0.646736  0.427178  1
  O  O66  1  0.033818  0.824565  0.599190  1
  O  O67  1  0.207361  0.207134  0.338843  1
