# generated using pymatgen
data_Co3(P3O10)2
_symmetry_space_group_name_H-M   'P 1'
_cell_length_a   8.35121022
_cell_length_b   8.35121022
_cell_length_c   12.39550632
_cell_angle_alpha   90.00000000
_cell_angle_beta   90.00000000
_cell_angle_gamma   105.38932639
_symmetry_Int_Tables_number   1
_chemical_formula_structural   Co3(P3O10)2
_chemical_formula_sum   'Co6 P12 O40'
_cell_volume   833.49959333
_cell_formula_units_Z   2
loop_
 _symmetry_equiv_pos_site_id
 _symmetry_equiv_pos_as_xyz
  1  'x, y, z'
loop_
 _atom_site_type_symbol
 _atom_site_label
 _atom_site_symmetry_multiplicity
 _atom_site_fract_x
 _atom_site_fract_y
 _atom_site_fract_z
 _atom_site_occupancy
  Co  Co0  1  0.699428  0.300572  0.250000  1
  Co  Co1  1  0.860683  0.860683  1.000000  1
  Co  Co2  1  0.139317  0.139317  0.500000  1
  Co  Co3  1  0.242909  0.757091  0.250000  1
  Co  Co4  1  0.757091  0.242909  0.750000  1
  Co  Co5  1  0.300572  0.699428  0.750000  1
  P  P6  1  0.299625  0.177167  0.277573  1
  P  P7  1  0.631661  0.909721  0.317151  1
  P  P8  1  0.090279  0.368339  0.182849  1
  P  P9  1  0.151050  0.741287  0.514011  1
  P  P10  1  0.177167  0.299625  0.722427  1
  P  P11  1  0.848950  0.258713  0.014011  1
  P  P12  1  0.909721  0.631661  0.682849  1
  P  P13  1  0.368339  0.090279  0.817151  1
  P  P14  1  0.700375  0.822833  0.777573  1
  P  P15  1  0.258713  0.848950  0.985989  1
  P  P16  1  0.741287  0.151050  0.485989  1
  P  P17  1  0.822833  0.700375  0.222427  1
  O  O18  1  0.790416  0.834903  0.308833  1
  O  O19  1  0.156454  0.681975  0.399231  1
  O  O20  1  0.009038  0.731493  0.209673  1
  O  O21  1  0.834903  0.790416  0.691167  1
  O  O22  1  0.337290  0.942431  0.743000  1
  O  O23  1  0.841796  0.073162  0.023547  1
  O  O24  1  0.263177  0.254322  0.385242  1
  O  O25  1  0.268507  0.990962  0.290327  1
  O  O26  1  0.526653  0.225261  0.800460  1
  O  O27  1  0.843546  0.318025  0.899231  1
  O  O28  1  0.745678  0.736823  0.114758  1
  O  O29  1  0.276974  0.692307  0.587490  1
  O  O30  1  0.033921  0.356398  0.058593  1
  O  O31  1  0.209584  0.165097  0.808833  1
  O  O32  1  0.966079  0.643602  0.558593  1
  O  O33  1  0.643602  0.966079  0.441407  1
  O  O34  1  0.465750  0.271062  0.231181  1
  O  O35  1  0.307693  0.723026  0.912510  1
  O  O36  1  0.942431  0.337290  0.257000  1
  O  O37  1  0.736823  0.745678  0.885242  1
  O  O38  1  0.926838  0.158204  0.476453  1
  O  O39  1  0.165097  0.209584  0.191167  1
  O  O40  1  0.356398  0.033921  0.941407  1
  O  O41  1  0.534250  0.728938  0.731181  1
  O  O42  1  0.073162  0.841796  0.976453  1
  O  O43  1  0.723026  0.307693  0.087490  1
  O  O44  1  0.731493  0.009038  0.790327  1
  O  O45  1  0.318025  0.843546  0.100769  1
  O  O46  1  0.158204  0.926838  0.523547  1
  O  O47  1  0.225261  0.526653  0.199540  1
  O  O48  1  0.728938  0.534250  0.268819  1
  O  O49  1  0.473347  0.774739  0.300460  1
  O  O50  1  0.254322  0.263177  0.614758  1
  O  O51  1  0.057569  0.662710  0.757000  1
  O  O52  1  0.990962  0.268507  0.709673  1
  O  O53  1  0.271062  0.465750  0.768819  1
  O  O54  1  0.662710  0.057569  0.243000  1
  O  O55  1  0.774739  0.473347  0.699540  1
  O  O56  1  0.692307  0.276974  0.412510  1
  O  O57  1  0.681975  0.156454  0.600769  1
