# generated using pymatgen
data_Ni2SbTe2
_symmetry_space_group_name_H-M   'P 1'
_cell_length_a   3.93833479
_cell_length_b   3.93833479
_cell_length_c   15.83921642
_cell_angle_alpha   90.00000000
_cell_angle_beta   90.00000000
_cell_angle_gamma   120.00000000
_symmetry_Int_Tables_number   1
_chemical_formula_structural   Ni2SbTe2
_chemical_formula_sum   'Ni4 Sb2 Te4'
_cell_volume   212.75980759
_cell_formula_units_Z   2
loop_
 _symmetry_equiv_pos_site_id
 _symmetry_equiv_pos_as_xyz
  1  'x, y, z'
loop_
 _atom_site_type_symbol
 _atom_site_label
 _atom_site_symmetry_multiplicity
 _atom_site_fract_x
 _atom_site_fract_y
 _atom_site_fract_z
 _atom_site_occupancy
  Ni  Ni0  1  0.000000  0.000000  0.166490  1
  Ni  Ni1  1  0.000000  0.000000  0.666490  1
  Ni  Ni2  1  0.000000  0.000000  0.833510  1
  Ni  Ni3  1  0.000000  0.000000  0.333510  1
  Sb  Sb4  1  0.333333  0.666667  0.250000  1
  Sb  Sb5  1  0.666667  0.333333  0.750000  1
  Te  Te6  1  0.333333  0.666667  0.590203  1
  Te  Te7  1  0.666667  0.333333  0.090203  1
  Te  Te8  1  0.666667  0.333333  0.409797  1
  Te  Te9  1  0.333333  0.666667  0.909797  1
