# generated using pymatgen
data_Ho2Zn17
_symmetry_space_group_name_H-M   'P 1'
_cell_length_a   6.79114817
_cell_length_b   6.79114817
_cell_length_c   6.79114817
_cell_angle_alpha   82.49837664
_cell_angle_beta   82.49837664
_cell_angle_gamma   82.49837664
_symmetry_Int_Tables_number   1
_chemical_formula_structural   Ho2Zn17
_chemical_formula_sum   'Ho2 Zn17'
_cell_volume   305.80763756
_cell_formula_units_Z   1
loop_
 _symmetry_equiv_pos_site_id
 _symmetry_equiv_pos_as_xyz
  1  'x, y, z'
loop_
 _atom_site_type_symbol
 _atom_site_label
 _atom_site_symmetry_multiplicity
 _atom_site_fract_x
 _atom_site_fract_y
 _atom_site_fract_z
 _atom_site_occupancy
  Ho  Ho0  1  0.335002  0.335002  0.335002  1
  Ho  Ho1  1  0.664998  0.664998  0.664998  1
  Zn  Zn2  1  0.161962  0.647963  0.647963  1
  Zn  Zn3  1  0.647963  0.647963  0.161962  1
  Zn  Zn4  1  0.899917  0.899917  0.899917  1
  Zn  Zn5  1  0.100083  0.100083  0.100083  1
  Zn  Zn6  1  0.500000  0.000000  0.000000  1
  Zn  Zn7  1  0.000000  0.500000  0.000000  1
  Zn  Zn8  1  0.000000  0.000000  0.500000  1
  Zn  Zn9  1  1.000000  0.298215  0.701785  1
  Zn  Zn10  1  0.701785  0.000000  0.298215  1
  Zn  Zn11  1  0.298215  0.701785  0.000000  1
  Zn  Zn12  1  0.000000  0.701785  0.298215  1
  Zn  Zn13  1  0.298215  0.000000  0.701785  1
  Zn  Zn14  1  0.701785  0.298215  0.000000  1
  Zn  Zn15  1  0.352037  0.352037  0.838038  1
  Zn  Zn16  1  0.838038  0.352037  0.352037  1
  Zn  Zn17  1  0.352037  0.838038  0.352037  1
  Zn  Zn18  1  0.647963  0.161962  0.647963  1
