# generated using pymatgen
data_MgAl2O4
_symmetry_space_group_name_H-M   'P 1'
_cell_length_a   5.76399271
_cell_length_b   5.76399271
_cell_length_c   14.18451376
_cell_angle_alpha   90.00000000
_cell_angle_beta   90.00000000
_cell_angle_gamma   120.00000000
_symmetry_Int_Tables_number   1
_chemical_formula_structural   MgAl2O4
_chemical_formula_sum   'Mg6 Al12 O24'
_cell_volume   408.12380885
_cell_formula_units_Z   6
loop_
 _symmetry_equiv_pos_site_id
 _symmetry_equiv_pos_as_xyz
  1  'x, y, z'
loop_
 _atom_site_type_symbol
 _atom_site_label
 _atom_site_symmetry_multiplicity
 _atom_site_fract_x
 _atom_site_fract_y
 _atom_site_fract_z
 _atom_site_occupancy
  Mg  Mg0  1  0.666667  0.333333  0.954995  1
  Mg  Mg1  1  0.333333  0.666667  0.998529  1
  Mg  Mg2  1  0.333333  0.666667  0.621183  1
  Mg  Mg3  1  0.000000  0.000000  0.664081  1
  Mg  Mg4  1  0.000000  0.000000  0.290540  1
  Mg  Mg5  1  0.333333  0.666667  0.377907  1
  Al  Al6  1  0.657172  0.828586  0.834154  1
  Al  Al7  1  0.836180  0.163820  0.499643  1
  Al  Al8  1  0.171414  0.342828  0.834154  1
  Al  Al9  1  0.327640  0.163820  0.499643  1
  Al  Al10  1  0.836180  0.672360  0.499643  1
  Al  Al11  1  0.171414  0.828586  0.834154  1
  Al  Al12  1  0.666667  0.333333  0.335462  1
  Al  Al13  1  0.994905  0.497453  0.168060  1
  Al  Al14  1  0.666667  0.333333  0.714319  1
  Al  Al15  1  0.502547  0.005095  0.168060  1
  Al  Al16  1  0.502547  0.497453  0.168060  1
  Al  Al17  1  0.000000  0.000000  0.043489  1
  O  O18  1  0.486335  0.972671  0.906487  1
  O  O19  1  0.333333  0.666667  0.760037  1
  O  O20  1  0.027329  0.513665  0.906487  1
  O  O21  1  0.486335  0.513665  0.906487  1
  O  O22  1  0.840231  0.159769  0.757987  1
  O  O23  1  0.153900  0.307800  0.570395  1
  O  O24  1  0.000000  0.000000  0.911881  1
  O  O25  1  0.319539  0.159769  0.757987  1
  O  O26  1  0.000000  0.000000  0.426553  1
  O  O27  1  0.692200  0.846100  0.570395  1
  O  O28  1  0.840231  0.680461  0.757987  1
  O  O29  1  0.153900  0.846100  0.570395  1
  O  O30  1  0.814150  0.628300  0.246406  1
  O  O31  1  0.520460  0.479540  0.421871  1
  O  O32  1  0.666667  0.333333  0.583131  1
  O  O33  1  0.371700  0.185850  0.246406  1
  O  O34  1  0.959080  0.479540  0.421871  1
  O  O35  1  0.666667  0.333333  0.096173  1
  O  O36  1  0.814150  0.185850  0.246406  1
  O  O37  1  0.520460  0.040920  0.421871  1
  O  O38  1  0.169743  0.830257  0.091209  1
  O  O39  1  0.333333  0.666667  0.233055  1
  O  O40  1  0.660515  0.830257  0.091209  1
  O  O41  1  0.169743  0.339485  0.091209  1
