# generated using pymatgen
data_BaPdCl4
_symmetry_space_group_name_H-M   'P 1'
_cell_length_a   7.00128800
_cell_length_b   7.75587703
_cell_length_c   12.68317294
_cell_angle_alpha   90.00000000
_cell_angle_beta   90.00000000
_cell_angle_gamma   90.00000000
_symmetry_Int_Tables_number   1
_chemical_formula_structural   BaPdCl4
_chemical_formula_sum   'Ba4 Pd4 Cl16'
_cell_volume   688.71060715
_cell_formula_units_Z   4
loop_
 _symmetry_equiv_pos_site_id
 _symmetry_equiv_pos_as_xyz
  1  'x, y, z'
loop_
 _atom_site_type_symbol
 _atom_site_label
 _atom_site_symmetry_multiplicity
 _atom_site_fract_x
 _atom_site_fract_y
 _atom_site_fract_z
 _atom_site_occupancy
  Ba  Ba0  1  0.500000  0.250000  0.147477  1
  Ba  Ba1  1  0.000000  0.750000  0.352523  1
  Ba  Ba2  1  0.500000  0.750000  0.852523  1
  Ba  Ba3  1  0.000000  0.250000  0.647477  1
  Pd  Pd4  1  0.000000  0.000000  0.000000  1
  Pd  Pd5  1  0.500000  0.000000  0.500000  1
  Pd  Pd6  1  0.500000  0.500000  0.500000  1
  Pd  Pd7  1  0.000000  0.500000  0.000000  1
  Cl  Cl8  1  0.888423  0.971499  0.827459  1
  Cl  Cl9  1  0.388423  0.028501  0.672541  1
  Cl  Cl10  1  0.611577  0.471499  0.672541  1
  Cl  Cl11  1  0.111577  0.528501  0.827459  1
  Cl  Cl12  1  0.111577  0.028501  0.172541  1
  Cl  Cl13  1  0.611577  0.971499  0.327459  1
  Cl  Cl14  1  0.388423  0.528501  0.327459  1
  Cl  Cl15  1  0.888423  0.471499  0.172541  1
  Cl  Cl16  1  0.794037  0.404248  0.437160  1
  Cl  Cl17  1  0.294037  0.595752  0.062840  1
  Cl  Cl18  1  0.705963  0.904248  0.062840  1
  Cl  Cl19  1  0.205963  0.095752  0.437160  1
  Cl  Cl20  1  0.205963  0.595752  0.562840  1
  Cl  Cl21  1  0.705963  0.404248  0.937160  1
  Cl  Cl22  1  0.294037  0.095752  0.937160  1
  Cl  Cl23  1  0.794037  0.904248  0.562840  1
