# generated using pymatgen
data_Er(Fe2Ge)2
_symmetry_space_group_name_H-M   'P 1'
_cell_length_a   7.20436164
_cell_length_b   7.20436164
_cell_length_c   3.87609220
_cell_angle_alpha   90.00000000
_cell_angle_beta   90.00000000
_cell_angle_gamma   90.00000000
_symmetry_Int_Tables_number   1
_chemical_formula_structural   Er(Fe2Ge)2
_chemical_formula_sum   'Er2 Fe8 Ge4'
_cell_volume   201.18014159
_cell_formula_units_Z   2
loop_
 _symmetry_equiv_pos_site_id
 _symmetry_equiv_pos_as_xyz
  1  'x, y, z'
loop_
 _atom_site_type_symbol
 _atom_site_label
 _atom_site_symmetry_multiplicity
 _atom_site_fract_x
 _atom_site_fract_y
 _atom_site_fract_z
 _atom_site_occupancy
  Er  Er0  1  0.500000  0.500000  0.000000  1
  Er  Er1  1  0.000000  0.000000  0.500000  1
  Fe  Fe2  1  0.144268  0.592226  0.500000  1
  Fe  Fe3  1  0.592226  0.144268  0.500000  1
  Fe  Fe4  1  0.092226  0.355732  0.000000  1
  Fe  Fe5  1  0.907774  0.644268  0.000000  1
  Fe  Fe6  1  0.355732  0.092226  0.000000  1
  Fe  Fe7  1  0.407774  0.855732  0.500000  1
  Fe  Fe8  1  0.855732  0.407774  0.500000  1
  Fe  Fe9  1  0.644268  0.907774  0.000000  1
  Ge  Ge10  1  0.214967  0.785033  0.000000  1
  Ge  Ge11  1  0.285033  0.285033  0.500000  1
  Ge  Ge12  1  0.785033  0.214967  0.000000  1
  Ge  Ge13  1  0.714967  0.714967  0.500000  1
