# generated using pymatgen
data_ThF4
_symmetry_space_group_name_H-M   'P 1'
_cell_length_a   8.61226402
_cell_length_b   8.61226402
_cell_length_c   8.61051639
_cell_angle_alpha   63.23068468
_cell_angle_beta   116.76931532
_cell_angle_gamma   99.78421553
_symmetry_Int_Tables_number   1
_chemical_formula_structural   ThF4
_chemical_formula_sum   'Th6 F24'
_cell_volume   508.66043151
_cell_formula_units_Z   6
loop_
 _symmetry_equiv_pos_site_id
 _symmetry_equiv_pos_as_xyz
  1  'x, y, z'
loop_
 _atom_site_type_symbol
 _atom_site_label
 _atom_site_symmetry_multiplicity
 _atom_site_fract_x
 _atom_site_fract_y
 _atom_site_fract_z
 _atom_site_occupancy
  Th  Th0  1  0.787321  0.787321  0.750000  1
  Th  Th1  1  0.212679  0.212679  0.250000  1
  Th  Th2  1  0.632119  0.224337  0.830205  1
  Th  Th3  1  0.224337  0.632119  0.669795  1
  Th  Th4  1  0.367881  0.775663  0.169795  1
  Th  Th5  1  0.775663  0.367881  0.330205  1
  F  F6  1  0.739421  0.318509  0.602563  1
  F  F7  1  0.318509  0.739421  0.897437  1
  F  F8  1  0.260579  0.681491  0.397437  1
  F  F9  1  0.681491  0.260579  0.102563  1
  F  F10  1  0.597866  0.812777  0.431671  1
  F  F11  1  0.812777  0.597866  0.068329  1
  F  F12  1  0.603323  0.603323  0.250000  1
  F  F13  1  0.396677  0.396677  0.750000  1
  F  F14  1  0.496960  0.262617  0.280393  1
  F  F15  1  0.262617  0.496960  0.219607  1
  F  F16  1  0.503040  0.737383  0.719608  1
  F  F17  1  0.737383  0.503040  0.780393  1
  F  F18  1  0.277836  0.026506  0.155421  1
  F  F19  1  0.026506  0.277836  0.344579  1
  F  F20  1  0.722164  0.973494  0.844579  1
  F  F21  1  0.973494  0.722164  0.655421  1
  F  F22  1  0.500000  0.000000  0.000000  1
  F  F23  1  0.000000  0.500000  0.500000  1
  F  F24  1  0.932939  0.175251  0.042580  1
  F  F25  1  0.175251  0.932939  0.457420  1
  F  F26  1  0.067061  0.824749  0.957420  1
  F  F27  1  0.824749  0.067061  0.542580  1
  F  F28  1  0.187223  0.402134  0.931671  1
  F  F29  1  0.402134  0.187223  0.568329  1
