# generated using pymatgen
data_Tl(FeTe)3
_symmetry_space_group_name_H-M   'P 1'
_cell_length_a   9.45290964
_cell_length_b   9.45290964
_cell_length_c   4.25184877
_cell_angle_alpha   90.00000000
_cell_angle_beta   90.00000000
_cell_angle_gamma   120.00000000
_symmetry_Int_Tables_number   1
_chemical_formula_structural   Tl(FeTe)3
_chemical_formula_sum   'Tl2 Fe6 Te6'
_cell_volume   329.03299738
_cell_formula_units_Z   2
loop_
 _symmetry_equiv_pos_site_id
 _symmetry_equiv_pos_as_xyz
  1  'x, y, z'
loop_
 _atom_site_type_symbol
 _atom_site_label
 _atom_site_symmetry_multiplicity
 _atom_site_fract_x
 _atom_site_fract_y
 _atom_site_fract_z
 _atom_site_occupancy
  Tl  Tl0  1  0.666667  0.333333  0.250000  1
  Tl  Tl1  1  0.333333  0.666667  0.750000  1
  Fe  Fe2  1  0.161945  0.141425  0.250000  1
  Fe  Fe3  1  0.020520  0.161945  0.750000  1
  Fe  Fe4  1  0.141425  0.979480  0.750000  1
  Fe  Fe5  1  0.858575  0.020520  0.250000  1
  Fe  Fe6  1  0.979480  0.838055  0.250000  1
  Fe  Fe7  1  0.838055  0.858575  0.750000  1
  Te  Te8  1  0.044359  0.346445  0.250000  1
  Te  Te9  1  0.697914  0.044359  0.750000  1
  Te  Te10  1  0.346445  0.302086  0.750000  1
  Te  Te11  1  0.653555  0.697914  0.250000  1
  Te  Te12  1  0.302086  0.955641  0.250000  1
  Te  Te13  1  0.955641  0.653555  0.750000  1
