# generated using pymatgen
data_Mg(GaO2)2
_symmetry_space_group_name_H-M   'P 1'
_cell_length_a   5.93148308
_cell_length_b   5.93148308
_cell_length_c   14.49515632
_cell_angle_alpha   89.92184573
_cell_angle_beta   90.07815427
_cell_angle_gamma   119.44068117
_symmetry_Int_Tables_number   1
_chemical_formula_structural   Mg(GaO2)2
_chemical_formula_sum   'Mg6 Ga12 O24'
_cell_volume   444.11946673
_cell_formula_units_Z   6
loop_
 _symmetry_equiv_pos_site_id
 _symmetry_equiv_pos_as_xyz
  1  'x, y, z'
loop_
 _atom_site_type_symbol
 _atom_site_label
 _atom_site_symmetry_multiplicity
 _atom_site_fract_x
 _atom_site_fract_y
 _atom_site_fract_z
 _atom_site_occupancy
  Mg  Mg0  1  0.161403  0.838597  0.041322  1
  Mg  Mg1  1  0.665294  0.334706  0.167649  1
  Mg  Mg2  1  0.999824  0.000176  0.499820  1
  Mg  Mg3  1  0.833361  0.166639  0.333050  1
  Mg  Mg4  1  0.332367  0.667633  0.832011  1
  Mg  Mg5  1  0.166676  0.833324  0.666177  1
  Ga  Ga6  1  0.493365  0.506635  0.379545  1
  Ga  Ga7  1  0.170846  0.335554  0.167549  1
  Ga  Ga8  1  0.500070  0.499930  0.004463  1
  Ga  Ga9  1  0.664446  0.829154  0.167549  1
  Ga  Ga10  1  0.500238  0.000525  0.499704  1
  Ga  Ga11  1  0.826457  0.173543  0.709027  1
  Ga  Ga12  1  0.999475  0.499762  0.499704  1
  Ga  Ga13  1  0.837867  0.668839  0.831691  1
  Ga  Ga14  1  0.172978  0.827022  0.288512  1
  Ga  Ga15  1  0.331161  0.162133  0.831691  1
  Ga  Ga16  1  0.506448  0.493552  0.621653  1
  Ga  Ga17  1  0.840086  0.159914  0.959133  1
  O  O18  1  0.340517  0.199009  0.086429  1
  O  O19  1  0.800991  0.659483  0.086429  1
  O  O20  1  0.496576  0.503424  0.248447  1
  O  O21  1  0.345491  0.654509  0.087849  1
  O  O22  1  0.667999  0.851440  0.420869  1
  O  O23  1  0.995167  0.004833  0.244945  1
  O  O24  1  0.516447  0.000867  0.245547  1
  O  O25  1  0.829110  0.170890  0.577145  1
  O  O26  1  0.148560  0.332001  0.420869  1
  O  O27  1  0.836383  0.163617  0.089412  1
  O  O28  1  0.672099  0.327901  0.421257  1
  O  O29  1  0.999133  0.483553  0.245547  1
  O  O30  1  0.000510  0.514107  0.752876  1
  O  O31  1  0.328110  0.671890  0.579201  1
  O  O32  1  0.850514  0.668250  0.579436  1
  O  O33  1  0.485893  0.999490  0.752876  1
  O  O34  1  0.159936  0.840064  0.903216  1
  O  O35  1  0.170409  0.829591  0.421678  1
  O  O36  1  0.002743  0.997257  0.752954  1
  O  O37  1  0.331750  0.149486  0.579436  1
  O  O38  1  0.658942  0.341058  0.915453  1
  O  O39  1  0.189287  0.339813  0.915721  1
  O  O40  1  0.504859  0.495141  0.756086  1
  O  O41  1  0.660187  0.810713  0.915721  1
