# generated using pymatgen
data_Ga9Rh2
_symmetry_space_group_name_H-M   'P 1'
_cell_length_a   6.50160896
_cell_length_b   6.46152672
_cell_length_c   8.91719184
_cell_angle_alpha   90.00000000
_cell_angle_beta   93.07046866
_cell_angle_gamma   90.00000000
_symmetry_Int_Tables_number   1
_chemical_formula_structural   Ga9Rh2
_chemical_formula_sum   'Ga18 Rh4'
_cell_volume   374.07629104
_cell_formula_units_Z   2
loop_
 _symmetry_equiv_pos_site_id
 _symmetry_equiv_pos_as_xyz
  1  'x, y, z'
loop_
 _atom_site_type_symbol
 _atom_site_label
 _atom_site_symmetry_multiplicity
 _atom_site_fract_x
 _atom_site_fract_y
 _atom_site_fract_z
 _atom_site_occupancy
  Ga  Ga0  1  0.967011  0.761304  0.469147  1
  Ga  Ga1  1  0.967011  0.238696  0.969147  1
  Ga  Ga2  1  0.198640  0.634523  0.043587  1
  Ga  Ga3  1  0.198640  0.365477  0.543587  1
  Ga  Ga4  1  0.600882  0.760731  0.232339  1
  Ga  Ga5  1  0.600882  0.239269  0.732339  1
  Ga  Ga6  1  0.400154  0.740073  0.773973  1
  Ga  Ga7  1  0.400154  0.259927  0.273973  1
  Ga  Ga8  1  0.598114  0.552652  0.508187  1
  Ga  Ga9  1  0.598114  0.447348  0.008187  1
  Ga  Ga10  1  0.386642  0.945524  0.498025  1
  Ga  Ga11  1  0.386642  0.054476  0.998025  1
  Ga  Ga12  1  0.909292  0.452278  0.267199  1
  Ga  Ga13  1  0.909292  0.547722  0.767199  1
  Ga  Ga14  1  0.106209  0.027851  0.716513  1
  Ga  Ga15  1  0.106209  0.972149  0.216513  1
  Ga  Ga16  1  0.781936  0.156724  0.460832  1
  Ga  Ga17  1  0.781936  0.843276  0.960832  1
  Rh  Rh18  1  0.260801  0.623262  0.331287  1
  Rh  Rh19  1  0.260801  0.376738  0.831287  1
  Rh  Rh20  1  0.740408  0.879195  0.668401  1
  Rh  Rh21  1  0.740408  0.120805  0.168401  1
