# generated using pymatgen
data_Na(Sm2Se3)4
_symmetry_space_group_name_H-M   'P 1'
_cell_length_a   14.72227785
_cell_length_b   14.72227785
_cell_length_c   14.72227785
_cell_angle_alpha   144.99669176
_cell_angle_beta   144.99669176
_cell_angle_gamma   50.33945447
_symmetry_Int_Tables_number   1
_chemical_formula_structural   Na(Sm2Se3)4
_chemical_formula_sum   'Na2 Sm16 Se24'
_cell_volume   1044.77226669
_cell_formula_units_Z   2
loop_
 _symmetry_equiv_pos_site_id
 _symmetry_equiv_pos_as_xyz
  1  'x, y, z'
loop_
 _atom_site_type_symbol
 _atom_site_label
 _atom_site_symmetry_multiplicity
 _atom_site_fract_x
 _atom_site_fract_y
 _atom_site_fract_z
 _atom_site_occupancy
  Na  Na0  1  0.750000  0.250000  0.500000  1
  Na  Na1  1  0.000000  0.000000  0.000000  1
  Sm  Sm2  1  0.337201  0.455629  0.373946  1
  Sm  Sm3  1  0.081683  0.963256  0.626054  1
  Sm  Sm4  1  0.544371  0.918317  0.881572  1
  Sm  Sm5  1  0.332211  0.332211  0.000000  1
  Sm  Sm6  1  0.994737  0.125000  0.369737  1
  Sm  Sm7  1  0.036744  0.662799  0.118428  1
  Sm  Sm8  1  0.755263  0.625000  0.630263  1
  Sm  Sm9  1  0.417789  0.917789  0.500000  1
  Sm  Sm10  1  0.205629  0.587201  0.873946  1
  Sm  Sm11  1  0.668317  0.794371  0.381572  1
  Sm  Sm12  1  0.713256  0.331683  0.126054  1
  Sm  Sm13  1  0.412799  0.286744  0.618428  1
  Sm  Sm14  1  0.082211  0.582211  0.500000  1
  Sm  Sm15  1  0.875000  0.244737  0.869737  1
  Sm  Sm16  1  0.667789  0.667789  0.000000  1
  Sm  Sm17  1  0.375000  0.005263  0.130263  1
  Se  Se18  1  0.689065  0.591750  0.747702  1
  Se  Se19  1  0.408250  0.155952  0.097314  1
  Se  Se20  1  0.058638  0.310935  0.902686  1
  Se  Se21  1  0.672463  0.280814  0.246852  1
  Se  Se22  1  0.033962  0.425611  0.753148  1
  Se  Se23  1  0.388483  0.640449  0.396146  1
  Se  Se24  1  0.844048  0.941362  0.252298  1
  Se  Se25  1  0.244303  0.992337  0.603854  1
  Se  Se26  1  0.361517  0.257663  0.751966  1
  Se  Se27  1  0.077537  0.824389  0.108351  1
  Se  Se28  1  0.716038  0.969186  0.891649  1
  Se  Se29  1  0.341750  0.939065  0.247702  1
  Se  Se30  1  0.691362  0.094048  0.752298  1
  Se  Se31  1  0.060935  0.308638  0.402686  1
  Se  Se32  1  0.505697  0.609551  0.248034  1
  Se  Se33  1  0.905952  0.658250  0.597314  1
  Se  Se34  1  0.030814  0.922463  0.746852  1
  Se  Se35  1  0.742337  0.494303  0.103854  1
  Se  Se36  1  0.390449  0.638483  0.896146  1
  Se  Se37  1  0.007663  0.611517  0.251966  1
  Se  Se38  1  0.359551  0.755697  0.748034  1
  Se  Se39  1  0.719186  0.966038  0.391649  1
  Se  Se40  1  0.175611  0.283962  0.253148  1
  Se  Se41  1  0.574389  0.327537  0.608351  1
