# generated using pymatgen
data_Mg(CN)2
_symmetry_space_group_name_H-M   'P 1'
_cell_length_a   6.23644844
_cell_length_b   6.23644844
_cell_length_c   6.23666537
_cell_angle_alpha   90.00000000
_cell_angle_beta   90.00000000
_cell_angle_gamma   90.00000000
_symmetry_Int_Tables_number   1
_chemical_formula_structural   Mg(CN)2
_chemical_formula_sum   'Mg2 C4 N4'
_cell_volume   242.56442953
_cell_formula_units_Z   2
loop_
 _symmetry_equiv_pos_site_id
 _symmetry_equiv_pos_as_xyz
  1  'x, y, z'
loop_
 _atom_site_type_symbol
 _atom_site_label
 _atom_site_symmetry_multiplicity
 _atom_site_fract_x
 _atom_site_fract_y
 _atom_site_fract_z
 _atom_site_occupancy
  Mg  Mg0  1  0.000000  0.000000  0.241378  1
  Mg  Mg1  1  0.500000  0.500000  0.741378  1
  C  C2  1  0.800512  0.800512  0.447809  1
  C  C3  1  0.199488  0.199488  0.447809  1
  C  C4  1  0.300512  0.699488  0.947809  1
  C  C5  1  0.699488  0.300512  0.947809  1
  N  N6  1  0.807458  0.192542  0.056502  1
  N  N7  1  0.192542  0.807458  0.056502  1
  N  N8  1  0.307458  0.307458  0.556502  1
  N  N9  1  0.692542  0.692542  0.556502  1
