# generated using pymatgen
data_Nd2EuS4
_symmetry_space_group_name_H-M   'P 1'
_cell_length_a   7.48070488
_cell_length_b   7.48070488
_cell_length_c   7.48070488
_cell_angle_alpha   109.31181563
_cell_angle_beta   109.31181563
_cell_angle_gamma   109.79050320
_symmetry_Int_Tables_number   1
_chemical_formula_structural   Nd2EuS4
_chemical_formula_sum   'Nd4 Eu2 S8'
_cell_volume   322.25194953
_cell_formula_units_Z   2
loop_
 _symmetry_equiv_pos_site_id
 _symmetry_equiv_pos_as_xyz
  1  'x, y, z'
loop_
 _atom_site_type_symbol
 _atom_site_label
 _atom_site_symmetry_multiplicity
 _atom_site_fract_x
 _atom_site_fract_y
 _atom_site_fract_z
 _atom_site_occupancy
  Nd  Nd0  1  0.625000  0.247835  0.122835  1
  Nd  Nd1  1  0.497835  0.375000  0.622835  1
  Nd  Nd2  1  0.125000  0.502165  0.877165  1
  Nd  Nd3  1  0.752165  0.875000  0.377165  1
  Eu  Eu4  1  0.250000  0.750000  0.500000  1
  Eu  Eu5  1  0.000000  0.000000  0.000000  1
  S  S6  1  0.730014  0.130224  0.749911  1
  S  S7  1  0.869687  0.619776  0.099790  1
  S  S8  1  0.019897  0.269986  0.400210  1
  S  S9  1  0.869776  0.619687  0.599790  1
  S  S10  1  0.380224  0.480014  0.249911  1
  S  S11  1  0.519986  0.769897  0.900210  1
  S  S12  1  0.380313  0.980103  0.250089  1
  S  S13  1  0.230103  0.130313  0.750089  1
