# generated using pymatgen
data_Sc3(MnGa3)2
_symmetry_space_group_name_H-M   'P 1'
_cell_length_a   8.09308994
_cell_length_b   8.55235499
_cell_length_c   10.60663762
_cell_angle_alpha   90.00000000
_cell_angle_beta   90.00000000
_cell_angle_gamma   90.00000000
_symmetry_Int_Tables_number   1
_chemical_formula_structural   Sc3(MnGa3)2
_chemical_formula_sum   'Sc12 Mn8 Ga24'
_cell_volume   734.13819093
_cell_formula_units_Z   4
loop_
 _symmetry_equiv_pos_site_id
 _symmetry_equiv_pos_as_xyz
  1  'x, y, z'
loop_
 _atom_site_type_symbol
 _atom_site_label
 _atom_site_symmetry_multiplicity
 _atom_site_fract_x
 _atom_site_fract_y
 _atom_site_fract_z
 _atom_site_occupancy
  Sc  Sc0  1  0.562970  0.945209  0.138710  1
  Sc  Sc1  1  0.062970  0.554791  0.361290  1
  Sc  Sc2  1  0.437030  0.445209  0.861290  1
  Sc  Sc3  1  0.937030  0.054791  0.638710  1
  Sc  Sc4  1  0.437030  0.054791  0.861290  1
  Sc  Sc5  1  0.937030  0.445209  0.638710  1
  Sc  Sc6  1  0.562970  0.554791  0.138710  1
  Sc  Sc7  1  0.062970  0.945209  0.361290  1
  Sc  Sc8  1  0.957792  0.750000  0.063028  1
  Sc  Sc9  1  0.457792  0.750000  0.436972  1
  Sc  Sc10  1  0.042208  0.250000  0.936972  1
  Sc  Sc11  1  0.542208  0.250000  0.563028  1
  Mn  Mn12  1  0.362459  0.750000  0.734275  1
  Mn  Mn13  1  0.862459  0.750000  0.765725  1
  Mn  Mn14  1  0.637541  0.250000  0.265725  1
  Mn  Mn15  1  0.137541  0.250000  0.234275  1
  Mn  Mn16  1  0.310264  0.750000  0.982994  1
  Mn  Mn17  1  0.810264  0.750000  0.517006  1
  Mn  Mn18  1  0.689736  0.250000  0.017006  1
  Mn  Mn19  1  0.189736  0.250000  0.482994  1
  Ga  Ga20  1  0.704933  0.494802  0.413343  1
  Ga  Ga21  1  0.204933  0.005198  0.086657  1
  Ga  Ga22  1  0.295067  0.994802  0.586657  1
  Ga  Ga23  1  0.795067  0.505198  0.913343  1
  Ga  Ga24  1  0.204933  0.494802  0.086657  1
  Ga  Ga25  1  0.704933  0.005198  0.413343  1
  Ga  Ga26  1  0.795067  0.994802  0.913343  1
  Ga  Ga27  1  0.295067  0.505198  0.586657  1
  Ga  Ga28  1  0.882134  0.416576  0.154578  1
  Ga  Ga29  1  0.382134  0.083424  0.345422  1
  Ga  Ga30  1  0.117866  0.916576  0.845422  1
  Ga  Ga31  1  0.617866  0.583424  0.654578  1
  Ga  Ga32  1  0.117866  0.583424  0.845422  1
  Ga  Ga33  1  0.617866  0.916576  0.654578  1
  Ga  Ga34  1  0.882134  0.083424  0.154578  1
  Ga  Ga35  1  0.382134  0.416576  0.345422  1
  Ga  Ga36  1  0.094974  0.750000  0.586063  1
  Ga  Ga37  1  0.594974  0.750000  0.913937  1
  Ga  Ga38  1  0.905026  0.250000  0.413937  1
  Ga  Ga39  1  0.405026  0.250000  0.086063  1
  Ga  Ga40  1  0.778261  0.750000  0.281418  1
  Ga  Ga41  1  0.278261  0.750000  0.218582  1
  Ga  Ga42  1  0.221739  0.250000  0.718582  1
  Ga  Ga43  1  0.721739  0.250000  0.781418  1
