# generated using pymatgen
data_LuZrSb
_symmetry_space_group_name_H-M   'P 1'
_cell_length_a   8.68783993
_cell_length_b   8.68783993
_cell_length_c   8.68783993
_cell_angle_alpha   151.60691366
_cell_angle_beta   151.60691366
_cell_angle_gamma   40.58761887
_symmetry_Int_Tables_number   1
_chemical_formula_structural   LuZrSb
_chemical_formula_sum   'Lu2 Zr2 Sb2'
_cell_volume   147.97157996
_cell_formula_units_Z   2
loop_
 _symmetry_equiv_pos_site_id
 _symmetry_equiv_pos_as_xyz
  1  'x, y, z'
loop_
 _atom_site_type_symbol
 _atom_site_label
 _atom_site_symmetry_multiplicity
 _atom_site_fract_x
 _atom_site_fract_y
 _atom_site_fract_z
 _atom_site_occupancy
  Lu  Lu0  1  0.674504  0.674504  0.000000  1
  Lu  Lu1  1  0.325496  0.325496  0.000000  1
  Zr  Zr2  1  0.500000  1.000000  0.500000  1
  Zr  Zr3  1  0.000000  0.500000  0.500000  1
  Sb  Sb4  1  0.136505  0.136505  0.000000  1
  Sb  Sb5  1  0.863495  0.863495  0.000000  1
