# generated using pymatgen
data_SmPO4
_symmetry_space_group_name_H-M   'P 1'
_cell_length_a   6.40164888
_cell_length_b   6.96476520
_cell_length_c   8.11556885
_cell_angle_alpha   90.00000000
_cell_angle_beta   125.79883256
_cell_angle_gamma   90.00000000
_symmetry_Int_Tables_number   1
_chemical_formula_structural   SmPO4
_chemical_formula_sum   'Sm4 P4 O16'
_cell_volume   293.48013286
_cell_formula_units_Z   4
loop_
 _symmetry_equiv_pos_site_id
 _symmetry_equiv_pos_as_xyz
  1  'x, y, z'
loop_
 _atom_site_type_symbol
 _atom_site_label
 _atom_site_symmetry_multiplicity
 _atom_site_fract_x
 _atom_site_fract_y
 _atom_site_fract_z
 _atom_site_occupancy
  Sm  Sm0  1  0.188379  0.655217  0.784417  1
  Sm  Sm1  1  0.811621  0.155217  0.715583  1
  Sm  Sm2  1  0.811621  0.344783  0.215583  1
  Sm  Sm3  1  0.188379  0.844783  0.284417  1
  P  P4  1  0.690800  0.660495  0.802215  1
  P  P5  1  0.309200  0.160495  0.697785  1
  P  P6  1  0.309200  0.339505  0.197785  1
  P  P7  1  0.690800  0.839505  0.302215  1
  O  O8  1  0.411756  0.709560  0.622532  1
  O  O9  1  0.588244  0.209560  0.877468  1
  O  O10  1  0.588244  0.290440  0.377468  1
  O  O11  1  0.411756  0.790440  0.122532  1
  O  O12  1  0.658321  0.600179  0.970216  1
  O  O13  1  0.341679  0.100179  0.529784  1
  O  O14  1  0.341679  0.399821  0.029784  1
  O  O15  1  0.658321  0.899821  0.470216  1
  O  O16  1  0.815081  0.996986  0.250357  1
  O  O17  1  0.184919  0.496986  0.249643  1
  O  O18  1  0.184919  0.003014  0.749643  1
  O  O19  1  0.815081  0.503014  0.750357  1
  O  O20  1  0.881891  0.666403  0.382596  1
  O  O21  1  0.118109  0.166403  0.117404  1
  O  O22  1  0.118109  0.333597  0.617404  1
  O  O23  1  0.881891  0.833597  0.882596  1
