# generated using pymatgen
data_Ti6Si7Ni16
_symmetry_space_group_name_H-M   'P 1'
_cell_length_a   7.89981823
_cell_length_b   7.89981823
_cell_length_c   7.89981823
_cell_angle_alpha   60.00000000
_cell_angle_beta   60.00000000
_cell_angle_gamma   60.00000000
_symmetry_Int_Tables_number   1
_chemical_formula_structural   Ti6Si7Ni16
_chemical_formula_sum   'Ti6 Si7 Ni16'
_cell_volume   348.60715618
_cell_formula_units_Z   1
loop_
 _symmetry_equiv_pos_site_id
 _symmetry_equiv_pos_as_xyz
  1  'x, y, z'
loop_
 _atom_site_type_symbol
 _atom_site_label
 _atom_site_symmetry_multiplicity
 _atom_site_fract_x
 _atom_site_fract_y
 _atom_site_fract_z
 _atom_site_occupancy
  Ti  Ti0  1  0.201802  0.798198  0.798198  1
  Ti  Ti1  1  0.201802  0.201802  0.798198  1
  Ti  Ti2  1  0.798198  0.798198  0.201802  1
  Ti  Ti3  1  0.798198  0.201802  0.798198  1
  Ti  Ti4  1  0.201802  0.798198  0.201802  1
  Ti  Ti5  1  0.798198  0.201802  0.201802  1
  Si  Si6  1  0.500000  0.500000  0.500000  1
  Si  Si7  1  0.000000  0.500000  0.500000  1
  Si  Si8  1  0.000000  0.500000  0.000000  1
  Si  Si9  1  0.500000  0.000000  0.500000  1
  Si  Si10  1  0.500000  0.000000  1.000000  1
  Si  Si11  1  0.500000  0.500000  1.000000  1
  Si  Si12  1  1.000000  0.000000  0.500000  1
  Ni  Ni13  1  0.834492  0.834492  0.834492  1
  Ni  Ni14  1  0.165508  0.503475  0.165508  1
  Ni  Ni15  1  0.382231  0.382231  0.382231  1
  Ni  Ni16  1  0.382231  0.382231  0.853306  1
  Ni  Ni17  1  0.853306  0.382231  0.382231  1
  Ni  Ni18  1  0.617769  0.617769  0.146694  1
  Ni  Ni19  1  0.146694  0.617769  0.617769  1
  Ni  Ni20  1  0.617769  0.617769  0.617769  1
  Ni  Ni21  1  0.382231  0.853306  0.382231  1
  Ni  Ni22  1  0.496525  0.834492  0.834492  1
  Ni  Ni23  1  0.834492  0.834492  0.496525  1
  Ni  Ni24  1  0.503475  0.165508  0.165508  1
  Ni  Ni25  1  0.165508  0.165508  0.503475  1
  Ni  Ni26  1  0.165508  0.165508  0.165508  1
  Ni  Ni27  1  0.834492  0.496525  0.834492  1
  Ni  Ni28  1  0.617769  0.146694  0.617769  1
