# generated using pymatgen
data_LiDyS2
_symmetry_space_group_name_H-M   'P 1'
_cell_length_a   6.77020614
_cell_length_b   6.77020614
_cell_length_c   6.77020614
_cell_angle_alpha   132.62467138
_cell_angle_beta   132.62467138
_cell_angle_gamma   69.24419774
_symmetry_Int_Tables_number   1
_chemical_formula_structural   LiDyS2
_chemical_formula_sum   'Li2 Dy2 S4'
_cell_volume   164.86747318
_cell_formula_units_Z   2
loop_
 _symmetry_equiv_pos_site_id
 _symmetry_equiv_pos_as_xyz
  1  'x, y, z'
loop_
 _atom_site_type_symbol
 _atom_site_label
 _atom_site_symmetry_multiplicity
 _atom_site_fract_x
 _atom_site_fract_y
 _atom_site_fract_z
 _atom_site_occupancy
  Li  Li0  1  0.000000  0.000000  0.000000  1
  Li  Li1  1  0.750000  0.250000  0.500000  1
  Dy  Dy2  1  0.250000  0.750000  0.500000  1
  Dy  Dy3  1  0.500000  0.500000  0.000000  1
  S  S4  1  0.495013  0.995013  0.500000  1
  S  S5  1  0.004987  0.504987  0.500000  1
  S  S6  1  0.745013  0.745013  0.000000  1
  S  S7  1  0.254987  0.254987  0.000000  1
