# generated using pymatgen
data_Li4GeS4
_symmetry_space_group_name_H-M   'P 1'
_cell_length_a   6.19493945
_cell_length_b   7.81391091
_cell_length_c   14.16110812
_cell_angle_alpha   90.00000000
_cell_angle_beta   90.00000000
_cell_angle_gamma   90.00000000
_symmetry_Int_Tables_number   1
_chemical_formula_structural   Li4GeS4
_chemical_formula_sum   'Li16 Ge4 S16'
_cell_volume   685.49258260
_cell_formula_units_Z   4
loop_
 _symmetry_equiv_pos_site_id
 _symmetry_equiv_pos_as_xyz
  1  'x, y, z'
loop_
 _atom_site_type_symbol
 _atom_site_label
 _atom_site_symmetry_multiplicity
 _atom_site_fract_x
 _atom_site_fract_y
 _atom_site_fract_z
 _atom_site_occupancy
  Li  Li0  1  0.629640  0.250000  0.913234  1
  Li  Li1  1  0.129640  0.750000  0.586766  1
  Li  Li2  1  0.370360  0.750000  0.086766  1
  Li  Li3  1  0.870360  0.250000  0.413234  1
  Li  Li4  1  0.692589  0.000289  0.677043  1
  Li  Li5  1  0.192589  0.999711  0.822957  1
  Li  Li6  1  0.307411  0.500289  0.322957  1
  Li  Li7  1  0.807411  0.499711  0.177043  1
  Li  Li8  1  0.307411  0.999711  0.322957  1
  Li  Li9  1  0.807411  0.000289  0.177043  1
  Li  Li10  1  0.692589  0.499711  0.677043  1
  Li  Li11  1  0.192589  0.500289  0.822957  1
  Li  Li12  1  0.500000  0.000000  0.500000  1
  Li  Li13  1  0.000000  0.000000  0.000000  1
  Li  Li14  1  0.500000  0.500000  0.500000  1
  Li  Li15  1  0.000000  0.500000  0.000000  1
  Ge  Ge16  1  0.849790  0.750000  0.410869  1
  Ge  Ge17  1  0.150210  0.250000  0.589131  1
  Ge  Ge18  1  0.650210  0.750000  0.910869  1
  Ge  Ge19  1  0.349790  0.250000  0.089131  1
  S  S20  1  0.269376  0.250000  0.437766  1
  S  S21  1  0.230624  0.250000  0.937766  1
  S  S22  1  0.769376  0.750000  0.062234  1
  S  S23  1  0.730624  0.750000  0.562234  1
  S  S24  1  0.783525  0.986254  0.843767  1
  S  S25  1  0.283525  0.013746  0.656233  1
  S  S26  1  0.216475  0.486254  0.156233  1
  S  S27  1  0.716475  0.513746  0.343767  1
  S  S28  1  0.216475  0.013746  0.156233  1
  S  S29  1  0.716475  0.986254  0.343767  1
  S  S30  1  0.783525  0.513746  0.843767  1
  S  S31  1  0.283525  0.486254  0.656233  1
  S  S32  1  0.790257  0.250000  0.585803  1
  S  S33  1  0.290257  0.750000  0.914197  1
  S  S34  1  0.209743  0.750000  0.414197  1
  S  S35  1  0.709743  0.250000  0.085803  1
