# generated using pymatgen
data_LiBIr
_symmetry_space_group_name_H-M   'P 1'
_cell_length_a   6.99546461
_cell_length_b   6.10096057
_cell_length_c   5.55593962
_cell_angle_alpha   73.58868169
_cell_angle_beta   56.78267078
_cell_angle_gamma   49.62864752
_symmetry_Int_Tables_number   1
_chemical_formula_structural   LiBIr
_chemical_formula_sum   'Li4 B4 Ir4'
_cell_volume   150.15950330
_cell_formula_units_Z   4
loop_
 _symmetry_equiv_pos_site_id
 _symmetry_equiv_pos_as_xyz
  1  'x, y, z'
loop_
 _atom_site_type_symbol
 _atom_site_label
 _atom_site_symmetry_multiplicity
 _atom_site_fract_x
 _atom_site_fract_y
 _atom_site_fract_z
 _atom_site_occupancy
  Li  Li0  1  0.625000  0.125000  0.125000  1
  Li  Li1  1  0.125000  0.125000  0.125000  1
  Li  Li2  1  0.125000  0.125000  0.625000  1
  Li  Li3  1  0.125000  0.625000  0.125000  1
  B  B4  1  0.926317  0.573683  0.926317  1
  B  B5  1  0.676317  0.323683  0.676317  1
  B  B6  1  0.573683  0.926317  0.573683  1
  B  B7  1  0.323683  0.676317  0.323683  1
  Ir  Ir8  1  0.883108  0.883108  0.616892  1
  Ir  Ir9  1  0.366892  0.366892  0.633108  1
  Ir  Ir10  1  0.633108  0.633108  0.366892  1
  Ir  Ir11  1  0.616892  0.616892  0.883108  1
