# generated using pymatgen
data_Tb3SiBr3
_symmetry_space_group_name_H-M   'P 1'
_cell_length_a   10.10300507
_cell_length_b   10.10300507
_cell_length_c   10.10300507
_cell_angle_alpha   109.47122063
_cell_angle_beta   109.47122063
_cell_angle_gamma   109.47122063
_symmetry_Int_Tables_number   1
_chemical_formula_structural   Tb3SiBr3
_chemical_formula_sum   'Tb12 Si4 Br12'
_cell_volume   793.83423121
_cell_formula_units_Z   4
loop_
 _symmetry_equiv_pos_site_id
 _symmetry_equiv_pos_as_xyz
  1  'x, y, z'
loop_
 _atom_site_type_symbol
 _atom_site_label
 _atom_site_symmetry_multiplicity
 _atom_site_fract_x
 _atom_site_fract_y
 _atom_site_fract_z
 _atom_site_occupancy
  Tb  Tb0  1  0.025163  0.262581  0.012581  1
  Tb  Tb1  1  0.012581  0.025163  0.262581  1
  Tb  Tb2  1  0.012581  0.487419  0.750000  1
  Tb  Tb3  1  0.262581  0.750000  0.237419  1
  Tb  Tb4  1  0.262581  0.012581  0.025163  1
  Tb  Tb5  1  0.750000  0.012581  0.487419  1
  Tb  Tb6  1  0.750000  0.237419  0.262581  1
  Tb  Tb7  1  0.237419  0.262581  0.750000  1
  Tb  Tb8  1  0.487419  0.237419  0.474837  1
  Tb  Tb9  1  0.237419  0.474837  0.487419  1
  Tb  Tb10  1  0.487419  0.750000  0.012581  1
  Tb  Tb11  1  0.474837  0.487419  0.237419  1
  Si  Si12  1  0.500000  1.000000  0.250000  1
  Si  Si13  1  1.000000  0.250000  0.500000  1
  Si  Si14  1  0.250000  0.500000  0.000000  1
  Si  Si15  1  0.250000  0.250000  0.250000  1
  Br  Br16  1  0.250000  0.754626  0.745374  1
  Br  Br17  1  0.995374  0.504626  0.250000  1
  Br  Br18  1  0.504626  0.250000  0.995374  1
  Br  Br19  1  0.754626  0.509251  0.504626  1
  Br  Br20  1  0.745374  0.995374  0.990749  1
  Br  Br21  1  0.990749  0.745374  0.995374  1
  Br  Br22  1  0.509251  0.504626  0.754626  1
  Br  Br23  1  0.504626  0.754626  0.509251  1
  Br  Br24  1  0.250000  0.995374  0.504626  1
  Br  Br25  1  0.995374  0.990749  0.745374  1
  Br  Br26  1  0.745374  0.250000  0.754626  1
  Br  Br27  1  0.754626  0.745374  0.250000  1
