# generated using pymatgen
data_Nd5CuSe8
_symmetry_space_group_name_H-M   'P 1'
_cell_length_a   7.70051202
_cell_length_b   7.70051202
_cell_length_c   7.70051202
_cell_angle_alpha   110.31460153
_cell_angle_beta   110.31460153
_cell_angle_gamma   107.79731508
_symmetry_Int_Tables_number   1
_chemical_formula_structural   Nd5CuSe8
_chemical_formula_sum   'Nd5 Cu1 Se8'
_cell_volume   351.28517186
_cell_formula_units_Z   1
loop_
 _symmetry_equiv_pos_site_id
 _symmetry_equiv_pos_as_xyz
  1  'x, y, z'
loop_
 _atom_site_type_symbol
 _atom_site_label
 _atom_site_symmetry_multiplicity
 _atom_site_fract_x
 _atom_site_fract_y
 _atom_site_fract_z
 _atom_site_occupancy
  Nd  Nd0  1  0.239395  0.620727  0.122604  1
  Nd  Nd1  1  0.379273  0.501877  0.618668  1
  Nd  Nd2  1  0.498123  0.116791  0.877396  1
  Nd  Nd3  1  0.750000  0.250000  0.500000  1
  Nd  Nd4  1  0.883209  0.760605  0.381332  1
  Cu  Cu5  1  0.000000  0.000000  0.000000  1
  Se  Se6  1  0.109114  0.738002  0.759951  1
  Se  Se7  1  0.134515  0.238593  0.741058  1
  Se  Se8  1  0.606543  0.865485  0.104077  1
  Se  Se9  1  0.261998  0.021949  0.371112  1
  Se  Se10  1  0.497535  0.393457  0.258942  1
  Se  Se11  1  0.761407  0.502465  0.895923  1
  Se  Se12  1  0.650837  0.890886  0.628888  1
  Se  Se13  1  0.978051  0.349163  0.240049  1
