# generated using pymatgen
data_Nd2USe4
_symmetry_space_group_name_H-M   'P 1'
_cell_length_a   7.69828817
_cell_length_b   7.69828817
_cell_length_c   7.69828817
_cell_angle_alpha   109.23708938
_cell_angle_beta   109.23708938
_cell_angle_gamma   109.94050481
_symmetry_Int_Tables_number   1
_chemical_formula_structural   Nd2USe4
_chemical_formula_sum   'Nd4 U2 Se8'
_cell_volume   351.18724088
_cell_formula_units_Z   2
loop_
 _symmetry_equiv_pos_site_id
 _symmetry_equiv_pos_as_xyz
  1  'x, y, z'
loop_
 _atom_site_type_symbol
 _atom_site_label
 _atom_site_symmetry_multiplicity
 _atom_site_fract_x
 _atom_site_fract_y
 _atom_site_fract_z
 _atom_site_occupancy
  Nd  Nd0  1  0.125000  0.497875  0.872875  1
  Nd  Nd1  1  0.502125  0.375000  0.627125  1
  Nd  Nd2  1  0.625000  0.252125  0.127125  1
  Nd  Nd3  1  0.747875  0.875000  0.372875  1
  U  U4  1  1.000000  1.000000  0.000000  1
  U  U5  1  0.250000  0.750000  0.500000  1
  Se  Se6  1  0.880711  0.629079  0.101241  1
  Se  Se7  1  0.879079  0.630711  0.601241  1
  Se  Se8  1  0.029471  0.277838  0.398759  1
  Se  Se9  1  0.220529  0.119289  0.748368  1
  Se  Se10  1  0.369289  0.970529  0.248368  1
  Se  Se11  1  0.527838  0.779471  0.898759  1
  Se  Se12  1  0.370921  0.472162  0.251632  1
  Se  Se13  1  0.722162  0.120921  0.751632  1
