# generated using pymatgen
data_Sb2Te2Se
_symmetry_space_group_name_H-M   'P 1'
_cell_length_a   10.68381238
_cell_length_b   10.68381238
_cell_length_c   10.68381238
_cell_angle_alpha   22.89528684
_cell_angle_beta   22.89528684
_cell_angle_gamma   22.89528684
_symmetry_Int_Tables_number   1
_chemical_formula_structural   Sb2Te2Se
_chemical_formula_sum   'Sb2 Te2 Se1'
_cell_volume   161.97733910
_cell_formula_units_Z   1
loop_
 _symmetry_equiv_pos_site_id
 _symmetry_equiv_pos_as_xyz
  1  'x, y, z'
loop_
 _atom_site_type_symbol
 _atom_site_label
 _atom_site_symmetry_multiplicity
 _atom_site_fract_x
 _atom_site_fract_y
 _atom_site_fract_z
 _atom_site_occupancy
  Sb  Sb0  1  0.109090  0.109090  0.109090  1
  Sb  Sb1  1  0.890910  0.890910  0.890910  1
  Te  Te2  1  0.280230  0.280230  0.280230  1
  Te  Te3  1  0.719770  0.719770  0.719770  1
  Se  Se4  1  0.500000  0.500000  0.500000  1
