# generated using pymatgen
data_Cd2GeO4
_symmetry_space_group_name_H-M   'P 1'
_cell_length_a   5.28807040
_cell_length_b   6.69390877
_cell_length_c   11.40692288
_cell_angle_alpha   90.00000000
_cell_angle_beta   90.00000000
_cell_angle_gamma   90.00000000
_symmetry_Int_Tables_number   1
_chemical_formula_structural   Cd2GeO4
_chemical_formula_sum   'Cd8 Ge4 O16'
_cell_volume   403.78066857
_cell_formula_units_Z   4
loop_
 _symmetry_equiv_pos_site_id
 _symmetry_equiv_pos_as_xyz
  1  'x, y, z'
loop_
 _atom_site_type_symbol
 _atom_site_label
 _atom_site_symmetry_multiplicity
 _atom_site_fract_x
 _atom_site_fract_y
 _atom_site_fract_z
 _atom_site_occupancy
  Cd  Cd0  1  0.489795  0.750000  0.780380  1
  Cd  Cd1  1  0.989795  0.250000  0.719620  1
  Cd  Cd2  1  0.510205  0.250000  0.219620  1
  Cd  Cd3  1  0.010205  0.750000  0.280380  1
  Cd  Cd4  1  0.500000  0.500000  0.500000  1
  Cd  Cd5  1  0.000000  0.500000  0.000000  1
  Cd  Cd6  1  0.500000  0.000000  0.500000  1
  Cd  Cd7  1  0.000000  0.000000  0.000000  1
  Ge  Ge8  1  0.933067  0.750000  0.597972  1
  Ge  Ge9  1  0.433067  0.250000  0.902028  1
  Ge  Ge10  1  0.066933  0.250000  0.402028  1
  Ge  Ge11  1  0.566933  0.750000  0.097972  1
  O  O12  1  0.220074  0.460626  0.335516  1
  O  O13  1  0.720074  0.539374  0.164484  1
  O  O14  1  0.779926  0.960626  0.664484  1
  O  O15  1  0.279926  0.039374  0.835516  1
  O  O16  1  0.779926  0.539374  0.664484  1
  O  O17  1  0.279926  0.460626  0.835516  1
  O  O18  1  0.220074  0.039374  0.335516  1
  O  O19  1  0.720074  0.960626  0.164484  1
  O  O20  1  0.789715  0.750000  0.453291  1
  O  O21  1  0.289715  0.250000  0.046709  1
  O  O22  1  0.210285  0.250000  0.546709  1
  O  O23  1  0.710285  0.750000  0.953291  1
  O  O24  1  0.233418  0.750000  0.097072  1
  O  O25  1  0.733418  0.250000  0.402928  1
  O  O26  1  0.766582  0.250000  0.902928  1
  O  O27  1  0.266582  0.750000  0.597072  1
