# generated using pymatgen
data_Er3Pb4F17
_symmetry_space_group_name_H-M   'P 1'
_cell_length_a   9.15156199
_cell_length_b   9.15295216
_cell_length_c   9.20292913
_cell_angle_alpha   72.97385938
_cell_angle_beta   73.21584598
_cell_angle_gamma   73.15224747
_symmetry_Int_Tables_number   1
_chemical_formula_structural   Er3Pb4F17
_chemical_formula_sum   'Er6 Pb8 F34'
_cell_volume   687.71496516
_cell_formula_units_Z   2
loop_
 _symmetry_equiv_pos_site_id
 _symmetry_equiv_pos_as_xyz
  1  'x, y, z'
loop_
 _atom_site_type_symbol
 _atom_site_label
 _atom_site_symmetry_multiplicity
 _atom_site_fract_x
 _atom_site_fract_y
 _atom_site_fract_z
 _atom_site_occupancy
  Er  Er0  1  0.530235  0.392905  0.837341  1
  Er  Er1  1  0.392196  0.839400  0.531128  1
  Er  Er2  1  0.814626  0.525843  0.395226  1
  Er  Er3  1  0.160740  0.470212  0.607617  1
  Er  Er4  1  0.605471  0.184820  0.466097  1
  Er  Er5  1  0.475137  0.601547  0.177357  1
  Pb  Pb6  1  0.098615  0.693744  0.967251  1
  Pb  Pb7  1  0.733679  0.739817  0.736012  1
  Pb  Pb8  1  0.953840  0.106503  0.683916  1
  Pb  Pb9  1  0.310312  0.037053  0.900243  1
  Pb  Pb10  1  0.689023  0.959139  0.106432  1
  Pb  Pb11  1  0.035553  0.896423  0.310265  1
  Pb  Pb12  1  0.260254  0.267290  0.264209  1
  Pb  Pb13  1  0.897210  0.312727  0.041520  1
  F  F14  1  0.001827  0.989782  0.009244  1
  F  F15  1  0.860534  0.864571  0.862282  1
  F  F16  1  0.544465  0.819649  0.981651  1
  F  F17  1  0.641527  0.510010  0.956228  1
  F  F18  1  0.980671  0.547664  0.819496  1
  F  F19  1  0.744497  0.210481  0.917835  1
  F  F20  1  0.210939  0.913958  0.744802  1
  F  F21  1  0.506826  0.963895  0.643228  1
  F  F22  1  0.457936  0.651923  0.734411  1
  F  F23  1  0.815643  0.981069  0.549227  1
  F  F24  1  0.740781  0.450539  0.656121  1
  F  F25  1  0.303788  0.413679  0.784944  1
  F  F26  1  0.952731  0.643427  0.511093  1
  F  F27  1  0.591682  0.207904  0.702107  1
  F  F28  1  0.650931  0.743481  0.455401  1
  F  F29  1  0.083216  0.255201  0.789365  1
  F  F30  1  0.214490  0.698273  0.579631  1
  F  F31  1  0.822410  0.277930  0.406676  1
  F  F32  1  0.558639  0.475004  0.446617  1
  F  F33  1  0.911048  0.740354  0.218916  1
  F  F34  1  0.345291  0.264382  0.542878  1
  F  F35  1  0.420766  0.794407  0.298955  1
  F  F36  1  0.038693  0.359013  0.492483  1
  F  F37  1  0.719641  0.590821  0.179292  1
  F  F38  1  0.261297  0.541754  0.348890  1
  F  F39  1  0.178693  0.021245  0.455059  1
  F  F40  1  0.548145  0.338025  0.241567  1
  F  F41  1  0.489932  0.046538  0.359148  1
  F  F42  1  0.786550  0.084242  0.258134  1
  F  F43  1  0.258944  0.784064  0.091764  1
  F  F44  1  0.020011  0.453015  0.181653  1
  F  F45  1  0.355099  0.493504  0.042072  1
  F  F46  1  0.451379  0.180903  0.019339  1
  F  F47  1  0.138086  0.137871  0.136874  1
