# generated using pymatgen
data_Ba(TlHg)2
_symmetry_space_group_name_H-M   'P 1'
_cell_length_a   11.09264759
_cell_length_b   11.09264759
_cell_length_c   5.20950816
_cell_angle_alpha   90.00000000
_cell_angle_beta   90.00000000
_cell_angle_gamma   90.00000000
_symmetry_Int_Tables_number   1
_chemical_formula_structural   Ba(TlHg)2
_chemical_formula_sum   'Ba4 Tl8 Hg8'
_cell_volume   641.01346784
_cell_formula_units_Z   4
loop_
 _symmetry_equiv_pos_site_id
 _symmetry_equiv_pos_as_xyz
  1  'x, y, z'
loop_
 _atom_site_type_symbol
 _atom_site_label
 _atom_site_symmetry_multiplicity
 _atom_site_fract_x
 _atom_site_fract_y
 _atom_site_fract_z
 _atom_site_occupancy
  Ba  Ba0  1  0.852058  0.147942  0.000000  1
  Ba  Ba1  1  0.647942  0.647942  0.500000  1
  Ba  Ba2  1  0.352058  0.352058  0.500000  1
  Ba  Ba3  1  0.147942  0.852058  0.000000  1
  Tl  Tl4  1  0.529332  0.859205  0.000000  1
  Tl  Tl5  1  0.470668  0.140795  0.000000  1
  Tl  Tl6  1  0.640795  0.029332  0.500000  1
  Tl  Tl7  1  0.359205  0.970668  0.500000  1
  Tl  Tl8  1  0.859205  0.529332  0.000000  1
  Tl  Tl9  1  0.029332  0.640795  0.500000  1
  Tl  Tl10  1  0.970668  0.359205  0.500000  1
  Tl  Tl11  1  0.140795  0.470668  0.000000  1
  Hg  Hg12  1  0.812468  0.812468  0.000000  1
  Hg  Hg13  1  0.312468  0.687532  0.500000  1
  Hg  Hg14  1  0.687532  0.312468  0.500000  1
  Hg  Hg15  1  0.187532  0.187532  0.000000  1
  Hg  Hg16  1  0.404609  0.595391  0.000000  1
  Hg  Hg17  1  0.095391  0.095391  0.500000  1
  Hg  Hg18  1  0.904609  0.904609  0.500000  1
  Hg  Hg19  1  0.595391  0.404609  0.000000  1
