# generated using pymatgen
data_La2Se3
_symmetry_space_group_name_H-M   'P 1'
_cell_length_a   15.05998512
_cell_length_b   15.05998512
_cell_length_c   15.05998512
_cell_angle_alpha   144.80116020
_cell_angle_beta   144.80116020
_cell_angle_gamma   50.63093998
_symmetry_Int_Tables_number   1
_chemical_formula_structural   La2Se3
_chemical_formula_sum   'La16 Se24'
_cell_volume   1129.10835578
_cell_formula_units_Z   8
loop_
 _symmetry_equiv_pos_site_id
 _symmetry_equiv_pos_as_xyz
  1  'x, y, z'
loop_
 _atom_site_type_symbol
 _atom_site_label
 _atom_site_symmetry_multiplicity
 _atom_site_fract_x
 _atom_site_fract_y
 _atom_site_fract_z
 _atom_site_occupancy
  La  La0  1  0.902892  0.782093  0.606193  1
  La  La1  1  0.583627  0.083627  0.500000  1
  La  La2  1  0.375000  0.745055  0.870055  1
  La  La3  1  0.166373  0.166373  0.000000  1
  La  La4  1  0.847108  0.953301  0.379201  1
  La  La5  1  0.875000  0.504945  0.129945  1
  La  La6  1  0.574100  0.467907  0.620799  1
  La  La7  1  0.046699  0.425900  0.893807  1
  La  La8  1  0.495055  0.625000  0.370055  1
  La  La9  1  0.833627  0.833627  0.000000  1
  La  La10  1  0.254945  0.125000  0.629945  1
  La  La11  1  0.532093  0.152892  0.106193  1
  La  La12  1  0.916373  0.416373  0.500000  1
  La  La13  1  0.703301  0.097108  0.879201  1
  La  La14  1  0.175900  0.296699  0.393807  1
  La  La15  1  0.217907  0.824100  0.120799  1
  Se  Se16  1  0.530509  0.423677  0.746088  1
  Se  Se17  1  0.241501  0.994615  0.101895  1
  Se  Se18  1  0.892720  0.139606  0.898105  1
  Se  Se19  1  0.508499  0.110394  0.253114  1
  Se  Se20  1  0.857280  0.255385  0.746886  1
  Se  Se21  1  0.677589  0.784421  0.253912  1
  Se  Se22  1  0.219491  0.465579  0.393169  1
  Se  Se23  1  0.072411  0.826323  0.606831  1
  Se  Se24  1  0.185697  0.096396  0.749701  1
  Se  Se25  1  0.903604  0.653305  0.089301  1
  Se  Se26  1  0.173677  0.780509  0.246088  1
  Se  Se27  1  0.564004  0.814303  0.910699  1
  Se  Se28  1  0.534421  0.927589  0.753912  1
  Se  Se29  1  0.889606  0.142720  0.398105  1
  Se  Se30  1  0.346695  0.435996  0.250299  1
  Se  Se31  1  0.744615  0.491501  0.601895  1
  Se  Se32  1  0.860394  0.758499  0.753114  1
  Se  Se33  1  0.576323  0.322411  0.106831  1
  Se  Se34  1  0.846396  0.435697  0.249701  1
  Se  Se35  1  0.215579  0.469491  0.893169  1
  Se  Se36  1  0.185996  0.596695  0.750299  1
  Se  Se37  1  0.005385  0.107280  0.246886  1
  Se  Se38  1  0.564303  0.814004  0.410699  1
  Se  Se39  1  0.403305  0.153604  0.589301  1
