# generated using pymatgen
data_Zn11Ir2
_symmetry_space_group_name_H-M   'P 1'
_cell_length_a   7.93246365
_cell_length_b   7.93246365
_cell_length_c   7.93246365
_cell_angle_alpha   109.47122063
_cell_angle_beta   109.47122063
_cell_angle_gamma   109.47122063
_symmetry_Int_Tables_number   1
_chemical_formula_structural   Zn11Ir2
_chemical_formula_sum   'Zn22 Ir4'
_cell_volume   384.23983028
_cell_formula_units_Z   2
loop_
 _symmetry_equiv_pos_site_id
 _symmetry_equiv_pos_as_xyz
  1  'x, y, z'
loop_
 _atom_site_type_symbol
 _atom_site_label
 _atom_site_symmetry_multiplicity
 _atom_site_fract_x
 _atom_site_fract_y
 _atom_site_fract_z
 _atom_site_occupancy
  Zn  Zn0  1  0.736009  0.736009  0.385713  1
  Zn  Zn1  1  0.350295  0.614287  0.350295  1
  Zn  Zn2  1  0.614287  0.350295  0.350295  1
  Zn  Zn3  1  1.000000  0.649705  0.263991  1
  Zn  Zn4  1  0.209872  0.209872  0.209872  1
  Zn  Zn5  1  0.790128  1.000000  0.000000  1
  Zn  Zn6  1  1.000000  0.790128  0.000000  1
  Zn  Zn7  1  1.000000  1.000000  0.790128  1
  Zn  Zn8  1  1.000000  0.356961  0.356961  1
  Zn  Zn9  1  0.643039  1.000000  0.643039  1
  Zn  Zn10  1  0.356961  1.000000  0.356961  1
  Zn  Zn11  1  0.356961  0.356961  0.000000  1
  Zn  Zn12  1  0.643039  0.643039  0.000000  1
  Zn  Zn13  1  1.000000  0.643039  0.643039  1
  Zn  Zn14  1  0.350295  0.350295  0.614287  1
  Zn  Zn15  1  0.649705  0.263991  1.000000  1
  Zn  Zn16  1  0.263991  0.649705  0.000000  1
  Zn  Zn17  1  1.000000  0.263991  0.649705  1
  Zn  Zn18  1  0.385713  0.736009  0.736009  1
  Zn  Zn19  1  0.736009  0.385713  0.736009  1
  Zn  Zn20  1  0.263991  1.000000  0.649705  1
  Zn  Zn21  1  0.649705  1.000000  0.263991  1
  Ir  Ir22  1  1.000000  1.000000  0.346457  1
  Ir  Ir23  1  1.000000  0.346457  0.000000  1
  Ir  Ir24  1  0.346457  1.000000  1.000000  1
  Ir  Ir25  1  0.653543  0.653543  0.653543  1
