# generated using pymatgen
data_KAu2
_symmetry_space_group_name_H-M   'P 1'
_cell_length_a   5.76264785
_cell_length_b   5.76264785
_cell_length_c   9.98497299
_cell_angle_alpha   90.00000000
_cell_angle_beta   90.00000000
_cell_angle_gamma   120.00000000
_symmetry_Int_Tables_number   1
_chemical_formula_structural   KAu2
_chemical_formula_sum   'K4 Au8'
_cell_volume   287.15850786
_cell_formula_units_Z   4
loop_
 _symmetry_equiv_pos_site_id
 _symmetry_equiv_pos_as_xyz
  1  'x, y, z'
loop_
 _atom_site_type_symbol
 _atom_site_label
 _atom_site_symmetry_multiplicity
 _atom_site_fract_x
 _atom_site_fract_y
 _atom_site_fract_z
 _atom_site_occupancy
  K  K0  1  0.333333  0.666667  0.561071  1
  K  K1  1  0.666667  0.333333  0.061071  1
  K  K2  1  0.666667  0.333333  0.438929  1
  K  K3  1  0.333333  0.666667  0.938929  1
  Au  Au4  1  0.333914  0.166957  0.750000  1
  Au  Au5  1  0.666086  0.833043  0.250000  1
  Au  Au6  1  0.166957  0.833043  0.250000  1
  Au  Au7  1  0.833043  0.666086  0.750000  1
  Au  Au8  1  0.833043  0.166957  0.750000  1
  Au  Au9  1  0.166957  0.333914  0.250000  1
  Au  Au10  1  0.000000  0.000000  0.500000  1
  Au  Au11  1  0.000000  0.000000  0.000000  1
