# generated using pymatgen
data_SrNd5S8
_symmetry_space_group_name_H-M   'P 1'
_cell_length_a   7.48371967
_cell_length_b   7.48371967
_cell_length_c   7.48371967
_cell_angle_alpha   109.48423373
_cell_angle_beta   109.48423373
_cell_angle_gamma   109.44519757
_symmetry_Int_Tables_number   1
_chemical_formula_structural   SrNd5S8
_chemical_formula_sum   'Sr1 Nd5 S8'
_cell_volume   322.64918680
_cell_formula_units_Z   1
loop_
 _symmetry_equiv_pos_site_id
 _symmetry_equiv_pos_as_xyz
  1  'x, y, z'
loop_
 _atom_site_type_symbol
 _atom_site_label
 _atom_site_symmetry_multiplicity
 _atom_site_fract_x
 _atom_site_fract_y
 _atom_site_fract_z
 _atom_site_occupancy
  Sr  Sr0  1  0.000000  0.000000  0.000000  1
  Nd  Nd1  1  0.496597  0.121920  0.873198  1
  Nd  Nd2  1  0.750000  0.250000  0.500000  1
  Nd  Nd3  1  0.248722  0.623398  0.126802  1
  Nd  Nd4  1  0.376602  0.503403  0.625323  1
  Nd  Nd5  1  0.878080  0.751278  0.374677  1
  S  S6  1  0.618212  0.871948  0.103587  1
  S  S7  1  0.278598  0.025282  0.404664  1
  S  S8  1  0.485375  0.381788  0.253735  1
  S  S9  1  0.128052  0.231640  0.746265  1
  S  S10  1  0.768360  0.514625  0.896413  1
  S  S11  1  0.974718  0.379383  0.253316  1
  S  S12  1  0.126066  0.721402  0.746684  1
  S  S13  1  0.620617  0.873934  0.595336  1
