# generated using pymatgen
data_Tl2Pt3
_symmetry_space_group_name_H-M   'P 1'
_cell_length_a   5.73520635
_cell_length_b   5.73520635
_cell_length_c   14.25910633
_cell_angle_alpha   90.00000000
_cell_angle_beta   90.00000000
_cell_angle_gamma   120.00000000
_symmetry_Int_Tables_number   1
_chemical_formula_structural   Tl2Pt3
_chemical_formula_sum   'Tl8 Pt12'
_cell_volume   406.18233811
_cell_formula_units_Z   4
loop_
 _symmetry_equiv_pos_site_id
 _symmetry_equiv_pos_as_xyz
  1  'x, y, z'
loop_
 _atom_site_type_symbol
 _atom_site_label
 _atom_site_symmetry_multiplicity
 _atom_site_fract_x
 _atom_site_fract_y
 _atom_site_fract_z
 _atom_site_occupancy
  Tl  Tl0  1  0.000000  0.000000  0.750000  1
  Tl  Tl1  1  0.000000  0.000000  0.250000  1
  Tl  Tl2  1  0.666667  0.333333  0.750000  1
  Tl  Tl3  1  0.333333  0.666667  0.250000  1
  Tl  Tl4  1  0.666667  0.333333  0.410670  1
  Tl  Tl5  1  0.333333  0.666667  0.910670  1
  Tl  Tl6  1  0.333333  0.666667  0.589330  1
  Tl  Tl7  1  0.666667  0.333333  0.089330  1
  Pt  Pt8  1  0.834601  0.165399  0.587229  1
  Pt  Pt9  1  0.834601  0.669202  0.587229  1
  Pt  Pt10  1  0.330798  0.165399  0.587229  1
  Pt  Pt11  1  0.165399  0.330798  0.087229  1
  Pt  Pt12  1  0.669202  0.834601  0.087229  1
  Pt  Pt13  1  0.165399  0.834601  0.087229  1
  Pt  Pt14  1  0.165399  0.834601  0.412771  1
  Pt  Pt15  1  0.165399  0.330798  0.412771  1
  Pt  Pt16  1  0.669202  0.834601  0.412771  1
  Pt  Pt17  1  0.834601  0.669202  0.912771  1
  Pt  Pt18  1  0.330798  0.165399  0.912771  1
  Pt  Pt19  1  0.834601  0.165399  0.912771  1
