# generated using pymatgen
data_Mg10(Fe3O8)3
_symmetry_space_group_name_H-M   'P 1'
_cell_length_a   5.96831307
_cell_length_b   6.10961060
_cell_length_c   14.70439096
_cell_angle_alpha   90.83527435
_cell_angle_beta   90.38924284
_cell_angle_gamma   118.76055210
_symmetry_Int_Tables_number   1
_chemical_formula_structural   Mg10(Fe3O8)3
_chemical_formula_sum   'Mg10 Fe9 O24'
_cell_volume   469.92927263
_cell_formula_units_Z   1
loop_
 _symmetry_equiv_pos_site_id
 _symmetry_equiv_pos_as_xyz
  1  'x, y, z'
loop_
 _atom_site_type_symbol
 _atom_site_label
 _atom_site_symmetry_multiplicity
 _atom_site_fract_x
 _atom_site_fract_y
 _atom_site_fract_z
 _atom_site_occupancy
  Mg  Mg0  1  0.834422  0.166017  0.792009  1
  Mg  Mg1  1  0.665679  0.335688  0.957858  1
  Mg  Mg2  1  0.333902  0.649932  0.672509  1
  Mg  Mg3  1  0.159142  0.814012  0.464581  1
  Mg  Mg4  1  0.999764  0.997656  0.627112  1
  Mg  Mg5  1  0.833661  0.658447  0.290862  1
  Mg  Mg6  1  0.627757  0.241986  0.342905  1
  Mg  Mg7  1  0.333626  0.666439  0.292778  1
  Mg  Mg8  1  0.508723  0.517801  0.117424  1
  Mg  Mg9  1  0.007717  0.516501  0.116587  1
  Fe  Fe10  1  0.996934  0.991301  0.003590  1
  Fe  Fe11  1  0.334323  0.684233  0.913617  1
  Fe  Fe12  1  0.836406  0.673901  0.790432  1
  Fe  Fe13  1  0.657959  0.333770  0.580610  1
  Fe  Fe14  1  0.159424  0.326835  0.454942  1
  Fe  Fe15  1  0.328587  0.166023  0.790137  1
  Fe  Fe16  1  0.040242  0.087734  0.239550  1
  Fe  Fe17  1  0.646868  0.807919  0.464960  1
  Fe  Fe18  1  0.510809  0.020860  0.125861  1
  O  O19  1  0.983717  0.502112  0.870460  1
  O  O20  1  0.508863  0.497896  0.868981  1
  O  O21  1  0.666880  0.336110  0.713769  1
  O  O22  1  0.502696  0.025166  0.870313  1
  O  O23  1  0.311911  0.154892  0.535655  1
  O  O24  1  0.160729  0.299535  0.715373  1
  O  O25  1  0.837555  0.152889  0.536110  1
  O  O26  1  0.156650  0.841488  0.716193  1
  O  O27  1  0.995052  0.993157  0.373106  1
  O  O28  1  0.000737  0.997093  0.870754  1
  O  O29  1  0.834845  0.677725  0.540004  1
  O  O30  1  0.694488  0.836084  0.715559  1
  O  O31  1  0.677598  0.849083  0.211026  1
  O  O32  1  0.468277  0.924542  0.388664  1
  O  O33  1  0.171055  0.851507  0.212036  1
  O  O34  1  0.502091  0.494860  0.374384  1
  O  O35  1  0.345609  0.696564  0.045070  1
  O  O36  1  0.324668  0.636534  0.535428  1
  O  O37  1  0.998139  0.488890  0.373165  1
  O  O38  1  0.201847  0.402228  0.197876  1
  O  O39  1  0.825636  0.655871  0.040640  1
  O  O40  1  0.824158  0.174891  0.045778  1
  O  O41  1  0.674502  0.343758  0.206128  1
  O  O42  1  0.349685  0.176735  0.046871  1
