# generated using pymatgen
data_In5AgS8
_symmetry_space_group_name_H-M   'P 1'
_cell_length_a   7.77456777
_cell_length_b   7.77456777
_cell_length_c   7.77456777
_cell_angle_alpha   60.00000000
_cell_angle_beta   60.00000000
_cell_angle_gamma   60.00000000
_symmetry_Int_Tables_number   1
_chemical_formula_structural   In5AgS8
_chemical_formula_sum   'In5 Ag1 S8'
_cell_volume   332.28731503
_cell_formula_units_Z   1
loop_
 _symmetry_equiv_pos_site_id
 _symmetry_equiv_pos_as_xyz
  1  'x, y, z'
loop_
 _atom_site_type_symbol
 _atom_site_label
 _atom_site_symmetry_multiplicity
 _atom_site_fract_x
 _atom_site_fract_y
 _atom_site_fract_z
 _atom_site_occupancy
  In  In0  1  0.000000  0.000000  0.000000  1
  In  In1  1  0.380834  0.380834  0.857497  1
  In  In2  1  0.857497  0.380834  0.380834  1
  In  In3  1  0.380834  0.380834  0.380834  1
  In  In4  1  0.380834  0.857497  0.380834  1
  Ag  Ag5  1  0.750000  0.750000  0.750000  1
  S  S6  1  0.617628  0.147116  0.617628  1
  S  S7  1  0.617628  0.617628  0.617628  1
  S  S8  1  0.147116  0.617628  0.617628  1
  S  S9  1  0.617628  0.617628  0.147116  1
  S  S10  1  0.134285  0.134285  0.597145  1
  S  S11  1  0.134285  0.134285  0.134285  1
  S  S12  1  0.597145  0.134285  0.134285  1
  S  S13  1  0.134285  0.597145  0.134285  1
