# generated using pymatgen
data_Li2Ni3(P2O7)2
_symmetry_space_group_name_H-M   'P 1'
_cell_length_a   7.28503839
_cell_length_b   7.87500756
_cell_length_c   9.44227156
_cell_angle_alpha   90.00000000
_cell_angle_beta   110.12752323
_cell_angle_gamma   90.00000000
_symmetry_Int_Tables_number   1
_chemical_formula_structural   Li2Ni3(P2O7)2
_chemical_formula_sum   'Li4 Ni6 P8 O28'
_cell_volume   508.61842837
_cell_formula_units_Z   2
loop_
 _symmetry_equiv_pos_site_id
 _symmetry_equiv_pos_as_xyz
  1  'x, y, z'
loop_
 _atom_site_type_symbol
 _atom_site_label
 _atom_site_symmetry_multiplicity
 _atom_site_fract_x
 _atom_site_fract_y
 _atom_site_fract_z
 _atom_site_occupancy
  Li  Li0  1  0.707495  0.416267  0.135803  1
  Li  Li1  1  0.707495  0.083733  0.635803  1
  Li  Li2  1  0.292505  0.916267  0.364197  1
  Li  Li3  1  0.292505  0.583733  0.864197  1
  Ni  Ni4  1  0.000000  0.000000  0.500000  1
  Ni  Ni5  1  0.811693  0.374398  0.480817  1
  Ni  Ni6  1  0.000000  0.500000  0.000000  1
  Ni  Ni7  1  0.811693  0.125602  0.980817  1
  Ni  Ni8  1  0.188307  0.874398  0.019183  1
  Ni  Ni9  1  0.188307  0.625602  0.519183  1
  P  P10  1  0.116499  0.205647  0.806273  1
  P  P11  1  0.116499  0.294353  0.306273  1
  P  P12  1  0.404156  0.950831  0.783159  1
  P  P13  1  0.595844  0.450831  0.716841  1
  P  P14  1  0.404156  0.549169  0.283159  1
  P  P15  1  0.595844  0.049169  0.216841  1
  P  P16  1  0.883501  0.794353  0.193727  1
  P  P17  1  0.883501  0.705647  0.693727  1
  O  O18  1  0.011903  0.705189  0.862895  1
  O  O19  1  0.033677  0.078513  0.892657  1
  O  O20  1  0.150866  0.377725  0.882013  1
  O  O21  1  0.011903  0.794811  0.362895  1
  O  O22  1  0.033677  0.421487  0.392657  1
  O  O23  1  0.322695  0.136374  0.808539  1
  O  O24  1  0.988097  0.294811  0.137105  1
  O  O25  1  0.966323  0.921487  0.107343  1
  O  O26  1  0.849134  0.622275  0.117987  1
  O  O27  1  0.988097  0.205189  0.637105  1
  O  O28  1  0.966323  0.578513  0.607343  1
  O  O29  1  0.677305  0.863626  0.191461  1
  O  O30  1  0.621417  0.168330  0.097138  1
  O  O31  1  0.849134  0.877725  0.617987  1
  O  O32  1  0.721076  0.110281  0.377714  1
  O  O33  1  0.615211  0.506072  0.299909  1
  O  O34  1  0.677305  0.636374  0.691461  1
  O  O35  1  0.621417  0.331670  0.597138  1
  O  O36  1  0.721076  0.389719  0.877714  1
  O  O37  1  0.384789  0.006072  0.200091  1
  O  O38  1  0.615211  0.993928  0.799909  1
  O  O39  1  0.278924  0.610281  0.122286  1
  O  O40  1  0.378583  0.668330  0.402862  1
  O  O41  1  0.322695  0.363626  0.308539  1
  O  O42  1  0.384789  0.493928  0.700091  1
  O  O43  1  0.278924  0.889719  0.622286  1
  O  O44  1  0.150866  0.122275  0.382013  1
  O  O45  1  0.378583  0.831670  0.902862  1
