# generated using pymatgen
data_NaNO
_symmetry_space_group_name_H-M   'P 1'
_cell_length_a   5.14674927
_cell_length_b   9.29750764
_cell_length_c   6.25666318
_cell_angle_alpha   90.00000000
_cell_angle_beta   98.46682247
_cell_angle_gamma   90.00000000
_symmetry_Int_Tables_number   1
_chemical_formula_structural   NaNO
_chemical_formula_sum   'Na8 N8 O8'
_cell_volume   296.13047189
_cell_formula_units_Z   8
loop_
 _symmetry_equiv_pos_site_id
 _symmetry_equiv_pos_as_xyz
  1  'x, y, z'
loop_
 _atom_site_type_symbol
 _atom_site_label
 _atom_site_symmetry_multiplicity
 _atom_site_fract_x
 _atom_site_fract_y
 _atom_site_fract_z
 _atom_site_occupancy
  Na  Na0  1  0.209963  0.249487  0.059901  1
  Na  Na1  1  0.790037  0.749487  0.440099  1
  Na  Na2  1  0.790037  0.750513  0.940099  1
  Na  Na3  1  0.209963  0.250513  0.559901  1
  Na  Na4  1  0.317235  0.936172  0.217667  1
  Na  Na5  1  0.682765  0.436172  0.282333  1
  Na  Na6  1  0.682765  0.063828  0.782333  1
  Na  Na7  1  0.317235  0.563828  0.717667  1
  N  N8  1  0.221052  0.670518  0.164039  1
  N  N9  1  0.099564  0.929156  0.750911  1
  N  N10  1  0.900436  0.429156  0.749089  1
  N  N11  1  0.900436  0.070844  0.249089  1
  N  N12  1  0.221052  0.829482  0.664039  1
  N  N13  1  0.778948  0.329482  0.835961  1
  N  N14  1  0.778948  0.170518  0.335961  1
  N  N15  1  0.099564  0.570844  0.250911  1
  O  O16  1  0.476871  0.848377  0.643924  1
  O  O17  1  0.476871  0.651623  0.143924  1
  O  O18  1  0.523129  0.151623  0.356076  1
  O  O19  1  0.523129  0.348377  0.856076  1
  O  O20  1  0.230878  0.449154  0.320005  1
  O  O21  1  0.769122  0.949154  0.179995  1
  O  O22  1  0.769122  0.550846  0.679995  1
  O  O23  1  0.230878  0.050846  0.820005  1
