# generated using pymatgen
data_Co3(PO4)4
_symmetry_space_group_name_H-M   'P 1'
_cell_length_a   7.51424102
_cell_length_b   7.51516880
_cell_length_c   9.96277302
_cell_angle_alpha   90.00000000
_cell_angle_beta   93.60959689
_cell_angle_gamma   90.00000000
_symmetry_Int_Tables_number   1
_chemical_formula_structural   Co3(PO4)4
_chemical_formula_sum   'Co6 P8 O32'
_cell_volume   561.48956147
_cell_formula_units_Z   2
loop_
 _symmetry_equiv_pos_site_id
 _symmetry_equiv_pos_as_xyz
  1  'x, y, z'
loop_
 _atom_site_type_symbol
 _atom_site_label
 _atom_site_symmetry_multiplicity
 _atom_site_fract_x
 _atom_site_fract_y
 _atom_site_fract_z
 _atom_site_occupancy
  Co  Co0  1  0.759359  0.490238  0.376583  1
  Co  Co1  1  0.340011  0.364394  0.684734  1
  Co  Co2  1  0.659989  0.864394  0.315266  1
  Co  Co3  1  0.762361  0.508150  0.871648  1
  Co  Co4  1  0.237639  0.008150  0.128352  1
  Co  Co5  1  0.240641  0.990238  0.623417  1
  P  P6  1  0.053504  0.800042  0.358531  1
  P  P7  1  0.447669  0.173299  0.899113  1
  P  P8  1  0.437328  0.200807  0.387128  1
  P  P9  1  0.946496  0.300042  0.641469  1
  P  P10  1  0.937495  0.314682  0.136799  1
  P  P11  1  0.552331  0.673299  0.100887  1
  P  P12  1  0.562672  0.700807  0.612872  1
  P  P13  1  0.062505  0.814682  0.863201  1
  O  O14  1  0.086588  0.453114  0.160590  1
  O  O15  1  0.988235  0.610726  0.391840  1
  O  O16  1  0.000462  0.128925  0.096036  1
  O  O17  1  0.890156  0.931972  0.347349  1
  O  O18  1  0.913412  0.953114  0.839410  1
  O  O19  1  0.415504  0.554633  0.595449  1
  O  O20  1  0.584496  0.054633  0.404551  1
  O  O21  1  0.109844  0.431972  0.652651  1
  O  O22  1  0.522372  0.379963  0.358107  1
  O  O23  1  0.784876  0.371123  0.033660  1
  O  O24  1  0.859133  0.310062  0.778692  1
  O  O25  1  0.857231  0.307545  0.278547  1
  O  O26  1  0.477628  0.879963  0.641893  1
  O  O27  1  0.011765  0.110726  0.608160  1
  O  O28  1  0.140867  0.810062  0.221308  1
  O  O29  1  0.501954  0.866717  0.159730  1
  O  O30  1  0.594822  0.041867  0.904719  1
  O  O31  1  0.999538  0.628925  0.903964  1
  O  O32  1  0.718108  0.649190  0.711564  1
  O  O33  1  0.296430  0.146907  0.774156  1
  O  O34  1  0.652830  0.694425  0.972169  1
  O  O35  1  0.703570  0.646907  0.225844  1
  O  O36  1  0.197145  0.863040  0.463970  1
  O  O37  1  0.142769  0.807545  0.721453  1
  O  O38  1  0.405178  0.541867  0.095281  1
  O  O39  1  0.802855  0.363040  0.536030  1
  O  O40  1  0.498046  0.366717  0.840270  1
  O  O41  1  0.645157  0.698511  0.468717  1
  O  O42  1  0.215124  0.871123  0.966340  1
  O  O43  1  0.347170  0.194425  0.027831  1
  O  O44  1  0.281892  0.149190  0.288436  1
  O  O45  1  0.354843  0.198511  0.531283  1
