# generated using pymatgen
data_Cr3(PO4)4
_symmetry_space_group_name_H-M   'P 1'
_cell_length_a   7.58912958
_cell_length_b   7.75564637
_cell_length_c   10.21062836
_cell_angle_alpha   90.00000000
_cell_angle_beta   94.67321406
_cell_angle_gamma   90.00000000
_symmetry_Int_Tables_number   1
_chemical_formula_structural   Cr3(PO4)4
_chemical_formula_sum   'Cr6 P8 O32'
_cell_volume   598.98542567
_cell_formula_units_Z   2
loop_
 _symmetry_equiv_pos_site_id
 _symmetry_equiv_pos_as_xyz
  1  'x, y, z'
loop_
 _atom_site_type_symbol
 _atom_site_label
 _atom_site_symmetry_multiplicity
 _atom_site_fract_x
 _atom_site_fract_y
 _atom_site_fract_z
 _atom_site_occupancy
  Cr  Cr0  1  0.765655  0.478325  0.372117  1
  Cr  Cr1  1  0.234345  0.978325  0.627883  1
  Cr  Cr2  1  0.650604  0.859345  0.325735  1
  Cr  Cr3  1  0.349396  0.359345  0.674265  1
  Cr  Cr4  1  0.759934  0.511793  0.872292  1
  Cr  Cr5  1  0.240066  0.011793  0.127708  1
  P  P6  1  0.054974  0.810019  0.865305  1
  P  P7  1  0.948435  0.294921  0.649992  1
  P  P8  1  0.453738  0.179590  0.897236  1
  P  P9  1  0.439931  0.202708  0.389578  1
  P  P10  1  0.560069  0.702708  0.610422  1
  P  P11  1  0.546262  0.679590  0.102764  1
  P  P12  1  0.945026  0.310019  0.134695  1
  P  P13  1  0.051565  0.794921  0.350008  1
  O  O14  1  0.861977  0.317505  0.778433  1
  O  O15  1  0.091380  0.448918  0.159365  1
  O  O16  1  0.985107  0.632905  0.902971  1
  O  O17  1  0.496689  0.868480  0.163509  1
  O  O18  1  0.801977  0.376648  0.032041  1
  O  O19  1  0.475133  0.875523  0.634089  1
  O  O20  1  0.709012  0.652239  0.711218  1
  O  O21  1  0.198023  0.876648  0.967959  1
  O  O22  1  0.136699  0.799641  0.729879  1
  O  O23  1  0.360947  0.193529  0.024325  1
  O  O24  1  0.908620  0.948918  0.840635  1
  O  O25  1  0.312940  0.141758  0.775629  1
  O  O26  1  0.392482  0.559094  0.083842  1
  O  O27  1  0.639053  0.693529  0.975675  1
  O  O28  1  0.607518  0.059094  0.916158  1
  O  O29  1  0.524867  0.375523  0.365911  1
  O  O30  1  0.687060  0.641758  0.224371  1
  O  O31  1  0.989548  0.611343  0.378029  1
  O  O32  1  0.420206  0.557660  0.592619  1
  O  O33  1  0.356134  0.203852  0.531210  1
  O  O34  1  0.172803  0.864528  0.463659  1
  O  O35  1  0.121517  0.418130  0.662768  1
  O  O36  1  0.878483  0.918130  0.337232  1
  O  O37  1  0.290988  0.152239  0.288782  1
  O  O38  1  0.503311  0.368480  0.836491  1
  O  O39  1  0.579794  0.057660  0.407381  1
  O  O40  1  0.010452  0.111343  0.621971  1
  O  O41  1  0.643866  0.703852  0.468790  1
  O  O42  1  0.827197  0.364528  0.536341  1
  O  O43  1  0.014893  0.132905  0.097029  1
  O  O44  1  0.138023  0.817505  0.221567  1
  O  O45  1  0.863301  0.299641  0.270121  1
