# generated using pymatgen
data_Ce2SmS4
_symmetry_space_group_name_H-M   'P 1'
_cell_length_a   7.38780916
_cell_length_b   7.38780916
_cell_length_c   7.38780916
_cell_angle_alpha   109.69739601
_cell_angle_beta   109.69739601
_cell_angle_gamma   109.01981074
_symmetry_Int_Tables_number   1
_chemical_formula_structural   Ce2SmS4
_chemical_formula_sum   'Ce4 Sm2 S8'
_cell_volume   310.38799442
_cell_formula_units_Z   2
loop_
 _symmetry_equiv_pos_site_id
 _symmetry_equiv_pos_as_xyz
  1  'x, y, z'
loop_
 _atom_site_type_symbol
 _atom_site_label
 _atom_site_symmetry_multiplicity
 _atom_site_fract_x
 _atom_site_fract_y
 _atom_site_fract_z
 _atom_site_occupancy
  Ce  Ce0  1  0.500927  0.125000  0.875927  1
  Ce  Ce1  1  0.375000  0.499073  0.624073  1
  Ce  Ce2  1  0.249073  0.625000  0.124073  1
  Ce  Ce3  1  0.875000  0.750927  0.375927  1
  Sm  Sm4  1  0.000000  0.000000  0.000000  1
  Sm  Sm5  1  0.750000  0.250000  0.500000  1
  S  S6  1  0.628180  0.878654  0.100918  1
  S  S7  1  0.628654  0.878180  0.600918  1
  S  S8  1  0.277263  0.027737  0.399082  1
  S  S9  1  0.121346  0.222263  0.749526  1
  S  S10  1  0.777737  0.527263  0.899082  1
  S  S11  1  0.972263  0.371346  0.249526  1
  S  S12  1  0.472737  0.371820  0.250474  1
  S  S13  1  0.121820  0.722737  0.750474  1
