# generated using pymatgen
data_Ca5(Ga3O7)2
_symmetry_space_group_name_H-M   'P 1'
_cell_length_a   8.14450810
_cell_length_b   8.14450810
_cell_length_c   10.59712276
_cell_angle_alpha   90.00000000
_cell_angle_beta   90.00000000
_cell_angle_gamma   91.11679100
_symmetry_Int_Tables_number   1
_chemical_formula_structural   Ca5(Ga3O7)2
_chemical_formula_sum   'Ca10 Ga12 O28'
_cell_volume   702.80554468
_cell_formula_units_Z   2
loop_
 _symmetry_equiv_pos_site_id
 _symmetry_equiv_pos_as_xyz
  1  'x, y, z'
loop_
 _atom_site_type_symbol
 _atom_site_label
 _atom_site_symmetry_multiplicity
 _atom_site_fract_x
 _atom_site_fract_y
 _atom_site_fract_z
 _atom_site_occupancy
  Ca  Ca0  1  0.941138  0.258208  0.249682  1
  Ca  Ca1  1  0.058862  0.741792  0.749682  1
  Ca  Ca2  1  0.741792  0.058862  0.749682  1
  Ca  Ca3  1  0.258208  0.941138  0.249682  1
  Ca  Ca4  1  0.958036  0.672053  0.202043  1
  Ca  Ca5  1  0.041964  0.327947  0.702043  1
  Ca  Ca6  1  0.327947  0.041964  0.702043  1
  Ca  Ca7  1  0.672053  0.958036  0.202043  1
  Ca  Ca8  1  0.527010  0.527010  0.247488  1
  Ca  Ca9  1  0.472990  0.472990  0.747488  1
  Ga  Ga10  1  0.211179  0.497839  0.009662  1
  Ga  Ga11  1  0.788821  0.502161  0.509662  1
  Ga  Ga12  1  0.497839  0.211179  0.009662  1
  Ga  Ga13  1  0.502161  0.788821  0.509662  1
  Ga  Ga14  1  0.299922  0.299922  0.443756  1
  Ga  Ga15  1  0.700078  0.700078  0.943756  1
  Ga  Ga16  1  0.000437  0.000437  0.466921  1
  Ga  Ga17  1  0.999563  0.999563  0.966921  1
  Ga  Ga18  1  0.159174  0.647740  0.478553  1
  Ga  Ga19  1  0.840826  0.352260  0.978553  1
  Ga  Ga20  1  0.352260  0.840826  0.978553  1
  Ga  Ga21  1  0.647740  0.159174  0.478553  1
  O  O22  1  0.701856  0.701856  0.117234  1
  O  O23  1  0.298144  0.298144  0.617234  1
  O  O24  1  0.500822  0.251412  0.369329  1
  O  O25  1  0.499179  0.748588  0.869329  1
  O  O26  1  0.748588  0.499179  0.869329  1
  O  O27  1  0.251412  0.500821  0.369329  1
  O  O28  1  0.989024  0.989024  0.138218  1
  O  O29  1  0.010976  0.010976  0.638218  1
  O  O30  1  0.488578  0.810015  0.337232  1
  O  O31  1  0.511422  0.189985  0.837232  1
  O  O32  1  0.189985  0.511422  0.837232  1
  O  O33  1  0.810015  0.488578  0.337232  1
  O  O34  1  0.853233  0.853233  0.878547  1
  O  O35  1  0.146767  0.146767  0.378547  1
  O  O36  1  0.807853  0.060694  0.379519  1
  O  O37  1  0.192147  0.939306  0.879519  1
  O  O38  1  0.939306  0.192147  0.879519  1
  O  O39  1  0.060694  0.807853  0.379519  1
  O  O40  1  0.293766  0.763418  0.593193  1
  O  O41  1  0.706234  0.236582  0.093193  1
  O  O42  1  0.236582  0.706234  0.093193  1
  O  O43  1  0.763418  0.293766  0.593193  1
  O  O44  1  0.991761  0.565136  0.585241  1
  O  O45  1  0.008239  0.434864  0.085241  1
  O  O46  1  0.434864  0.008239  0.085241  1
  O  O47  1  0.565136  0.991761  0.585241  1
  O  O48  1  0.612612  0.612612  0.575530  1
  O  O49  1  0.387388  0.387388  0.075530  1
