# generated using pymatgen
data_Fe3(PO4)4
_symmetry_space_group_name_H-M   'P 1'
_cell_length_a   7.73714545
_cell_length_b   7.75348679
_cell_length_c   10.43362977
_cell_angle_alpha   90.00000000
_cell_angle_beta   94.18226516
_cell_angle_gamma   90.00000000
_symmetry_Int_Tables_number   1
_chemical_formula_structural   Fe3(PO4)4
_chemical_formula_sum   'Fe6 P8 O32'
_cell_volume   624.24519580
_cell_formula_units_Z   2
loop_
 _symmetry_equiv_pos_site_id
 _symmetry_equiv_pos_as_xyz
  1  'x, y, z'
loop_
 _atom_site_type_symbol
 _atom_site_label
 _atom_site_symmetry_multiplicity
 _atom_site_fract_x
 _atom_site_fract_y
 _atom_site_fract_z
 _atom_site_occupancy
  Fe  Fe0  1  0.343009  0.364502  0.667638  1
  Fe  Fe1  1  0.757880  0.467357  0.375624  1
  Fe  Fe2  1  0.756868  0.513580  0.868603  1
  Fe  Fe3  1  0.242120  0.967357  0.624376  1
  Fe  Fe4  1  0.243132  0.013580  0.131397  1
  Fe  Fe5  1  0.656991  0.864502  0.332362  1
  P  P6  1  0.931917  0.306640  0.136648  1
  P  P7  1  0.456711  0.190296  0.888481  1
  P  P8  1  0.947295  0.297235  0.650707  1
  P  P9  1  0.052705  0.797235  0.349293  1
  P  P10  1  0.569775  0.704820  0.609543  1
  P  P11  1  0.543289  0.690296  0.111519  1
  P  P12  1  0.430225  0.204820  0.390457  1
  P  P13  1  0.068083  0.806640  0.863352  1
  O  O14  1  0.482661  0.879364  0.626243  1
  O  O15  1  0.990401  0.605527  0.358764  1
  O  O16  1  0.432830  0.560855  0.598372  1
  O  O17  1  0.165267  0.787104  0.741032  1
  O  O18  1  0.979097  0.641126  0.903827  1
  O  O19  1  0.495135  0.875565  0.159357  1
  O  O20  1  0.160986  0.819688  0.232962  1
  O  O21  1  0.387956  0.569671  0.081486  1
  O  O22  1  0.671002  0.636816  0.228135  1
  O  O23  1  0.839014  0.319688  0.767038  1
  O  O24  1  0.612044  0.069671  0.918514  1
  O  O25  1  0.922258  0.946490  0.832002  1
  O  O26  1  0.808418  0.377355  0.027911  1
  O  O27  1  0.337632  0.200574  0.521351  1
  O  O28  1  0.373751  0.185966  0.017667  1
  O  O29  1  0.191582  0.877355  0.972089  1
  O  O30  1  0.662368  0.700574  0.478649  1
  O  O31  1  0.328998  0.136816  0.771865  1
  O  O32  1  0.020903  0.141126  0.096173  1
  O  O33  1  0.517339  0.379364  0.373757  1
  O  O34  1  0.836983  0.344810  0.527521  1
  O  O35  1  0.294299  0.165274  0.279729  1
  O  O36  1  0.077742  0.446490  0.167998  1
  O  O37  1  0.163017  0.844810  0.472479  1
  O  O38  1  0.567170  0.060855  0.401628  1
  O  O39  1  0.892625  0.917933  0.333008  1
  O  O40  1  0.504865  0.375565  0.840643  1
  O  O41  1  0.834733  0.287104  0.258968  1
  O  O42  1  0.107375  0.417933  0.666992  1
  O  O43  1  0.705701  0.665274  0.720271  1
  O  O44  1  0.009599  0.105527  0.641236  1
  O  O45  1  0.626249  0.685966  0.982333  1
