# generated using pymatgen
data_Rb2Te5
_symmetry_space_group_name_H-M   'P 1'
_cell_length_a   7.50554064
_cell_length_b   7.50554064
_cell_length_c   5.91587395
_cell_angle_alpha   68.48398787
_cell_angle_beta   111.51601213
_cell_angle_gamma   102.37209105
_symmetry_Int_Tables_number   1
_chemical_formula_structural   Rb2Te5
_chemical_formula_sum   'Rb2 Te5'
_cell_volume   287.20475445
_cell_formula_units_Z   1
loop_
 _symmetry_equiv_pos_site_id
 _symmetry_equiv_pos_as_xyz
  1  'x, y, z'
loop_
 _atom_site_type_symbol
 _atom_site_label
 _atom_site_symmetry_multiplicity
 _atom_site_fract_x
 _atom_site_fract_y
 _atom_site_fract_z
 _atom_site_occupancy
  Rb  Rb0  1  0.315921  0.684079  0.641390  1
  Rb  Rb1  1  0.684079  0.315921  0.358610  1
  Te  Te2  1  0.000000  0.000000  0.000000  1
  Te  Te3  1  0.856913  0.671695  0.764219  1
  Te  Te4  1  0.671695  0.856913  0.235781  1
  Te  Te5  1  0.143087  0.328305  0.235781  1
  Te  Te6  1  0.328305  0.143087  0.764219  1
