# generated using pymatgen
data_Li6NCl3
_symmetry_space_group_name_H-M   'P 1'
_cell_length_a   3.73953141
_cell_length_b   3.73953141
_cell_length_c   13.52890737
_cell_angle_alpha   81.41863733
_cell_angle_beta   98.58136267
_cell_angle_gamma   119.93689158
_symmetry_Int_Tables_number   1
_chemical_formula_structural   Li6NCl3
_chemical_formula_sum   'Li6 N1 Cl3'
_cell_volume   161.49363229
_cell_formula_units_Z   1
loop_
 _symmetry_equiv_pos_site_id
 _symmetry_equiv_pos_as_xyz
  1  'x, y, z'
loop_
 _atom_site_type_symbol
 _atom_site_label
 _atom_site_symmetry_multiplicity
 _atom_site_fract_x
 _atom_site_fract_y
 _atom_site_fract_z
 _atom_site_occupancy
  Li  Li0  1  0.651674  0.348326  0.032424  1
  Li  Li1  1  0.031065  0.968935  0.161573  1
  Li  Li2  1  0.925088  0.074912  0.871474  1
  Li  Li3  1  0.766407  0.233593  0.414928  1
  Li  Li4  1  0.517924  0.482076  0.665318  1
  Li  Li5  1  0.307155  0.692845  0.002389  1
  N  N6  1  0.977308  0.022692  0.012078  1
  Cl  Cl7  1  0.726411  0.273589  0.243203  1
  Cl  Cl8  1  0.461737  0.538263  0.493883  1
  Cl  Cl9  1  0.214488  0.785512  0.747729  1
