# generated using pymatgen
data_LiNiP2O7
_symmetry_space_group_name_H-M   'P 1'
_cell_length_a   6.47031665
_cell_length_b   9.26768324
_cell_length_c   10.46085263
_cell_angle_alpha   114.61971535
_cell_angle_beta   86.05692743
_cell_angle_gamma   106.76384033
_symmetry_Int_Tables_number   1
_chemical_formula_structural   LiNiP2O7
_chemical_formula_sum   'Li4 Ni4 P8 O28'
_cell_volume   545.07134445
_cell_formula_units_Z   4
loop_
 _symmetry_equiv_pos_site_id
 _symmetry_equiv_pos_as_xyz
  1  'x, y, z'
loop_
 _atom_site_type_symbol
 _atom_site_label
 _atom_site_symmetry_multiplicity
 _atom_site_fract_x
 _atom_site_fract_y
 _atom_site_fract_z
 _atom_site_occupancy
  Li  Li0  1  0.033892  0.165219  0.476273  1
  Li  Li1  1  0.940924  0.929919  0.945751  1
  Li  Li2  1  0.347959  0.936464  0.403260  1
  Li  Li3  1  0.541033  0.500097  0.979538  1
  Ni  Ni4  1  0.632752  0.486872  0.250913  1
  Ni  Ni5  1  0.370082  0.503061  0.741760  1
  Ni  Ni6  1  0.712420  0.097997  0.217792  1
  Ni  Ni7  1  0.288509  0.891712  0.768885  1
  P  P8  1  0.879778  0.545141  0.704058  1
  P  P9  1  0.577936  0.300540  0.459558  1
  P  P10  1  0.420082  0.689666  0.530937  1
  P  P11  1  0.090488  0.192532  0.793910  1
  P  P12  1  0.114277  0.432821  0.296534  1
  P  P13  1  0.699631  0.189208  0.949603  1
  P  P14  1  0.302428  0.803878  0.042638  1
  P  P15  1  0.918714  0.808571  0.198149  1
  O  O16  1  0.373959  0.321033  0.538639  1
  O  O17  1  0.990413  0.122290  0.645109  1
  O  O18  1  0.956344  0.510603  0.265740  1
  O  O19  1  0.778938  0.456572  0.542301  1
  O  O20  1  0.302123  0.330084  0.821138  1
  O  O21  1  0.073021  0.711904  0.086004  1
  O  O22  1  0.570268  0.295838  0.308985  1
  O  O23  1  0.309356  0.450890  0.206779  1
  O  O24  1  0.046154  0.458461  0.707670  1
  O  O25  1  0.928640  0.278117  0.905163  1
  O  O26  1  0.401645  0.668038  0.950201  1
  O  O27  1  0.254684  0.902937  0.967122  1
  O  O28  1  0.744649  0.087382  0.022807  1
  O  O29  1  0.365305  0.847475  0.549810  1
  O  O30  1  0.562239  0.074287  0.813251  1
  O  O31  1  0.981826  0.727938  0.736056  1
  O  O32  1  0.205964  0.538436  0.458639  1
  O  O33  1  0.685998  0.518800  0.792450  1
  O  O34  1  0.710199  0.671236  0.186267  1
  O  O35  1  0.864628  0.917403  0.134452  1
  O  O36  1  0.040682  0.913403  0.341045  1
  O  O37  1  0.610057  0.331958  0.042380  1
  O  O38  1  0.613446  0.652749  0.446875  1
  O  O39  1  0.010332  0.259342  0.290564  1
  O  O40  1  0.430623  0.919068  0.183777  1
  O  O41  1  0.434219  0.698386  0.682437  1
  O  O42  1  0.111527  0.054129  0.831752  1
  O  O43  1  0.634313  0.139659  0.432903  1
