# generated using pymatgen
data_Ca2Ge
_symmetry_space_group_name_H-M   'P 1'
_cell_length_a   4.85545189
_cell_length_b   7.67813806
_cell_length_c   9.10063072
_cell_angle_alpha   90.00000000
_cell_angle_beta   90.00000000
_cell_angle_gamma   90.00000000
_symmetry_Int_Tables_number   1
_chemical_formula_structural   Ca2Ge
_chemical_formula_sum   'Ca8 Ge4'
_cell_volume   339.27906636
_cell_formula_units_Z   4
loop_
 _symmetry_equiv_pos_site_id
 _symmetry_equiv_pos_as_xyz
  1  'x, y, z'
loop_
 _atom_site_type_symbol
 _atom_site_label
 _atom_site_symmetry_multiplicity
 _atom_site_fract_x
 _atom_site_fract_y
 _atom_site_fract_z
 _atom_site_occupancy
  Ca  Ca0  1  0.750000  0.346544  0.074115  1
  Ca  Ca1  1  0.250000  0.653456  0.925885  1
  Ca  Ca2  1  0.750000  0.846544  0.425885  1
  Ca  Ca3  1  0.250000  0.153456  0.574115  1
  Ca  Ca4  1  0.750000  0.480171  0.677202  1
  Ca  Ca5  1  0.250000  0.519829  0.322798  1
  Ca  Ca6  1  0.750000  0.980171  0.822798  1
  Ca  Ca7  1  0.250000  0.019829  0.177202  1
  Ge  Ge8  1  0.750000  0.747667  0.105558  1
  Ge  Ge9  1  0.250000  0.252333  0.894442  1
  Ge  Ge10  1  0.750000  0.247667  0.394442  1
  Ge  Ge11  1  0.250000  0.752333  0.605558  1
