# generated using pymatgen
data_CeIr3
_symmetry_space_group_name_H-M   'P 1'
_cell_length_a   9.37028340
_cell_length_b   9.37028340
_cell_length_c   9.37028340
_cell_angle_alpha   33.02965699
_cell_angle_beta   33.02965699
_cell_angle_gamma   33.02965699
_symmetry_Int_Tables_number   1
_chemical_formula_structural   CeIr3
_chemical_formula_sum   'Ce3 Ir9'
_cell_volume   217.53864781
_cell_formula_units_Z   3
loop_
 _symmetry_equiv_pos_site_id
 _symmetry_equiv_pos_as_xyz
  1  'x, y, z'
loop_
 _atom_site_type_symbol
 _atom_site_label
 _atom_site_symmetry_multiplicity
 _atom_site_fract_x
 _atom_site_fract_y
 _atom_site_fract_z
 _atom_site_occupancy
  Ce  Ce0  1  0.000000  0.000000  0.000000  1
  Ce  Ce1  1  0.861171  0.861171  0.861171  1
  Ce  Ce2  1  0.138829  0.138829  0.138829  1
  Ir  Ir3  1  0.500000  0.500000  0.500000  1
  Ir  Ir4  1  0.666731  0.666731  0.666731  1
  Ir  Ir5  1  0.333269  0.333269  0.333269  1
  Ir  Ir6  1  0.918524  0.417074  0.417074  1
  Ir  Ir7  1  0.417074  0.918524  0.417074  1
  Ir  Ir8  1  0.417074  0.417074  0.918524  1
  Ir  Ir9  1  0.582926  0.582926  0.081476  1
  Ir  Ir10  1  0.081476  0.582926  0.582926  1
  Ir  Ir11  1  0.582926  0.081476  0.582926  1
