# generated using pymatgen
data_Pr2Mo2C3
_symmetry_space_group_name_H-M   'P 1'
_cell_length_a   6.02829523
_cell_length_b   6.70870162
_cell_length_c   12.09410172
_cell_angle_alpha   90.00000000
_cell_angle_beta   112.10236108
_cell_angle_gamma   90.00000000
_symmetry_Int_Tables_number   1
_chemical_formula_structural   Pr2Mo2C3
_chemical_formula_sum   'Pr8 Mo8 C12'
_cell_volume   453.16690283
_cell_formula_units_Z   4
loop_
 _symmetry_equiv_pos_site_id
 _symmetry_equiv_pos_as_xyz
  1  'x, y, z'
loop_
 _atom_site_type_symbol
 _atom_site_label
 _atom_site_symmetry_multiplicity
 _atom_site_fract_x
 _atom_site_fract_y
 _atom_site_fract_z
 _atom_site_occupancy
  Pr  Pr0  1  0.688065  0.783907  0.090617  1
  Pr  Pr1  1  0.311935  0.283907  0.409383  1
  Pr  Pr2  1  0.311935  0.216093  0.909383  1
  Pr  Pr3  1  0.688065  0.716093  0.590617  1
  Pr  Pr4  1  0.729244  0.998883  0.362682  1
  Pr  Pr5  1  0.270756  0.498883  0.137318  1
  Pr  Pr6  1  0.270756  0.001117  0.637318  1
  Pr  Pr7  1  0.729244  0.501117  0.862682  1
  Mo  Mo8  1  0.819024  0.994803  0.880546  1
  Mo  Mo9  1  0.180976  0.494803  0.619454  1
  Mo  Mo10  1  0.180976  0.005197  0.119454  1
  Mo  Mo11  1  0.819024  0.505197  0.380546  1
  Mo  Mo12  1  0.177263  0.756136  0.343002  1
  Mo  Mo13  1  0.822737  0.243864  0.656998  1
  Mo  Mo14  1  0.177263  0.743864  0.843002  1
  Mo  Mo15  1  0.822737  0.256136  0.156998  1
  C  C16  1  0.502733  0.628531  0.359667  1
  C  C17  1  0.497267  0.128531  0.140333  1
  C  C18  1  0.497267  0.371469  0.640333  1
  C  C19  1  0.502733  0.871469  0.859667  1
  C  C20  1  0.942788  0.218345  0.010615  1
  C  C21  1  0.057212  0.718345  0.489385  1
  C  C22  1  0.057212  0.781655  0.989385  1
  C  C23  1  0.942788  0.281655  0.510615  1
  C  C24  1  0.032695  0.486047  0.751955  1
  C  C25  1  0.032695  0.013953  0.251955  1
  C  C26  1  0.967305  0.986047  0.748045  1
  C  C27  1  0.967305  0.513953  0.248045  1
