# generated using pymatgen
data_Ca(AlZn)2
_symmetry_space_group_name_H-M   'P 1'
_cell_length_a   6.38564910
_cell_length_b   6.38564910
_cell_length_c   6.38564910
_cell_angle_alpha   142.09216900
_cell_angle_beta   142.09216900
_cell_angle_gamma   54.68998740
_symmetry_Int_Tables_number   1
_chemical_formula_structural   Ca(AlZn)2
_chemical_formula_sum   'Ca1 Al2 Zn2'
_cell_volume   97.60361218
_cell_formula_units_Z   1
loop_
 _symmetry_equiv_pos_site_id
 _symmetry_equiv_pos_as_xyz
  1  'x, y, z'
loop_
 _atom_site_type_symbol
 _atom_site_label
 _atom_site_symmetry_multiplicity
 _atom_site_fract_x
 _atom_site_fract_y
 _atom_site_fract_z
 _atom_site_occupancy
  Ca  Ca0  1  0.000000  0.000000  0.000000  1
  Al  Al1  1  0.250000  0.750000  0.500000  1
  Al  Al2  1  0.750000  0.250000  0.500000  1
  Zn  Zn3  1  0.390611  0.390611  0.000000  1
  Zn  Zn4  1  0.609389  0.609389  0.000000  1
