# generated using pymatgen
data_Sr4Ru2O9
_symmetry_space_group_name_H-M   'P 1'
_cell_length_a   9.76036527
_cell_length_b   9.76036527
_cell_length_c   8.13433231
_cell_angle_alpha   90.00000000
_cell_angle_beta   90.00000000
_cell_angle_gamma   120.00000000
_symmetry_Int_Tables_number   1
_chemical_formula_structural   Sr4Ru2O9
_chemical_formula_sum   'Sr12 Ru6 O27'
_cell_volume   671.09605256
_cell_formula_units_Z   3
loop_
 _symmetry_equiv_pos_site_id
 _symmetry_equiv_pos_as_xyz
  1  'x, y, z'
loop_
 _atom_site_type_symbol
 _atom_site_label
 _atom_site_symmetry_multiplicity
 _atom_site_fract_x
 _atom_site_fract_y
 _atom_site_fract_z
 _atom_site_occupancy
  Sr  Sr0  1  0.000000  0.673550  0.000000  1
  Sr  Sr1  1  0.000000  0.655652  0.500000  1
  Sr  Sr2  1  0.320951  0.986129  0.752932  1
  Sr  Sr3  1  0.013871  0.334822  0.752932  1
  Sr  Sr4  1  0.344348  0.344348  0.500000  1
  Sr  Sr5  1  0.326450  0.326450  0.000000  1
  Sr  Sr6  1  0.665178  0.679049  0.752932  1
  Sr  Sr7  1  0.334822  0.013871  0.247068  1
  Sr  Sr8  1  0.679049  0.665178  0.247068  1
  Sr  Sr9  1  0.655652  0.000000  0.500000  1
  Sr  Sr10  1  0.673550  0.000000  0.000000  1
  Sr  Sr11  1  0.986129  0.320951  0.247068  1
  Ru  Ru12  1  0.000000  0.000000  0.844132  1
  Ru  Ru13  1  0.333333  0.666667  0.912081  1
  Ru  Ru14  1  0.333333  0.666667  0.596000  1
  Ru  Ru15  1  0.666667  0.333333  0.404000  1
  Ru  Ru16  1  0.666667  0.333333  0.087919  1
  Ru  Ru17  1  0.000000  0.000000  0.155868  1
  O  O18  1  0.011145  0.836077  0.276026  1
  O  O19  1  0.151936  0.644399  0.753145  1
  O  O20  1  0.319261  0.824121  0.032293  1
  O  O21  1  0.310459  0.823640  0.475834  1
  O  O22  1  0.000000  0.166080  0.000000  1
  O  O23  1  0.175879  0.495141  0.032293  1
  O  O24  1  0.176360  0.486819  0.475834  1
  O  O25  1  0.492463  0.848064  0.753145  1
  O  O26  1  0.163923  0.175068  0.276026  1
  O  O27  1  0.175068  0.163923  0.723974  1
  O  O28  1  0.355601  0.507537  0.753145  1
  O  O29  1  0.166080  0.000000  0.000000  1
  O  O30  1  0.504859  0.680739  0.032293  1
  O  O31  1  0.513181  0.689541  0.475834  1
  O  O32  1  0.824932  0.988855  0.276026  1
  O  O33  1  0.507537  0.355601  0.246855  1
  O  O34  1  0.486819  0.176360  0.524166  1
  O  O35  1  0.495141  0.175879  0.967707  1
  O  O36  1  0.833920  0.833920  0.000000  1
  O  O37  1  0.689541  0.513181  0.524166  1
  O  O38  1  0.680739  0.504859  0.967707  1
  O  O39  1  0.644399  0.151936  0.246855  1
  O  O40  1  0.988855  0.824932  0.723974  1
  O  O41  1  0.848064  0.492463  0.246855  1
  O  O42  1  0.824121  0.319261  0.967707  1
  O  O43  1  0.823640  0.310459  0.524166  1
  O  O44  1  0.836077  0.011145  0.723974  1
