# generated using pymatgen
data_Fe3(PO4)4
_symmetry_space_group_name_H-M   'P 1'
_cell_length_a   6.01182181
_cell_length_b   11.81012749
_cell_length_c   8.88703558
_cell_angle_alpha   90.00000000
_cell_angle_beta   100.39973362
_cell_angle_gamma   90.00000000
_symmetry_Int_Tables_number   1
_chemical_formula_structural   Fe3(PO4)4
_chemical_formula_sum   'Fe6 P8 O32'
_cell_volume   620.61732923
_cell_formula_units_Z   2
loop_
 _symmetry_equiv_pos_site_id
 _symmetry_equiv_pos_as_xyz
  1  'x, y, z'
loop_
 _atom_site_type_symbol
 _atom_site_label
 _atom_site_symmetry_multiplicity
 _atom_site_fract_x
 _atom_site_fract_y
 _atom_site_fract_z
 _atom_site_occupancy
  Fe  Fe0  1  0.889333  0.086251  0.243207  1
  Fe  Fe1  1  0.570036  0.928487  0.722640  1
  Fe  Fe2  1  0.131235  0.202588  0.638832  1
  Fe  Fe3  1  0.429964  0.428487  0.277360  1
  Fe  Fe4  1  0.110667  0.586251  0.756793  1
  Fe  Fe5  1  0.868765  0.702588  0.361168  1
  P  P6  1  0.628630  0.863021  0.087701  1
  P  P7  1  0.962782  0.414304  0.395902  1
  P  P8  1  0.371370  0.363021  0.912299  1
  P  P9  1  0.429940  0.091651  0.414265  1
  P  P10  1  0.037218  0.914304  0.604098  1
  P  P11  1  0.141624  0.629634  0.100517  1
  P  P12  1  0.858376  0.129634  0.899483  1
  P  P13  1  0.570060  0.591651  0.585735  1
  O  O14  1  0.264059  0.888369  0.710961  1
  O  O15  1  0.918964  0.561666  0.099445  1
  O  O16  1  0.900618  0.219095  0.779371  1
  O  O17  1  0.501516  0.481241  0.493339  1
  O  O18  1  0.358588  0.563483  0.162859  1
  O  O19  1  0.374675  0.331620  0.081598  1
  O  O20  1  0.735941  0.388369  0.289039  1
  O  O21  1  0.175031  0.444185  0.849679  1
  O  O22  1  0.650350  0.757268  0.189777  1
  O  O23  1  0.786803  0.575106  0.708045  1
  O  O24  1  0.392732  0.918179  0.077433  1
  O  O25  1  0.845623  0.177497  0.058294  1
  O  O26  1  0.824969  0.944185  0.150321  1
  O  O27  1  0.625325  0.831620  0.918402  1
  O  O28  1  0.140927  0.376082  0.301056  1
  O  O29  1  0.630843  0.124687  0.334937  1
  O  O30  1  0.859073  0.876082  0.698944  1
  O  O31  1  0.989030  0.335799  0.537050  1
  O  O32  1  0.018307  0.042059  0.559881  1
  O  O33  1  0.618692  0.686848  0.476045  1
  O  O34  1  0.213197  0.075106  0.291955  1
  O  O35  1  0.381308  0.186848  0.523955  1
  O  O36  1  0.641412  0.063483  0.837141  1
  O  O37  1  0.081036  0.061666  0.900555  1
  O  O38  1  0.498484  0.981241  0.506661  1
  O  O39  1  0.607268  0.418179  0.922567  1
  O  O40  1  0.369157  0.624687  0.665063  1
  O  O41  1  0.154377  0.677497  0.941706  1
  O  O42  1  0.349650  0.257268  0.810223  1
  O  O43  1  0.099382  0.719095  0.220629  1
  O  O44  1  0.010970  0.835799  0.462950  1
  O  O45  1  0.981693  0.542059  0.440119  1
