# generated using pymatgen
data_EuIBr
_symmetry_space_group_name_H-M   'P 1'
_cell_length_a   4.81224992
_cell_length_b   8.47264515
_cell_length_c   9.80553085
_cell_angle_alpha   90.00000000
_cell_angle_beta   90.00000000
_cell_angle_gamma   90.00000000
_symmetry_Int_Tables_number   1
_chemical_formula_structural   EuIBr
_chemical_formula_sum   'Eu4 I4 Br4'
_cell_volume   399.79586877
_cell_formula_units_Z   4
loop_
 _symmetry_equiv_pos_site_id
 _symmetry_equiv_pos_as_xyz
  1  'x, y, z'
loop_
 _atom_site_type_symbol
 _atom_site_label
 _atom_site_symmetry_multiplicity
 _atom_site_fract_x
 _atom_site_fract_y
 _atom_site_fract_z
 _atom_site_occupancy
  Eu  Eu0  1  0.750000  0.226223  0.871988  1
  Eu  Eu1  1  0.250000  0.773777  0.128012  1
  Eu  Eu2  1  0.750000  0.726223  0.628012  1
  Eu  Eu3  1  0.250000  0.273777  0.371988  1
  I  I4  1  0.750000  0.973417  0.333054  1
  I  I5  1  0.250000  0.026583  0.666946  1
  I  I6  1  0.750000  0.473417  0.166946  1
  I  I7  1  0.250000  0.526583  0.833054  1
  Br  Br8  1  0.250000  0.144901  0.064696  1
  Br  Br9  1  0.750000  0.855099  0.935304  1
  Br  Br10  1  0.250000  0.644901  0.435304  1
  Br  Br11  1  0.750000  0.355099  0.564696  1
