# generated using pymatgen
data_Ca3(Bi2Pd)4
_symmetry_space_group_name_H-M   'P 1'
_cell_length_a   4.23945702
_cell_length_b   10.96984472
_cell_length_c   17.22676654
_cell_angle_alpha   90.00000000
_cell_angle_beta   90.00000000
_cell_angle_gamma   90.00000000
_symmetry_Int_Tables_number   1
_chemical_formula_structural   Ca3(Bi2Pd)4
_chemical_formula_sum   'Ca6 Bi16 Pd8'
_cell_volume   801.15119522
_cell_formula_units_Z   2
loop_
 _symmetry_equiv_pos_site_id
 _symmetry_equiv_pos_as_xyz
  1  'x, y, z'
loop_
 _atom_site_type_symbol
 _atom_site_label
 _atom_site_symmetry_multiplicity
 _atom_site_fract_x
 _atom_site_fract_y
 _atom_site_fract_z
 _atom_site_occupancy
  Ca  Ca0  1  0.500000  0.000000  0.500000  1
  Ca  Ca1  1  0.500000  0.500000  0.000000  1
  Ca  Ca2  1  0.500000  0.858231  0.198912  1
  Ca  Ca3  1  0.500000  0.141769  0.801088  1
  Ca  Ca4  1  0.500000  0.358231  0.301088  1
  Ca  Ca5  1  0.500000  0.641769  0.698912  1
  Bi  Bi6  1  0.000000  0.110168  0.213508  1
  Bi  Bi7  1  0.000000  0.889832  0.786492  1
  Bi  Bi8  1  0.000000  0.610168  0.286492  1
  Bi  Bi9  1  0.000000  0.389832  0.713508  1
  Bi  Bi10  1  0.000000  0.393177  0.142528  1
  Bi  Bi11  1  0.000000  0.606823  0.857472  1
  Bi  Bi12  1  0.000000  0.893177  0.357472  1
  Bi  Bi13  1  0.000000  0.106823  0.642528  1
  Bi  Bi14  1  0.500000  0.129660  0.038778  1
  Bi  Bi15  1  0.500000  0.870340  0.961222  1
  Bi  Bi16  1  0.500000  0.629660  0.461222  1
  Bi  Bi17  1  0.500000  0.370340  0.538778  1
  Bi  Bi18  1  0.000000  0.695457  0.085668  1
  Bi  Bi19  1  0.000000  0.304543  0.914332  1
  Bi  Bi20  1  0.000000  0.195457  0.414332  1
  Bi  Bi21  1  0.000000  0.804543  0.585668  1
  Pd  Pd22  1  0.000000  0.953575  0.078125  1
  Pd  Pd23  1  0.000000  0.046425  0.921875  1
  Pd  Pd24  1  0.000000  0.453575  0.421875  1
  Pd  Pd25  1  0.000000  0.546425  0.578125  1
  Pd  Pd26  1  0.500000  0.569927  0.175497  1
  Pd  Pd27  1  0.500000  0.430073  0.824503  1
  Pd  Pd28  1  0.500000  0.069927  0.324503  1
  Pd  Pd29  1  0.500000  0.930073  0.675497  1
