# generated using pymatgen
data_Mn2(PO4)3
_symmetry_space_group_name_H-M   'P 1'
_cell_length_a   8.78521614
_cell_length_b   8.78521614
_cell_length_c   8.78521614
_cell_angle_alpha   55.34015175
_cell_angle_beta   55.34015175
_cell_angle_gamma   55.34015175
_symmetry_Int_Tables_number   1
_chemical_formula_structural   Mn2(PO4)3
_chemical_formula_sum   'Mn4 P6 O24'
_cell_volume   427.54034967
_cell_formula_units_Z   2
loop_
 _symmetry_equiv_pos_site_id
 _symmetry_equiv_pos_as_xyz
  1  'x, y, z'
loop_
 _atom_site_type_symbol
 _atom_site_label
 _atom_site_symmetry_multiplicity
 _atom_site_fract_x
 _atom_site_fract_y
 _atom_site_fract_z
 _atom_site_occupancy
  Mn  Mn0  1  0.650246  0.650246  0.650246  1
  Mn  Mn1  1  0.349754  0.349754  0.349754  1
  Mn  Mn2  1  0.857060  0.857060  0.857060  1
  Mn  Mn3  1  0.142940  0.142940  0.142940  1
  P  P4  1  0.538629  0.963377  0.250830  1
  P  P5  1  0.461371  0.036623  0.749170  1
  P  P6  1  0.036623  0.749170  0.461371  1
  P  P7  1  0.963377  0.250830  0.538629  1
  P  P8  1  0.250830  0.538629  0.963377  1
  P  P9  1  0.749170  0.461371  0.036623  1
  O  O10  1  0.167083  0.210827  0.525193  1
  O  O11  1  0.746744  0.868798  0.114280  1
  O  O12  1  0.210827  0.525193  0.167083  1
  O  O13  1  0.618985  0.008861  0.799712  1
  O  O14  1  0.008861  0.799712  0.618985  1
  O  O15  1  0.868798  0.114280  0.746744  1
  O  O16  1  0.832917  0.789173  0.474807  1
  O  O17  1  0.114280  0.746744  0.868798  1
  O  O18  1  0.131202  0.885720  0.253256  1
  O  O19  1  0.525193  0.167083  0.210827  1
  O  O20  1  0.253256  0.131202  0.885720  1
  O  O21  1  0.491718  0.177074  0.530887  1
  O  O22  1  0.789173  0.474807  0.832917  1
  O  O23  1  0.508282  0.822926  0.469113  1
  O  O24  1  0.822926  0.469113  0.508282  1
  O  O25  1  0.381015  0.991139  0.200288  1
  O  O26  1  0.177074  0.530887  0.491718  1
  O  O27  1  0.474807  0.832917  0.789173  1
  O  O28  1  0.991139  0.200288  0.381015  1
  O  O29  1  0.885720  0.253256  0.131202  1
  O  O30  1  0.530887  0.491718  0.177074  1
  O  O31  1  0.469113  0.508282  0.822926  1
  O  O32  1  0.200288  0.381015  0.991139  1
  O  O33  1  0.799712  0.618985  0.008861  1
