# generated using pymatgen
data_Co5RuO8
_symmetry_space_group_name_H-M   'P 1'
_cell_length_a   6.04374285
_cell_length_b   6.04374285
_cell_length_c   6.04374285
_cell_angle_alpha   59.20693283
_cell_angle_beta   59.20693283
_cell_angle_gamma   59.20693283
_symmetry_Int_Tables_number   1
_chemical_formula_structural   Co5RuO8
_chemical_formula_sum   'Co5 Ru1 O8'
_cell_volume   153.27956295
_cell_formula_units_Z   1
loop_
 _symmetry_equiv_pos_site_id
 _symmetry_equiv_pos_as_xyz
  1  'x, y, z'
loop_
 _atom_site_type_symbol
 _atom_site_label
 _atom_site_symmetry_multiplicity
 _atom_site_fract_x
 _atom_site_fract_y
 _atom_site_fract_z
 _atom_site_occupancy
  Co  Co0  1  0.632522  0.632522  0.632522  1
  Co  Co1  1  0.000000  0.500000  0.000000  1
  Co  Co2  1  0.500000  0.000000  0.000000  1
  Co  Co3  1  1.000000  0.000000  0.500000  1
  Co  Co4  1  0.367478  0.367478  0.367478  1
  Ru  Ru5  1  0.000000  0.000000  0.000000  1
  O  O6  1  0.765030  0.765030  0.228408  1
  O  O7  1  0.228408  0.765030  0.765030  1
  O  O8  1  0.765030  0.228408  0.765030  1
  O  O9  1  0.767071  0.767071  0.767071  1
  O  O10  1  0.232929  0.232929  0.232929  1
  O  O11  1  0.234970  0.771592  0.234970  1
  O  O12  1  0.771592  0.234970  0.234970  1
  O  O13  1  0.234970  0.234970  0.771592  1
