# generated using pymatgen
data_HBr
_symmetry_space_group_name_H-M   'P 1'
_cell_length_a   5.84756942
_cell_length_b   6.03270165
_cell_length_c   6.25417238
_cell_angle_alpha   90.00000000
_cell_angle_beta   90.00000000
_cell_angle_gamma   90.00000000
_symmetry_Int_Tables_number   1
_chemical_formula_structural   HBr
_chemical_formula_sum   'H4 Br4'
_cell_volume   220.62619811
_cell_formula_units_Z   4
loop_
 _symmetry_equiv_pos_site_id
 _symmetry_equiv_pos_as_xyz
  1  'x, y, z'
loop_
 _atom_site_type_symbol
 _atom_site_label
 _atom_site_symmetry_multiplicity
 _atom_site_fract_x
 _atom_site_fract_y
 _atom_site_fract_z
 _atom_site_occupancy
  H  H0  1  0.446363  0.373128  0.672291  1
  H  H1  1  0.946363  0.126872  0.327709  1
  H  H2  1  0.053637  0.626872  0.172291  1
  H  H3  1  0.553637  0.873128  0.827709  1
  Br  Br4  1  0.743866  0.745167  0.747990  1
  Br  Br5  1  0.256134  0.245167  0.752010  1
  Br  Br6  1  0.243866  0.754833  0.252010  1
  Br  Br7  1  0.756134  0.254833  0.247990  1
