# generated using pymatgen
data_CaAsAu
_symmetry_space_group_name_H-M   'P 1'
_cell_length_a   4.45917517
_cell_length_b   4.45917517
_cell_length_c   8.03326421
_cell_angle_alpha   90.00000000
_cell_angle_beta   90.00000000
_cell_angle_gamma   120.00000000
_symmetry_Int_Tables_number   1
_chemical_formula_structural   CaAsAu
_chemical_formula_sum   'Ca2 As2 Au2'
_cell_volume   138.33489644
_cell_formula_units_Z   2
loop_
 _symmetry_equiv_pos_site_id
 _symmetry_equiv_pos_as_xyz
  1  'x, y, z'
loop_
 _atom_site_type_symbol
 _atom_site_label
 _atom_site_symmetry_multiplicity
 _atom_site_fract_x
 _atom_site_fract_y
 _atom_site_fract_z
 _atom_site_occupancy
  Ca  Ca0  1  0.000000  0.000000  0.500000  1
  Ca  Ca1  1  0.000000  0.000000  0.000000  1
  As  As2  1  0.333333  0.666667  0.250000  1
  As  As3  1  0.666667  0.333333  0.750000  1
  Au  Au4  1  0.666667  0.333333  0.250000  1
  Au  Au5  1  0.333333  0.666667  0.750000  1
