# generated using pymatgen
data_Mg5Rh2
_symmetry_space_group_name_H-M   'P 1'
_cell_length_a   8.58912781
_cell_length_b   8.58912781
_cell_length_c   8.12930319
_cell_angle_alpha   90.00000000
_cell_angle_beta   90.00000000
_cell_angle_gamma   120.00000000
_symmetry_Int_Tables_number   1
_chemical_formula_structural   Mg5Rh2
_chemical_formula_sum   'Mg20 Rh8'
_cell_volume   519.37624678
_cell_formula_units_Z   4
loop_
 _symmetry_equiv_pos_site_id
 _symmetry_equiv_pos_as_xyz
  1  'x, y, z'
loop_
 _atom_site_type_symbol
 _atom_site_label
 _atom_site_symmetry_multiplicity
 _atom_site_fract_x
 _atom_site_fract_y
 _atom_site_fract_z
 _atom_site_occupancy
  Mg  Mg0  1  0.000000  0.000000  0.000000  1
  Mg  Mg1  1  0.000000  0.000000  0.500000  1
  Mg  Mg2  1  0.459928  0.919856  0.250000  1
  Mg  Mg3  1  0.540072  0.459928  0.750000  1
  Mg  Mg4  1  0.919856  0.459928  0.750000  1
  Mg  Mg5  1  0.080144  0.540072  0.250000  1
  Mg  Mg6  1  0.459928  0.540072  0.250000  1
  Mg  Mg7  1  0.540072  0.080144  0.750000  1
  Mg  Mg8  1  0.191822  0.383643  0.937205  1
  Mg  Mg9  1  0.808178  0.191822  0.437205  1
  Mg  Mg10  1  0.383643  0.191822  0.437205  1
  Mg  Mg11  1  0.616357  0.808178  0.937205  1
  Mg  Mg12  1  0.191822  0.808178  0.937205  1
  Mg  Mg13  1  0.808178  0.616357  0.062795  1
  Mg  Mg14  1  0.808178  0.191822  0.062795  1
  Mg  Mg15  1  0.808178  0.616357  0.437205  1
  Mg  Mg16  1  0.383643  0.191822  0.062795  1
  Mg  Mg17  1  0.616357  0.808178  0.562795  1
  Mg  Mg18  1  0.191822  0.383643  0.562795  1
  Mg  Mg19  1  0.191822  0.808178  0.562795  1
  Rh  Rh20  1  0.333333  0.666667  0.750000  1
  Rh  Rh21  1  0.666667  0.333333  0.250000  1
  Rh  Rh22  1  0.121604  0.243208  0.250000  1
  Rh  Rh23  1  0.878396  0.121604  0.750000  1
  Rh  Rh24  1  0.243208  0.121604  0.750000  1
  Rh  Rh25  1  0.756792  0.878396  0.250000  1
  Rh  Rh26  1  0.121604  0.878396  0.250000  1
  Rh  Rh27  1  0.878396  0.756792  0.750000  1
