# generated using pymatgen
data_Ga2Te3
_symmetry_space_group_name_H-M   'P 1'
_cell_length_a   7.40907672
_cell_length_b   7.40907672
_cell_length_c   14.86070493
_cell_angle_alpha   82.46726210
_cell_angle_beta   97.53273790
_cell_angle_gamma   147.26561292
_symmetry_Int_Tables_number   1
_chemical_formula_structural   Ga2Te3
_chemical_formula_sum   'Ga4 Te6'
_cell_volume   436.98687037
_cell_formula_units_Z   2
loop_
 _symmetry_equiv_pos_site_id
 _symmetry_equiv_pos_as_xyz
  1  'x, y, z'
loop_
 _atom_site_type_symbol
 _atom_site_label
 _atom_site_symmetry_multiplicity
 _atom_site_fract_x
 _atom_site_fract_y
 _atom_site_fract_z
 _atom_site_occupancy
  Ga  Ga0  1  0.054144  0.945856  0.348899  1
  Ga  Ga1  1  0.072970  0.927030  0.834838  1
  Ga  Ga2  1  0.304787  0.695213  0.723819  1
  Ga  Ga3  1  0.819342  0.180658  0.467864  1
  Te  Te4  1  0.507358  0.492642  0.245626  1
  Te  Te5  1  0.002730  0.997270  0.515560  1
  Te  Te6  1  0.735369  0.264631  0.622632  1
  Te  Te7  1  0.499123  0.500877  0.736589  1
  Te  Te8  1  0.254005  0.745995  0.886508  1
  Te  Te9  1  0.250172  0.749828  0.367666  1
