# generated using pymatgen
data_Gd2MgS4
_symmetry_space_group_name_H-M   'P 1'
_cell_length_a   7.23331311
_cell_length_b   7.23331311
_cell_length_c   7.23331311
_cell_angle_alpha   110.71394009
_cell_angle_beta   110.71394009
_cell_angle_gamma   107.01338764
_symmetry_Int_Tables_number   1
_chemical_formula_structural   Gd2MgS4
_chemical_formula_sum   'Gd4 Mg2 S8'
_cell_volume   290.93323390
_cell_formula_units_Z   2
loop_
 _symmetry_equiv_pos_site_id
 _symmetry_equiv_pos_as_xyz
  1  'x, y, z'
loop_
 _atom_site_type_symbol
 _atom_site_label
 _atom_site_symmetry_multiplicity
 _atom_site_fract_x
 _atom_site_fract_y
 _atom_site_fract_z
 _atom_site_occupancy
  Gd  Gd0  1  0.507336  0.125000  0.882336  1
  Gd  Gd1  1  0.375000  0.492664  0.617664  1
  Gd  Gd2  1  0.242664  0.625000  0.117664  1
  Gd  Gd3  1  0.875000  0.757336  0.382336  1
  Mg  Mg4  1  1.000000  1.000000  0.000000  1
  Mg  Mg5  1  0.750000  0.250000  0.500000  1
  S  S6  1  0.635717  0.872220  0.628304  1
  S  S7  1  0.243916  0.007414  0.371696  1
  S  S8  1  0.114283  0.242586  0.736503  1
  S  S9  1  0.992586  0.364283  0.236503  1
  S  S10  1  0.757414  0.493916  0.871696  1
  S  S11  1  0.506084  0.377780  0.263497  1
  S  S12  1  0.622220  0.885717  0.128304  1
  S  S13  1  0.127780  0.756084  0.763497  1
