# generated using pymatgen
data_W6CCl18
_symmetry_space_group_name_H-M   'P 1'
_cell_length_a   9.40841136
_cell_length_b   9.40841136
_cell_length_c   18.33670105
_cell_angle_alpha   90.00000000
_cell_angle_beta   90.00000000
_cell_angle_gamma   120.00000000
_symmetry_Int_Tables_number   1
_chemical_formula_structural   W6CCl18
_chemical_formula_sum   'W12 C2 Cl36'
_cell_volume   1405.67341625
_cell_formula_units_Z   2
loop_
 _symmetry_equiv_pos_site_id
 _symmetry_equiv_pos_as_xyz
  1  'x, y, z'
loop_
 _atom_site_type_symbol
 _atom_site_label
 _atom_site_symmetry_multiplicity
 _atom_site_fract_x
 _atom_site_fract_y
 _atom_site_fract_z
 _atom_site_occupancy
  W  W0  1  0.510665  0.153273  0.830279  1
  W  W1  1  0.846727  0.357391  0.830279  1
  W  W2  1  0.642609  0.489335  0.830279  1
  W  W3  1  0.489335  0.642609  0.169721  1
  W  W4  1  0.642609  0.489335  0.669721  1
  W  W5  1  0.510665  0.153273  0.669721  1
  W  W6  1  0.846727  0.357391  0.669721  1
  W  W7  1  0.153273  0.510665  0.330279  1
  W  W8  1  0.357391  0.846727  0.330279  1
  W  W9  1  0.357391  0.846727  0.169721  1
  W  W10  1  0.153273  0.510665  0.169721  1
  W  W11  1  0.489335  0.642609  0.330279  1
  C  C12  1  0.666667  0.333333  0.750000  1
  C  C13  1  0.333333  0.666667  0.250000  1
  Cl  Cl14  1  0.696002  0.142037  0.916823  1
  Cl  Cl15  1  0.857963  0.553964  0.916823  1
  Cl  Cl16  1  0.446036  0.303998  0.916823  1
  Cl  Cl17  1  0.303998  0.446036  0.083177  1
  Cl  Cl18  1  0.446036  0.303998  0.583177  1
  Cl  Cl19  1  0.696002  0.142037  0.583177  1
  Cl  Cl20  1  0.857963  0.553964  0.583177  1
  Cl  Cl21  1  0.142037  0.696002  0.416823  1
  Cl  Cl22  1  0.553964  0.857963  0.416823  1
  Cl  Cl23  1  0.553964  0.857963  0.083177  1
  Cl  Cl24  1  0.473668  0.428526  0.250000  1
  Cl  Cl25  1  0.954859  0.526332  0.250000  1
  Cl  Cl26  1  0.571474  0.045141  0.250000  1
  Cl  Cl27  1  0.045141  0.571474  0.750000  1
  Cl  Cl28  1  0.526332  0.954859  0.750000  1
  Cl  Cl29  1  0.428526  0.473668  0.750000  1
  Cl  Cl30  1  0.714451  0.825780  0.250000  1
  Cl  Cl31  1  0.111329  0.285549  0.250000  1
  Cl  Cl32  1  0.174220  0.888671  0.250000  1
  Cl  Cl33  1  0.888671  0.174220  0.750000  1
  Cl  Cl34  1  0.285549  0.111329  0.750000  1
  Cl  Cl35  1  0.825780  0.714451  0.750000  1
  Cl  Cl36  1  0.696806  0.611513  0.392064  1
  Cl  Cl37  1  0.914707  0.303194  0.107936  1
  Cl  Cl38  1  0.388487  0.085293  0.107936  1
  Cl  Cl39  1  0.388487  0.085293  0.392064  1
  Cl  Cl40  1  0.914707  0.303194  0.392064  1
  Cl  Cl41  1  0.085293  0.388487  0.607936  1
  Cl  Cl42  1  0.303194  0.914707  0.607936  1
  Cl  Cl43  1  0.611513  0.696806  0.607936  1
  Cl  Cl44  1  0.696806  0.611513  0.107936  1
  Cl  Cl45  1  0.611513  0.696806  0.892064  1
  Cl  Cl46  1  0.085293  0.388487  0.892064  1
  Cl  Cl47  1  0.303194  0.914707  0.892064  1
  Cl  Cl48  1  0.303998  0.446036  0.416823  1
  Cl  Cl49  1  0.142037  0.696002  0.083177  1
