# generated using pymatgen
data_Ho12Co7
_symmetry_space_group_name_H-M   'P 1'
_cell_length_a   8.24068620
_cell_length_b   11.14863875
_cell_length_c   10.97718160
_cell_angle_alpha   90.00000000
_cell_angle_beta   125.13034390
_cell_angle_gamma   90.00000000
_symmetry_Int_Tables_number   1
_chemical_formula_structural   Ho12Co7
_chemical_formula_sum   'Ho24 Co14'
_cell_volume   824.79707930
_cell_formula_units_Z   2
loop_
 _symmetry_equiv_pos_site_id
 _symmetry_equiv_pos_as_xyz
  1  'x, y, z'
loop_
 _atom_site_type_symbol
 _atom_site_label
 _atom_site_symmetry_multiplicity
 _atom_site_fract_x
 _atom_site_fract_y
 _atom_site_fract_z
 _atom_site_occupancy
  Ho  Ho0  1  0.234849  0.705262  0.461835  1
  Ho  Ho1  1  0.765151  0.205262  0.038165  1
  Ho  Ho2  1  0.501854  0.841536  0.341807  1
  Ho  Ho3  1  0.498146  0.341536  0.158193  1
  Ho  Ho4  1  0.498146  0.158464  0.658193  1
  Ho  Ho5  1  0.501854  0.658464  0.841807  1
  Ho  Ho6  1  0.845432  0.004325  0.645710  1
  Ho  Ho7  1  0.154568  0.504325  0.854290  1
  Ho  Ho8  1  0.154568  0.995675  0.354290  1
  Ho  Ho9  1  0.845432  0.495675  0.145710  1
  Ho  Ho10  1  0.234849  0.794738  0.961835  1
  Ho  Ho11  1  0.765151  0.294738  0.538165  1
  Ho  Ho12  1  0.769786  0.928036  0.913588  1
  Ho  Ho13  1  0.230214  0.428036  0.586412  1
  Ho  Ho14  1  0.230214  0.071964  0.086412  1
  Ho  Ho15  1  0.769786  0.571964  0.413588  1
  Ho  Ho16  1  0.249349  0.300730  0.324632  1
  Ho  Ho17  1  0.750651  0.800730  0.175368  1
  Ho  Ho18  1  0.750651  0.699270  0.675368  1
  Ho  Ho19  1  0.249349  0.199270  0.824632  1
  Ho  Ho20  1  0.266711  0.929601  0.694601  1
  Ho  Ho21  1  0.733289  0.429601  0.805399  1
  Ho  Ho22  1  0.733289  0.070399  0.305399  1
  Ho  Ho23  1  0.266711  0.570399  0.194601  1
  Co  Co24  1  0.500000  0.500000  0.500000  1
  Co  Co25  1  0.500000  0.000000  0.000000  1
  Co  Co26  1  0.908809  0.673993  0.970411  1
  Co  Co27  1  0.091191  0.173993  0.529589  1
  Co  Co28  1  0.091191  0.326007  0.029589  1
  Co  Co29  1  0.908809  0.826007  0.470411  1
  Co  Co30  1  0.493458  0.401281  0.900242  1
  Co  Co31  1  0.506542  0.901281  0.599758  1
  Co  Co32  1  0.506542  0.598719  0.099758  1
  Co  Co33  1  0.493458  0.098719  0.400242  1
  Co  Co34  1  0.098128  0.810971  0.157337  1
  Co  Co35  1  0.901872  0.310971  0.342663  1
  Co  Co36  1  0.901872  0.189029  0.842663  1
  Co  Co37  1  0.098128  0.689029  0.657337  1
