# generated using pymatgen
data_Sr(CeSe2)2
_symmetry_space_group_name_H-M   'P 1'
_cell_length_a   7.85390075
_cell_length_b   7.85390075
_cell_length_c   7.85390075
_cell_angle_alpha   109.45281988
_cell_angle_beta   109.45281988
_cell_angle_gamma   109.50802841
_symmetry_Int_Tables_number   1
_chemical_formula_structural   Sr(CeSe2)2
_chemical_formula_sum   'Sr2 Ce4 Se8'
_cell_volume   372.93590770
_cell_formula_units_Z   2
loop_
 _symmetry_equiv_pos_site_id
 _symmetry_equiv_pos_as_xyz
  1  'x, y, z'
loop_
 _atom_site_type_symbol
 _atom_site_label
 _atom_site_symmetry_multiplicity
 _atom_site_fract_x
 _atom_site_fract_y
 _atom_site_fract_z
 _atom_site_occupancy
  Sr  Sr0  1  0.500000  0.500000  0.000000  1
  Sr  Sr1  1  0.750000  0.250000  0.500000  1
  Ce  Ce2  1  0.625000  0.001769  0.876769  1
  Ce  Ce3  1  0.125000  0.748231  0.123231  1
  Ce  Ce4  1  0.998231  0.875000  0.623231  1
  Ce  Ce5  1  0.251769  0.375000  0.376769  1
  Se  Se6  1  0.365344  0.116294  0.095464  1
  Se  Se7  1  0.366294  0.115344  0.595464  1
  Se  Se8  1  0.519880  0.770831  0.404536  1
  Se  Se9  1  0.730120  0.634656  0.750950  1
  Se  Se10  1  0.020831  0.269880  0.904536  1
  Se  Se11  1  0.884656  0.480120  0.250950  1
  Se  Se12  1  0.883706  0.979169  0.249050  1
  Se  Se13  1  0.229169  0.633706  0.749050  1
