# generated using pymatgen
data_TiO2
_symmetry_space_group_name_H-M   'P 1'
_cell_length_a   5.56641424
_cell_length_b   5.56641424
_cell_length_c   5.56641424
_cell_angle_alpha   140.05412916
_cell_angle_beta   140.05412916
_cell_angle_gamma   57.77112044
_symmetry_Int_Tables_number   1
_chemical_formula_structural   TiO2
_chemical_formula_sum   'Ti2 O4'
_cell_volume   70.47917097
_cell_formula_units_Z   2
loop_
 _symmetry_equiv_pos_site_id
 _symmetry_equiv_pos_as_xyz
  1  'x, y, z'
loop_
 _atom_site_type_symbol
 _atom_site_label
 _atom_site_symmetry_multiplicity
 _atom_site_fract_x
 _atom_site_fract_y
 _atom_site_fract_z
 _atom_site_occupancy
  Ti  Ti0  1  0.750000  0.250000  0.500000  1
  Ti  Ti1  1  0.000000  0.000000  0.000000  1
  O  O2  1  0.956163  0.456163  0.500000  1
  O  O3  1  0.793837  0.793837  0.000000  1
  O  O4  1  0.543837  0.043837  0.500000  1
  O  O5  1  0.206163  0.206163  0.000000  1
