# generated using pymatgen
data_BaRuO3
_symmetry_space_group_name_H-M   'P 1'
_cell_length_a   5.79852403
_cell_length_b   5.79852403
_cell_length_c   14.25288505
_cell_angle_alpha   90.00000000
_cell_angle_beta   90.00000000
_cell_angle_gamma   120.00000000
_symmetry_Int_Tables_number   1
_chemical_formula_structural   BaRuO3
_chemical_formula_sum   'Ba6 Ru6 O18'
_cell_volume   415.01934187
_cell_formula_units_Z   6
loop_
 _symmetry_equiv_pos_site_id
 _symmetry_equiv_pos_as_xyz
  1  'x, y, z'
loop_
 _atom_site_type_symbol
 _atom_site_label
 _atom_site_symmetry_multiplicity
 _atom_site_fract_x
 _atom_site_fract_y
 _atom_site_fract_z
 _atom_site_occupancy
  Ba  Ba0  1  0.333333  0.666667  0.411945  1
  Ba  Ba1  1  0.666667  0.333333  0.911945  1
  Ba  Ba2  1  0.666667  0.333333  0.588055  1
  Ba  Ba3  1  0.333333  0.666667  0.088055  1
  Ba  Ba4  1  0.000000  0.000000  0.750000  1
  Ba  Ba5  1  0.000000  0.000000  0.250000  1
  Ru  Ru6  1  0.333333  0.666667  0.839409  1
  Ru  Ru7  1  0.666667  0.333333  0.339409  1
  Ru  Ru8  1  0.666667  0.333333  0.160591  1
  Ru  Ru9  1  0.333333  0.666667  0.660591  1
  Ru  Ru10  1  0.000000  0.000000  0.500000  1
  Ru  Ru11  1  0.000000  0.000000  0.000000  1
  O  O12  1  0.835164  0.670329  0.419698  1
  O  O13  1  0.329671  0.164836  0.419698  1
  O  O14  1  0.835164  0.164836  0.419698  1
  O  O15  1  0.164836  0.835164  0.919698  1
  O  O16  1  0.164836  0.835164  0.580302  1
  O  O17  1  0.164836  0.329671  0.919698  1
  O  O18  1  0.670329  0.835164  0.919698  1
  O  O19  1  0.329671  0.164836  0.080302  1
  O  O20  1  0.835164  0.670329  0.080302  1
  O  O21  1  0.164836  0.329671  0.580302  1
  O  O22  1  0.670329  0.835164  0.580302  1
  O  O23  1  0.835164  0.164836  0.080302  1
  O  O24  1  0.510824  0.489176  0.250000  1
  O  O25  1  0.021648  0.510824  0.750000  1
  O  O26  1  0.489176  0.978352  0.750000  1
  O  O27  1  0.510824  0.021648  0.250000  1
  O  O28  1  0.978352  0.489176  0.250000  1
  O  O29  1  0.489176  0.510824  0.750000  1
