# generated using pymatgen
data_Ba3Ta2NiO9
_symmetry_space_group_name_H-M   'P 1'
_cell_length_a   5.82541583
_cell_length_b   5.82541583
_cell_length_c   7.16392543
_cell_angle_alpha   90.00000000
_cell_angle_beta   90.00000000
_cell_angle_gamma   120.00000000
_symmetry_Int_Tables_number   1
_chemical_formula_structural   Ba3Ta2NiO9
_chemical_formula_sum   'Ba3 Ta2 Ni1 O9'
_cell_volume   210.54045198
_cell_formula_units_Z   1
loop_
 _symmetry_equiv_pos_site_id
 _symmetry_equiv_pos_as_xyz
  1  'x, y, z'
loop_
 _atom_site_type_symbol
 _atom_site_label
 _atom_site_symmetry_multiplicity
 _atom_site_fract_x
 _atom_site_fract_y
 _atom_site_fract_z
 _atom_site_occupancy
  Ba  Ba0  1  0.666667  0.333333  0.338372  1
  Ba  Ba1  1  0.333333  0.666667  0.661628  1
  Ba  Ba2  1  0.000000  0.000000  0.000000  1
  Ta  Ta3  1  0.333333  0.666667  0.176389  1
  Ta  Ta4  1  0.666667  0.333333  0.823611  1
  Ni  Ni5  1  0.000000  0.000000  0.500000  1
  O  O6  1  0.343431  0.171715  0.675280  1
  O  O7  1  0.828285  0.171715  0.675280  1
  O  O8  1  0.828285  0.656569  0.675280  1
  O  O9  1  0.171715  0.828285  0.324720  1
  O  O10  1  0.656569  0.828285  0.324720  1
  O  O11  1  0.171715  0.343431  0.324720  1
  O  O12  1  0.500000  0.000000  0.000000  1
  O  O13  1  0.500000  0.500000  0.000000  1
  O  O14  1  0.000000  0.500000  0.000000  1
