# generated using pymatgen
data_Na15Sn4
_symmetry_space_group_name_H-M   'P 1'
_cell_length_a   11.40724227
_cell_length_b   11.40724227
_cell_length_c   11.40724227
_cell_angle_alpha   109.47122063
_cell_angle_beta   109.47122063
_cell_angle_gamma   109.47122063
_symmetry_Int_Tables_number   1
_chemical_formula_structural   Na15Sn4
_chemical_formula_sum   'Na30 Sn8'
_cell_volume   1142.66810457
_cell_formula_units_Z   2
loop_
 _symmetry_equiv_pos_site_id
 _symmetry_equiv_pos_as_xyz
  1  'x, y, z'
loop_
 _atom_site_type_symbol
 _atom_site_label
 _atom_site_symmetry_multiplicity
 _atom_site_fract_x
 _atom_site_fract_y
 _atom_site_fract_z
 _atom_site_occupancy
  Na  Na0  1  0.250000  0.625000  0.375000  1
  Na  Na1  1  0.375000  0.250000  0.625000  1
  Na  Na2  1  0.125000  0.750000  0.875000  1
  Na  Na3  1  0.875000  0.125000  0.750000  1
  Na  Na4  1  0.625000  0.375000  0.250000  1
  Na  Na5  1  0.750000  0.875000  0.125000  1
  Na  Na6  1  0.115816  0.085340  0.277393  1
  Na  Na7  1  0.914660  0.692052  0.030475  1
  Na  Na8  1  0.161577  0.884184  0.469525  1
  Na  Na9  1  0.469525  0.161577  0.884184  1
  Na  Na10  1  0.722607  0.338423  0.807948  1
  Na  Na11  1  0.807948  0.722607  0.338423  1
  Na  Na12  1  0.692052  0.030475  0.914660  1
  Na  Na13  1  0.838423  0.222607  0.307948  1
  Na  Na14  1  0.530475  0.192052  0.414660  1
  Na  Na15  1  0.661577  0.969525  0.384184  1
  Na  Na16  1  0.222607  0.307948  0.838423  1
  Na  Na17  1  0.414660  0.530475  0.192052  1
  Na  Na18  1  0.969525  0.384184  0.661577  1
  Na  Na19  1  0.277393  0.115816  0.085340  1
  Na  Na20  1  0.085340  0.277393  0.115816  1
  Na  Na21  1  0.307948  0.838423  0.222607  1
  Na  Na22  1  0.192052  0.414660  0.530475  1
  Na  Na23  1  0.384184  0.661577  0.969525  1
  Na  Na24  1  0.585340  0.615816  0.777393  1
  Na  Na25  1  0.777393  0.585340  0.615816  1
  Na  Na26  1  0.615816  0.777393  0.585340  1
  Na  Na27  1  0.338423  0.807948  0.722607  1
  Na  Na28  1  0.030475  0.914660  0.692052  1
  Na  Na29  1  0.884184  0.469525  0.161577  1
  Sn  Sn30  1  0.418169  0.418169  0.418169  1
  Sn  Sn31  1  0.581831  0.500000  1.000000  1
  Sn  Sn32  1  1.000000  0.581831  0.500000  1
  Sn  Sn33  1  0.500000  1.000000  0.581831  1
  Sn  Sn34  1  1.000000  0.081831  0.500000  1
  Sn  Sn35  1  0.500000  0.000000  0.081831  1
  Sn  Sn36  1  0.081831  0.500000  0.000000  1
  Sn  Sn37  1  0.918169  0.918169  0.918169  1
