# generated using pymatgen
data_Li3ErBr6
_symmetry_space_group_name_H-M   'P 1'
_cell_length_a   6.88794078
_cell_length_b   6.88794078
_cell_length_c   13.25714304
_cell_angle_alpha   85.11314024
_cell_angle_beta   94.88685976
_cell_angle_gamma   60.41259350
_symmetry_Int_Tables_number   1
_chemical_formula_structural   Li3ErBr6
_chemical_formula_sum   'Li6 Er2 Br12'
_cell_volume   539.05544081
_cell_formula_units_Z   2
loop_
 _symmetry_equiv_pos_site_id
 _symmetry_equiv_pos_as_xyz
  1  'x, y, z'
loop_
 _atom_site_type_symbol
 _atom_site_label
 _atom_site_symmetry_multiplicity
 _atom_site_fract_x
 _atom_site_fract_y
 _atom_site_fract_z
 _atom_site_occupancy
  Li  Li0  1  0.662414  0.174523  0.999690  1
  Li  Li1  1  0.592886  0.592886  0.750000  1
  Li  Li2  1  0.174523  0.662414  0.500310  1
  Li  Li3  1  0.825477  0.337586  0.499690  1
  Li  Li4  1  0.407114  0.407114  0.250000  1
  Li  Li5  1  0.337586  0.825477  0.000310  1
  Er  Er6  1  0.000000  0.500000  0.000000  1
  Er  Er7  1  0.500000  0.000000  0.500000  1
  Br  Br8  1  0.624278  0.866143  0.880302  1
  Br  Br9  1  0.947340  0.215532  0.878580  1
  Br  Br10  1  0.298266  0.539962  0.880953  1
  Br  Br11  1  0.539962  0.298266  0.619047  1
  Br  Br12  1  0.215532  0.947340  0.621420  1
  Br  Br13  1  0.866143  0.624278  0.619698  1
  Br  Br14  1  0.133857  0.375722  0.380302  1
  Br  Br15  1  0.460038  0.701734  0.380953  1
  Br  Br16  1  0.784468  0.052660  0.378580  1
  Br  Br17  1  0.701734  0.460038  0.119047  1
  Br  Br18  1  0.052660  0.784468  0.121420  1
  Br  Br19  1  0.375722  0.133857  0.119698  1
