# generated using pymatgen
data_Li3NbO4
_symmetry_space_group_name_H-M   'P 1'
_cell_length_a   7.38643099
_cell_length_b   7.38643099
_cell_length_c   7.38643099
_cell_angle_alpha   109.47122063
_cell_angle_beta   109.47122063
_cell_angle_gamma   109.47122063
_symmetry_Int_Tables_number   1
_chemical_formula_structural   Li3NbO4
_chemical_formula_sum   'Li12 Nb4 O16'
_cell_volume   310.22875014
_cell_formula_units_Z   4
loop_
 _symmetry_equiv_pos_site_id
 _symmetry_equiv_pos_as_xyz
  1  'x, y, z'
loop_
 _atom_site_type_symbol
 _atom_site_label
 _atom_site_symmetry_multiplicity
 _atom_site_fract_x
 _atom_site_fract_y
 _atom_site_fract_z
 _atom_site_occupancy
  Li  Li0  1  0.729451  0.729451  0.243146  1
  Li  Li1  1  0.513695  0.270549  0.000000  1
  Li  Li2  1  0.270549  0.513695  1.000000  1
  Li  Li3  1  0.486305  0.756854  0.486305  1
  Li  Li4  1  0.486305  0.486305  0.756854  1
  Li  Li5  1  0.729451  0.243146  0.729451  1
  Li  Li6  1  1.000000  0.270549  0.513695  1
  Li  Li7  1  0.270549  1.000000  0.513695  1
  Li  Li8  1  0.243146  0.729451  0.729451  1
  Li  Li9  1  0.513695  1.000000  0.270549  1
  Li  Li10  1  1.000000  0.513695  0.270549  1
  Li  Li11  1  0.756854  0.486305  0.486305  1
  Nb  Nb12  1  0.719162  1.000000  1.000000  1
  Nb  Nb13  1  1.000000  1.000000  0.719162  1
  Nb  Nb14  1  1.000000  0.719162  0.000000  1
  Nb  Nb15  1  0.280838  0.280838  0.280838  1
  O  O16  1  0.485805  0.485805  0.246134  1
  O  O17  1  0.753866  0.239672  0.239672  1
  O  O18  1  1.000000  0.760328  0.514195  1
  O  O19  1  1.000000  0.514195  0.760328  1
  O  O20  1  0.772719  0.772719  0.772719  1
  O  O21  1  1.000000  0.227281  1.000000  1
  O  O22  1  1.000000  1.000000  0.227281  1
  O  O23  1  0.227281  1.000000  0.000000  1
  O  O24  1  0.246134  0.485805  0.485805  1
  O  O25  1  0.760328  0.514195  0.000000  1
  O  O26  1  0.760328  1.000000  0.514195  1
  O  O27  1  0.239672  0.239672  0.753866  1
  O  O28  1  0.514195  1.000000  0.760328  1
  O  O29  1  0.514195  0.760328  0.000000  1
  O  O30  1  0.239672  0.753866  0.239672  1
  O  O31  1  0.485805  0.246134  0.485805  1
