# generated using pymatgen
data_Sm2Cr2Fe15
_symmetry_space_group_name_H-M   'P 1'
_cell_length_a   6.40080619
_cell_length_b   6.40080619
_cell_length_c   6.40080619
_cell_angle_alpha   82.28631660
_cell_angle_beta   82.28631660
_cell_angle_gamma   82.28631660
_symmetry_Int_Tables_number   1
_chemical_formula_structural   Sm2Cr2Fe15
_chemical_formula_sum   'Sm2 Cr2 Fe15'
_cell_volume   255.70904624
_cell_formula_units_Z   1
loop_
 _symmetry_equiv_pos_site_id
 _symmetry_equiv_pos_as_xyz
  1  'x, y, z'
loop_
 _atom_site_type_symbol
 _atom_site_label
 _atom_site_symmetry_multiplicity
 _atom_site_fract_x
 _atom_site_fract_y
 _atom_site_fract_z
 _atom_site_occupancy
  Sm  Sm0  1  0.342484  0.342484  0.342484  1
  Sm  Sm1  1  0.657516  0.657516  0.657516  1
  Cr  Cr2  1  0.913933  0.913933  0.913933  1
  Cr  Cr3  1  0.086067  0.086067  0.086067  1
  Fe  Fe4  1  0.155480  0.661441  0.661441  1
  Fe  Fe5  1  0.661441  0.661441  0.155480  1
  Fe  Fe6  1  0.500000  0.000000  1.000000  1
  Fe  Fe7  1  0.000000  0.500000  0.000000  1
  Fe  Fe8  1  1.000000  0.000000  0.500000  1
  Fe  Fe9  1  0.000000  0.701906  0.298094  1
  Fe  Fe10  1  0.298094  0.000000  0.701906  1
  Fe  Fe11  1  0.701906  0.298094  1.000000  1
  Fe  Fe12  1  0.000000  0.298094  0.701906  1
  Fe  Fe13  1  0.701906  0.000000  0.298094  1
  Fe  Fe14  1  0.298094  0.701906  1.000000  1
  Fe  Fe15  1  0.338559  0.338559  0.844520  1
  Fe  Fe16  1  0.844520  0.338559  0.338559  1
  Fe  Fe17  1  0.338559  0.844520  0.338559  1
  Fe  Fe18  1  0.661441  0.155480  0.661441  1
