# generated using pymatgen
data_Mg5(HO3)2
_symmetry_space_group_name_H-M   'P 1'
_cell_length_a   3.04730214
_cell_length_b   3.04730214
_cell_length_c   14.81210124
_cell_angle_alpha   90.00000000
_cell_angle_beta   90.00000000
_cell_angle_gamma   120.00000000
_symmetry_Int_Tables_number   1
_chemical_formula_structural   Mg5(HO3)2
_chemical_formula_sum   'Mg5 H2 O6'
_cell_volume   119.11825899
_cell_formula_units_Z   1
loop_
 _symmetry_equiv_pos_site_id
 _symmetry_equiv_pos_as_xyz
  1  'x, y, z'
loop_
 _atom_site_type_symbol
 _atom_site_label
 _atom_site_symmetry_multiplicity
 _atom_site_fract_x
 _atom_site_fract_y
 _atom_site_fract_z
 _atom_site_occupancy
  Mg  Mg0  1  0.666667  0.333333  0.668762  1
  Mg  Mg1  1  0.333333  0.666667  0.331238  1
  Mg  Mg2  1  0.333333  0.666667  0.834606  1
  Mg  Mg3  1  0.666667  0.333333  0.165394  1
  Mg  Mg4  1  0.000000  0.000000  0.000000  1
  H  H5  1  0.333333  0.666667  0.531205  1
  H  H6  1  0.666667  0.333333  0.468795  1
  O  O7  1  0.333333  0.666667  0.082720  1
  O  O8  1  0.666667  0.333333  0.917280  1
  O  O9  1  0.000000  0.000000  0.248191  1
  O  O10  1  0.666667  0.333333  0.403444  1
  O  O11  1  0.333333  0.666667  0.596556  1
  O  O12  1  0.000000  0.000000  0.751809  1
