# generated using pymatgen
data_NdTiCdSbO7
_symmetry_space_group_name_H-M   'P 1'
_cell_length_a   7.36414155
_cell_length_b   7.36414155
_cell_length_c   10.46723664
_cell_angle_alpha   90.00000000
_cell_angle_beta   90.00000000
_cell_angle_gamma   90.00000000
_symmetry_Int_Tables_number   1
_chemical_formula_structural   NdTiCdSbO7
_chemical_formula_sum   'Nd4 Ti4 Cd4 Sb4 O28'
_cell_volume   567.64432200
_cell_formula_units_Z   4
loop_
 _symmetry_equiv_pos_site_id
 _symmetry_equiv_pos_as_xyz
  1  'x, y, z'
loop_
 _atom_site_type_symbol
 _atom_site_label
 _atom_site_symmetry_multiplicity
 _atom_site_fract_x
 _atom_site_fract_y
 _atom_site_fract_z
 _atom_site_occupancy
  Nd  Nd0  1  0.000000  0.736142  0.000000  1
  Nd  Nd1  1  0.263858  0.000000  0.250000  1
  Nd  Nd2  1  0.000000  0.263858  0.500000  1
  Nd  Nd3  1  0.736142  0.000000  0.750000  1
  Ti  Ti4  1  0.761612  0.000000  0.250000  1
  Ti  Ti5  1  0.000000  0.761612  0.500000  1
  Ti  Ti6  1  0.238388  0.000000  0.750000  1
  Ti  Ti7  1  0.000000  0.238388  0.000000  1
  Cd  Cd8  1  0.500000  0.735754  0.000000  1
  Cd  Cd9  1  0.500000  0.264246  0.500000  1
  Cd  Cd10  1  0.735754  0.500000  0.750000  1
  Cd  Cd11  1  0.264246  0.500000  0.250000  1
  Sb  Sb12  1  0.244055  0.500000  0.750000  1
  Sb  Sb13  1  0.500000  0.755945  0.500000  1
  Sb  Sb14  1  0.500000  0.244055  0.000000  1
  Sb  Sb15  1  0.755945  0.500000  0.250000  1
  O  O16  1  0.260695  0.739305  0.125000  1
  O  O17  1  0.555190  0.945619  0.369400  1
  O  O18  1  0.739305  0.260695  0.625000  1
  O  O19  1  0.952576  0.952576  0.375000  1
  O  O20  1  0.054381  0.444810  0.880600  1
  O  O21  1  0.047424  0.047424  0.875000  1
  O  O22  1  0.047424  0.952576  0.625000  1
  O  O23  1  0.249563  0.235944  0.071717  1
  O  O24  1  0.235944  0.249563  0.678283  1
  O  O25  1  0.249563  0.764056  0.428283  1
  O  O26  1  0.448485  0.448485  0.875000  1
  O  O27  1  0.444810  0.054381  0.869400  1
  O  O28  1  0.444810  0.945619  0.630600  1
  O  O29  1  0.551515  0.551515  0.375000  1
  O  O30  1  0.555190  0.054381  0.130600  1
  O  O31  1  0.551515  0.448485  0.125000  1
  O  O32  1  0.750437  0.764056  0.571717  1
  O  O33  1  0.739305  0.739305  0.875000  1
  O  O34  1  0.764056  0.249563  0.321717  1
  O  O35  1  0.764056  0.750437  0.178283  1
  O  O36  1  0.750437  0.235944  0.928283  1
  O  O37  1  0.945619  0.555190  0.380600  1
  O  O38  1  0.945619  0.444810  0.119400  1
  O  O39  1  0.952576  0.047424  0.125000  1
  O  O40  1  0.054381  0.555190  0.619400  1
  O  O41  1  0.260695  0.260695  0.375000  1
  O  O42  1  0.235944  0.750437  0.821717  1
  O  O43  1  0.448485  0.551515  0.625000  1
