# generated using pymatgen
data_Fe2CoO4
_symmetry_space_group_name_H-M   'P 1'
_cell_length_a   5.96010809
_cell_length_b   5.96010809
_cell_length_c   5.96010809
_cell_angle_alpha   119.97186527
_cell_angle_beta   119.80661338
_cell_angle_gamma   90.19200979
_symmetry_Int_Tables_number   1
_chemical_formula_structural   Fe2CoO4
_chemical_formula_sum   'Fe4 Co2 O8'
_cell_volume   149.95816199
_cell_formula_units_Z   2
loop_
 _symmetry_equiv_pos_site_id
 _symmetry_equiv_pos_as_xyz
  1  'x, y, z'
loop_
 _atom_site_type_symbol
 _atom_site_label
 _atom_site_symmetry_multiplicity
 _atom_site_fract_x
 _atom_site_fract_y
 _atom_site_fract_z
 _atom_site_occupancy
  Fe  Fe0  1  0.622530  0.872530  0.750000  1
  Fe  Fe1  1  0.377470  0.127470  0.250000  1
  Fe  Fe2  1  0.000000  0.500000  0.500000  1
  Fe  Fe3  1  0.500000  0.500000  0.000000  1
  Co  Co4  1  0.000000  0.000000  0.500000  1
  Co  Co5  1  0.000000  0.500000  0.000000  1
  O  O6  1  0.231277  0.253788  0.522511  1
  O  O7  1  0.789836  0.255946  0.533889  1
  O  O8  1  0.231277  0.708766  0.977489  1
  O  O9  1  0.222057  0.255946  0.966111  1
  O  O10  1  0.777943  0.744054  0.033889  1
  O  O11  1  0.768723  0.291234  0.022511  1
  O  O12  1  0.210164  0.744054  0.466111  1
  O  O13  1  0.768723  0.746212  0.477489  1
