# generated using pymatgen
data_HfNbB4
_symmetry_space_group_name_H-M   'P 1'
_cell_length_a   4.62714483
_cell_length_b   4.62714483
_cell_length_c   4.62714483
_cell_angle_alpha   140.42650803
_cell_angle_beta   108.37011592
_cell_angle_gamma   85.06864551
_symmetry_Int_Tables_number   1
_chemical_formula_structural   HfNbB4
_chemical_formula_sum   'Hf1 Nb1 B4'
_cell_volume   57.84392065
_cell_formula_units_Z   1
loop_
 _symmetry_equiv_pos_site_id
 _symmetry_equiv_pos_as_xyz
  1  'x, y, z'
loop_
 _atom_site_type_symbol
 _atom_site_label
 _atom_site_symmetry_multiplicity
 _atom_site_fract_x
 _atom_site_fract_y
 _atom_site_fract_z
 _atom_site_occupancy
  Hf  Hf0  1  0.000000  0.000000  0.000000  1
  Nb  Nb1  1  0.500000  0.500000  0.000000  1
  B  B2  1  0.083863  0.750079  0.333784  1
  B  B3  1  0.416295  0.750079  0.666216  1
  B  B4  1  0.916137  0.249921  0.666216  1
  B  B5  1  0.583705  0.249921  0.333784  1
