# generated using pymatgen
data_Ta2Se8I
_symmetry_space_group_name_H-M   'P 1'
_cell_length_a   9.49554902
_cell_length_b   9.49554902
_cell_length_c   9.49554902
_cell_angle_alpha   117.92335155
_cell_angle_beta   117.92335155
_cell_angle_gamma   93.63614271
_symmetry_Int_Tables_number   1
_chemical_formula_structural   Ta2Se8I
_chemical_formula_sum   'Ta4 Se16 I2'
_cell_volume   623.04945196
_cell_formula_units_Z   2
loop_
 _symmetry_equiv_pos_site_id
 _symmetry_equiv_pos_as_xyz
  1  'x, y, z'
loop_
 _atom_site_type_symbol
 _atom_site_label
 _atom_site_symmetry_multiplicity
 _atom_site_fract_x
 _atom_site_fract_y
 _atom_site_fract_z
 _atom_site_occupancy
  Ta  Ta0  1  0.750000  0.250000  0.500000  1
  Ta  Ta1  1  0.250000  0.750000  0.500000  1
  Ta  Ta2  1  0.500000  1.000000  0.500000  1
  Ta  Ta3  1  1.000000  0.500000  0.500000  1
  Se  Se4  1  0.675670  0.920214  0.335538  1
  Se  Se5  1  0.584677  0.340133  0.664462  1
  Se  Se6  1  0.659867  0.415323  0.335538  1
  Se  Se7  1  0.340133  0.675670  0.755456  1
  Se  Se8  1  0.920214  0.584677  0.244544  1
  Se  Se9  1  0.415323  0.079786  0.755456  1
  Se  Se10  1  0.998451  0.564611  0.802930  1
  Se  Se11  1  0.564611  0.761681  0.566160  1
  Se  Se12  1  0.195521  0.998451  0.433840  1
  Se  Se13  1  0.001549  0.804479  0.566160  1
  Se  Se14  1  0.238319  0.435389  0.433840  1
  Se  Se15  1  0.761681  0.195521  0.197070  1
  Se  Se16  1  0.804479  0.238319  0.802930  1
  Se  Se17  1  0.435389  0.001549  0.197070  1
  Se  Se18  1  0.079786  0.324330  0.664462  1
  Se  Se19  1  0.324330  0.659867  0.244544  1
  I  I20  1  0.845541  0.845541  0.000000  1
  I  I21  1  0.154459  0.154459  0.000000  1
