# generated using pymatgen
data_Li2B2Se5
_symmetry_space_group_name_H-M   'P 1'
_cell_length_a   6.01645697
_cell_length_b   6.01645697
_cell_length_c   12.57834065
_cell_angle_alpha   72.06237293
_cell_angle_beta   107.93762707
_cell_angle_gamma   127.36810870
_symmetry_Int_Tables_number   1
_chemical_formula_structural   Li2B2Se5
_chemical_formula_sum   'Li4 B4 Se10'
_cell_volume   339.82699953
_cell_formula_units_Z   2
loop_
 _symmetry_equiv_pos_site_id
 _symmetry_equiv_pos_as_xyz
  1  'x, y, z'
loop_
 _atom_site_type_symbol
 _atom_site_label
 _atom_site_symmetry_multiplicity
 _atom_site_fract_x
 _atom_site_fract_y
 _atom_site_fract_z
 _atom_site_occupancy
  Li  Li0  1  0.855621  0.105686  0.067609  1
  Li  Li1  1  0.105686  0.855621  0.432391  1
  Li  Li2  1  0.144379  0.894314  0.932391  1
  Li  Li3  1  0.894314  0.144379  0.567609  1
  B  B4  1  0.307489  0.588574  0.292626  1
  B  B5  1  0.588574  0.307489  0.207374  1
  B  B6  1  0.692511  0.411426  0.707374  1
  B  B7  1  0.411426  0.692511  0.792626  1
  Se  Se8  1  0.754407  0.754407  0.750000  1
  Se  Se9  1  0.245593  0.245593  0.250000  1
  Se  Se10  1  0.432239  0.925510  0.160537  1
  Se  Se11  1  0.925510  0.432239  0.339463  1
  Se  Se12  1  0.567761  0.074490  0.839463  1
  Se  Se13  1  0.074490  0.567761  0.660537  1
  Se  Se14  1  0.598794  0.730317  0.438618  1
  Se  Se15  1  0.730317  0.598794  0.061382  1
  Se  Se16  1  0.401206  0.269683  0.561382  1
  Se  Se17  1  0.269683  0.401206  0.938618  1
