# generated using pymatgen
data_Ca5Au2
_symmetry_space_group_name_H-M   'P 1'
_cell_length_a   9.10777312
_cell_length_b   9.10777312
_cell_length_c   7.83048303
_cell_angle_alpha   82.85089281
_cell_angle_beta   97.14910719
_cell_angle_gamma   135.62259884
_symmetry_Int_Tables_number   1
_chemical_formula_structural   Ca5Au2
_chemical_formula_sum   'Ca10 Au4'
_cell_volume   450.16166118
_cell_formula_units_Z   2
loop_
 _symmetry_equiv_pos_site_id
 _symmetry_equiv_pos_as_xyz
  1  'x, y, z'
loop_
 _atom_site_type_symbol
 _atom_site_label
 _atom_site_symmetry_multiplicity
 _atom_site_fract_x
 _atom_site_fract_y
 _atom_site_fract_z
 _atom_site_occupancy
  Ca  Ca0  1  0.798612  0.361311  0.316903  1
  Ca  Ca1  1  0.361311  0.798612  0.183097  1
  Ca  Ca2  1  0.201388  0.638689  0.683097  1
  Ca  Ca3  1  0.638689  0.201388  0.816903  1
  Ca  Ca4  1  0.419741  0.419741  0.750000  1
  Ca  Ca5  1  0.580259  0.580259  0.250000  1
  Ca  Ca6  1  0.982419  0.800224  0.921013  1
  Ca  Ca7  1  0.800224  0.982419  0.578987  1
  Ca  Ca8  1  0.017581  0.199776  0.078987  1
  Ca  Ca9  1  0.199776  0.017581  0.421013  1
  Au  Au10  1  0.403534  0.183224  0.081355  1
  Au  Au11  1  0.183224  0.403534  0.418645  1
  Au  Au12  1  0.596466  0.816776  0.918645  1
  Au  Au13  1  0.816776  0.596466  0.581355  1
