# generated using pymatgen
data_HoInAu
_symmetry_space_group_name_H-M   'P 1'
_cell_length_a   7.78043861
_cell_length_b   7.78043861
_cell_length_c   3.96032254
_cell_angle_alpha   90.00000000
_cell_angle_beta   90.00000000
_cell_angle_gamma   120.00000000
_symmetry_Int_Tables_number   1
_chemical_formula_structural   HoInAu
_chemical_formula_sum   'Ho3 In3 Au3'
_cell_volume   207.62007817
_cell_formula_units_Z   3
loop_
 _symmetry_equiv_pos_site_id
 _symmetry_equiv_pos_as_xyz
  1  'x, y, z'
loop_
 _atom_site_type_symbol
 _atom_site_label
 _atom_site_symmetry_multiplicity
 _atom_site_fract_x
 _atom_site_fract_y
 _atom_site_fract_z
 _atom_site_occupancy
  Ho  Ho0  1  0.598582  0.000000  0.500000  1
  Ho  Ho1  1  0.401418  0.401418  0.500000  1
  Ho  Ho2  1  0.000000  0.598582  0.500000  1
  In  In3  1  0.263036  0.000000  0.000000  1
  In  In4  1  0.736964  0.736964  0.000000  1
  In  In5  1  0.000000  0.263036  0.000000  1
  Au  Au6  1  0.333333  0.666667  0.000000  1
  Au  Au7  1  0.666667  0.333333  0.000000  1
  Au  Au8  1  0.000000  0.000000  0.500000  1
