# generated using pymatgen
data_CaSn2F6
_symmetry_space_group_name_H-M   'P 1'
_cell_length_a   4.49577982
_cell_length_b   7.36290640
_cell_length_c   9.97323519
_cell_angle_alpha   98.73279355
_cell_angle_beta   101.30301188
_cell_angle_gamma   92.60599579
_symmetry_Int_Tables_number   1
_chemical_formula_structural   CaSn2F6
_chemical_formula_sum   'Ca2 Sn4 F12'
_cell_volume   319.01277430
_cell_formula_units_Z   2
loop_
 _symmetry_equiv_pos_site_id
 _symmetry_equiv_pos_as_xyz
  1  'x, y, z'
loop_
 _atom_site_type_symbol
 _atom_site_label
 _atom_site_symmetry_multiplicity
 _atom_site_fract_x
 _atom_site_fract_y
 _atom_site_fract_z
 _atom_site_occupancy
  Ca  Ca0  1  0.400626  0.254142  0.053449  1
  Ca  Ca1  1  0.599374  0.745858  0.946551  1
  Sn  Sn2  1  0.361517  0.788790  0.268113  1
  Sn  Sn3  1  0.638483  0.211210  0.731887  1
  Sn  Sn4  1  0.980227  0.725661  0.633587  1
  Sn  Sn5  1  0.019773  0.274339  0.366413  1
  F  F6  1  0.908262  0.438708  0.612261  1
  F  F7  1  0.091738  0.561292  0.387739  1
  F  F8  1  0.054729  0.734935  0.854981  1
  F  F9  1  0.945271  0.265065  0.145019  1
  F  F10  1  0.897112  0.789510  0.176161  1
  F  F11  1  0.102888  0.210490  0.823839  1
  F  F12  1  0.612960  0.042686  0.891985  1
  F  F13  1  0.387040  0.957314  0.108015  1
  F  F14  1  0.530535  0.308958  0.305364  1
  F  F15  1  0.469465  0.691042  0.694636  1
  F  F16  1  0.637073  0.424806  0.898510  1
  F  F17  1  0.362927  0.575194  0.101490  1
