# generated using pymatgen
data_CuCN
_symmetry_space_group_name_H-M   'P 1'
_cell_length_a   3.90247307
_cell_length_b   3.90247307
_cell_length_c   3.90247307
_cell_angle_alpha   104.27309283
_cell_angle_beta   104.27309283
_cell_angle_gamma   104.27309283
_symmetry_Int_Tables_number   1
_chemical_formula_structural   CuCN
_chemical_formula_sum   'Cu1 C1 N1'
_cell_volume   52.74650475
_cell_formula_units_Z   1
loop_
 _symmetry_equiv_pos_site_id
 _symmetry_equiv_pos_as_xyz
  1  'x, y, z'
loop_
 _atom_site_type_symbol
 _atom_site_label
 _atom_site_symmetry_multiplicity
 _atom_site_fract_x
 _atom_site_fract_y
 _atom_site_fract_z
 _atom_site_occupancy
  Cu  Cu0  1  0.999769  0.999769  0.999769  1
  C  C1  1  0.622115  0.622115  0.622115  1
  N  N2  1  0.378116  0.378116  0.378116  1
