# generated using pymatgen
data_La2S3
_symmetry_space_group_name_H-M   'P 1'
_cell_length_a   14.47662505
_cell_length_b   14.47662505
_cell_length_c   14.47662505
_cell_angle_alpha   144.75349542
_cell_angle_beta   144.75349542
_cell_angle_gamma   50.70202470
_symmetry_Int_Tables_number   1
_chemical_formula_structural   La2S3
_chemical_formula_sum   'La16 S24'
_cell_volume   1005.25117698
_cell_formula_units_Z   8
loop_
 _symmetry_equiv_pos_site_id
 _symmetry_equiv_pos_as_xyz
  1  'x, y, z'
loop_
 _atom_site_type_symbol
 _atom_site_label
 _atom_site_symmetry_multiplicity
 _atom_site_fract_x
 _atom_site_fract_y
 _atom_site_fract_z
 _atom_site_occupancy
  La  La0  1  0.584993  0.084993  0.500000  1
  La  La1  1  0.375000  0.745641  0.870641  1
  La  La2  1  0.851564  0.952603  0.381676  1
  La  La3  1  0.165007  0.165007  0.000000  1
  La  La4  1  0.570927  0.469888  0.618324  1
  La  La5  1  0.875000  0.504359  0.129359  1
  La  La6  1  0.047397  0.429073  0.898961  1
  La  La7  1  0.495641  0.625000  0.370641  1
  La  La8  1  0.834993  0.834993  0.000000  1
  La  La9  1  0.254359  0.125000  0.629359  1
  La  La10  1  0.530112  0.148436  0.101039  1
  La  La11  1  0.915007  0.415007  0.500000  1
  La  La12  1  0.702603  0.101564  0.881676  1
  La  La13  1  0.179073  0.297397  0.398961  1
  La  La14  1  0.898436  0.780112  0.601039  1
  La  La15  1  0.219888  0.820927  0.118324  1
  S  S16  1  0.532548  0.422977  0.744809  1
  S  S17  1  0.243298  0.995768  0.105431  1
  S  S18  1  0.506702  0.112133  0.252471  1
  S  S19  1  0.890337  0.137867  0.894569  1
  S  S20  1  0.859663  0.254232  0.747529  1
  S  S21  1  0.217452  0.462260  0.390429  1
  S  S22  1  0.678168  0.787740  0.255191  1
  S  S23  1  0.071832  0.827023  0.609571  1
  S  S24  1  0.185831  0.099511  0.752122  1
  S  S25  1  0.900489  0.652611  0.086320  1
  S  S26  1  0.172977  0.782548  0.244809  1
  S  S27  1  0.566291  0.814169  0.913680  1
  S  S28  1  0.537740  0.928168  0.755191  1
  S  S29  1  0.347389  0.433709  0.247878  1
  S  S30  1  0.887867  0.140337  0.394569  1
  S  S31  1  0.745768  0.493298  0.605431  1
  S  S32  1  0.862133  0.756702  0.752471  1
  S  S33  1  0.577023  0.321832  0.109571  1
  S  S34  1  0.212260  0.467452  0.890429  1
  S  S35  1  0.849511  0.435831  0.252122  1
  S  S36  1  0.183709  0.597389  0.747878  1
  S  S37  1  0.004232  0.109663  0.247529  1
  S  S38  1  0.564169  0.816291  0.413680  1
  S  S39  1  0.402611  0.150489  0.586320  1
