# generated using pymatgen
data_KAlO
_symmetry_space_group_name_H-M   'P 1'
_cell_length_a   5.25737746
_cell_length_b   5.25737746
_cell_length_c   9.67984420
_cell_angle_alpha   72.98913387
_cell_angle_beta   107.01086613
_cell_angle_gamma   117.97579752
_symmetry_Int_Tables_number   1
_chemical_formula_structural   KAlO
_chemical_formula_sum   'K4 Al4 O4'
_cell_volume   222.09473595
_cell_formula_units_Z   4
loop_
 _symmetry_equiv_pos_site_id
 _symmetry_equiv_pos_as_xyz
  1  'x, y, z'
loop_
 _atom_site_type_symbol
 _atom_site_label
 _atom_site_symmetry_multiplicity
 _atom_site_fract_x
 _atom_site_fract_y
 _atom_site_fract_z
 _atom_site_occupancy
  K  K0  1  0.417157  0.038929  0.812354  1
  K  K1  1  0.961071  0.582843  0.312354  1
  K  K2  1  0.048400  0.422122  0.688845  1
  K  K3  1  0.577878  0.951600  0.188845  1
  Al  Al4  1  0.801797  0.643488  0.950903  1
  Al  Al5  1  0.356512  0.198203  0.450903  1
  Al  Al6  1  0.652561  0.797020  0.554498  1
  Al  Al7  1  0.202980  0.347439  0.054498  1
  O  O8  1  0.703786  0.735872  0.753028  1
  O  O9  1  0.016007  0.955279  0.513872  1
  O  O10  1  0.044721  0.983993  0.013872  1
  O  O11  1  0.264128  0.296214  0.253028  1
