# generated using pymatgen
data_La5AgS8
_symmetry_space_group_name_H-M   'P 1'
_cell_length_a   7.55856827
_cell_length_b   7.55856827
_cell_length_c   7.55856827
_cell_angle_alpha   109.72975741
_cell_angle_beta   109.72975741
_cell_angle_gamma   108.95537532
_symmetry_Int_Tables_number   1
_chemical_formula_structural   La5AgS8
_chemical_formula_sum   'La5 Ag1 S8'
_cell_volume   332.40714900
_cell_formula_units_Z   1
loop_
 _symmetry_equiv_pos_site_id
 _symmetry_equiv_pos_as_xyz
  1  'x, y, z'
loop_
 _atom_site_type_symbol
 _atom_site_label
 _atom_site_symmetry_multiplicity
 _atom_site_fract_x
 _atom_site_fract_y
 _atom_site_fract_z
 _atom_site_occupancy
  La  La0  1  0.234986  0.619759  0.117095  1
  La  La1  1  0.380241  0.497336  0.615227  1
  La  La2  1  0.502664  0.117891  0.882905  1
  La  La3  1  0.882109  0.765014  0.384773  1
  La  La4  1  0.750000  0.250000  0.500000  1
  Ag  Ag5  1  0.000000  0.000000  0.000000  1
  S  S6  1  0.607614  0.867225  0.104944  1
  S  S7  1  0.273814  0.021958  0.390004  1
  S  S8  1  0.497331  0.392386  0.259611  1
  S  S9  1  0.762280  0.502669  0.895055  1
  S  S10  1  0.631954  0.883810  0.609996  1
  S  S11  1  0.116190  0.726186  0.748144  1
  S  S12  1  0.978042  0.368046  0.251856  1
  S  S13  1  0.132775  0.237720  0.740389  1
