# generated using pymatgen
data_Er2(SeO3)3
_symmetry_space_group_name_H-M   'P 1'
_cell_length_a   7.05326903
_cell_length_b   8.09715481
_cell_length_c   9.04767746
_cell_angle_alpha   71.55650043
_cell_angle_beta   70.04556666
_cell_angle_gamma   66.06132850
_symmetry_Int_Tables_number   1
_chemical_formula_structural   Er2(SeO3)3
_chemical_formula_sum   'Er4 Se6 O18'
_cell_volume   434.30210444
_cell_formula_units_Z   2
loop_
 _symmetry_equiv_pos_site_id
 _symmetry_equiv_pos_as_xyz
  1  'x, y, z'
loop_
 _atom_site_type_symbol
 _atom_site_label
 _atom_site_symmetry_multiplicity
 _atom_site_fract_x
 _atom_site_fract_y
 _atom_site_fract_z
 _atom_site_occupancy
  Er  Er0  1  0.334508  0.726673  0.590792  1
  Er  Er1  1  0.665492  0.273327  0.409208  1
  Er  Er2  1  0.741951  0.735884  0.797381  1
  Er  Er3  1  0.258049  0.264116  0.202619  1
  Se  Se4  1  0.427284  0.775248  0.198065  1
  Se  Se5  1  0.572716  0.224752  0.801935  1
  Se  Se6  1  0.147354  0.750080  0.965297  1
  Se  Se7  1  0.852646  0.249920  0.034703  1
  Se  Se8  1  0.886275  0.760018  0.414481  1
  Se  Se9  1  0.113725  0.239982  0.585519  1
  O  O10  1  0.650549  0.791391  0.049823  1
  O  O11  1  0.349451  0.208609  0.950177  1
  O  O12  1  0.360153  0.944627  0.304886  1
  O  O13  1  0.639847  0.055373  0.695114  1
  O  O14  1  0.517600  0.593922  0.352259  1
  O  O15  1  0.482400  0.406078  0.647741  1
  O  O16  1  0.167024  0.565284  0.120950  1
  O  O17  1  0.832976  0.434716  0.879050  1
  O  O18  1  0.408986  0.710803  0.848554  1
  O  O19  1  0.591014  0.289197  0.151446  1
  O  O20  1  0.344931  0.253170  0.435307  1
  O  O21  1  0.655069  0.746830  0.564693  1
  O  O22  1  0.966759  0.293273  0.444550  1
  O  O23  1  0.033241  0.706727  0.555450  1
  O  O24  1  0.159875  0.011107  0.653668  1
  O  O25  1  0.840125  0.988893  0.346332  1
  O  O26  1  0.932894  0.306085  0.168924  1
  O  O27  1  0.067106  0.693915  0.831076  1
