# generated using pymatgen
data_Li2Fe(PO4)2
_symmetry_space_group_name_H-M   'P 1'
_cell_length_a   8.41278259
_cell_length_b   10.35988278
_cell_length_c   8.55587917
_cell_angle_alpha   90.00000000
_cell_angle_beta   105.73246897
_cell_angle_gamma   90.00000000
_symmetry_Int_Tables_number   1
_chemical_formula_structural   Li2Fe(PO4)2
_chemical_formula_sum   'Li8 Fe4 P8 O32'
_cell_volume   717.75651706
_cell_formula_units_Z   4
loop_
 _symmetry_equiv_pos_site_id
 _symmetry_equiv_pos_as_xyz
  1  'x, y, z'
loop_
 _atom_site_type_symbol
 _atom_site_label
 _atom_site_symmetry_multiplicity
 _atom_site_fract_x
 _atom_site_fract_y
 _atom_site_fract_z
 _atom_site_occupancy
  Li  Li0  1  0.411888  0.168161  0.395476  1
  Li  Li1  1  0.161824  0.146802  0.633259  1
  Li  Li2  1  0.838176  0.853198  0.366741  1
  Li  Li3  1  0.911888  0.331839  0.395476  1
  Li  Li4  1  0.088112  0.668161  0.604524  1
  Li  Li5  1  0.661824  0.353198  0.633259  1
  Li  Li6  1  0.588112  0.831839  0.604524  1
  Li  Li7  1  0.338176  0.646802  0.366741  1
  Fe  Fe8  1  0.412346  0.335871  0.904567  1
  Fe  Fe9  1  0.587654  0.664129  0.095433  1
  Fe  Fe10  1  0.087654  0.835871  0.095433  1
  Fe  Fe11  1  0.912346  0.164129  0.904567  1
  P  P12  1  0.958637  0.597927  0.237636  1
  P  P13  1  0.965225  0.915458  0.721439  1
  P  P14  1  0.458637  0.902073  0.237636  1
  P  P15  1  0.465225  0.584542  0.721439  1
  P  P16  1  0.534775  0.415458  0.278561  1
  P  P17  1  0.541363  0.097927  0.762364  1
  P  P18  1  0.034775  0.084542  0.278561  1
  P  P19  1  0.041363  0.402073  0.762364  1
  O  O20  1  0.896539  0.145748  0.339490  1
  O  O21  1  0.893317  0.334088  0.813104  1
  O  O22  1  0.068541  0.327507  0.616745  1
  O  O23  1  0.393317  0.165912  0.813104  1
  O  O24  1  0.498141  0.043912  0.271993  1
  O  O25  1  0.603461  0.645748  0.660510  1
  O  O26  1  0.305082  0.603566  0.585849  1
  O  O27  1  0.198664  0.384183  0.910636  1
  O  O28  1  0.698664  0.115817  0.910636  1
  O  O29  1  0.998141  0.456088  0.271993  1
  O  O30  1  0.805082  0.896434  0.585849  1
  O  O31  1  0.502535  0.435954  0.757111  1
  O  O32  1  0.801336  0.615817  0.089364  1
  O  O33  1  0.301336  0.884183  0.089364  1
  O  O34  1  0.050795  0.143845  0.115615  1
  O  O35  1  0.001859  0.543912  0.728007  1
  O  O36  1  0.002535  0.064046  0.757111  1
  O  O37  1  0.396539  0.354252  0.339490  1
  O  O38  1  0.550795  0.356155  0.115615  1
  O  O39  1  0.949205  0.856155  0.884385  1
  O  O40  1  0.997465  0.935954  0.242889  1
  O  O41  1  0.606683  0.834088  0.186896  1
  O  O42  1  0.106683  0.665912  0.186896  1
  O  O43  1  0.694918  0.396434  0.414151  1
  O  O44  1  0.931459  0.672493  0.383255  1
  O  O45  1  0.194918  0.103566  0.414151  1
  O  O46  1  0.449205  0.643845  0.884385  1
  O  O47  1  0.501859  0.956088  0.728007  1
  O  O48  1  0.103461  0.854252  0.660510  1
  O  O49  1  0.497465  0.564046  0.242889  1
  O  O50  1  0.568541  0.172493  0.616745  1
  O  O51  1  0.431459  0.827507  0.383255  1
