# generated using pymatgen
data_Ba9Nb10O30
_symmetry_space_group_name_H-M   'P 1'
_cell_length_a   9.22851228
_cell_length_b   9.25816290
_cell_length_c   9.25916966
_cell_angle_alpha   113.63980948
_cell_angle_beta   89.76221971
_cell_angle_gamma   101.62584634
_symmetry_Int_Tables_number   1
_chemical_formula_structural   Ba9Nb10O30
_chemical_formula_sum   'Ba9 Nb10 O30'
_cell_volume   707.24665532
_cell_formula_units_Z   1
loop_
 _symmetry_equiv_pos_site_id
 _symmetry_equiv_pos_as_xyz
  1  'x, y, z'
loop_
 _atom_site_type_symbol
 _atom_site_label
 _atom_site_symmetry_multiplicity
 _atom_site_fract_x
 _atom_site_fract_y
 _atom_site_fract_z
 _atom_site_occupancy
  Ba  Ba0  1  0.197836  0.999750  0.396636  1
  Ba  Ba1  1  0.396458  0.999997  0.802082  1
  Ba  Ba2  1  0.603542  0.000003  0.197918  1
  Ba  Ba3  1  0.098604  0.496399  0.198703  1
  Ba  Ba4  1  0.802164  0.000250  0.603364  1
  Ba  Ba5  1  0.299685  0.500037  0.601066  1
  Ba  Ba6  1  0.500000  0.500000  0.000000  1
  Ba  Ba7  1  0.700315  0.499963  0.398934  1
  Ba  Ba8  1  0.901396  0.503601  0.801297  1
  Nb  Nb9  1  0.048973  0.753412  0.604986  1
  Nb  Nb10  1  0.246893  0.752905  0.999582  1
  Nb  Nb11  1  0.147538  0.247064  0.802716  1
  Nb  Nb12  1  0.345180  0.245472  0.196159  1
  Nb  Nb13  1  0.449683  0.749565  0.399809  1
  Nb  Nb14  1  0.654820  0.754528  0.803841  1
  Nb  Nb15  1  0.550317  0.250435  0.600191  1
  Nb  Nb16  1  0.852462  0.752936  0.197284  1
  Nb  Nb17  1  0.753107  0.247095  0.000418  1
  Nb  Nb18  1  0.951027  0.246588  0.395014  1
  O  O19  1  0.101062  0.999880  0.695916  1
  O  O20  1  0.152087  0.252862  0.303343  1
  O  O21  1  0.151939  0.746907  0.796926  1
  O  O22  1  0.049920  0.249500  0.599570  1
  O  O23  1  0.303826  0.999842  0.100846  1
  O  O24  1  0.199269  0.499842  0.900029  1
  O  O25  1  0.350193  0.249760  0.700163  1
  O  O26  1  0.050796  0.747187  0.101029  1
  O  O27  1  0.350129  0.750330  0.200269  1
  O  O28  1  0.253314  0.252935  0.999573  1
  O  O29  1  0.399532  0.499936  0.299673  1
  O  O30  1  0.500000  0.000000  0.500000  1
  O  O31  1  0.549769  0.249074  0.099730  1
  O  O32  1  0.250352  0.750224  0.500424  1
  O  O33  1  0.550136  0.750441  0.600040  1
  O  O34  1  0.449864  0.249559  0.399960  1
  O  O35  1  0.696174  0.000158  0.899154  1
  O  O36  1  0.600468  0.500064  0.700327  1
  O  O37  1  0.749648  0.249776  0.499576  1
  O  O38  1  0.450231  0.750926  0.900270  1
  O  O39  1  0.746686  0.747065  0.000427  1
  O  O40  1  0.649871  0.249670  0.799731  1
  O  O41  1  0.898938  0.000120  0.304084  1
  O  O42  1  0.800731  0.500158  0.099971  1
  O  O43  1  0.949204  0.252813  0.898971  1
  O  O44  1  0.649807  0.750240  0.299837  1
  O  O45  1  0.950080  0.750500  0.400430  1
  O  O46  1  0.848061  0.253093  0.203074  1
  O  O47  1  0.000000  0.500000  0.500000  1
  O  O48  1  0.847913  0.747138  0.696657  1
