# generated using pymatgen
data_Lu2Zn17
_symmetry_space_group_name_H-M   'P 1'
_cell_length_a   6.76914459
_cell_length_b   6.76914459
_cell_length_c   6.76914459
_cell_angle_alpha   82.41173260
_cell_angle_beta   82.41173260
_cell_angle_gamma   82.41173260
_symmetry_Int_Tables_number   1
_chemical_formula_structural   Lu2Zn17
_chemical_formula_sum   'Lu2 Zn17'
_cell_volume   302.68176693
_cell_formula_units_Z   1
loop_
 _symmetry_equiv_pos_site_id
 _symmetry_equiv_pos_as_xyz
  1  'x, y, z'
loop_
 _atom_site_type_symbol
 _atom_site_label
 _atom_site_symmetry_multiplicity
 _atom_site_fract_x
 _atom_site_fract_y
 _atom_site_fract_z
 _atom_site_occupancy
  Lu  Lu0  1  0.334869  0.334869  0.334869  1
  Lu  Lu1  1  0.665131  0.665131  0.665131  1
  Zn  Zn2  1  0.162094  0.647026  0.647026  1
  Zn  Zn3  1  0.647026  0.647026  0.162094  1
  Zn  Zn4  1  0.899108  0.899108  0.899108  1
  Zn  Zn5  1  0.100892  0.100892  0.100892  1
  Zn  Zn6  1  0.500000  1.000000  0.000000  1
  Zn  Zn7  1  0.000000  0.500000  0.000000  1
  Zn  Zn8  1  0.000000  0.000000  0.500000  1
  Zn  Zn9  1  0.000000  0.299555  0.700445  1
  Zn  Zn10  1  0.700445  1.000000  0.299555  1
  Zn  Zn11  1  0.299555  0.700445  0.000000  1
  Zn  Zn12  1  0.000000  0.700445  0.299555  1
  Zn  Zn13  1  0.299555  0.000000  0.700445  1
  Zn  Zn14  1  0.700445  0.299555  0.000000  1
  Zn  Zn15  1  0.352974  0.352974  0.837906  1
  Zn  Zn16  1  0.837906  0.352974  0.352974  1
  Zn  Zn17  1  0.352974  0.837906  0.352974  1
  Zn  Zn18  1  0.647026  0.162094  0.647026  1
