# generated using pymatgen
data_LiHS
_symmetry_space_group_name_H-M   'P 1'
_cell_length_a   7.88985750
_cell_length_b   7.88985750
_cell_length_c   6.18884524
_cell_angle_alpha   90.00000000
_cell_angle_beta   90.00000000
_cell_angle_gamma   90.00000000
_symmetry_Int_Tables_number   1
_chemical_formula_structural   LiHS
_chemical_formula_sum   'Li8 H8 S8'
_cell_volume   385.25469634
_cell_formula_units_Z   8
loop_
 _symmetry_equiv_pos_site_id
 _symmetry_equiv_pos_as_xyz
  1  'x, y, z'
loop_
 _atom_site_type_symbol
 _atom_site_label
 _atom_site_symmetry_multiplicity
 _atom_site_fract_x
 _atom_site_fract_y
 _atom_site_fract_z
 _atom_site_occupancy
  Li  Li0  1  0.000000  0.500000  0.750000  1
  Li  Li1  1  0.500000  0.000000  0.750000  1
  Li  Li2  1  0.000000  0.500000  0.250000  1
  Li  Li3  1  0.000000  0.000000  0.250000  1
  Li  Li4  1  0.500000  0.500000  0.250000  1
  Li  Li5  1  0.500000  0.500000  0.750000  1
  Li  Li6  1  0.500000  0.000000  0.250000  1
  Li  Li7  1  0.000000  0.000000  0.750000  1
  H  H8  1  0.251136  0.813240  0.000000  1
  H  H9  1  0.748864  0.186760  0.000000  1
  H  H10  1  0.186760  0.251136  0.500000  1
  H  H11  1  0.751136  0.686760  0.000000  1
  H  H12  1  0.686760  0.248864  0.500000  1
  H  H13  1  0.313240  0.751136  0.500000  1
  H  H14  1  0.248864  0.313240  0.000000  1
  H  H15  1  0.813240  0.748864  0.500000  1
  S  S16  1  0.249830  0.984529  0.000000  1
  S  S17  1  0.750170  0.015471  0.000000  1
  S  S18  1  0.015471  0.249830  0.500000  1
  S  S19  1  0.984529  0.750170  0.500000  1
  S  S20  1  0.484529  0.749830  0.500000  1
  S  S21  1  0.749830  0.515471  0.000000  1
  S  S22  1  0.250170  0.484529  0.000000  1
  S  S23  1  0.515471  0.250170  0.500000  1
