# generated using pymatgen
data_Sr3Ag2
_symmetry_space_group_name_H-M   'P 1'
_cell_length_a   8.51885000
_cell_length_b   8.51885000
_cell_length_c   8.51885000
_cell_angle_alpha   72.04469063
_cell_angle_beta   72.04469063
_cell_angle_gamma   72.04469063
_symmetry_Int_Tables_number   1
_chemical_formula_structural   Sr3Ag2
_chemical_formula_sum   'Sr9 Ag6'
_cell_volume   543.71451735
_cell_formula_units_Z   3
loop_
 _symmetry_equiv_pos_site_id
 _symmetry_equiv_pos_as_xyz
  1  'x, y, z'
loop_
 _atom_site_type_symbol
 _atom_site_label
 _atom_site_symmetry_multiplicity
 _atom_site_fract_x
 _atom_site_fract_y
 _atom_site_fract_z
 _atom_site_occupancy
  Sr  Sr0  1  0.336102  0.837290  0.108648  1
  Sr  Sr1  1  0.837290  0.108649  0.336102  1
  Sr  Sr2  1  0.108649  0.336102  0.837290  1
  Sr  Sr3  1  0.663898  0.162710  0.891352  1
  Sr  Sr4  1  0.162710  0.891352  0.663898  1
  Sr  Sr5  1  0.891352  0.663898  0.162710  1
  Sr  Sr6  1  0.500000  0.500000  0.500000  1
  Sr  Sr7  1  0.705580  0.705580  0.705580  1
  Sr  Sr8  1  0.294420  0.294420  0.294420  1
  Ag  Ag9  1  0.642274  0.458742  0.088910  1
  Ag  Ag10  1  0.458742  0.088910  0.642274  1
  Ag  Ag11  1  0.088910  0.642274  0.458742  1
  Ag  Ag12  1  0.357726  0.541258  0.911090  1
  Ag  Ag13  1  0.541258  0.911090  0.357726  1
  Ag  Ag14  1  0.911090  0.357726  0.541258  1
