# generated using pymatgen
data_LaCuO3
_symmetry_space_group_name_H-M   'P 1'
_cell_length_a   5.44777046
_cell_length_b   5.44777046
_cell_length_c   5.44777046
_cell_angle_alpha   61.42310471
_cell_angle_beta   61.42310471
_cell_angle_gamma   61.42310471
_symmetry_Int_Tables_number   1
_chemical_formula_structural   LaCuO3
_chemical_formula_sum   'La2 Cu2 O6'
_cell_volume   117.97913408
_cell_formula_units_Z   2
loop_
 _symmetry_equiv_pos_site_id
 _symmetry_equiv_pos_as_xyz
  1  'x, y, z'
loop_
 _atom_site_type_symbol
 _atom_site_label
 _atom_site_symmetry_multiplicity
 _atom_site_fract_x
 _atom_site_fract_y
 _atom_site_fract_z
 _atom_site_occupancy
  La  La0  1  0.250000  0.250000  0.250000  1
  La  La1  1  0.750000  0.750000  0.750000  1
  Cu  Cu2  1  0.500000  0.500000  0.500000  1
  Cu  Cu3  1  0.000000  0.000000  1.000000  1
  O  O4  1  0.689069  0.810931  0.250000  1
  O  O5  1  0.810931  0.250000  0.689069  1
  O  O6  1  0.250000  0.689069  0.810931  1
  O  O7  1  0.310931  0.189069  0.750000  1
  O  O8  1  0.750000  0.310931  0.189069  1
  O  O9  1  0.189069  0.750000  0.310931  1
