# generated using pymatgen
data_U12Rh4Se31
_symmetry_space_group_name_H-M   'P 1'
_cell_length_a   11.86009217
_cell_length_b   11.86009217
_cell_length_c   11.86009217
_cell_angle_alpha   109.52942109
_cell_angle_beta   109.52942109
_cell_angle_gamma   109.35488233
_symmetry_Int_Tables_number   1
_chemical_formula_structural   U12Rh4Se31
_chemical_formula_sum   'U12 Rh4 Se31'
_cell_volume   1284.22452521
_cell_formula_units_Z   1
loop_
 _symmetry_equiv_pos_site_id
 _symmetry_equiv_pos_as_xyz
  1  'x, y, z'
loop_
 _atom_site_type_symbol
 _atom_site_label
 _atom_site_symmetry_multiplicity
 _atom_site_fract_x
 _atom_site_fract_y
 _atom_site_fract_z
 _atom_site_occupancy
  U  U0  1  0.999141  0.294838  0.704304  1
  U  U1  1  0.409466  0.705162  0.704304  1
  U  U2  1  0.300499  0.300499  0.600998  1
  U  U3  1  0.294838  0.590534  0.295696  1
  U  U4  1  0.294838  0.999141  0.704304  1
  U  U5  1  0.300499  0.699501  0.000000  1
  U  U6  1  0.705162  0.409466  0.704304  1
  U  U7  1  0.699501  0.699501  0.399002  1
  U  U8  1  0.590534  0.294838  0.295696  1
  U  U9  1  0.705162  0.000859  0.295696  1
  U  U10  1  0.699501  0.300499  0.000000  1
  U  U11  1  0.000859  0.705162  0.295696  1
  Rh  Rh12  1  1.000000  1.000000  0.500000  1
  Rh  Rh13  1  0.000000  0.500000  0.000000  1
  Rh  Rh14  1  0.500000  0.500000  0.500000  1
  Rh  Rh15  1  0.500000  0.000000  0.000000  1
  Se  Se16  1  0.000482  0.562634  0.817830  1
  Se  Se17  1  0.999518  0.817348  0.562152  1
  Se  Se18  1  0.255195  0.817348  0.817830  1
  Se  Se19  1  0.000482  0.182652  0.437848  1
  Se  Se20  1  0.236958  0.500000  0.736958  1
  Se  Se21  1  0.250000  0.750000  0.500000  1
  Se  Se22  1  0.188505  0.188505  0.748361  1
  Se  Se23  1  0.182652  0.744805  0.182170  1
  Se  Se24  1  0.255195  0.437366  0.437848  1
  Se  Se25  1  0.182652  0.000482  0.437848  1
  Se  Se26  1  0.188505  0.440144  0.000000  1
  Se  Se27  1  0.437366  0.999518  0.182170  1
  Se  Se28  1  0.559856  0.559856  0.748361  1
  Se  Se29  1  0.562634  0.744805  0.562152  1
  Se  Se30  1  0.500000  0.236958  0.736958  1
  Se  Se31  1  0.500000  0.763042  0.263042  1
  Se  Se32  1  0.437366  0.255195  0.437848  1
  Se  Se33  1  0.440144  0.440144  0.251639  1
  Se  Se34  1  0.562634  0.000482  0.817830  1
  Se  Se35  1  0.559856  0.811495  0.000000  1
  Se  Se36  1  0.500000  0.500000  0.000000  1
  Se  Se37  1  0.744805  0.562634  0.562152  1
  Se  Se38  1  0.440144  0.188505  1.000000  1
  Se  Se39  1  0.817348  0.255195  0.817830  1
  Se  Se40  1  0.811495  0.811495  0.251639  1
  Se  Se41  1  0.750000  0.250000  0.500000  1
  Se  Se42  1  0.763042  0.500000  0.263042  1
  Se  Se43  1  0.744805  0.182652  0.182170  1
  Se  Se44  1  0.817348  0.999518  0.562152  1
  Se  Se45  1  0.811495  0.559856  1.000000  1
  Se  Se46  1  0.999518  0.437366  0.182170  1
