# generated using pymatgen
data_TlBiS2
_symmetry_space_group_name_H-M   'P 1'
_cell_length_a   7.45179759
_cell_length_b   7.45179759
_cell_length_c   7.45179759
_cell_angle_alpha   132.87942226
_cell_angle_beta   132.87942226
_cell_angle_gamma   68.84357147
_symmetry_Int_Tables_number   1
_chemical_formula_structural   TlBiS2
_chemical_formula_sum   'Tl2 Bi2 S4'
_cell_volume   218.14337823
_cell_formula_units_Z   2
loop_
 _symmetry_equiv_pos_site_id
 _symmetry_equiv_pos_as_xyz
  1  'x, y, z'
loop_
 _atom_site_type_symbol
 _atom_site_label
 _atom_site_symmetry_multiplicity
 _atom_site_fract_x
 _atom_site_fract_y
 _atom_site_fract_z
 _atom_site_occupancy
  Tl  Tl0  1  0.000000  0.000000  0.000000  1
  Tl  Tl1  1  0.750000  0.250000  0.500000  1
  Bi  Bi2  1  0.250000  0.750000  0.500000  1
  Bi  Bi3  1  0.500000  0.500000  0.000000  1
  S  S4  1  0.727773  0.727773  0.000000  1
  S  S5  1  0.272227  0.272227  0.000000  1
  S  S6  1  0.022227  0.522227  0.500000  1
  S  S7  1  0.477773  0.977773  0.500000  1
