# generated using pymatgen
data_LiCaTa2O6F
_symmetry_space_group_name_H-M   'P 1'
_cell_length_a   7.39456823
_cell_length_b   7.39456823
_cell_length_c   7.39456823
_cell_angle_alpha   120.37095286
_cell_angle_beta   119.43480598
_cell_angle_gamma   90.17020658
_symmetry_Int_Tables_number   1
_chemical_formula_structural   LiCaTa2O6F
_chemical_formula_sum   'Li2 Ca2 Ta4 O12 F2'
_cell_volume   286.30066320
_cell_formula_units_Z   2
loop_
 _symmetry_equiv_pos_site_id
 _symmetry_equiv_pos_as_xyz
  1  'x, y, z'
loop_
 _atom_site_type_symbol
 _atom_site_label
 _atom_site_symmetry_multiplicity
 _atom_site_fract_x
 _atom_site_fract_y
 _atom_site_fract_z
 _atom_site_occupancy
  Li  Li0  1  0.000000  0.000000  0.000000  1
  Li  Li1  1  1.000000  0.500000  0.500000  1
  Ca  Ca2  1  0.000000  0.500000  0.000000  1
  Ca  Ca3  1  0.500000  0.500000  0.500000  1
  Ta  Ta4  1  1.000000  0.000000  0.500000  1
  Ta  Ta5  1  0.500000  0.000000  0.500000  1
  Ta  Ta6  1  0.500000  0.500000  0.000000  1
  Ta  Ta7  1  0.500000  0.000000  0.000000  1
  O  O8  1  0.817993  0.678869  0.244155  1
  O  O9  1  0.814944  0.064944  0.250000  1
  O  O10  1  0.817993  0.073839  0.639124  1
  O  O11  1  0.434715  0.678869  0.860876  1
  O  O12  1  0.565285  0.926161  0.744155  1
  O  O13  1  0.573837  0.323837  0.750000  1
  O  O14  1  0.434715  0.073839  0.255845  1
  O  O15  1  0.426163  0.676163  0.250000  1
  O  O16  1  0.565285  0.321131  0.139124  1
  O  O17  1  0.182007  0.926161  0.360876  1
  O  O18  1  0.182007  0.321131  0.755845  1
  O  O19  1  0.185056  0.935056  0.750000  1
  F  F20  1  0.119607  0.369607  0.250000  1
  F  F21  1  0.880393  0.630393  0.750000  1
