# generated using pymatgen
data_Mn2TcO4
_symmetry_space_group_name_H-M   'P 1'
_cell_length_a   6.28379166
_cell_length_b   6.28379166
_cell_length_c   6.28379166
_cell_angle_alpha   120.78122803
_cell_angle_beta   120.26728663
_cell_angle_gamma   89.09491852
_symmetry_Int_Tables_number   1
_chemical_formula_structural   Mn2TcO4
_chemical_formula_sum   'Mn4 Tc2 O8'
_cell_volume   174.03048369
_cell_formula_units_Z   2
loop_
 _symmetry_equiv_pos_site_id
 _symmetry_equiv_pos_as_xyz
  1  'x, y, z'
loop_
 _atom_site_type_symbol
 _atom_site_label
 _atom_site_symmetry_multiplicity
 _atom_site_fract_x
 _atom_site_fract_y
 _atom_site_fract_z
 _atom_site_occupancy
  Mn  Mn0  1  0.888646  0.138646  0.750000  1
  Mn  Mn1  1  0.111354  0.861354  0.250000  1
  Mn  Mn2  1  0.500000  0.500000  0.500000  1
  Mn  Mn3  1  0.500000  0.000000  1.000000  1
  Tc  Tc4  1  0.500000  0.500000  0.000000  1
  Tc  Tc5  1  0.000000  0.500000  0.500000  1
  O  O6  1  0.245929  0.275631  0.529702  1
  O  O7  1  0.245929  0.716226  0.970298  1
  O  O8  1  0.711314  0.726987  0.984327  1
  O  O9  1  0.242660  0.726987  0.515673  1
  O  O10  1  0.757340  0.273013  0.484327  1
  O  O11  1  0.288686  0.273013  0.015673  1
  O  O12  1  0.754071  0.283774  0.029702  1
  O  O13  1  0.754071  0.724369  0.470298  1
