# generated using pymatgen
data_SrTm2O4
_symmetry_space_group_name_H-M   'P 1'
_cell_length_a   3.37303017
_cell_length_b   10.07191440
_cell_length_c   11.85069724
_cell_angle_alpha   90.00000000
_cell_angle_beta   90.00000000
_cell_angle_gamma   90.00000000
_symmetry_Int_Tables_number   1
_chemical_formula_structural   SrTm2O4
_chemical_formula_sum   'Sr4 Tm8 O16'
_cell_volume   402.60221026
_cell_formula_units_Z   4
loop_
 _symmetry_equiv_pos_site_id
 _symmetry_equiv_pos_as_xyz
  1  'x, y, z'
loop_
 _atom_site_type_symbol
 _atom_site_label
 _atom_site_symmetry_multiplicity
 _atom_site_fract_x
 _atom_site_fract_y
 _atom_site_fract_z
 _atom_site_occupancy
  Sr  Sr0  1  0.750000  0.753813  0.649688  1
  Sr  Sr1  1  0.250000  0.246187  0.350312  1
  Sr  Sr2  1  0.750000  0.253813  0.850312  1
  Sr  Sr3  1  0.250000  0.746187  0.149688  1
  Tm  Tm4  1  0.250000  0.078212  0.609382  1
  Tm  Tm5  1  0.750000  0.921788  0.390618  1
  Tm  Tm6  1  0.250000  0.578212  0.890618  1
  Tm  Tm7  1  0.750000  0.421788  0.109382  1
  Tm  Tm8  1  0.750000  0.426023  0.612228  1
  Tm  Tm9  1  0.250000  0.573977  0.387772  1
  Tm  Tm10  1  0.750000  0.926023  0.887772  1
  Tm  Tm11  1  0.250000  0.073977  0.112228  1
  O  O12  1  0.250000  0.075053  0.923830  1
  O  O13  1  0.750000  0.924947  0.076170  1
  O  O14  1  0.250000  0.575053  0.576170  1
  O  O15  1  0.750000  0.424947  0.423830  1
  O  O16  1  0.250000  0.982407  0.283591  1
  O  O17  1  0.750000  0.017593  0.716409  1
  O  O18  1  0.250000  0.482407  0.216409  1
  O  O19  1  0.750000  0.517593  0.783591  1
  O  O20  1  0.250000  0.377854  0.979480  1
  O  O21  1  0.750000  0.622146  0.020520  1
  O  O22  1  0.250000  0.877854  0.520520  1
  O  O23  1  0.750000  0.122146  0.479480  1
  O  O24  1  0.750000  0.209838  0.169895  1
  O  O25  1  0.250000  0.790162  0.830105  1
  O  O26  1  0.750000  0.709838  0.330105  1
  O  O27  1  0.250000  0.290162  0.669895  1
