# generated using pymatgen
data_Mg9Sn5
_symmetry_space_group_name_H-M   'P 1'
_cell_length_a   8.88328019
_cell_length_b   8.88328019
_cell_length_c   8.88328019
_cell_angle_alpha   96.92612578
_cell_angle_beta   96.92612578
_cell_angle_gamma   96.92612578
_symmetry_Int_Tables_number   1
_chemical_formula_structural   Mg9Sn5
_chemical_formula_sum   'Mg18 Sn10'
_cell_volume   684.28386456
_cell_formula_units_Z   2
loop_
 _symmetry_equiv_pos_site_id
 _symmetry_equiv_pos_as_xyz
  1  'x, y, z'
loop_
 _atom_site_type_symbol
 _atom_site_label
 _atom_site_symmetry_multiplicity
 _atom_site_fract_x
 _atom_site_fract_y
 _atom_site_fract_z
 _atom_site_occupancy
  Mg  Mg0  1  0.255721  0.342445  0.651774  1
  Mg  Mg1  1  0.651774  0.255721  0.342445  1
  Mg  Mg2  1  0.342445  0.651774  0.255721  1
  Mg  Mg3  1  0.744340  0.653028  0.336479  1
  Mg  Mg4  1  0.336479  0.744340  0.653028  1
  Mg  Mg5  1  0.653028  0.336479  0.744340  1
  Mg  Mg6  1  0.395189  0.321279  0.020396  1
  Mg  Mg7  1  0.020396  0.395189  0.321279  1
  Mg  Mg8  1  0.321279  0.020396  0.395189  1
  Mg  Mg9  1  0.595430  0.665825  0.970521  1
  Mg  Mg10  1  0.917540  0.004185  0.324921  1
  Mg  Mg11  1  0.004185  0.324921  0.917540  1
  Mg  Mg12  1  0.324921  0.917540  0.004185  1
  Mg  Mg13  1  0.072863  0.993954  0.680483  1
  Mg  Mg14  1  0.993954  0.680483  0.072863  1
  Mg  Mg15  1  0.680483  0.072863  0.993954  1
  Mg  Mg16  1  0.665825  0.970521  0.595430  1
  Mg  Mg17  1  0.970521  0.595430  0.665825  1
  Sn  Sn18  1  0.850358  0.850358  0.850358  1
  Sn  Sn19  1  0.113159  0.113159  0.113159  1
  Sn  Sn20  1  0.613121  0.613121  0.613121  1
  Sn  Sn21  1  0.352491  0.352491  0.352491  1
  Sn  Sn22  1  0.409529  0.082071  0.748290  1
  Sn  Sn23  1  0.748290  0.409529  0.082071  1
  Sn  Sn24  1  0.082071  0.748290  0.409529  1
  Sn  Sn25  1  0.583891  0.910697  0.249018  1
  Sn  Sn26  1  0.249018  0.583891  0.910697  1
  Sn  Sn27  1  0.910697  0.249018  0.583891  1
