# generated using pymatgen
data_Mn2CrO4
_symmetry_space_group_name_H-M   'P 1'
_cell_length_a   6.00611612
_cell_length_b   6.00611612
_cell_length_c   6.09143232
_cell_angle_alpha   61.54389276
_cell_angle_beta   118.45610724
_cell_angle_gamma   89.29152944
_symmetry_Int_Tables_number   1
_chemical_formula_structural   Mn2CrO4
_chemical_formula_sum   'Mn4 Cr2 O8'
_cell_volume   161.49773308
_cell_formula_units_Z   2
loop_
 _symmetry_equiv_pos_site_id
 _symmetry_equiv_pos_as_xyz
  1  'x, y, z'
loop_
 _atom_site_type_symbol
 _atom_site_label
 _atom_site_symmetry_multiplicity
 _atom_site_fract_x
 _atom_site_fract_y
 _atom_site_fract_z
 _atom_site_occupancy
  Mn  Mn0  1  0.500000  1.000000  0.500000  1
  Mn  Mn1  1  0.000000  0.500000  0.000000  1
  Mn  Mn2  1  0.879837  0.879837  0.250000  1
  Mn  Mn3  1  0.120163  0.120163  0.750000  1
  Cr  Cr4  1  0.500000  0.500000  0.500000  1
  Cr  Cr5  1  0.500000  0.500000  0.000000  1
  O  O6  1  0.281328  0.245941  0.497279  1
  O  O7  1  0.245941  0.281328  0.002721  1
  O  O8  1  0.718672  0.754059  0.502721  1
  O  O9  1  0.754059  0.718672  0.997279  1
  O  O10  1  0.706248  0.262675  0.458796  1
  O  O11  1  0.737325  0.293752  0.958796  1
  O  O12  1  0.293752  0.737325  0.541204  1
  O  O13  1  0.262675  0.706248  0.041204  1
