# generated using pymatgen
data_SrCO3
_symmetry_space_group_name_H-M   'P 1'
_cell_length_a   5.16318577
_cell_length_b   6.13691090
_cell_length_c   8.51126874
_cell_angle_alpha   90.00000000
_cell_angle_beta   90.00000000
_cell_angle_gamma   90.00000000
_symmetry_Int_Tables_number   1
_chemical_formula_structural   SrCO3
_chemical_formula_sum   'Sr4 C4 O12'
_cell_volume   269.68815518
_cell_formula_units_Z   4
loop_
 _symmetry_equiv_pos_site_id
 _symmetry_equiv_pos_as_xyz
  1  'x, y, z'
loop_
 _atom_site_type_symbol
 _atom_site_label
 _atom_site_symmetry_multiplicity
 _atom_site_fract_x
 _atom_site_fract_y
 _atom_site_fract_z
 _atom_site_occupancy
  Sr  Sr0  1  0.250000  0.756126  0.083866  1
  Sr  Sr1  1  0.750000  0.243874  0.916134  1
  Sr  Sr2  1  0.250000  0.256126  0.416134  1
  Sr  Sr3  1  0.750000  0.743874  0.583866  1
  C  C4  1  0.250000  0.917183  0.741781  1
  C  C5  1  0.750000  0.082817  0.258219  1
  C  C6  1  0.250000  0.417183  0.758219  1
  C  C7  1  0.750000  0.582817  0.241781  1
  O  O8  1  0.468045  0.415984  0.681434  1
  O  O9  1  0.968045  0.584016  0.318566  1
  O  O10  1  0.031955  0.915984  0.818566  1
  O  O11  1  0.531955  0.084016  0.181434  1
  O  O12  1  0.750000  0.591444  0.089373  1
  O  O13  1  0.250000  0.408556  0.910627  1
  O  O14  1  0.750000  0.091444  0.410627  1
  O  O15  1  0.250000  0.908556  0.589373  1
  O  O16  1  0.531955  0.584016  0.318566  1
  O  O17  1  0.031955  0.415984  0.681434  1
  O  O18  1  0.968045  0.084016  0.181434  1
  O  O19  1  0.468045  0.915984  0.818566  1
