# generated using pymatgen
data_Ga5Pd
_symmetry_space_group_name_H-M   'P 1'
_cell_length_a   6.84330770
_cell_length_b   6.84330770
_cell_length_c   6.84330770
_cell_angle_alpha   123.09527578
_cell_angle_beta   123.09527578
_cell_angle_gamma   84.71753932
_symmetry_Int_Tables_number   1
_chemical_formula_structural   Ga5Pd
_chemical_formula_sum   'Ga10 Pd2'
_cell_volume   215.01165049
_cell_formula_units_Z   2
loop_
 _symmetry_equiv_pos_site_id
 _symmetry_equiv_pos_as_xyz
  1  'x, y, z'
loop_
 _atom_site_type_symbol
 _atom_site_label
 _atom_site_symmetry_multiplicity
 _atom_site_fract_x
 _atom_site_fract_y
 _atom_site_fract_z
 _atom_site_occupancy
  Ga  Ga0  1  0.000000  0.000000  0.000000  1
  Ga  Ga1  1  0.500000  0.500000  0.000000  1
  Ga  Ga2  1  0.785269  0.285269  0.791656  1
  Ga  Ga3  1  0.285269  0.493613  0.500000  1
  Ga  Ga4  1  0.993613  0.785269  0.500000  1
  Ga  Ga5  1  0.714731  0.506387  0.500000  1
  Ga  Ga6  1  0.006387  0.214731  0.500000  1
  Ga  Ga7  1  0.506387  0.006387  0.791656  1
  Ga  Ga8  1  0.214731  0.714731  0.208344  1
  Ga  Ga9  1  0.493613  0.993613  0.208344  1
  Pd  Pd10  1  0.250000  0.250000  0.000000  1
  Pd  Pd11  1  0.750000  0.750000  0.000000  1
