# generated using pymatgen
data_Ba(LaS2)2
_symmetry_space_group_name_H-M   'P 1'
_cell_length_a   7.76535079
_cell_length_b   7.76535079
_cell_length_c   7.76535079
_cell_angle_alpha   109.28662919
_cell_angle_beta   109.28662919
_cell_angle_gamma   109.84103767
_symmetry_Int_Tables_number   1
_chemical_formula_structural   Ba(LaS2)2
_chemical_formula_sum   'Ba2 La4 S8'
_cell_volume   360.45227146
_cell_formula_units_Z   2
loop_
 _symmetry_equiv_pos_site_id
 _symmetry_equiv_pos_as_xyz
  1  'x, y, z'
loop_
 _atom_site_type_symbol
 _atom_site_label
 _atom_site_symmetry_multiplicity
 _atom_site_fract_x
 _atom_site_fract_y
 _atom_site_fract_z
 _atom_site_occupancy
  Ba  Ba0  1  0.750000  0.250000  0.500000  1
  Ba  Ba1  1  0.500000  0.500000  0.000000  1
  La  La2  1  0.125000  0.749221  0.124221  1
  La  La3  1  0.999221  0.875000  0.624221  1
  La  La4  1  0.625000  0.000779  0.875779  1
  La  La5  1  0.250779  0.375000  0.375779  1
  S  S6  1  0.513434  0.768064  0.408454  1
  S  S7  1  0.359610  0.104981  0.591546  1
  S  S8  1  0.890390  0.981936  0.245370  1
  S  S9  1  0.018064  0.263434  0.908454  1
  S  S10  1  0.354981  0.109610  0.091546  1
  S  S11  1  0.231936  0.640390  0.745370  1
  S  S12  1  0.895019  0.486566  0.254630  1
  S  S13  1  0.736566  0.645019  0.754630  1
