# generated using pymatgen
data_LiMnP2O7
_symmetry_space_group_name_H-M   'P 1'
_cell_length_a   5.30109004
_cell_length_b   5.30109004
_cell_length_c   4.61052390
_cell_angle_alpha   78.96382438
_cell_angle_beta   101.03617562
_cell_angle_gamma   79.69718698
_symmetry_Int_Tables_number   1
_chemical_formula_structural   LiMnP2O7
_chemical_formula_sum   'Li1 Mn1 P2 O7'
_cell_volume   121.65221804
_cell_formula_units_Z   1
loop_
 _symmetry_equiv_pos_site_id
 _symmetry_equiv_pos_as_xyz
  1  'x, y, z'
loop_
 _atom_site_type_symbol
 _atom_site_label
 _atom_site_symmetry_multiplicity
 _atom_site_fract_x
 _atom_site_fract_y
 _atom_site_fract_z
 _atom_site_occupancy
  Li  Li0  1  0.251862  0.251862  0.000000  1
  Mn  Mn1  1  0.872088  0.872088  0.000000  1
  P  P2  1  0.737106  0.337033  0.409452  1
  P  P3  1  0.337033  0.737106  0.590548  1
  O  O4  1  0.171028  0.636278  0.801738  1
  O  O5  1  0.926015  0.178964  0.716904  1
  O  O6  1  0.178964  0.926015  0.283096  1
  O  O7  1  0.875329  0.540903  0.264333  1
  O  O8  1  0.540903  0.875329  0.735667  1
  O  O9  1  0.636278  0.171028  0.198262  1
  O  O10  1  0.478544  0.478544  0.500000  1
