# generated using pymatgen
data_Dy2S3
_symmetry_space_group_name_H-M   'P 1'
_cell_length_a   13.77126276
_cell_length_b   13.77126276
_cell_length_c   13.77126276
_cell_angle_alpha   144.81900249
_cell_angle_beta   144.81900249
_cell_angle_gamma   50.60433390
_symmetry_Int_Tables_number   1
_chemical_formula_structural   Dy2S3
_chemical_formula_sum   'Dy16 S24'
_cell_volume   862.59016757
_cell_formula_units_Z   8
loop_
 _symmetry_equiv_pos_site_id
 _symmetry_equiv_pos_as_xyz
  1  'x, y, z'
loop_
 _atom_site_type_symbol
 _atom_site_label
 _atom_site_symmetry_multiplicity
 _atom_site_fract_x
 _atom_site_fract_y
 _atom_site_fract_z
 _atom_site_occupancy
  Dy  Dy0  1  0.900089  0.779173  0.601639  1
  Dy  Dy1  1  0.584552  0.084552  0.500000  1
  Dy  Dy2  1  0.375000  0.743781  0.868781  1
  Dy  Dy3  1  0.849911  0.951550  0.379084  1
  Dy  Dy4  1  0.165448  0.165448  0.000000  1
  Dy  Dy5  1  0.875000  0.506219  0.131219  1
  Dy  Dy6  1  0.572466  0.470827  0.620916  1
  Dy  Dy7  1  0.048450  0.427534  0.898361  1
  Dy  Dy8  1  0.493781  0.625000  0.368781  1
  Dy  Dy9  1  0.834552  0.834552  0.000000  1
  Dy  Dy10  1  0.256219  0.125000  0.631219  1
  Dy  Dy11  1  0.529173  0.150089  0.101639  1
  Dy  Dy12  1  0.915448  0.415448  0.500000  1
  Dy  Dy13  1  0.701550  0.099911  0.879084  1
  Dy  Dy14  1  0.177534  0.298450  0.398361  1
  Dy  Dy15  1  0.220827  0.822466  0.120916  1
  S  S16  1  0.885927  0.132247  0.886639  1
  S  S17  1  0.535310  0.422122  0.745649  1
  S  S18  1  0.245608  0.999288  0.113361  1
  S  S19  1  0.504392  0.117753  0.253680  1
  S  S20  1  0.864073  0.250712  0.746320  1
  S  S21  1  0.214690  0.460339  0.386812  1
  S  S22  1  0.676472  0.789661  0.254351  1
  S  S23  1  0.558834  0.811660  0.905010  1
  S  S24  1  0.073528  0.827878  0.613188  1
  S  S25  1  0.188340  0.093350  0.747174  1
  S  S26  1  0.906650  0.653824  0.094990  1
  S  S27  1  0.172122  0.785310  0.245649  1
  S  S28  1  0.539661  0.926472  0.754351  1
  S  S29  1  0.882247  0.135927  0.386639  1
  S  S30  1  0.346176  0.441166  0.252826  1
  S  S31  1  0.210339  0.464690  0.886812  1
  S  S32  1  0.749288  0.495608  0.613361  1
  S  S33  1  0.867753  0.754392  0.753680  1
  S  S34  1  0.577878  0.323528  0.113188  1
  S  S35  1  0.843350  0.438340  0.247174  1
  S  S36  1  0.191166  0.596176  0.752826  1
  S  S37  1  0.000712  0.114073  0.246320  1
  S  S38  1  0.561660  0.808834  0.405010  1
  S  S39  1  0.403824  0.156650  0.594990  1
