# generated using pymatgen
data_La5Sn3I
_symmetry_space_group_name_H-M   'P 1'
_cell_length_a   9.78751968
_cell_length_b   9.78751968
_cell_length_c   7.14127498
_cell_angle_alpha   90.00000000
_cell_angle_beta   90.00000000
_cell_angle_gamma   120.00000000
_symmetry_Int_Tables_number   1
_chemical_formula_structural   La5Sn3I
_chemical_formula_sum   'La10 Sn6 I2'
_cell_volume   592.44997392
_cell_formula_units_Z   2
loop_
 _symmetry_equiv_pos_site_id
 _symmetry_equiv_pos_as_xyz
  1  'x, y, z'
loop_
 _atom_site_type_symbol
 _atom_site_label
 _atom_site_symmetry_multiplicity
 _atom_site_fract_x
 _atom_site_fract_y
 _atom_site_fract_z
 _atom_site_occupancy
  La  La0  1  0.722804  0.722804  0.250000  1
  La  La1  1  0.333333  0.666667  0.500000  1
  La  La2  1  0.277196  0.277196  0.750000  1
  La  La3  1  0.000000  0.277196  0.250000  1
  La  La4  1  0.666667  0.333333  0.500000  1
  La  La5  1  0.277196  0.000000  0.250000  1
  La  La6  1  0.722804  0.000000  0.750000  1
  La  La7  1  0.333333  0.666667  0.000000  1
  La  La8  1  0.666667  0.333333  0.000000  1
  La  La9  1  0.000000  0.722804  0.750000  1
  Sn  Sn10  1  0.386045  0.386045  0.250000  1
  Sn  Sn11  1  0.613955  0.613955  0.750000  1
  Sn  Sn12  1  0.386045  0.000000  0.750000  1
  Sn  Sn13  1  0.000000  0.613955  0.250000  1
  Sn  Sn14  1  0.613955  0.000000  0.250000  1
  Sn  Sn15  1  0.000000  0.386045  0.750000  1
  I  I16  1  0.000000  0.000000  0.000000  1
  I  I17  1  0.000000  0.000000  0.500000  1
