# generated using pymatgen
data_CsGa7
_symmetry_space_group_name_H-M   'P 1'
_cell_length_a   10.50354390
_cell_length_b   10.50354390
_cell_length_c   10.50354390
_cell_angle_alpha   37.60741375
_cell_angle_beta   37.60741375
_cell_angle_gamma   37.60741375
_symmetry_Int_Tables_number   1
_chemical_formula_structural   CsGa7
_chemical_formula_sum   'Cs2 Ga14'
_cell_volume   387.09042944
_cell_formula_units_Z   2
loop_
 _symmetry_equiv_pos_site_id
 _symmetry_equiv_pos_as_xyz
  1  'x, y, z'
loop_
 _atom_site_type_symbol
 _atom_site_label
 _atom_site_symmetry_multiplicity
 _atom_site_fract_x
 _atom_site_fract_y
 _atom_site_fract_z
 _atom_site_occupancy
  Cs  Cs0  1  0.805230  0.805230  0.805230  1
  Cs  Cs1  1  0.194770  0.194770  0.194770  1
  Ga  Ga2  1  0.215270  0.796593  0.215270  1
  Ga  Ga3  1  0.796593  0.215270  0.215270  1
  Ga  Ga4  1  0.544793  0.544793  0.544793  1
  Ga  Ga5  1  0.455207  0.455207  0.455207  1
  Ga  Ga6  1  0.582305  0.181833  0.181833  1
  Ga  Ga7  1  0.181833  0.582305  0.181833  1
  Ga  Ga8  1  0.181833  0.181833  0.582305  1
  Ga  Ga9  1  0.818167  0.818167  0.417695  1
  Ga  Ga10  1  0.417695  0.818167  0.818167  1
  Ga  Ga11  1  0.818167  0.417695  0.818167  1
  Ga  Ga12  1  0.203407  0.784730  0.784730  1
  Ga  Ga13  1  0.784730  0.203407  0.784730  1
  Ga  Ga14  1  0.784730  0.784730  0.203407  1
  Ga  Ga15  1  0.215270  0.215270  0.796593  1
