# generated using pymatgen
data_LiFe3(P3O10)2
_symmetry_space_group_name_H-M   'P 1'
_cell_length_a   8.42227209
_cell_length_b   8.42227209
_cell_length_c   12.32708165
_cell_angle_alpha   90.00000000
_cell_angle_beta   90.00000000
_cell_angle_gamma   104.93227898
_symmetry_Int_Tables_number   1
_chemical_formula_structural   LiFe3(P3O10)2
_chemical_formula_sum   'Li2 Fe6 P12 O40'
_cell_volume   844.88928827
_cell_formula_units_Z   2
loop_
 _symmetry_equiv_pos_site_id
 _symmetry_equiv_pos_as_xyz
  1  'x, y, z'
loop_
 _atom_site_type_symbol
 _atom_site_label
 _atom_site_symmetry_multiplicity
 _atom_site_fract_x
 _atom_site_fract_y
 _atom_site_fract_z
 _atom_site_occupancy
  Li  Li0  1  0.586372  0.586372  0.000000  1
  Li  Li1  1  0.413628  0.413628  0.500000  1
  Fe  Fe2  1  0.870694  0.870694  0.000000  1
  Fe  Fe3  1  0.760778  0.239222  0.750000  1
  Fe  Fe4  1  0.129306  0.129306  0.500000  1
  Fe  Fe5  1  0.700963  0.299037  0.250000  1
  Fe  Fe6  1  0.239222  0.760778  0.250000  1
  Fe  Fe7  1  0.299037  0.700963  0.750000  1
  P  P8  1  0.181280  0.301664  0.721675  1
  P  P9  1  0.628976  0.909074  0.316428  1
  P  P10  1  0.851291  0.264193  0.013177  1
  P  P11  1  0.371024  0.090926  0.816428  1
  P  P12  1  0.148709  0.735807  0.513177  1
  P  P13  1  0.301664  0.181280  0.278325  1
  P  P14  1  0.909074  0.628976  0.683572  1
  P  P15  1  0.735807  0.148709  0.486823  1
  P  P16  1  0.090926  0.371024  0.183572  1
  P  P17  1  0.698336  0.818720  0.778325  1
  P  P18  1  0.264193  0.851291  0.986823  1
  P  P19  1  0.818720  0.698336  0.221675  1
  O  O20  1  0.944989  0.342030  0.258104  1
  O  O21  1  0.726240  0.536848  0.269629  1
  O  O22  1  0.273655  0.683024  0.584735  1
  O  O23  1  0.264167  0.997559  0.293901  1
  O  O24  1  0.273760  0.463152  0.769629  1
  O  O25  1  0.164143  0.213016  0.195021  1
  O  O26  1  0.681176  0.152586  0.602997  1
  O  O27  1  0.002441  0.735833  0.206099  1
  O  O28  1  0.273290  0.258945  0.390898  1
  O  O29  1  0.835857  0.786984  0.695021  1
  O  O30  1  0.154281  0.919981  0.525518  1
  O  O31  1  0.258945  0.273290  0.609102  1
  O  O32  1  0.080019  0.845719  0.974482  1
  O  O33  1  0.316976  0.726345  0.915265  1
  O  O34  1  0.358325  0.034987  0.941383  1
  O  O35  1  0.055011  0.657970  0.758104  1
  O  O36  1  0.735833  0.002441  0.793901  1
  O  O37  1  0.226068  0.526356  0.197873  1
  O  O38  1  0.726345  0.316976  0.084735  1
  O  O39  1  0.786984  0.835857  0.304979  1
  O  O40  1  0.726710  0.741055  0.890898  1
  O  O41  1  0.965013  0.641675  0.558617  1
  O  O42  1  0.773932  0.473644  0.697873  1
  O  O43  1  0.657970  0.055011  0.241896  1
  O  O44  1  0.741055  0.726710  0.109102  1
  O  O45  1  0.473644  0.773932  0.302127  1
  O  O46  1  0.683024  0.273655  0.415265  1
  O  O47  1  0.318824  0.847414  0.102997  1
  O  O48  1  0.847414  0.318824  0.897003  1
  O  O49  1  0.997559  0.264167  0.706099  1
  O  O50  1  0.152586  0.681176  0.397003  1
  O  O51  1  0.845719  0.080019  0.025518  1
  O  O52  1  0.034987  0.358325  0.058617  1
  O  O53  1  0.342030  0.944989  0.741896  1
  O  O54  1  0.641675  0.965013  0.441383  1
  O  O55  1  0.463152  0.273760  0.230371  1
  O  O56  1  0.526356  0.226068  0.802127  1
  O  O57  1  0.919981  0.154281  0.474482  1
  O  O58  1  0.213016  0.164143  0.804979  1
  O  O59  1  0.536848  0.726240  0.730371  1
