# generated using pymatgen
data_Ta2TlO6
_symmetry_space_group_name_H-M   'P 1'
_cell_length_a   7.54396614
_cell_length_b   7.54396614
_cell_length_c   7.54396614
_cell_angle_alpha   120.08047726
_cell_angle_beta   119.96611224
_cell_angle_gamma   89.95968559
_symmetry_Int_Tables_number   1
_chemical_formula_structural   Ta2TlO6
_chemical_formula_sum   'Ta4 Tl2 O12'
_cell_volume   303.48036246
_cell_formula_units_Z   2
loop_
 _symmetry_equiv_pos_site_id
 _symmetry_equiv_pos_as_xyz
  1  'x, y, z'
loop_
 _atom_site_type_symbol
 _atom_site_label
 _atom_site_symmetry_multiplicity
 _atom_site_fract_x
 _atom_site_fract_y
 _atom_site_fract_z
 _atom_site_occupancy
  Ta  Ta0  1  0.000000  1.000000  0.500000  1
  Ta  Ta1  1  0.000000  0.000000  0.000000  1
  Ta  Ta2  1  0.500000  1.000000  0.500000  1
  Ta  Ta3  1  0.000000  0.500000  0.000000  1
  Tl  Tl4  1  0.500000  0.500000  0.500000  1
  Tl  Tl5  1  0.500000  1.000000  0.000000  1
  O  O6  1  0.942733  0.692733  0.250000  1
  O  O7  1  0.934089  0.058123  0.245553  1
  O  O8  1  0.312570  0.058123  0.624035  1
  O  O9  1  0.934089  0.688535  0.875965  1
  O  O10  1  0.686197  0.936197  0.750000  1
  O  O11  1  0.687430  0.311465  0.745553  1
  O  O12  1  0.312570  0.688535  0.254447  1
  O  O13  1  0.313803  0.063803  0.250000  1
  O  O14  1  0.065911  0.311465  0.124035  1
  O  O15  1  0.687430  0.941877  0.375965  1
  O  O16  1  0.057267  0.307267  0.750000  1
  O  O17  1  0.065911  0.941877  0.754447  1
