# generated using pymatgen
data_GdTiCdSbO7
_symmetry_space_group_name_H-M   'P 1'
_cell_length_a   7.32377573
_cell_length_b   7.32377573
_cell_length_c   10.39217968
_cell_angle_alpha   90.00000000
_cell_angle_beta   90.00000000
_cell_angle_gamma   90.00000000
_symmetry_Int_Tables_number   1
_chemical_formula_structural   GdTiCdSbO7
_chemical_formula_sum   'Gd4 Ti4 Cd4 Sb4 O28'
_cell_volume   557.41252255
_cell_formula_units_Z   4
loop_
 _symmetry_equiv_pos_site_id
 _symmetry_equiv_pos_as_xyz
  1  'x, y, z'
loop_
 _atom_site_type_symbol
 _atom_site_label
 _atom_site_symmetry_multiplicity
 _atom_site_fract_x
 _atom_site_fract_y
 _atom_site_fract_z
 _atom_site_occupancy
  Gd  Gd0  1  0.000000  0.735613  0.000000  1
  Gd  Gd1  1  0.000000  0.264387  0.500000  1
  Gd  Gd2  1  0.264387  0.000000  0.250000  1
  Gd  Gd3  1  0.735613  0.000000  0.750000  1
  Ti  Ti4  1  0.762437  0.000000  0.250000  1
  Ti  Ti5  1  0.000000  0.762437  0.500000  1
  Ti  Ti6  1  0.237563  0.000000  0.750000  1
  Ti  Ti7  1  0.000000  0.237563  0.000000  1
  Cd  Cd8  1  0.500000  0.742079  0.000000  1
  Cd  Cd9  1  0.257921  0.500000  0.250000  1
  Cd  Cd10  1  0.500000  0.257921  0.500000  1
  Cd  Cd11  1  0.742079  0.500000  0.750000  1
  Sb  Sb12  1  0.244400  0.500000  0.750000  1
  Sb  Sb13  1  0.500000  0.755600  0.500000  1
  Sb  Sb14  1  0.500000  0.244400  0.000000  1
  Sb  Sb15  1  0.755600  0.500000  0.250000  1
  O  O16  1  0.252869  0.747131  0.125000  1
  O  O17  1  0.551416  0.946395  0.368183  1
  O  O18  1  0.765131  0.750739  0.176523  1
  O  O19  1  0.747131  0.252869  0.625000  1
  O  O20  1  0.951872  0.951872  0.375000  1
  O  O21  1  0.048128  0.048128  0.875000  1
  O  O22  1  0.053605  0.448584  0.881817  1
  O  O23  1  0.048128  0.951872  0.625000  1
  O  O24  1  0.249261  0.234869  0.073477  1
  O  O25  1  0.234869  0.249261  0.676523  1
  O  O26  1  0.249261  0.765131  0.426523  1
  O  O27  1  0.448584  0.946395  0.631817  1
  O  O28  1  0.448584  0.053605  0.868183  1
  O  O29  1  0.450484  0.450484  0.875000  1
  O  O30  1  0.549516  0.549516  0.375000  1
  O  O31  1  0.551416  0.053605  0.131817  1
  O  O32  1  0.549516  0.450484  0.125000  1
  O  O33  1  0.750739  0.765131  0.573477  1
  O  O34  1  0.765131  0.249261  0.323477  1
  O  O35  1  0.747131  0.747131  0.875000  1
  O  O36  1  0.750739  0.234869  0.926523  1
  O  O37  1  0.946395  0.551416  0.381817  1
  O  O38  1  0.951872  0.048128  0.125000  1
  O  O39  1  0.946395  0.448584  0.118183  1
  O  O40  1  0.053605  0.551416  0.618183  1
  O  O41  1  0.234869  0.750739  0.823477  1
  O  O42  1  0.252869  0.252869  0.375000  1
  O  O43  1  0.450484  0.549516  0.625000  1
