# generated using pymatgen
data_CdPbF6
_symmetry_space_group_name_H-M   'P 1'
_cell_length_a   6.04250770
_cell_length_b   6.04250770
_cell_length_c   6.04250770
_cell_angle_alpha   55.96664749
_cell_angle_beta   55.96664749
_cell_angle_gamma   55.96664749
_symmetry_Int_Tables_number   1
_chemical_formula_structural   CdPbF6
_chemical_formula_sum   'Cd1 Pb1 F6'
_cell_volume   141.42494230
_cell_formula_units_Z   1
loop_
 _symmetry_equiv_pos_site_id
 _symmetry_equiv_pos_as_xyz
  1  'x, y, z'
loop_
 _atom_site_type_symbol
 _atom_site_label
 _atom_site_symmetry_multiplicity
 _atom_site_fract_x
 _atom_site_fract_y
 _atom_site_fract_z
 _atom_site_occupancy
  Cd  Cd0  1  0.500000  0.500000  0.500000  1
  Pb  Pb1  1  0.000000  0.000000  0.000000  1
  F  F2  1  0.639720  0.242936  0.878342  1
  F  F3  1  0.242936  0.878342  0.639720  1
  F  F4  1  0.878342  0.639720  0.242936  1
  F  F5  1  0.121658  0.360280  0.757064  1
  F  F6  1  0.757064  0.121658  0.360280  1
  F  F7  1  0.360280  0.757064  0.121658  1
