# generated using pymatgen
data_LaCu6
_symmetry_space_group_name_H-M   'P 1'
_cell_length_a   5.10746503
_cell_length_b   10.21730207
_cell_length_c   8.16384013
_cell_angle_alpha   90.00000000
_cell_angle_beta   92.04605104
_cell_angle_gamma   90.00000000
_symmetry_Int_Tables_number   1
_chemical_formula_structural   LaCu6
_chemical_formula_sum   'La4 Cu24'
_cell_volume   425.75441026
_cell_formula_units_Z   4
loop_
 _symmetry_equiv_pos_site_id
 _symmetry_equiv_pos_as_xyz
  1  'x, y, z'
loop_
 _atom_site_type_symbol
 _atom_site_label
 _atom_site_symmetry_multiplicity
 _atom_site_fract_x
 _atom_site_fract_y
 _atom_site_fract_z
 _atom_site_occupancy
  La  La0  1  0.261804  0.563463  0.262092  1
  La  La1  1  0.738196  0.063463  0.237908  1
  La  La2  1  0.738196  0.436537  0.737908  1
  La  La3  1  0.261804  0.936537  0.762092  1
  Cu  Cu4  1  0.006924  0.811734  0.439561  1
  Cu  Cu5  1  0.993076  0.311734  0.060439  1
  Cu  Cu6  1  0.993076  0.188266  0.560439  1
  Cu  Cu7  1  0.006924  0.688266  0.939561  1
  Cu  Cu8  1  0.498113  0.807252  0.433683  1
  Cu  Cu9  1  0.501887  0.307252  0.066317  1
  Cu  Cu10  1  0.501887  0.192748  0.566317  1
  Cu  Cu11  1  0.498113  0.692748  0.933683  1
  Cu  Cu12  1  0.239521  0.858759  0.150172  1
  Cu  Cu13  1  0.760479  0.358759  0.349828  1
  Cu  Cu14  1  0.760479  0.141241  0.849828  1
  Cu  Cu15  1  0.239521  0.641241  0.650172  1
  Cu  Cu16  1  0.249618  0.245253  0.816848  1
  Cu  Cu17  1  0.750382  0.745253  0.683152  1
  Cu  Cu18  1  0.750382  0.754747  0.183152  1
  Cu  Cu19  1  0.249618  0.254747  0.316848  1
  Cu  Cu20  1  0.220177  0.401216  0.561657  1
  Cu  Cu21  1  0.779823  0.901216  0.938343  1
  Cu  Cu22  1  0.779823  0.598784  0.438343  1
  Cu  Cu23  1  0.220177  0.098784  0.061657  1
  Cu  Cu24  1  0.250608  0.484376  0.901764  1
  Cu  Cu25  1  0.749392  0.984376  0.598236  1
  Cu  Cu26  1  0.749392  0.515624  0.098236  1
  Cu  Cu27  1  0.250608  0.015624  0.401764  1
