# generated using pymatgen
data_Fe3(PO4)4
_symmetry_space_group_name_H-M   'P 1'
_cell_length_a   8.53657480
_cell_length_b   5.13352373
_cell_length_c   15.73629001
_cell_angle_alpha   90.00000000
_cell_angle_beta   113.20986934
_cell_angle_gamma   90.00000000
_symmetry_Int_Tables_number   1
_chemical_formula_structural   Fe3(PO4)4
_chemical_formula_sum   'Fe6 P8 O32'
_cell_volume   633.79523336
_cell_formula_units_Z   2
loop_
 _symmetry_equiv_pos_site_id
 _symmetry_equiv_pos_as_xyz
  1  'x, y, z'
loop_
 _atom_site_type_symbol
 _atom_site_label
 _atom_site_symmetry_multiplicity
 _atom_site_fract_x
 _atom_site_fract_y
 _atom_site_fract_z
 _atom_site_occupancy
  Fe  Fe0  1  0.823219  0.907150  0.802981  1
  Fe  Fe1  1  0.823219  0.592850  0.302981  1
  Fe  Fe2  1  0.176781  0.407150  0.697019  1
  Fe  Fe3  1  0.176781  0.092850  0.197019  1
  Fe  Fe4  1  0.500000  0.000000  0.500000  1
  Fe  Fe5  1  0.500000  0.500000  0.000000  1
  P  P6  1  0.078367  0.440526  0.884288  1
  P  P7  1  0.475369  0.003880  0.852204  1
  P  P8  1  0.078367  0.059474  0.384288  1
  P  P9  1  0.524631  0.996120  0.147796  1
  P  P10  1  0.475369  0.496120  0.352204  1
  P  P11  1  0.921633  0.940526  0.615712  1
  P  P12  1  0.921633  0.559474  0.115712  1
  P  P13  1  0.524631  0.503880  0.647796  1
  O  O14  1  0.251017  0.431681  0.967138  1
  O  O15  1  0.748983  0.931681  0.532862  1
  O  O16  1  0.449303  0.721123  0.877783  1
  O  O17  1  0.550697  0.221123  0.622217  1
  O  O18  1  0.024631  0.808530  0.119419  1
  O  O19  1  0.024631  0.691470  0.619419  1
  O  O20  1  0.486613  0.817332  0.063456  1
  O  O21  1  0.314083  0.401270  0.270931  1
  O  O22  1  0.369728  0.523468  0.675241  1
  O  O23  1  0.251017  0.068319  0.467138  1
  O  O24  1  0.748983  0.568319  0.032862  1
  O  O25  1  0.685917  0.598730  0.729069  1
  O  O26  1  0.513387  0.317332  0.436544  1
  O  O27  1  0.630272  0.023468  0.824759  1
  O  O28  1  0.486613  0.682668  0.563456  1
  O  O29  1  0.314083  0.098730  0.770931  1
  O  O30  1  0.685917  0.901270  0.229069  1
  O  O31  1  0.513387  0.182668  0.936544  1
  O  O32  1  0.970359  0.830570  0.397214  1
  O  O33  1  0.970359  0.669430  0.897214  1
  O  O34  1  0.630272  0.476532  0.324759  1
  O  O35  1  0.975369  0.308530  0.380581  1
  O  O36  1  0.550697  0.278877  0.122217  1
  O  O37  1  0.104172  0.011878  0.293735  1
  O  O38  1  0.975369  0.191470  0.880581  1
  O  O39  1  0.104172  0.488122  0.793735  1
  O  O40  1  0.449303  0.778877  0.377783  1
  O  O41  1  0.895828  0.511878  0.206265  1
  O  O42  1  0.369728  0.976532  0.175241  1
  O  O43  1  0.895828  0.988122  0.706265  1
  O  O44  1  0.029641  0.330570  0.102786  1
  O  O45  1  0.029641  0.169430  0.602786  1
