# generated using pymatgen
data_Ho4Ge9Ir13
_symmetry_space_group_name_H-M   'P 1'
_cell_length_a   4.00078587
_cell_length_b   11.31666688
_cell_length_c   19.51462992
_cell_angle_alpha   90.00000000
_cell_angle_beta   90.00000000
_cell_angle_gamma   90.00000000
_symmetry_Int_Tables_number   1
_chemical_formula_structural   Ho4Ge9Ir13
_chemical_formula_sum   'Ho8 Ge18 Ir26'
_cell_volume   883.53581634
_cell_formula_units_Z   2
loop_
 _symmetry_equiv_pos_site_id
 _symmetry_equiv_pos_as_xyz
  1  'x, y, z'
loop_
 _atom_site_type_symbol
 _atom_site_label
 _atom_site_symmetry_multiplicity
 _atom_site_fract_x
 _atom_site_fract_y
 _atom_site_fract_z
 _atom_site_occupancy
  Ho  Ho0  1  0.500000  0.500000  0.022674  1
  Ho  Ho1  1  0.000000  0.000000  0.977326  1
  Ho  Ho2  1  0.000000  0.191274  0.792434  1
  Ho  Ho3  1  0.500000  0.308726  0.207566  1
  Ho  Ho4  1  0.500000  0.691274  0.207566  1
  Ho  Ho5  1  0.000000  0.808726  0.792434  1
  Ho  Ho6  1  0.000000  0.500000  0.480934  1
  Ho  Ho7  1  0.500000  0.000000  0.519066  1
  Ge  Ge8  1  0.500000  0.186261  0.918739  1
  Ge  Ge9  1  0.000000  0.000000  0.398840  1
  Ge  Ge10  1  0.500000  0.500000  0.601160  1
  Ge  Ge11  1  0.500000  0.000000  0.099781  1
  Ge  Ge12  1  0.000000  0.500000  0.900219  1
  Ge  Ge13  1  0.000000  0.820448  0.584619  1
  Ge  Ge14  1  0.500000  0.679552  0.415381  1
  Ge  Ge15  1  0.500000  0.320448  0.415381  1
  Ge  Ge16  1  0.000000  0.313739  0.081261  1
  Ge  Ge17  1  0.000000  0.686261  0.081261  1
  Ge  Ge18  1  0.500000  0.813739  0.918739  1
  Ge  Ge19  1  0.000000  0.500000  0.265345  1
  Ge  Ge20  1  0.000000  0.179552  0.584619  1
  Ge  Ge21  1  0.500000  0.000000  0.734655  1
  Ge  Ge22  1  0.500000  0.369740  0.731158  1
  Ge  Ge23  1  0.500000  0.630260  0.731158  1
  Ge  Ge24  1  0.000000  0.869740  0.268842  1
  Ge  Ge25  1  0.000000  0.130260  0.268842  1
  Ir  Ir26  1  0.500000  0.200354  0.046057  1
  Ir  Ir27  1  0.500000  0.690372  0.539813  1
  Ir  Ir28  1  0.500000  0.309628  0.539813  1
  Ir  Ir29  1  0.000000  0.190372  0.460187  1
  Ir  Ir30  1  0.500000  0.872666  0.354469  1
  Ir  Ir31  1  0.000000  0.627334  0.645531  1
  Ir  Ir32  1  0.000000  0.372666  0.645531  1
  Ir  Ir33  1  0.500000  0.127334  0.354469  1
  Ir  Ir34  1  0.000000  0.299646  0.953943  1
  Ir  Ir35  1  0.000000  0.700354  0.953943  1
  Ir  Ir36  1  0.500000  0.799646  0.046057  1
  Ir  Ir37  1  0.500000  0.500000  0.342386  1
  Ir  Ir38  1  0.000000  0.000000  0.657614  1
  Ir  Ir39  1  0.000000  0.500000  0.141006  1
  Ir  Ir40  1  0.500000  0.000000  0.858994  1
  Ir  Ir41  1  0.000000  0.500000  0.772950  1
  Ir  Ir42  1  0.500000  0.000000  0.227050  1
  Ir  Ir43  1  0.500000  0.182944  0.664674  1
  Ir  Ir44  1  0.000000  0.317056  0.335326  1
  Ir  Ir45  1  0.000000  0.682944  0.335326  1
  Ir  Ir46  1  0.500000  0.817056  0.664674  1
  Ir  Ir47  1  0.000000  0.123909  0.142058  1
  Ir  Ir48  1  0.500000  0.376091  0.857942  1
  Ir  Ir49  1  0.500000  0.623909  0.857942  1
  Ir  Ir50  1  0.000000  0.876091  0.142058  1
  Ir  Ir51  1  0.000000  0.809628  0.460187  1
