# generated using pymatgen
data_Ce4B2N5
_symmetry_space_group_name_H-M   'P 1'
_cell_length_a   6.32165585
_cell_length_b   6.32165585
_cell_length_c   8.91975102
_cell_angle_alpha   52.41762453
_cell_angle_beta   127.58237547
_cell_angle_gamma   147.41911992
_symmetry_Int_Tables_number   1
_chemical_formula_structural   Ce4B2N5
_chemical_formula_sum   'Ce4 B2 N5'
_cell_volume   148.21993066
_cell_formula_units_Z   1
loop_
 _symmetry_equiv_pos_site_id
 _symmetry_equiv_pos_as_xyz
  1  'x, y, z'
loop_
 _atom_site_type_symbol
 _atom_site_label
 _atom_site_symmetry_multiplicity
 _atom_site_fract_x
 _atom_site_fract_y
 _atom_site_fract_z
 _atom_site_occupancy
  Ce  Ce0  1  0.925336  0.074664  0.152156  1
  Ce  Ce1  1  0.074664  0.925336  0.847844  1
  Ce  Ce2  1  0.312605  0.687395  0.387241  1
  Ce  Ce3  1  0.687395  0.312605  0.612759  1
  B  B4  1  0.588861  0.411139  0.109549  1
  B  B5  1  0.411139  0.588861  0.890451  1
  N  N6  1  0.708404  0.291596  0.103316  1
  N  N7  1  0.291596  0.708404  0.896684  1
  N  N8  1  0.000000  0.000000  0.500000  1
  N  N9  1  0.620354  0.379646  0.301183  1
  N  N10  1  0.379646  0.620354  0.698817  1
