# generated using pymatgen
data_Tb12Co7
_symmetry_space_group_name_H-M   'P 1'
_cell_length_a   8.31890715
_cell_length_b   11.30359756
_cell_length_c   11.08054171
_cell_angle_alpha   90.00000000
_cell_angle_beta   125.47720240
_cell_angle_gamma   90.00000000
_symmetry_Int_Tables_number   1
_chemical_formula_structural   Tb12Co7
_chemical_formula_sum   'Tb24 Co14'
_cell_volume   848.50263866
_cell_formula_units_Z   2
loop_
 _symmetry_equiv_pos_site_id
 _symmetry_equiv_pos_as_xyz
  1  'x, y, z'
loop_
 _atom_site_type_symbol
 _atom_site_label
 _atom_site_symmetry_multiplicity
 _atom_site_fract_x
 _atom_site_fract_y
 _atom_site_fract_z
 _atom_site_occupancy
  Tb  Tb0  1  0.233864  0.705600  0.460787  1
  Tb  Tb1  1  0.766136  0.205600  0.039213  1
  Tb  Tb2  1  0.502021  0.840425  0.341563  1
  Tb  Tb3  1  0.497979  0.340425  0.158437  1
  Tb  Tb4  1  0.497979  0.159575  0.658437  1
  Tb  Tb5  1  0.502021  0.659575  0.841563  1
  Tb  Tb6  1  0.841888  0.003555  0.646472  1
  Tb  Tb7  1  0.158112  0.503555  0.853528  1
  Tb  Tb8  1  0.158112  0.996445  0.353528  1
  Tb  Tb9  1  0.841888  0.496445  0.146472  1
  Tb  Tb10  1  0.233864  0.794400  0.960787  1
  Tb  Tb11  1  0.766136  0.294400  0.539213  1
  Tb  Tb12  1  0.767853  0.928514  0.914377  1
  Tb  Tb13  1  0.232147  0.428514  0.585623  1
  Tb  Tb14  1  0.232147  0.071486  0.085623  1
  Tb  Tb15  1  0.767853  0.571486  0.414377  1
  Tb  Tb16  1  0.248614  0.300831  0.323615  1
  Tb  Tb17  1  0.751386  0.800831  0.176385  1
  Tb  Tb18  1  0.751386  0.699169  0.676385  1
  Tb  Tb19  1  0.248614  0.199169  0.823615  1
  Tb  Tb20  1  0.262122  0.930334  0.691266  1
  Tb  Tb21  1  0.737878  0.430334  0.808734  1
  Tb  Tb22  1  0.737878  0.069666  0.308734  1
  Tb  Tb23  1  0.262122  0.569666  0.191266  1
  Co  Co24  1  0.500000  0.500000  0.500000  1
  Co  Co25  1  0.500000  0.000000  0.000000  1
  Co  Co26  1  0.906023  0.678390  0.972338  1
  Co  Co27  1  0.093977  0.178390  0.527662  1
  Co  Co28  1  0.093977  0.321610  0.027662  1
  Co  Co29  1  0.906023  0.821610  0.472338  1
  Co  Co30  1  0.495590  0.400331  0.900270  1
  Co  Co31  1  0.504410  0.900331  0.599730  1
  Co  Co32  1  0.504410  0.599669  0.099730  1
  Co  Co33  1  0.495590  0.099669  0.400270  1
  Co  Co34  1  0.098885  0.810798  0.158914  1
  Co  Co35  1  0.901115  0.310798  0.341086  1
  Co  Co36  1  0.901115  0.189202  0.841086  1
  Co  Co37  1  0.098885  0.689202  0.658914  1
