# generated using pymatgen
data_Th5Sn4
_symmetry_space_group_name_H-M   'P 1'
_cell_length_a   9.70988137
_cell_length_b   9.70988137
_cell_length_c   6.58880712
_cell_angle_alpha   90.00000000
_cell_angle_beta   90.00000000
_cell_angle_gamma   120.00000000
_symmetry_Int_Tables_number   1
_chemical_formula_structural   Th5Sn4
_chemical_formula_sum   'Th10 Sn8'
_cell_volume   537.97893882
_cell_formula_units_Z   2
loop_
 _symmetry_equiv_pos_site_id
 _symmetry_equiv_pos_as_xyz
  1  'x, y, z'
loop_
 _atom_site_type_symbol
 _atom_site_label
 _atom_site_symmetry_multiplicity
 _atom_site_fract_x
 _atom_site_fract_y
 _atom_site_fract_z
 _atom_site_occupancy
  Th  Th0  1  0.000000  0.720685  0.750000  1
  Th  Th1  1  0.279315  0.279315  0.750000  1
  Th  Th2  1  0.333333  0.666667  0.500000  1
  Th  Th3  1  0.666667  0.333333  0.500000  1
  Th  Th4  1  0.720685  0.720685  0.250000  1
  Th  Th5  1  0.720685  0.000000  0.750000  1
  Th  Th6  1  0.000000  0.279315  0.250000  1
  Th  Th7  1  0.279315  0.000000  0.250000  1
  Th  Th8  1  0.333333  0.666667  0.000000  1
  Th  Th9  1  0.666667  0.333333  0.000000  1
  Sn  Sn10  1  0.618916  0.618916  0.750000  1
  Sn  Sn11  1  0.000000  0.381084  0.750000  1
  Sn  Sn12  1  0.381084  0.000000  0.750000  1
  Sn  Sn13  1  0.618916  0.000000  0.250000  1
  Sn  Sn14  1  0.381084  0.381084  0.250000  1
  Sn  Sn15  1  0.000000  0.000000  0.000000  1
  Sn  Sn16  1  0.000000  0.618916  0.250000  1
  Sn  Sn17  1  0.000000  0.000000  0.500000  1
