# generated using pymatgen
data_KHg2
_symmetry_space_group_name_H-M   'P 1'
_cell_length_a   6.80163607
_cell_length_b   6.80163607
_cell_length_c   6.80163607
_cell_angle_alpha   134.15034497
_cell_angle_beta   105.47886857
_cell_angle_gamma   92.09597501
_symmetry_Int_Tables_number   1
_chemical_formula_structural   KHg2
_chemical_formula_sum   'K2 Hg4'
_cell_volume   206.01522542
_cell_formula_units_Z   2
loop_
 _symmetry_equiv_pos_site_id
 _symmetry_equiv_pos_as_xyz
  1  'x, y, z'
loop_
 _atom_site_type_symbol
 _atom_site_label
 _atom_site_symmetry_multiplicity
 _atom_site_fract_x
 _atom_site_fract_y
 _atom_site_fract_z
 _atom_site_occupancy
  K  K0  1  0.799138  0.049138  0.250000  1
  K  K1  1  0.200862  0.950862  0.750000  1
  Hg  Hg2  1  0.608893  0.663010  0.445883  1
  Hg  Hg3  1  0.391107  0.336990  0.554117  1
  Hg  Hg4  1  0.217126  0.663010  0.054117  1
  Hg  Hg5  1  0.782874  0.336990  0.945883  1
