# generated using pymatgen
data_Li2MnP2O7
_symmetry_space_group_name_H-M   'P 1'
_cell_length_a   6.66141494
_cell_length_b   9.36354986
_cell_length_c   10.51761104
_cell_angle_alpha   113.74564868
_cell_angle_beta   88.57729440
_cell_angle_gamma   106.75598920
_symmetry_Int_Tables_number   1
_chemical_formula_structural   Li2MnP2O7
_chemical_formula_sum   'Li8 Mn4 P8 O28'
_cell_volume   571.87079479
_cell_formula_units_Z   4
loop_
 _symmetry_equiv_pos_site_id
 _symmetry_equiv_pos_as_xyz
  1  'x, y, z'
loop_
 _atom_site_type_symbol
 _atom_site_label
 _atom_site_symmetry_multiplicity
 _atom_site_fract_x
 _atom_site_fract_y
 _atom_site_fract_z
 _atom_site_occupancy
  Li  Li0  1  0.602478  0.512281  0.972534  1
  Li  Li1  1  0.164815  0.485414  0.036610  1
  Li  Li2  1  0.044406  0.199265  0.513510  1
  Li  Li3  1  0.939336  0.827326  0.498974  1
  Li  Li4  1  0.163747  0.108655  0.135518  1
  Li  Li5  1  0.351891  0.922699  0.377346  1
  Li  Li6  1  0.631528  0.078984  0.622165  1
  Li  Li7  1  0.864258  0.893447  0.880887  1
  Mn  Mn8  1  0.358678  0.501672  0.735405  1
  Mn  Mn9  1  0.284368  0.894680  0.782514  1
  Mn  Mn10  1  0.629965  0.490185  0.255349  1
  Mn  Mn11  1  0.722749  0.096317  0.214178  1
  P  P12  1  0.309579  0.798870  0.056241  1
  P  P13  1  0.929730  0.808152  0.199053  1
  P  P14  1  0.077132  0.179784  0.793851  1
  P  P15  1  0.700553  0.193363  0.942192  1
  P  P16  1  0.443325  0.710812  0.531625  1
  P  P17  1  0.550908  0.285148  0.462602  1
  P  P18  1  0.865471  0.543559  0.697289  1
  P  P19  1  0.122336  0.444482  0.300212  1
  O  O20  1  0.097179  0.055118  0.848907  1
  O  O21  1  0.630232  0.336855  0.038325  1
  O  O22  1  0.931073  0.280705  0.903246  1
  O  O23  1  0.375037  0.650519  0.961327  1
  O  O24  1  0.280448  0.316938  0.818805  1
  O  O25  1  0.447320  0.902365  0.195679  1
  O  O26  1  0.534847  0.271539  0.310736  1
  O  O27  1  0.563118  0.091487  0.802816  1
  O  O28  1  0.025862  0.452670  0.687396  1
  O  O29  1  0.739297  0.082447  0.007882  1
  O  O30  1  0.958044  0.093682  0.646209  1
  O  O31  1  0.918096  0.934420  0.142802  1
  O  O32  1  0.722581  0.674681  0.171956  1
  O  O33  1  0.957742  0.527932  0.302172  1
  O  O34  1  0.626180  0.143658  0.463382  1
  O  O35  1  0.083287  0.708712  0.096744  1
  O  O36  1  0.369467  0.854476  0.535199  1
  O  O37  1  0.270501  0.906969  0.988481  1
  O  O38  1  0.641017  0.699332  0.457307  1
  O  O39  1  0.351077  0.295321  0.534736  1
  O  O40  1  0.733202  0.455937  0.542106  1
  O  O41  1  0.698193  0.528302  0.798110  1
  O  O42  1  0.259725  0.541085  0.452190  1
  O  O43  1  0.041091  0.892342  0.348300  1
  O  O44  1  0.964154  0.723202  0.718951  1
  O  O45  1  0.033755  0.267779  0.289348  1
  O  O46  1  0.280681  0.453333  0.191924  1
  O  O47  1  0.458388  0.718914  0.681663  1
