# generated using pymatgen
data_SrAl2O4
_symmetry_space_group_name_H-M   'P 1'
_cell_length_a   5.21388642
_cell_length_b   8.91760562
_cell_length_c   8.54738167
_cell_angle_alpha   90.00000000
_cell_angle_beta   93.51529815
_cell_angle_gamma   90.00000000
_symmetry_Int_Tables_number   1
_chemical_formula_structural   SrAl2O4
_chemical_formula_sum   'Sr4 Al8 O16'
_cell_volume   396.66603376
_cell_formula_units_Z   4
loop_
 _symmetry_equiv_pos_site_id
 _symmetry_equiv_pos_as_xyz
  1  'x, y, z'
loop_
 _atom_site_type_symbol
 _atom_site_label
 _atom_site_symmetry_multiplicity
 _atom_site_fract_x
 _atom_site_fract_y
 _atom_site_fract_z
 _atom_site_occupancy
  Sr  Sr0  1  0.201467  0.490579  0.027222  1
  Sr  Sr1  1  0.798533  0.990579  0.972778  1
  Sr  Sr2  1  0.253801  0.497280  0.485617  1
  Sr  Sr3  1  0.746199  0.997280  0.514383  1
  Al  Al4  1  0.795717  0.668320  0.681221  1
  Al  Al5  1  0.204283  0.168320  0.318779  1
  Al  Al6  1  0.220226  0.168259  0.707331  1
  Al  Al7  1  0.779774  0.668259  0.292669  1
  Al  Al8  1  0.725762  0.337574  0.799550  1
  Al  Al9  1  0.274238  0.837574  0.200450  1
  Al  Al10  1  0.715203  0.330705  0.189124  1
  Al  Al11  1  0.284797  0.830705  0.810876  1
  O  O12  1  0.643657  0.384109  0.991375  1
  O  O13  1  0.356343  0.884109  0.008625  1
  O  O14  1  0.881386  0.714354  0.488789  1
  O  O15  1  0.118614  0.214354  0.511211  1
  O  O16  1  0.909885  0.167245  0.201712  1
  O  O17  1  0.090115  0.667245  0.798288  1
  O  O18  1  0.939384  0.797076  0.175755  1
  O  O19  1  0.060616  0.297076  0.824245  1
  O  O20  1  0.900615  0.484662  0.264414  1
  O  O21  1  0.099385  0.984662  0.735586  1
  O  O22  1  0.351604  0.990121  0.326185  1
  O  O23  1  0.648396  0.490121  0.673815  1
  O  O24  1  0.560937  0.170823  0.735748  1
  O  O25  1  0.439063  0.670823  0.264252  1
  O  O26  1  0.414184  0.314694  0.270400  1
  O  O27  1  0.585816  0.814694  0.729600  1
