# generated using pymatgen
data_Ca(Fe2O3)2
_symmetry_space_group_name_H-M   'P 1'
_cell_length_a   5.37227751
_cell_length_b   5.37227751
_cell_length_c   15.34596388
_cell_angle_alpha   90.00000000
_cell_angle_beta   90.00000000
_cell_angle_gamma   146.81696857
_symmetry_Int_Tables_number   1
_chemical_formula_structural   Ca(Fe2O3)2
_chemical_formula_sum   'Ca2 Fe8 O12'
_cell_volume   242.40898078
_cell_formula_units_Z   2
loop_
 _symmetry_equiv_pos_site_id
 _symmetry_equiv_pos_as_xyz
  1  'x, y, z'
loop_
 _atom_site_type_symbol
 _atom_site_label
 _atom_site_symmetry_multiplicity
 _atom_site_fract_x
 _atom_site_fract_y
 _atom_site_fract_z
 _atom_site_occupancy
  Ca  Ca0  1  0.344756  0.655244  0.750000  1
  Ca  Ca1  1  0.655244  0.344756  0.250000  1
  Fe  Fe2  1  0.134649  0.865351  0.043652  1
  Fe  Fe3  1  0.865351  0.134649  0.956348  1
  Fe  Fe4  1  0.134649  0.865351  0.456348  1
  Fe  Fe5  1  0.865351  0.134649  0.543652  1
  Fe  Fe6  1  0.596743  0.403257  0.633345  1
  Fe  Fe7  1  0.403257  0.596743  0.366655  1
  Fe  Fe8  1  0.403257  0.596743  0.133345  1
  Fe  Fe9  1  0.596743  0.403257  0.866655  1
  O  O10  1  0.500000  0.500000  0.500000  1
  O  O11  1  0.500000  0.500000  0.000000  1
  O  O12  1  0.966177  0.033823  0.842004  1
  O  O13  1  0.033823  0.966177  0.157996  1
  O  O14  1  0.033823  0.966177  0.342004  1
  O  O15  1  0.966177  0.033823  0.657996  1
  O  O16  1  0.214443  0.785557  0.915230  1
  O  O17  1  0.785557  0.214443  0.084770  1
  O  O18  1  0.785557  0.214443  0.415230  1
  O  O19  1  0.214443  0.785557  0.584770  1
  O  O20  1  0.677417  0.322583  0.750000  1
  O  O21  1  0.322583  0.677417  0.250000  1
