# generated using pymatgen
data_Cr2ReO6
_symmetry_space_group_name_H-M   'P 1'
_cell_length_a   4.61020588
_cell_length_b   4.61020588
_cell_length_c   9.16008811
_cell_angle_alpha   90.00000000
_cell_angle_beta   90.00000000
_cell_angle_gamma   90.00000000
_symmetry_Int_Tables_number   1
_chemical_formula_structural   Cr2ReO6
_chemical_formula_sum   'Cr4 Re2 O12'
_cell_volume   194.68849671
_cell_formula_units_Z   2
loop_
 _symmetry_equiv_pos_site_id
 _symmetry_equiv_pos_as_xyz
  1  'x, y, z'
loop_
 _atom_site_type_symbol
 _atom_site_label
 _atom_site_symmetry_multiplicity
 _atom_site_fract_x
 _atom_site_fract_y
 _atom_site_fract_z
 _atom_site_occupancy
  Cr  Cr0  1  0.000000  0.000000  0.334071  1
  Cr  Cr1  1  0.500000  0.500000  0.834071  1
  Cr  Cr2  1  0.000000  0.000000  0.665929  1
  Cr  Cr3  1  0.500000  0.500000  0.165929  1
  Re  Re4  1  0.000000  0.000000  0.000000  1
  Re  Re5  1  0.500000  0.500000  0.500000  1
  O  O6  1  0.692176  0.692176  0.661984  1
  O  O7  1  0.307824  0.307824  0.661984  1
  O  O8  1  0.692176  0.692176  0.338016  1
  O  O9  1  0.192176  0.807824  0.161984  1
  O  O10  1  0.807824  0.192176  0.161984  1
  O  O11  1  0.807824  0.192176  0.838016  1
  O  O12  1  0.294809  0.294809  0.000000  1
  O  O13  1  0.205191  0.794809  0.500000  1
  O  O14  1  0.794809  0.205191  0.500000  1
  O  O15  1  0.192176  0.807824  0.838016  1
  O  O16  1  0.307824  0.307824  0.338016  1
  O  O17  1  0.705191  0.705191  0.000000  1
