# generated using pymatgen
data_LaSiIr
_symmetry_space_group_name_H-M   'P 1'
_cell_length_a   6.43190592
_cell_length_b   6.43190592
_cell_length_c   6.43190592
_cell_angle_alpha   90.00000000
_cell_angle_beta   90.00000000
_cell_angle_gamma   90.00000000
_symmetry_Int_Tables_number   1
_chemical_formula_structural   LaSiIr
_chemical_formula_sum   'La4 Si4 Ir4'
_cell_volume   266.08417729
_cell_formula_units_Z   4
loop_
 _symmetry_equiv_pos_site_id
 _symmetry_equiv_pos_as_xyz
  1  'x, y, z'
loop_
 _atom_site_type_symbol
 _atom_site_label
 _atom_site_symmetry_multiplicity
 _atom_site_fract_x
 _atom_site_fract_y
 _atom_site_fract_z
 _atom_site_occupancy
  La  La0  1  0.134759  0.865241  0.365241  1
  La  La1  1  0.865241  0.365241  0.134759  1
  La  La2  1  0.634759  0.634759  0.634759  1
  La  La3  1  0.365241  0.134759  0.865241  1
  Si  Si4  1  0.659619  0.840381  0.159619  1
  Si  Si5  1  0.159619  0.659619  0.840381  1
  Si  Si6  1  0.840381  0.159619  0.659619  1
  Si  Si7  1  0.340381  0.340381  0.340381  1
  Ir  Ir8  1  0.073360  0.426640  0.573360  1
  Ir  Ir9  1  0.573360  0.073360  0.426640  1
  Ir  Ir10  1  0.926640  0.926640  0.926640  1
  Ir  Ir11  1  0.426640  0.573360  0.073360  1
