# generated using pymatgen
data_NiP2O7
_symmetry_space_group_name_H-M   'P 1'
_cell_length_a   5.29459916
_cell_length_b   5.29459916
_cell_length_c   4.61946993
_cell_angle_alpha   82.02577938
_cell_angle_beta   97.97422062
_cell_angle_gamma   78.90220899
_symmetry_Int_Tables_number   1
_chemical_formula_structural   NiP2O7
_chemical_formula_sum   'Ni1 P2 O7'
_cell_volume   124.00948688
_cell_formula_units_Z   1
loop_
 _symmetry_equiv_pos_site_id
 _symmetry_equiv_pos_as_xyz
  1  'x, y, z'
loop_
 _atom_site_type_symbol
 _atom_site_label
 _atom_site_symmetry_multiplicity
 _atom_site_fract_x
 _atom_site_fract_y
 _atom_site_fract_z
 _atom_site_occupancy
  Ni  Ni0  1  0.884040  0.884040  0.000000  1
  P  P1  1  0.739320  0.335417  0.412508  1
  P  P2  1  0.335417  0.739320  0.587492  1
  O  O3  1  0.189727  0.918770  0.300749  1
  O  O4  1  0.862077  0.543905  0.260852  1
  O  O5  1  0.151486  0.662979  0.797228  1
  O  O6  1  0.662979  0.151486  0.202772  1
  O  O7  1  0.467845  0.467845  0.500000  1
  O  O8  1  0.918770  0.189727  0.699251  1
  O  O9  1  0.543905  0.862077  0.739148  1
