# generated using pymatgen
data_La5(AlBr)4
_symmetry_space_group_name_H-M   'P 1'
_cell_length_a   11.74835067
_cell_length_b   11.74835067
_cell_length_c   11.74835067
_cell_angle_alpha   138.47468617
_cell_angle_beta   138.47468617
_cell_angle_gamma   60.17676705
_symmetry_Int_Tables_number   1
_chemical_formula_structural   La5(AlBr)4
_chemical_formula_sum   'La10 Al8 Br8'
_cell_volume   705.27820014
_cell_formula_units_Z   2
loop_
 _symmetry_equiv_pos_site_id
 _symmetry_equiv_pos_as_xyz
  1  'x, y, z'
loop_
 _atom_site_type_symbol
 _atom_site_label
 _atom_site_symmetry_multiplicity
 _atom_site_fract_x
 _atom_site_fract_y
 _atom_site_fract_z
 _atom_site_occupancy
  La  La0  1  0.750000  0.750000  0.000000  1
  La  La1  1  0.250000  0.250000  0.000000  1
  La  La2  1  0.223757  0.047320  0.500000  1
  La  La3  1  0.776243  0.952680  0.500000  1
  La  La4  1  0.452680  0.276243  0.500000  1
  La  La5  1  0.276243  0.776243  0.823563  1
  La  La6  1  0.952680  0.452680  0.176437  1
  La  La7  1  0.047320  0.547320  0.823563  1
  La  La8  1  0.723757  0.223757  0.176437  1
  La  La9  1  0.547320  0.723757  0.500000  1
  Al  Al10  1  0.077604  0.862719  0.500000  1
  Al  Al11  1  0.922396  0.137281  0.500000  1
  Al  Al12  1  0.637281  0.422396  0.500000  1
  Al  Al13  1  0.422396  0.922396  0.785115  1
  Al  Al14  1  0.137281  0.637281  0.214885  1
  Al  Al15  1  0.862719  0.362719  0.785115  1
  Al  Al16  1  0.577604  0.077604  0.214885  1
  Al  Al17  1  0.362719  0.577604  0.500000  1
  Br  Br18  1  0.144039  0.355961  0.500000  1
  Br  Br19  1  0.355961  0.855961  0.211921  1
  Br  Br20  1  0.405313  0.405313  0.000000  1
  Br  Br21  1  0.094687  0.094687  0.000000  1
  Br  Br22  1  0.594687  0.594687  0.000000  1
  Br  Br23  1  0.905313  0.905313  0.000000  1
  Br  Br24  1  0.855961  0.644039  0.500000  1
  Br  Br25  1  0.644039  0.144039  0.788079  1
