# generated using pymatgen
data_Bi2Te3
_symmetry_space_group_name_H-M   'P 1'
_cell_length_a   10.69668073
_cell_length_b   10.69668073
_cell_length_c   10.69668073
_cell_angle_alpha   24.00854675
_cell_angle_beta   24.00854675
_cell_angle_gamma   24.00854675
_symmetry_Int_Tables_number   1
_chemical_formula_structural   Bi2Te3
_chemical_formula_sum   'Bi2 Te3'
_cell_volume   178.03287580
_cell_formula_units_Z   1
loop_
 _symmetry_equiv_pos_site_id
 _symmetry_equiv_pos_as_xyz
  1  'x, y, z'
loop_
 _atom_site_type_symbol
 _atom_site_label
 _atom_site_symmetry_multiplicity
 _atom_site_fract_x
 _atom_site_fract_y
 _atom_site_fract_z
 _atom_site_occupancy
  Bi  Bi0  1  0.600743  0.600743  0.600743  1
  Bi  Bi1  1  0.399257  0.399257  0.399257  1
  Te  Te2  1  0.788156  0.788156  0.788156  1
  Te  Te3  1  0.000000  0.000000  0.000000  1
  Te  Te4  1  0.211844  0.211844  0.211844  1
