# generated using pymatgen
data_LiMn8O16
_symmetry_space_group_name_H-M   'P 1'
_cell_length_a   5.91740453
_cell_length_b   8.29519451
_cell_length_c   11.70526674
_cell_angle_alpha   90.00000000
_cell_angle_beta   90.00000000
_cell_angle_gamma   90.00000000
_symmetry_Int_Tables_number   1
_chemical_formula_structural   LiMn8O16
_chemical_formula_sum   'Li2 Mn16 O32'
_cell_volume   574.56497543
_cell_formula_units_Z   2
loop_
 _symmetry_equiv_pos_site_id
 _symmetry_equiv_pos_as_xyz
  1  'x, y, z'
loop_
 _atom_site_type_symbol
 _atom_site_label
 _atom_site_symmetry_multiplicity
 _atom_site_fract_x
 _atom_site_fract_y
 _atom_site_fract_z
 _atom_site_occupancy
  Li  Li0  1  0.000000  0.624385  0.500000  1
  Li  Li1  1  0.500000  0.375615  0.000000  1
  Mn  Mn2  1  0.750000  0.500000  0.750000  1
  Mn  Mn3  1  0.500000  0.750079  0.627098  1
  Mn  Mn4  1  0.250197  0.000132  0.500000  1
  Mn  Mn5  1  0.000000  0.247571  0.624457  1
  Mn  Mn6  1  0.000000  0.247571  0.375543  1
  Mn  Mn7  1  0.749803  0.000132  0.500000  1
  Mn  Mn8  1  0.750000  0.500000  0.250000  1
  Mn  Mn9  1  0.500000  0.750079  0.372902  1
  Mn  Mn10  1  0.500000  0.752429  0.124457  1
  Mn  Mn11  1  0.250000  0.500000  0.250000  1
  Mn  Mn12  1  0.249803  0.999868  0.000000  1
  Mn  Mn13  1  0.000000  0.249921  0.127098  1
  Mn  Mn14  1  0.000000  0.249921  0.872902  1
  Mn  Mn15  1  0.750197  0.999868  0.000000  1
  Mn  Mn16  1  0.500000  0.752429  0.875543  1
  Mn  Mn17  1  0.250000  0.500000  0.750000  1
  O  O18  1  0.000000  0.481022  0.632658  1
  O  O19  1  0.715379  0.738344  0.750179  1
  O  O20  1  0.721212  0.762357  0.500000  1
  O  O21  1  0.500000  0.517004  0.641799  1
  O  O22  1  0.500000  0.983781  0.391096  1
  O  O23  1  0.500000  0.983781  0.608904  1
  O  O24  1  0.278788  0.762357  0.500000  1
  O  O25  1  0.284621  0.738344  0.750179  1
  O  O26  1  0.218168  0.232944  0.500000  1
  O  O27  1  0.215379  0.261656  0.250179  1
  O  O28  1  0.000000  0.013538  0.609211  1
  O  O29  1  0.000000  0.013538  0.390789  1
  O  O30  1  0.000000  0.482996  0.141799  1
  O  O31  1  0.000000  0.481022  0.367342  1
  O  O32  1  0.784621  0.261656  0.250179  1
  O  O33  1  0.781832  0.232944  0.500000  1
  O  O34  1  0.715379  0.738344  0.249821  1
  O  O35  1  0.718168  0.767056  0.000000  1
  O  O36  1  0.500000  0.517004  0.358201  1
  O  O37  1  0.500000  0.518978  0.132658  1
  O  O38  1  0.500000  0.986462  0.890789  1
  O  O39  1  0.500000  0.986462  0.109211  1
  O  O40  1  0.281832  0.767056  0.000000  1
  O  O41  1  0.284621  0.738344  0.249821  1
  O  O42  1  0.221212  0.237643  0.000000  1
  O  O43  1  0.215379  0.261656  0.749821  1
  O  O44  1  0.000000  0.016219  0.108904  1
  O  O45  1  0.000000  0.016219  0.891096  1
  O  O46  1  0.000000  0.482996  0.858201  1
  O  O47  1  0.784621  0.261656  0.749821  1
  O  O48  1  0.778788  0.237643  0.000000  1
  O  O49  1  0.500000  0.518978  0.867342  1
