# generated using pymatgen
data_Ho2Ni2Pb
_symmetry_space_group_name_H-M   'P 1'
_cell_length_a   7.40085279
_cell_length_b   7.40085279
_cell_length_c   3.71657195
_cell_angle_alpha   90.00000000
_cell_angle_beta   90.00000000
_cell_angle_gamma   149.29457862
_symmetry_Int_Tables_number   1
_chemical_formula_structural   Ho2Ni2Pb
_chemical_formula_sum   'Ho2 Ni2 Pb1'
_cell_volume   103.94594074
_cell_formula_units_Z   1
loop_
 _symmetry_equiv_pos_site_id
 _symmetry_equiv_pos_as_xyz
  1  'x, y, z'
loop_
 _atom_site_type_symbol
 _atom_site_label
 _atom_site_symmetry_multiplicity
 _atom_site_fract_x
 _atom_site_fract_y
 _atom_site_fract_z
 _atom_site_occupancy
  Ho  Ho0  1  0.359441  0.640559  0.500000  1
  Ho  Ho1  1  0.640559  0.359441  0.500000  1
  Ni  Ni2  1  0.799228  0.200772  0.000000  1
  Ni  Ni3  1  0.200772  0.799228  1.000000  1
  Pb  Pb4  1  0.000000  0.000000  0.000000  1
