# generated using pymatgen
data_K6Fe2O5
_symmetry_space_group_name_H-M   'P 1'
_cell_length_a   6.77134862
_cell_length_b   6.77134862
_cell_length_c   6.78917472
_cell_angle_alpha   88.52915389
_cell_angle_beta   91.47084611
_cell_angle_gamma   62.35315971
_symmetry_Int_Tables_number   1
_chemical_formula_structural   K6Fe2O5
_chemical_formula_sum   'K6 Fe2 O5'
_cell_volume   275.41051363
_cell_formula_units_Z   1
loop_
 _symmetry_equiv_pos_site_id
 _symmetry_equiv_pos_as_xyz
  1  'x, y, z'
loop_
 _atom_site_type_symbol
 _atom_site_label
 _atom_site_symmetry_multiplicity
 _atom_site_fract_x
 _atom_site_fract_y
 _atom_site_fract_z
 _atom_site_occupancy
  K  K0  1  0.212675  0.209485  0.005698  1
  K  K1  1  0.635829  0.364171  0.828691  1
  K  K2  1  0.757267  0.756353  0.496977  1
  K  K3  1  0.243647  0.242733  0.496977  1
  K  K4  1  0.355962  0.644038  0.173006  1
  K  K5  1  0.790515  0.787325  0.005698  1
  Fe  Fe6  1  0.209457  0.790543  0.668723  1
  Fe  Fe7  1  0.810356  0.189644  0.303374  1
  O  O8  1  0.438942  0.842326  0.780951  1
  O  O9  1  0.157674  0.561058  0.780951  1
  O  O10  1  0.071626  0.928374  0.412778  1
  O  O11  1  0.553134  0.165483  0.228538  1
  O  O12  1  0.834517  0.446866  0.228538  1
