# generated using pymatgen
data_Er6Ni2Sn
_symmetry_space_group_name_H-M   'P 1'
_cell_length_a   8.34028014
_cell_length_b   8.34028014
_cell_length_c   8.34028014
_cell_angle_alpha   113.05537540
_cell_angle_beta   109.76607354
_cell_angle_gamma   105.67608881
_symmetry_Int_Tables_number   1
_chemical_formula_structural   Er6Ni2Sn
_chemical_formula_sum   'Er12 Ni4 Sn2'
_cell_volume   444.75024022
_cell_formula_units_Z   2
loop_
 _symmetry_equiv_pos_site_id
 _symmetry_equiv_pos_as_xyz
  1  'x, y, z'
loop_
 _atom_site_type_symbol
 _atom_site_label
 _atom_site_symmetry_multiplicity
 _atom_site_fract_x
 _atom_site_fract_y
 _atom_site_fract_z
 _atom_site_occupancy
  Er  Er0  1  0.325469  0.134831  0.809362  1
  Er  Er1  1  0.674531  0.483894  0.809362  1
  Er  Er2  1  0.437794  0.733345  0.704449  1
  Er  Er3  1  0.562206  0.266655  0.295551  1
  Er  Er4  1  0.971104  0.266655  0.704449  1
  Er  Er5  1  0.028896  0.733345  0.295551  1
  Er  Er6  1  0.325469  0.516106  0.190638  1
  Er  Er7  1  0.674531  0.865169  0.190638  1
  Er  Er8  1  0.182546  0.791989  0.974535  1
  Er  Er9  1  0.817454  0.791989  0.609443  1
  Er  Er10  1  0.182546  0.208011  0.390557  1
  Er  Er11  1  0.817454  0.208011  0.025465  1
  Ni  Ni12  1  0.876446  0.876446  0.000000  1
  Ni  Ni13  1  0.123554  0.123554  0.000000  1
  Ni  Ni14  1  0.650550  0.500000  0.150550  1
  Ni  Ni15  1  0.349450  0.500000  0.849450  1
  Sn  Sn16  1  0.500000  1.000000  0.500000  1
  Sn  Sn17  1  0.000000  0.500000  0.500000  1
