# generated using pymatgen
data_NdNbO4
_symmetry_space_group_name_H-M   'P 1'
_cell_length_a   6.85044437
_cell_length_b   6.85044437
_cell_length_c   5.27976299
_cell_angle_alpha   68.48607024
_cell_angle_beta   111.51392976
_cell_angle_gamma   65.65057931
_symmetry_Int_Tables_number   1
_chemical_formula_structural   NdNbO4
_chemical_formula_sum   'Nd2 Nb2 O8'
_cell_volume   166.23452875
_cell_formula_units_Z   2
loop_
 _symmetry_equiv_pos_site_id
 _symmetry_equiv_pos_as_xyz
  1  'x, y, z'
loop_
 _atom_site_type_symbol
 _atom_site_label
 _atom_site_symmetry_multiplicity
 _atom_site_fract_x
 _atom_site_fract_y
 _atom_site_fract_z
 _atom_site_occupancy
  Nd  Nd0  1  0.372722  0.372722  0.750000  1
  Nd  Nd1  1  0.627278  0.627278  0.250000  1
  Nb  Nb2  1  0.888003  0.888003  0.750000  1
  Nb  Nb3  1  0.111997  0.111997  0.250000  1
  O  O4  1  0.636781  0.946838  0.841544  1
  O  O5  1  0.946838  0.636781  0.658456  1
  O  O6  1  0.363219  0.053162  0.158456  1
  O  O7  1  0.053162  0.363219  0.341544  1
  O  O8  1  0.787398  0.281636  0.818122  1
  O  O9  1  0.281636  0.787398  0.681878  1
  O  O10  1  0.212602  0.718364  0.181878  1
  O  O11  1  0.718364  0.212602  0.318122  1
