# generated using pymatgen
data_NbSbO4
_symmetry_space_group_name_H-M   'P 1'
_cell_length_a   5.05535336
_cell_length_b   5.68032823
_cell_length_c   11.99543463
_cell_angle_alpha   90.00000000
_cell_angle_beta   90.00000000
_cell_angle_gamma   90.00000000
_symmetry_Int_Tables_number   1
_chemical_formula_structural   NbSbO4
_chemical_formula_sum   'Nb4 Sb4 O16'
_cell_volume   344.46169737
_cell_formula_units_Z   4
loop_
 _symmetry_equiv_pos_site_id
 _symmetry_equiv_pos_as_xyz
  1  'x, y, z'
loop_
 _atom_site_type_symbol
 _atom_site_label
 _atom_site_symmetry_multiplicity
 _atom_site_fract_x
 _atom_site_fract_y
 _atom_site_fract_z
 _atom_site_occupancy
  Nb  Nb0  1  0.509045  0.612525  0.500591  1
  Nb  Nb1  1  0.490955  0.387475  0.000591  1
  Nb  Nb2  1  0.990955  0.112525  0.500591  1
  Nb  Nb3  1  0.009045  0.887475  0.000591  1
  Sb  Sb4  1  0.442473  0.977509  0.749053  1
  Sb  Sb5  1  0.557527  0.022491  0.249053  1
  Sb  Sb6  1  0.057527  0.477509  0.749053  1
  Sb  Sb7  1  0.942473  0.522491  0.249053  1
  O  O8  1  0.230270  0.881905  0.456736  1
  O  O9  1  0.769730  0.118095  0.956736  1
  O  O10  1  0.269730  0.381905  0.456736  1
  O  O11  1  0.730270  0.618095  0.956736  1
  O  O12  1  0.335373  0.660261  0.660273  1
  O  O13  1  0.664627  0.339739  0.160273  1
  O  O14  1  0.164627  0.160261  0.660273  1
  O  O15  1  0.835373  0.839739  0.160273  1
  O  O16  1  0.164396  0.819389  0.849207  1
  O  O17  1  0.835604  0.180611  0.349207  1
  O  O18  1  0.335604  0.319389  0.849207  1
  O  O19  1  0.664396  0.680611  0.349207  1
  O  O20  1  0.214116  0.574159  0.059040  1
  O  O21  1  0.785884  0.425841  0.559040  1
  O  O22  1  0.285884  0.074159  0.059040  1
  O  O23  1  0.714116  0.925841  0.559040  1
