# generated using pymatgen
data_LiIr3
_symmetry_space_group_name_H-M   'P 1'
_cell_length_a   5.16436309
_cell_length_b   5.16436309
_cell_length_c   5.16436309
_cell_angle_alpha   149.68600594
_cell_angle_beta   125.86822583
_cell_angle_gamma   63.30793019
_symmetry_Int_Tables_number   1
_chemical_formula_structural   LiIr3
_chemical_formula_sum   'Li1 Ir3'
_cell_volume   55.79529206
_cell_formula_units_Z   1
loop_
 _symmetry_equiv_pos_site_id
 _symmetry_equiv_pos_as_xyz
  1  'x, y, z'
loop_
 _atom_site_type_symbol
 _atom_site_label
 _atom_site_symmetry_multiplicity
 _atom_site_fract_x
 _atom_site_fract_y
 _atom_site_fract_z
 _atom_site_occupancy
  Li  Li0  1  0.482819  0.500000  0.982819  1
  Ir  Ir1  1  0.047859  0.740399  0.307460  1
  Ir  Ir2  1  0.567061  0.259601  0.307460  1
  Ir  Ir3  1  0.998260  1.000000  0.998260  1
