# generated using pymatgen
data_ZrP2S7
_symmetry_space_group_name_H-M   'P 1'
_cell_length_a   16.92753821
_cell_length_b   15.80628446
_cell_length_c   8.85947974
_cell_angle_alpha   81.41924977
_cell_angle_beta   67.41481582
_cell_angle_gamma   31.16593441
_symmetry_Int_Tables_number   1
_chemical_formula_structural   ZrP2S7
_chemical_formula_sum   'Zr4 P8 S28'
_cell_volume   1049.78916775
_cell_formula_units_Z   4
loop_
 _symmetry_equiv_pos_site_id
 _symmetry_equiv_pos_as_xyz
  1  'x, y, z'
loop_
 _atom_site_type_symbol
 _atom_site_label
 _atom_site_symmetry_multiplicity
 _atom_site_fract_x
 _atom_site_fract_y
 _atom_site_fract_z
 _atom_site_occupancy
  Zr  Zr0  1  0.888187  0.888187  0.111813  1
  Zr  Zr1  1  0.361813  0.361813  0.138187  1
  Zr  Zr2  1  0.111813  0.111813  0.888187  1
  Zr  Zr3  1  0.138187  0.138187  0.361813  1
  P  P4  1  0.749474  0.135037  0.870063  1
  P  P5  1  0.135037  0.749474  0.245426  1
  P  P6  1  0.500526  0.114963  0.379937  1
  P  P7  1  0.114963  0.500526  0.004574  1
  P  P8  1  0.379937  0.004574  0.500526  1
  P  P9  1  0.004574  0.379937  0.114963  1
  P  P10  1  0.870063  0.245426  0.749474  1
  P  P11  1  0.245426  0.870063  0.135037  1
  S  S12  1  0.729673  0.270327  0.729673  1
  S  S13  1  0.108719  0.245556  0.644582  1
  S  S14  1  0.004444  0.141281  0.248856  1
  S  S15  1  0.141281  0.004444  0.605418  1
  S  S16  1  0.955525  0.437732  0.358100  1
  S  S17  1  0.437732  0.955525  0.248643  1
  S  S18  1  0.294475  0.812268  0.891900  1
  S  S19  1  0.812268  0.294475  0.001357  1
  S  S20  1  0.842387  0.446998  0.091755  1
  S  S21  1  0.245556  0.108719  0.001144  1
  S  S22  1  0.407613  0.803002  0.158245  1
  S  S23  1  0.803002  0.407613  0.631140  1
  S  S24  1  0.091755  0.618860  0.842387  1
  S  S25  1  0.618860  0.091755  0.446998  1
  S  S26  1  0.158245  0.631140  0.407613  1
  S  S27  1  0.631140  0.158245  0.803002  1
  S  S28  1  0.358100  0.248643  0.955525  1
  S  S29  1  0.248643  0.358100  0.437732  1
  S  S30  1  0.891900  0.001357  0.294475  1
  S  S31  1  0.001357  0.891900  0.812268  1
  S  S32  1  0.001144  0.644582  0.245556  1
  S  S33  1  0.644582  0.001144  0.108719  1
  S  S34  1  0.248856  0.605418  0.004444  1
  S  S35  1  0.605418  0.248856  0.141281  1
  S  S36  1  0.520327  0.979673  0.520327  1
  S  S37  1  0.979673  0.520327  0.979673  1
  S  S38  1  0.446998  0.842387  0.618860  1
  S  S39  1  0.270327  0.729673  0.270327  1
