# generated using pymatgen
data_ErAl2Ni
_symmetry_space_group_name_H-M   'P 1'
_cell_length_a   5.42113589
_cell_length_b   5.42113589
_cell_length_c   6.85229337
_cell_angle_alpha   90.00000000
_cell_angle_beta   90.00000000
_cell_angle_gamma   136.08905701
_symmetry_Int_Tables_number   1
_chemical_formula_structural   ErAl2Ni
_chemical_formula_sum   'Er2 Al4 Ni2'
_cell_volume   139.66503530
_cell_formula_units_Z   2
loop_
 _symmetry_equiv_pos_site_id
 _symmetry_equiv_pos_as_xyz
  1  'x, y, z'
loop_
 _atom_site_type_symbol
 _atom_site_label
 _atom_site_symmetry_multiplicity
 _atom_site_fract_x
 _atom_site_fract_y
 _atom_site_fract_z
 _atom_site_occupancy
  Er  Er0  1  0.937075  0.062925  0.750000  1
  Er  Er1  1  0.062925  0.937075  0.250000  1
  Al  Al2  1  0.654035  0.345965  0.946235  1
  Al  Al3  1  0.345965  0.654035  0.053765  1
  Al  Al4  1  0.345965  0.654035  0.446235  1
  Al  Al5  1  0.654035  0.345965  0.553765  1
  Ni  Ni6  1  0.214668  0.785332  0.750000  1
  Ni  Ni7  1  0.785332  0.214668  0.250000  1
