# generated using pymatgen
data_Y2S3
_symmetry_space_group_name_H-M   'P 1'
_cell_length_a   13.80739000
_cell_length_b   13.80739000
_cell_length_c   13.80739000
_cell_angle_alpha   144.78568080
_cell_angle_beta   144.78568080
_cell_angle_gamma   50.65402387
_symmetry_Int_Tables_number   1
_chemical_formula_structural   Y2S3
_chemical_formula_sum   'Y16 S24'
_cell_volume   870.81354768
_cell_formula_units_Z   8
loop_
 _symmetry_equiv_pos_site_id
 _symmetry_equiv_pos_as_xyz
  1  'x, y, z'
loop_
 _atom_site_type_symbol
 _atom_site_label
 _atom_site_symmetry_multiplicity
 _atom_site_fract_x
 _atom_site_fract_y
 _atom_site_fract_z
 _atom_site_occupancy
  Y  Y0  1  0.178157  0.298914  0.399837  1
  Y  Y1  1  0.899077  0.778320  0.600163  1
  Y  Y2  1  0.585112  0.085112  0.500000  1
  Y  Y3  1  0.375000  0.743397  0.868397  1
  Y  Y4  1  0.850923  0.951086  0.379243  1
  Y  Y5  1  0.164888  0.164888  0.000000  1
  Y  Y6  1  0.875000  0.506603  0.131603  1
  Y  Y7  1  0.571843  0.471680  0.620757  1
  Y  Y8  1  0.048914  0.428157  0.899837  1
  Y  Y9  1  0.835112  0.835112  0.000000  1
  Y  Y10  1  0.493397  0.625000  0.368397  1
  Y  Y11  1  0.256603  0.125000  0.631603  1
  Y  Y12  1  0.528320  0.149077  0.100163  1
  Y  Y13  1  0.914888  0.414888  0.500000  1
  Y  Y14  1  0.701086  0.100923  0.879243  1
  Y  Y15  1  0.221680  0.821843  0.120757  1
  S  S16  1  0.884995  0.131085  0.884800  1
  S  S17  1  0.536035  0.422464  0.746100  1
  S  S18  1  0.246285  0.000195  0.115200  1
  S  S19  1  0.503715  0.118915  0.253910  1
  S  S20  1  0.865005  0.249805  0.746090  1
  S  S21  1  0.676364  0.789935  0.253900  1
  S  S22  1  0.558853  0.811874  0.905379  1
  S  S23  1  0.073636  0.827536  0.613571  1
  S  S24  1  0.188126  0.093505  0.746979  1
  S  S25  1  0.906495  0.653474  0.094621  1
  S  S26  1  0.213965  0.460065  0.386429  1
  S  S27  1  0.172464  0.786035  0.246100  1
  S  S28  1  0.539935  0.926364  0.753900  1
  S  S29  1  0.346526  0.441147  0.253021  1
  S  S30  1  0.210065  0.463965  0.886429  1
  S  S31  1  0.750195  0.496285  0.615200  1
  S  S32  1  0.868915  0.753715  0.753910  1
  S  S33  1  0.577536  0.323636  0.113571  1
  S  S34  1  0.881085  0.134995  0.384800  1
  S  S35  1  0.843505  0.438126  0.246979  1
  S  S36  1  0.191147  0.596526  0.753021  1
  S  S37  1  0.999805  0.115005  0.246090  1
  S  S38  1  0.403474  0.156495  0.594621  1
  S  S39  1  0.561874  0.808853  0.405379  1
