# generated using pymatgen
data_ZrUN2
_symmetry_space_group_name_H-M   'P 1'
_cell_length_a   5.79715306
_cell_length_b   5.79715306
_cell_length_c   5.79715306
_cell_angle_alpha   131.77054115
_cell_angle_beta   131.77054115
_cell_angle_gamma   70.59167450
_symmetry_Int_Tables_number   1
_chemical_formula_structural   ZrUN2
_chemical_formula_sum   'Zr2 U2 N4'
_cell_volume   106.17263074
_cell_formula_units_Z   2
loop_
 _symmetry_equiv_pos_site_id
 _symmetry_equiv_pos_as_xyz
  1  'x, y, z'
loop_
 _atom_site_type_symbol
 _atom_site_label
 _atom_site_symmetry_multiplicity
 _atom_site_fract_x
 _atom_site_fract_y
 _atom_site_fract_z
 _atom_site_occupancy
  Zr  Zr0  1  0.000000  0.000000  0.000000  1
  Zr  Zr1  1  0.750000  0.250000  0.500000  1
  U  U2  1  0.500000  0.500000  0.000000  1
  U  U3  1  0.250000  0.750000  0.500000  1
  N  N4  1  0.753035  0.753035  0.000000  1
  N  N5  1  0.246965  0.246965  0.000000  1
  N  N6  1  0.996965  0.496965  0.500000  1
  N  N7  1  0.503035  0.003035  0.500000  1
