# generated using pymatgen
data_Er2SnAu2
_symmetry_space_group_name_H-M   'P 1'
_cell_length_a   7.90007280
_cell_length_b   7.90007280
_cell_length_c   7.45169288
_cell_angle_alpha   90.00000000
_cell_angle_beta   90.00000000
_cell_angle_gamma   90.00000000
_symmetry_Int_Tables_number   1
_chemical_formula_structural   Er2SnAu2
_chemical_formula_sum   'Er8 Sn4 Au8'
_cell_volume   465.06872392
_cell_formula_units_Z   4
loop_
 _symmetry_equiv_pos_site_id
 _symmetry_equiv_pos_as_xyz
  1  'x, y, z'
loop_
 _atom_site_type_symbol
 _atom_site_label
 _atom_site_symmetry_multiplicity
 _atom_site_fract_x
 _atom_site_fract_y
 _atom_site_fract_z
 _atom_site_occupancy
  Er  Er0  1  0.683928  0.683928  0.000000  1
  Er  Er1  1  0.816072  0.183928  0.500000  1
  Er  Er2  1  0.183928  0.816072  0.500000  1
  Er  Er3  1  0.316072  0.316072  0.000000  1
  Er  Er4  1  0.842641  0.157359  0.000000  1
  Er  Er5  1  0.157359  0.842641  0.000000  1
  Er  Er6  1  0.342641  0.342641  0.500000  1
  Er  Er7  1  0.657359  0.657359  0.500000  1
  Sn  Sn8  1  0.500000  0.000000  0.750000  1
  Sn  Sn9  1  0.000000  0.500000  0.250000  1
  Sn  Sn10  1  0.500000  0.000000  0.250000  1
  Sn  Sn11  1  0.000000  0.500000  0.750000  1
  Au  Au12  1  0.627745  0.372255  0.778028  1
  Au  Au13  1  0.372255  0.627745  0.221972  1
  Au  Au14  1  0.872255  0.872255  0.278028  1
  Au  Au15  1  0.127745  0.127745  0.721972  1
  Au  Au16  1  0.127745  0.127745  0.278028  1
  Au  Au17  1  0.372255  0.627745  0.778028  1
  Au  Au18  1  0.872255  0.872255  0.721972  1
  Au  Au19  1  0.627745  0.372255  0.221972  1
