# generated using pymatgen
data_BaMn2O8
_symmetry_space_group_name_H-M   'P 1'
_cell_length_a   9.71322206
_cell_length_b   8.44444439
_cell_length_c   7.14540094
_cell_angle_alpha   76.57468411
_cell_angle_beta   57.73833054
_cell_angle_gamma   45.68698535
_symmetry_Int_Tables_number   1
_chemical_formula_structural   BaMn2O8
_chemical_formula_sum   'Ba2 Mn4 O16'
_cell_volume   344.89948321
_cell_formula_units_Z   2
loop_
 _symmetry_equiv_pos_site_id
 _symmetry_equiv_pos_as_xyz
  1  'x, y, z'
loop_
 _atom_site_type_symbol
 _atom_site_label
 _atom_site_symmetry_multiplicity
 _atom_site_fract_x
 _atom_site_fract_y
 _atom_site_fract_z
 _atom_site_occupancy
  Ba  Ba0  1  0.750000  0.750000  0.750000  1
  Ba  Ba1  1  0.500000  0.500000  0.500000  1
  Mn  Mn2  1  0.051956  0.448044  0.051956  1
  Mn  Mn3  1  0.448044  0.051956  0.448044  1
  Mn  Mn4  1  0.198044  0.801956  0.198044  1
  Mn  Mn5  1  0.801956  0.198044  0.801956  1
  O  O6  1  0.410591  0.756331  0.143060  1
  O  O7  1  0.690018  0.143060  0.756331  1
  O  O8  1  0.143060  0.690018  0.410591  1
  O  O9  1  0.756331  0.410591  0.690018  1
  O  O10  1  0.839409  0.493669  0.106940  1
  O  O11  1  0.559982  0.106940  0.493669  1
  O  O12  1  0.978264  0.071215  0.265769  1
  O  O13  1  0.684752  0.265769  0.071215  1
  O  O14  1  0.265769  0.684752  0.978264  1
  O  O15  1  0.071215  0.978264  0.684752  1
  O  O16  1  0.271736  0.178785  0.984231  1
  O  O17  1  0.565248  0.984231  0.178785  1
  O  O18  1  0.984231  0.565248  0.271736  1
  O  O19  1  0.178785  0.271736  0.565248  1
  O  O20  1  0.493669  0.839409  0.559982  1
  O  O21  1  0.106940  0.559982  0.839409  1
