# generated using pymatgen
data_DyAlNi
_symmetry_space_group_name_H-M   'P 1'
_cell_length_a   6.93117011
_cell_length_b   6.93117011
_cell_length_c   3.91543839
_cell_angle_alpha   90.00000000
_cell_angle_beta   90.00000000
_cell_angle_gamma   120.00000000
_symmetry_Int_Tables_number   1
_chemical_formula_structural   DyAlNi
_chemical_formula_sum   'Dy3 Al3 Ni3'
_cell_volume   162.90114707
_cell_formula_units_Z   3
loop_
 _symmetry_equiv_pos_site_id
 _symmetry_equiv_pos_as_xyz
  1  'x, y, z'
loop_
 _atom_site_type_symbol
 _atom_site_label
 _atom_site_symmetry_multiplicity
 _atom_site_fract_x
 _atom_site_fract_y
 _atom_site_fract_z
 _atom_site_occupancy
  Dy  Dy0  1  0.000000  0.582862  0.500000  1
  Dy  Dy1  1  0.417138  0.417138  0.500000  1
  Dy  Dy2  1  0.582862  0.000000  0.500000  1
  Al  Al3  1  0.765341  0.765341  0.000000  1
  Al  Al4  1  0.234659  0.000000  0.000000  1
  Al  Al5  1  0.000000  0.234659  0.000000  1
  Ni  Ni6  1  0.333333  0.666667  0.000000  1
  Ni  Ni7  1  0.666667  0.333333  0.000000  1
  Ni  Ni8  1  0.000000  0.000000  0.500000  1
