# generated using pymatgen
data_Al23V4
_symmetry_space_group_name_H-M   'P 1'
_cell_length_a   7.67876861
_cell_length_b   7.67876861
_cell_length_c   17.04047756
_cell_angle_alpha   90.00000000
_cell_angle_beta   90.00000000
_cell_angle_gamma   120.00000000
_symmetry_Int_Tables_number   1
_chemical_formula_structural   Al23V4
_chemical_formula_sum   'Al46 V8'
_cell_volume   870.15286554
_cell_formula_units_Z   2
loop_
 _symmetry_equiv_pos_site_id
 _symmetry_equiv_pos_as_xyz
  1  'x, y, z'
loop_
 _atom_site_type_symbol
 _atom_site_label
 _atom_site_symmetry_multiplicity
 _atom_site_fract_x
 _atom_site_fract_y
 _atom_site_fract_z
 _atom_site_occupancy
  Al  Al0  1  0.333333  0.666667  0.616067  1
  Al  Al1  1  0.666667  0.333333  0.116067  1
  Al  Al2  1  0.666667  0.333333  0.383933  1
  Al  Al3  1  0.333333  0.666667  0.883933  1
  Al  Al4  1  0.125719  0.251439  0.250000  1
  Al  Al5  1  0.874281  0.125719  0.750000  1
  Al  Al6  1  0.251439  0.125719  0.750000  1
  Al  Al7  1  0.748561  0.874281  0.250000  1
  Al  Al8  1  0.125719  0.874281  0.250000  1
  Al  Al9  1  0.874281  0.748561  0.750000  1
  Al  Al10  1  0.210674  0.421349  0.029584  1
  Al  Al11  1  0.789326  0.210674  0.529584  1
  Al  Al12  1  0.421349  0.210674  0.529584  1
  Al  Al13  1  0.578651  0.789326  0.029584  1
  Al  Al14  1  0.210674  0.789326  0.029584  1
  Al  Al15  1  0.789326  0.578651  0.970416  1
  Al  Al16  1  0.789326  0.210674  0.970416  1
  Al  Al17  1  0.789326  0.578651  0.529584  1
  Al  Al18  1  0.421349  0.210674  0.970416  1
  Al  Al19  1  0.578651  0.789326  0.470416  1
  Al  Al20  1  0.210674  0.421349  0.470416  1
  Al  Al21  1  0.210674  0.789326  0.470416  1
  Al  Al22  1  0.125247  0.250494  0.616527  1
  Al  Al23  1  0.874753  0.125247  0.116527  1
  Al  Al24  1  0.250494  0.125247  0.116527  1
  Al  Al25  1  0.749506  0.874753  0.616527  1
  Al  Al26  1  0.125247  0.874753  0.616527  1
  Al  Al27  1  0.874753  0.749506  0.383473  1
  Al  Al28  1  0.874753  0.125247  0.383473  1
  Al  Al29  1  0.874753  0.749506  0.116527  1
  Al  Al30  1  0.250494  0.125247  0.383473  1
  Al  Al31  1  0.749506  0.874753  0.883473  1
  Al  Al32  1  0.125247  0.250494  0.883473  1
  Al  Al33  1  0.125247  0.874753  0.883473  1
  Al  Al34  1  0.458965  0.917931  0.166369  1
  Al  Al35  1  0.541035  0.458965  0.666369  1
  Al  Al36  1  0.917931  0.458965  0.666369  1
  Al  Al37  1  0.082069  0.541035  0.166369  1
  Al  Al38  1  0.458965  0.541035  0.166369  1
  Al  Al39  1  0.541035  0.082069  0.833631  1
  Al  Al40  1  0.541035  0.458965  0.833631  1
  Al  Al41  1  0.541035  0.082069  0.666369  1
  Al  Al42  1  0.917931  0.458965  0.833631  1
  Al  Al43  1  0.082069  0.541035  0.333631  1
  Al  Al44  1  0.458965  0.917931  0.333631  1
  Al  Al45  1  0.458965  0.541035  0.333631  1
  V  V46  1  0.000000  0.000000  0.000000  1
  V  V47  1  0.000000  0.000000  0.500000  1
  V  V48  1  0.781171  0.562343  0.250000  1
  V  V49  1  0.218829  0.781171  0.750000  1
  V  V50  1  0.562343  0.781171  0.750000  1
  V  V51  1  0.437657  0.218829  0.250000  1
  V  V52  1  0.781171  0.218829  0.250000  1
  V  V53  1  0.218829  0.437657  0.750000  1
