# generated using pymatgen
data_Na4Ge9O20
_symmetry_space_group_name_H-M   'P 1'
_cell_length_a   11.41774551
_cell_length_b   11.41774551
_cell_length_c   11.41774551
_cell_angle_alpha   96.21061569
_cell_angle_beta   96.21061569
_cell_angle_gamma   141.59441462
_symmetry_Int_Tables_number   1
_chemical_formula_structural   Na4Ge9O20
_chemical_formula_sum   'Na8 Ge18 O40'
_cell_volume   873.22701609
_cell_formula_units_Z   2
loop_
 _symmetry_equiv_pos_site_id
 _symmetry_equiv_pos_as_xyz
  1  'x, y, z'
loop_
 _atom_site_type_symbol
 _atom_site_label
 _atom_site_symmetry_multiplicity
 _atom_site_fract_x
 _atom_site_fract_y
 _atom_site_fract_z
 _atom_site_occupancy
  Na  Na0  1  0.239212  0.131344  0.281028  1
  Na  Na1  1  0.208183  0.989212  0.607868  1
  Na  Na2  1  0.381344  0.600316  0.392132  1
  Na  Na3  1  0.850316  0.958183  0.718972  1
  Na  Na4  1  0.010788  0.618656  0.218972  1
  Na  Na5  1  0.041817  0.760788  0.892132  1
  Na  Na6  1  0.868656  0.149684  0.107868  1
  Na  Na7  1  0.399684  0.791817  0.781028  1
  Ge  Ge8  1  0.877759  0.311950  0.840223  1
  Ge  Ge9  1  0.287536  0.627759  0.065808  1
  Ge  Ge10  1  0.561950  0.221727  0.934192  1
  Ge  Ge11  1  0.471727  0.037536  0.159777  1
  Ge  Ge12  1  0.372241  0.438050  0.659777  1
  Ge  Ge13  1  0.962464  0.122241  0.434192  1
  Ge  Ge14  1  0.688050  0.528273  0.565808  1
  Ge  Ge15  1  0.778273  0.712464  0.340223  1
  Ge  Ge16  1  0.250000  0.750000  0.500000  1
  Ge  Ge17  1  0.000000  0.000000  0.000000  1
  Ge  Ge18  1  0.397340  0.461087  0.126984  1
  Ge  Ge19  1  0.520356  0.147340  0.436253  1
  Ge  Ge20  1  0.711087  0.084102  0.563747  1
  Ge  Ge21  1  0.334102  0.270356  0.873016  1
  Ge  Ge22  1  0.852660  0.288913  0.373016  1
  Ge  Ge23  1  0.729644  0.602660  0.063747  1
  Ge  Ge24  1  0.538913  0.665898  0.936253  1
  Ge  Ge25  1  0.915898  0.479644  0.626984  1
  O  O26  1  0.012008  0.525977  0.796223  1
  O  O27  1  0.465785  0.762008  0.986031  1
  O  O28  1  0.775977  0.479754  0.013969  1
  O  O29  1  0.729754  0.215785  0.203777  1
  O  O30  1  0.237992  0.224023  0.703777  1
  O  O31  1  0.784215  0.987992  0.513969  1
  O  O32  1  0.474023  0.270246  0.486031  1
  O  O33  1  0.520246  0.534215  0.296223  1
  O  O34  1  0.820230  0.141308  0.730353  1
  O  O35  1  0.339877  0.570230  0.178923  1
  O  O36  1  0.391308  0.160954  0.821077  1
  O  O37  1  0.410954  0.089877  0.269647  1
  O  O38  1  0.429770  0.608692  0.769647  1
  O  O39  1  0.910123  0.179770  0.321077  1
  O  O40  1  0.858692  0.589046  0.678923  1
  O  O41  1  0.839046  0.660123  0.230353  1
  O  O42  1  0.643851  0.155516  0.866869  1
  O  O43  1  0.026983  0.393851  0.988336  1
  O  O44  1  0.405516  0.038647  0.011664  1
  O  O45  1  0.288647  0.776983  0.133131  1
  O  O46  1  0.606149  0.594484  0.633131  1
  O  O47  1  0.223017  0.356149  0.511664  1
  O  O48  1  0.844484  0.711353  0.488336  1
  O  O49  1  0.961353  0.973017  0.366869  1
  O  O50  1  0.655581  0.208411  0.607981  1
  O  O51  1  0.297600  0.405581  0.947170  1
  O  O52  1  0.157455  0.211393  0.131319  1
  O  O53  1  0.276135  0.907455  0.446061  1
  O  O54  1  0.461393  0.830074  0.553939  1
  O  O55  1  0.080074  0.026135  0.868681  1
  O  O56  1  0.092545  0.538607  0.368681  1
  O  O57  1  0.973865  0.842545  0.053939  1
  O  O58  1  0.788607  0.919926  0.946061  1
  O  O59  1  0.169926  0.723865  0.631319  1
  O  O60  1  0.649570  0.702400  0.107981  1
  O  O61  1  0.791589  0.399570  0.447170  1
  O  O62  1  0.952400  0.344419  0.552830  1
  O  O63  1  0.594419  0.541589  0.892019  1
  O  O64  1  0.600430  0.047600  0.392019  1
  O  O65  1  0.458411  0.350430  0.052830  1
