# generated using pymatgen
data_U2PS
_symmetry_space_group_name_H-M   'P 1'
_cell_length_a   6.75001459
_cell_length_b   6.75001459
_cell_length_c   6.75001459
_cell_angle_alpha   131.83082562
_cell_angle_beta   131.83082562
_cell_angle_gamma   70.49635101
_symmetry_Int_Tables_number   1
_chemical_formula_structural   U2PS
_chemical_formula_sum   'U4 P2 S2'
_cell_volume   167.30788271
_cell_formula_units_Z   2
loop_
 _symmetry_equiv_pos_site_id
 _symmetry_equiv_pos_as_xyz
  1  'x, y, z'
loop_
 _atom_site_type_symbol
 _atom_site_label
 _atom_site_symmetry_multiplicity
 _atom_site_fract_x
 _atom_site_fract_y
 _atom_site_fract_z
 _atom_site_occupancy
  U  U0  1  0.499989  0.999989  0.500000  1
  U  U1  1  0.000011  0.500011  0.500000  1
  U  U2  1  0.749989  0.749989  0.000000  1
  U  U3  1  0.250011  0.250011  0.000000  1
  P  P4  1  0.250000  0.750000  0.500000  1
  P  P5  1  0.500000  0.500000  0.000000  1
  S  S6  1  1.000000  0.000000  0.000000  1
  S  S7  1  0.750000  0.250000  0.500000  1
