# generated using pymatgen
data_Nd3Cu3Sb4
_symmetry_space_group_name_H-M   'P 1'
_cell_length_a   8.46219752
_cell_length_b   8.46219752
_cell_length_c   8.46219752
_cell_angle_alpha   109.47122063
_cell_angle_beta   109.47122063
_cell_angle_gamma   109.47122063
_symmetry_Int_Tables_number   1
_chemical_formula_structural   Nd3Cu3Sb4
_chemical_formula_sum   'Nd6 Cu6 Sb8'
_cell_volume   466.47415155
_cell_formula_units_Z   2
loop_
 _symmetry_equiv_pos_site_id
 _symmetry_equiv_pos_as_xyz
  1  'x, y, z'
loop_
 _atom_site_type_symbol
 _atom_site_label
 _atom_site_symmetry_multiplicity
 _atom_site_fract_x
 _atom_site_fract_y
 _atom_site_fract_z
 _atom_site_occupancy
  Nd  Nd0  1  0.750000  0.875000  0.125000  1
  Nd  Nd1  1  0.875000  0.125000  0.750000  1
  Nd  Nd2  1  0.125000  0.750000  0.875000  1
  Nd  Nd3  1  0.375000  0.250000  0.625000  1
  Nd  Nd4  1  0.250000  0.625000  0.375000  1
  Nd  Nd5  1  0.625000  0.375000  0.250000  1
  Cu  Cu6  1  0.250000  0.125000  0.875000  1
  Cu  Cu7  1  0.875000  0.250000  0.125000  1
  Cu  Cu8  1  0.625000  0.750000  0.375000  1
  Cu  Cu9  1  0.375000  0.625000  0.750000  1
  Cu  Cu10  1  0.125000  0.875000  0.250000  1
  Cu  Cu11  1  0.750000  0.375000  0.625000  1
  Sb  Sb12  1  0.339449  0.500000  0.000000  1
  Sb  Sb13  1  0.500000  1.000000  0.339449  1
  Sb  Sb14  1  1.000000  0.339449  0.500000  1
  Sb  Sb15  1  0.500000  1.000000  0.839449  1
  Sb  Sb16  1  0.660551  0.660551  0.660551  1
  Sb  Sb17  1  1.000000  0.839449  0.500000  1
  Sb  Sb18  1  0.160551  0.160551  0.160551  1
  Sb  Sb19  1  0.839449  0.500000  0.000000  1
