# generated using pymatgen
data_Fe3(P3O10)2
_symmetry_space_group_name_H-M   'P 1'
_cell_length_a   8.44075648
_cell_length_b   8.44075648
_cell_length_c   12.44374593
_cell_angle_alpha   90.00000000
_cell_angle_beta   90.00000000
_cell_angle_gamma   105.22794038
_symmetry_Int_Tables_number   1
_chemical_formula_structural   Fe3(P3O10)2
_chemical_formula_sum   'Fe6 P12 O40'
_cell_volume   855.44288261
_cell_formula_units_Z   2
loop_
 _symmetry_equiv_pos_site_id
 _symmetry_equiv_pos_as_xyz
  1  'x, y, z'
loop_
 _atom_site_type_symbol
 _atom_site_label
 _atom_site_symmetry_multiplicity
 _atom_site_fract_x
 _atom_site_fract_y
 _atom_site_fract_z
 _atom_site_occupancy
  Fe  Fe0  1  0.861319  0.861319  0.000000  1
  Fe  Fe1  1  0.295211  0.704789  0.750000  1
  Fe  Fe2  1  0.138681  0.138681  0.500000  1
  Fe  Fe3  1  0.704789  0.295211  0.250000  1
  Fe  Fe4  1  0.752718  0.247282  0.750000  1
  Fe  Fe5  1  0.247282  0.752718  0.250000  1
  P  P6  1  0.852052  0.260993  0.013576  1
  P  P7  1  0.301280  0.175018  0.273635  1
  P  P8  1  0.094531  0.365466  0.179973  1
  P  P9  1  0.147948  0.739007  0.513576  1
  P  P10  1  0.634534  0.905469  0.320027  1
  P  P11  1  0.260993  0.852052  0.986424  1
  P  P12  1  0.175018  0.301280  0.726365  1
  P  P13  1  0.824982  0.698720  0.226365  1
  P  P14  1  0.905469  0.634534  0.679973  1
  P  P15  1  0.739007  0.147948  0.486424  1
  P  P16  1  0.365466  0.094531  0.820027  1
  P  P17  1  0.698720  0.824982  0.773635  1
  O  O18  1  0.948612  0.331766  0.254564  1
  O  O19  1  0.151073  0.921157  0.517587  1
  O  O20  1  0.965123  0.640621  0.556939  1
  O  O21  1  0.467426  0.266129  0.231045  1
  O  O22  1  0.837829  0.323216  0.900424  1
  O  O23  1  0.266129  0.467426  0.768955  1
  O  O24  1  0.733871  0.532574  0.268955  1
  O  O25  1  0.078843  0.848927  0.982413  1
  O  O26  1  0.359379  0.034877  0.943061  1
  O  O27  1  0.269645  0.990470  0.285015  1
  O  O28  1  0.753860  0.741715  0.119007  1
  O  O29  1  0.730355  0.009530  0.785015  1
  O  O30  1  0.171533  0.210318  0.185298  1
  O  O31  1  0.727935  0.306324  0.088881  1
  O  O32  1  0.272065  0.693676  0.588881  1
  O  O33  1  0.848927  0.078843  0.017587  1
  O  O34  1  0.521915  0.226950  0.801684  1
  O  O35  1  0.676784  0.162171  0.599576  1
  O  O36  1  0.741715  0.753860  0.880993  1
  O  O37  1  0.306324  0.727935  0.911119  1
  O  O38  1  0.009530  0.730355  0.214985  1
  O  O39  1  0.773050  0.478085  0.698316  1
  O  O40  1  0.990470  0.269645  0.714985  1
  O  O41  1  0.478085  0.773050  0.301684  1
  O  O42  1  0.693676  0.272065  0.411119  1
  O  O43  1  0.246140  0.258285  0.619007  1
  O  O44  1  0.258285  0.246140  0.380993  1
  O  O45  1  0.789682  0.828467  0.314702  1
  O  O46  1  0.331766  0.948612  0.745436  1
  O  O47  1  0.034877  0.359379  0.056939  1
  O  O48  1  0.921157  0.151073  0.482413  1
  O  O49  1  0.226950  0.521915  0.198316  1
  O  O50  1  0.210318  0.171533  0.814702  1
  O  O51  1  0.828467  0.789682  0.685298  1
  O  O52  1  0.640621  0.965123  0.443061  1
  O  O53  1  0.532574  0.733871  0.731045  1
  O  O54  1  0.162171  0.676784  0.400424  1
  O  O55  1  0.668234  0.051388  0.245436  1
  O  O56  1  0.323216  0.837829  0.099576  1
  O  O57  1  0.051388  0.668234  0.754564  1
