# generated using pymatgen
data_LiYF4
_symmetry_space_group_name_H-M   'P 1'
_cell_length_a   6.57882346
_cell_length_b   6.57882346
_cell_length_c   6.57882346
_cell_angle_alpha   132.93477407
_cell_angle_beta   132.93477407
_cell_angle_gamma   68.75659978
_symmetry_Int_Tables_number   1
_chemical_formula_structural   LiYF4
_chemical_formula_sum   'Li2 Y2 F8'
_cell_volume   149.85336162
_cell_formula_units_Z   2
loop_
 _symmetry_equiv_pos_site_id
 _symmetry_equiv_pos_as_xyz
  1  'x, y, z'
loop_
 _atom_site_type_symbol
 _atom_site_label
 _atom_site_symmetry_multiplicity
 _atom_site_fract_x
 _atom_site_fract_y
 _atom_site_fract_z
 _atom_site_occupancy
  Li  Li0  1  0.250000  0.750000  0.500000  1
  Li  Li1  1  0.500000  0.500000  0.000000  1
  Y  Y2  1  0.000000  0.000000  0.000000  1
  Y  Y3  1  0.750000  0.250000  0.500000  1
  F  F4  1  0.415013  0.298853  0.551357  1
  F  F5  1  0.048853  0.997496  0.383840  1
  F  F6  1  0.002504  0.386344  0.051357  1
  F  F7  1  0.136344  0.584987  0.883840  1
  F  F8  1  0.701147  0.252504  0.116160  1
  F  F9  1  0.334987  0.951147  0.948643  1
  F  F10  1  0.747496  0.863656  0.448643  1
  F  F11  1  0.613656  0.665013  0.616160  1
