# generated using pymatgen
data_Mg2TcO4
_symmetry_space_group_name_H-M   'P 1'
_cell_length_a   6.10768161
_cell_length_b   6.10768161
_cell_length_c   6.10768161
_cell_angle_alpha   120.55661851
_cell_angle_beta   119.32485105
_cell_angle_gamma   90.10598522
_symmetry_Int_Tables_number   1
_chemical_formula_structural   Mg2TcO4
_chemical_formula_sum   'Mg4 Tc2 O8'
_cell_volume   161.22769293
_cell_formula_units_Z   2
loop_
 _symmetry_equiv_pos_site_id
 _symmetry_equiv_pos_as_xyz
  1  'x, y, z'
loop_
 _atom_site_type_symbol
 _atom_site_label
 _atom_site_symmetry_multiplicity
 _atom_site_fract_x
 _atom_site_fract_y
 _atom_site_fract_z
 _atom_site_occupancy
  Mg  Mg0  1  0.887186  0.637186  0.750000  1
  Mg  Mg1  1  0.112814  0.362814  0.250000  1
  Mg  Mg2  1  0.500000  0.000000  0.500000  1
  Mg  Mg3  1  0.500000  0.500000  0.000000  1
  Tc  Tc4  1  0.000000  0.000000  0.500000  1
  Tc  Tc5  1  0.500000  0.000000  0.000000  1
  O  O6  1  0.253184  0.775125  0.521941  1
  O  O7  1  0.252400  0.234760  0.517640  1
  O  O8  1  0.253184  0.231243  0.978059  1
  O  O9  1  0.717120  0.234760  0.982360  1
  O  O10  1  0.282880  0.765240  0.017640  1
  O  O11  1  0.747601  0.765240  0.482360  1
  O  O12  1  0.746816  0.768757  0.021941  1
  O  O13  1  0.746816  0.224875  0.478059  1
