# generated using pymatgen
data_LiFe2P3O10
_symmetry_space_group_name_H-M   'P 1'
_cell_length_a   4.70366680
_cell_length_b   8.70129947
_cell_length_c   9.09817558
_cell_angle_alpha   90.00000000
_cell_angle_beta   96.45214212
_cell_angle_gamma   90.00000000
_symmetry_Int_Tables_number   1
_chemical_formula_structural   LiFe2P3O10
_chemical_formula_sum   'Li2 Fe4 P6 O20'
_cell_volume   370.01168326
_cell_formula_units_Z   2
loop_
 _symmetry_equiv_pos_site_id
 _symmetry_equiv_pos_as_xyz
  1  'x, y, z'
loop_
 _atom_site_type_symbol
 _atom_site_label
 _atom_site_symmetry_multiplicity
 _atom_site_fract_x
 _atom_site_fract_y
 _atom_site_fract_z
 _atom_site_occupancy
  Li  Li0  1  0.000000  0.000000  0.000000  1
  Li  Li1  1  0.000000  0.500000  0.000000  1
  Fe  Fe2  1  0.033534  0.068576  0.333783  1
  Fe  Fe3  1  0.033534  0.431424  0.333783  1
  Fe  Fe4  1  0.966466  0.931424  0.666217  1
  Fe  Fe5  1  0.966466  0.568576  0.666217  1
  P  P6  1  0.331946  0.250000  0.823281  1
  P  P7  1  0.398414  0.750000  0.465285  1
  P  P8  1  0.601586  0.250000  0.534715  1
  P  P9  1  0.458787  0.250000  0.142360  1
  P  P10  1  0.668054  0.750000  0.176719  1
  P  P11  1  0.541213  0.750000  0.857640  1
  O  O12  1  0.716241  0.602981  0.842917  1
  O  O13  1  0.283759  0.397019  0.157083  1
  O  O14  1  0.163538  0.398315  0.816310  1
  O  O15  1  0.564414  0.250000  0.709887  1
  O  O16  1  0.550101  0.250000  0.973337  1
  O  O17  1  0.449899  0.750000  0.026663  1
  O  O18  1  0.248311  0.750000  0.765524  1
  O  O19  1  0.696567  0.750000  0.551443  1
  O  O20  1  0.435586  0.750000  0.290113  1
  O  O21  1  0.303433  0.250000  0.448557  1
  O  O22  1  0.751689  0.250000  0.234476  1
  O  O23  1  0.716241  0.897019  0.842917  1
  O  O24  1  0.836462  0.898315  0.183690  1
  O  O25  1  0.228394  0.602069  0.487299  1
  O  O26  1  0.163538  0.101685  0.816310  1
  O  O27  1  0.283759  0.102981  0.157083  1
  O  O28  1  0.228394  0.897931  0.487299  1
  O  O29  1  0.771606  0.397931  0.512701  1
  O  O30  1  0.836462  0.601685  0.183690  1
  O  O31  1  0.771606  0.102069  0.512701  1
