# generated using pymatgen
data_NaP5
_symmetry_space_group_name_H-M   'P 1'
_cell_length_a   6.55264054
_cell_length_b   7.08414478
_cell_length_c   11.05685350
_cell_angle_alpha   90.00000000
_cell_angle_beta   90.00000000
_cell_angle_gamma   90.00000000
_symmetry_Int_Tables_number   1
_chemical_formula_structural   NaP5
_chemical_formula_sum   'Na4 P20'
_cell_volume   513.25752823
_cell_formula_units_Z   4
loop_
 _symmetry_equiv_pos_site_id
 _symmetry_equiv_pos_as_xyz
  1  'x, y, z'
loop_
 _atom_site_type_symbol
 _atom_site_label
 _atom_site_symmetry_multiplicity
 _atom_site_fract_x
 _atom_site_fract_y
 _atom_site_fract_z
 _atom_site_occupancy
  Na  Na0  1  0.250000  0.090026  0.424452  1
  Na  Na1  1  0.750000  0.909974  0.575548  1
  Na  Na2  1  0.750000  0.590026  0.075548  1
  Na  Na3  1  0.250000  0.409974  0.924452  1
  P  P4  1  0.013523  0.093294  0.081658  1
  P  P5  1  0.513523  0.906706  0.918342  1
  P  P6  1  0.986477  0.593294  0.418342  1
  P  P7  1  0.486477  0.406706  0.581658  1
  P  P8  1  0.986477  0.906706  0.918342  1
  P  P9  1  0.486477  0.093294  0.081658  1
  P  P10  1  0.013523  0.406706  0.581658  1
  P  P11  1  0.513523  0.593294  0.418342  1
  P  P12  1  0.250000  0.633717  0.140597  1
  P  P13  1  0.750000  0.366283  0.859403  1
  P  P14  1  0.750000  0.133717  0.359403  1
  P  P15  1  0.250000  0.866283  0.640597  1
  P  P16  1  0.250000  0.480174  0.311058  1
  P  P17  1  0.750000  0.519826  0.688942  1
  P  P18  1  0.750000  0.980174  0.188942  1
  P  P19  1  0.250000  0.019826  0.811058  1
  P  P20  1  0.250000  0.565639  0.686032  1
  P  P21  1  0.750000  0.434361  0.313968  1
  P  P22  1  0.750000  0.065639  0.813968  1
  P  P23  1  0.250000  0.934361  0.186032  1
