# generated using pymatgen
data_NdScO3
_symmetry_space_group_name_H-M   'P 1'
_cell_length_a   5.60945821
_cell_length_b   5.84031676
_cell_length_c   8.08413323
_cell_angle_alpha   90.00000000
_cell_angle_beta   90.00000000
_cell_angle_gamma   90.00000000
_symmetry_Int_Tables_number   1
_chemical_formula_structural   NdScO3
_chemical_formula_sum   'Nd4 Sc4 O12'
_cell_volume   264.84439221
_cell_formula_units_Z   4
loop_
 _symmetry_equiv_pos_site_id
 _symmetry_equiv_pos_as_xyz
  1  'x, y, z'
loop_
 _atom_site_type_symbol
 _atom_site_label
 _atom_site_symmetry_multiplicity
 _atom_site_fract_x
 _atom_site_fract_y
 _atom_site_fract_z
 _atom_site_occupancy
  Nd  Nd0  1  0.984479  0.056358  0.750000  1
  Nd  Nd1  1  0.484479  0.443642  0.250000  1
  Nd  Nd2  1  0.515521  0.556358  0.750000  1
  Nd  Nd3  1  0.015521  0.943642  0.250000  1
  Sc  Sc4  1  0.000000  0.500000  0.500000  1
  Sc  Sc5  1  0.500000  0.000000  0.500000  1
  Sc  Sc6  1  0.500000  0.000000  0.000000  1
  Sc  Sc7  1  0.000000  0.500000  0.000000  1
  O  O8  1  0.697779  0.301155  0.558368  1
  O  O9  1  0.197779  0.198845  0.441632  1
  O  O10  1  0.802221  0.801155  0.941632  1
  O  O11  1  0.302221  0.698845  0.058368  1
  O  O12  1  0.302221  0.698845  0.441632  1
  O  O13  1  0.802221  0.801155  0.558368  1
  O  O14  1  0.197779  0.198845  0.058368  1
  O  O15  1  0.697779  0.301155  0.941632  1
  O  O16  1  0.889344  0.542388  0.250000  1
  O  O17  1  0.389344  0.957612  0.750000  1
  O  O18  1  0.610656  0.042388  0.250000  1
  O  O19  1  0.110656  0.457612  0.750000  1
