# generated using pymatgen
data_Ce2Te3
_symmetry_space_group_name_H-M   'P 1'
_cell_length_a   15.80955499
_cell_length_b   15.80955499
_cell_length_c   15.80955499
_cell_angle_alpha   145.04732727
_cell_angle_beta   145.04732727
_cell_angle_gamma   50.26400168
_symmetry_Int_Tables_number   1
_chemical_formula_structural   Ce2Te3
_chemical_formula_sum   'Ce16 Te24'
_cell_volume   1290.54068149
_cell_formula_units_Z   8
loop_
 _symmetry_equiv_pos_site_id
 _symmetry_equiv_pos_as_xyz
  1  'x, y, z'
loop_
 _atom_site_type_symbol
 _atom_site_label
 _atom_site_symmetry_multiplicity
 _atom_site_fract_x
 _atom_site_fract_y
 _atom_site_fract_z
 _atom_site_occupancy
  Ce  Ce0  1  0.170349  0.294974  0.384359  1
  Ce  Ce1  1  0.582702  0.082702  0.500000  1
  Ce  Ce2  1  0.375000  0.745659  0.870659  1
  Ce  Ce3  1  0.167298  0.167298  0.000000  1
  Ce  Ce4  1  0.839385  0.955026  0.375376  1
  Ce  Ce5  1  0.579651  0.464010  0.624624  1
  Ce  Ce6  1  0.875000  0.504341  0.129341  1
  Ce  Ce7  1  0.044974  0.420349  0.884359  1
  Ce  Ce8  1  0.832702  0.832702  0.000000  1
  Ce  Ce9  1  0.495659  0.625000  0.370659  1
  Ce  Ce10  1  0.254341  0.125000  0.629341  1
  Ce  Ce11  1  0.535990  0.160615  0.115641  1
  Ce  Ce12  1  0.917298  0.417298  0.500000  1
  Ce  Ce13  1  0.705026  0.089385  0.875376  1
  Ce  Ce14  1  0.214010  0.829651  0.124624  1
  Ce  Ce15  1  0.910615  0.785990  0.615641  1
  Te  Te16  1  0.894436  0.142829  0.902604  1
  Te  Te17  1  0.526643  0.424643  0.747127  1
  Te  Te18  1  0.240226  0.991832  0.097396  1
  Te  Te19  1  0.509774  0.107171  0.251607  1
  Te  Te20  1  0.855564  0.258168  0.748393  1
  Te  Te21  1  0.677515  0.779516  0.252873  1
  Te  Te22  1  0.559870  0.813357  0.904740  1
  Te  Te23  1  0.072485  0.825357  0.602001  1
  Te  Te24  1  0.186643  0.091383  0.746513  1
  Te  Te25  1  0.908617  0.655130  0.095260  1
  Te  Te26  1  0.223357  0.470484  0.397999  1
  Te  Te27  1  0.174643  0.776643  0.247127  1
  Te  Te28  1  0.529516  0.927515  0.752873  1
  Te  Te29  1  0.344870  0.440130  0.253487  1
  Te  Te30  1  0.220484  0.473357  0.897999  1
  Te  Te31  1  0.741832  0.490226  0.597396  1
  Te  Te32  1  0.857171  0.759774  0.751607  1
  Te  Te33  1  0.575357  0.322485  0.102001  1
  Te  Te34  1  0.892829  0.144436  0.402604  1
  Te  Te35  1  0.841383  0.436643  0.246513  1
  Te  Te36  1  0.190130  0.594870  0.753487  1
  Te  Te37  1  0.008168  0.105564  0.248393  1
  Te  Te38  1  0.405130  0.158617  0.595260  1
  Te  Te39  1  0.563357  0.809870  0.404740  1
