# generated using pymatgen
data_Mg2Ga5Cu6
_symmetry_space_group_name_H-M   'P 1'
_cell_length_a   8.29813701
_cell_length_b   8.29813701
_cell_length_c   8.29813701
_cell_angle_alpha   90.00000000
_cell_angle_beta   90.00000000
_cell_angle_gamma   90.00000000
_symmetry_Int_Tables_number   1
_chemical_formula_structural   Mg2Ga5Cu6
_chemical_formula_sum   'Mg6 Ga15 Cu18'
_cell_volume   571.40206227
_cell_formula_units_Z   3
loop_
 _symmetry_equiv_pos_site_id
 _symmetry_equiv_pos_as_xyz
  1  'x, y, z'
loop_
 _atom_site_type_symbol
 _atom_site_label
 _atom_site_symmetry_multiplicity
 _atom_site_fract_x
 _atom_site_fract_y
 _atom_site_fract_z
 _atom_site_occupancy
  Mg  Mg0  1  0.818841  0.000000  0.500000  1
  Mg  Mg1  1  0.000000  0.500000  0.818841  1
  Mg  Mg2  1  0.500000  0.818841  0.000000  1
  Mg  Mg3  1  0.000000  0.500000  0.181159  1
  Mg  Mg4  1  0.500000  0.181159  0.000000  1
  Mg  Mg5  1  0.181159  0.000000  0.500000  1
  Ga  Ga6  1  0.281996  0.718004  0.281996  1
  Ga  Ga7  1  0.718004  0.281996  0.281996  1
  Ga  Ga8  1  0.281996  0.281996  0.718004  1
  Ga  Ga9  1  0.718004  0.718004  0.718004  1
  Ga  Ga10  1  0.718004  0.281996  0.718004  1
  Ga  Ga11  1  0.281996  0.718004  0.718004  1
  Ga  Ga12  1  0.718004  0.718004  0.281996  1
  Ga  Ga13  1  0.281996  0.281996  0.281996  1
  Ga  Ga14  1  0.663420  0.500000  0.000000  1
  Ga  Ga15  1  0.500000  0.000000  0.663420  1
  Ga  Ga16  1  0.000000  0.663420  0.500000  1
  Ga  Ga17  1  0.500000  0.000000  0.336580  1
  Ga  Ga18  1  0.000000  0.336580  0.500000  1
  Ga  Ga19  1  0.336580  0.500000  0.000000  1
  Ga  Ga20  1  0.000000  0.000000  0.000000  1
  Cu  Cu21  1  0.000000  0.836323  0.257721  1
  Cu  Cu22  1  0.000000  0.163677  0.742279  1
  Cu  Cu23  1  0.000000  0.836323  0.742279  1
  Cu  Cu24  1  0.163677  0.742279  0.000000  1
  Cu  Cu25  1  0.742279  0.000000  0.836323  1
  Cu  Cu26  1  0.742279  0.000000  0.163677  1
  Cu  Cu27  1  0.836323  0.257721  0.000000  1
  Cu  Cu28  1  0.257721  0.000000  0.836323  1
  Cu  Cu29  1  0.836323  0.742279  0.000000  1
  Cu  Cu30  1  0.275097  0.500000  0.500000  1
  Cu  Cu31  1  0.500000  0.275097  0.500000  1
  Cu  Cu32  1  0.500000  0.500000  0.275097  1
  Cu  Cu33  1  0.500000  0.724903  0.500000  1
  Cu  Cu34  1  0.500000  0.500000  0.724903  1
  Cu  Cu35  1  0.724903  0.500000  0.500000  1
  Cu  Cu36  1  0.000000  0.163677  0.257721  1
  Cu  Cu37  1  0.257721  0.000000  0.163677  1
  Cu  Cu38  1  0.163677  0.257721  0.000000  1
