# generated using pymatgen
data_HfBrN
_symmetry_space_group_name_H-M   'P 1'
_cell_length_a   10.50626013
_cell_length_b   10.50626013
_cell_length_c   10.50626013
_cell_angle_alpha   19.91617840
_cell_angle_beta   19.91617840
_cell_angle_gamma   19.91617840
_symmetry_Int_Tables_number   1
_chemical_formula_structural   HfBrN
_chemical_formula_sum   'Hf2 Br2 N2'
_cell_volume   117.71426109
_cell_formula_units_Z   2
loop_
 _symmetry_equiv_pos_site_id
 _symmetry_equiv_pos_as_xyz
  1  'x, y, z'
loop_
 _atom_site_type_symbol
 _atom_site_label
 _atom_site_symmetry_multiplicity
 _atom_site_fract_x
 _atom_site_fract_y
 _atom_site_fract_z
 _atom_site_occupancy
  Hf  Hf0  1  0.791579  0.791579  0.791579  1
  Hf  Hf1  1  0.208421  0.208421  0.208421  1
  Br  Br2  1  0.606088  0.606088  0.606088  1
  Br  Br3  1  0.393912  0.393912  0.393912  1
  N  N4  1  0.861449  0.861449  0.861449  1
  N  N5  1  0.138551  0.138551  0.138551  1
