# generated using pymatgen
data_Sc6Te2Rh
_symmetry_space_group_name_H-M   'P 1'
_cell_length_a   7.80637746
_cell_length_b   7.80637746
_cell_length_c   3.79383974
_cell_angle_alpha   90.00000000
_cell_angle_beta   90.00000000
_cell_angle_gamma   120.00000000
_symmetry_Int_Tables_number   1
_chemical_formula_structural   Sc6Te2Rh
_chemical_formula_sum   'Sc6 Te2 Rh1'
_cell_volume   200.22057608
_cell_formula_units_Z   1
loop_
 _symmetry_equiv_pos_site_id
 _symmetry_equiv_pos_as_xyz
  1  'x, y, z'
loop_
 _atom_site_type_symbol
 _atom_site_label
 _atom_site_symmetry_multiplicity
 _atom_site_fract_x
 _atom_site_fract_y
 _atom_site_fract_z
 _atom_site_occupancy
  Sc  Sc0  1  0.242537  0.000000  0.500000  1
  Sc  Sc1  1  0.757463  0.757463  0.500000  1
  Sc  Sc2  1  0.000000  0.242537  0.500000  1
  Sc  Sc3  1  0.608464  0.000000  0.000000  1
  Sc  Sc4  1  0.391536  0.391536  0.000000  1
  Sc  Sc5  1  0.000000  0.608464  0.000000  1
  Te  Te6  1  0.666667  0.333333  0.500000  1
  Te  Te7  1  0.333333  0.666667  0.500000  1
  Rh  Rh8  1  0.000000  0.000000  0.000000  1
