# generated using pymatgen
data_HfGa2Ni
_symmetry_space_group_name_H-M   'P 1'
_cell_length_a   9.60076917
_cell_length_b   9.60076917
_cell_length_c   9.60076917
_cell_angle_alpha   100.26644146
_cell_angle_beta   100.26644146
_cell_angle_gamma   130.05690916
_symmetry_Int_Tables_number   1
_chemical_formula_structural   HfGa2Ni
_chemical_formula_sum   'Hf10 Ga20 Ni10'
_cell_volume   614.02485255
_cell_formula_units_Z   10
loop_
 _symmetry_equiv_pos_site_id
 _symmetry_equiv_pos_as_xyz
  1  'x, y, z'
loop_
 _atom_site_type_symbol
 _atom_site_label
 _atom_site_symmetry_multiplicity
 _atom_site_fract_x
 _atom_site_fract_y
 _atom_site_fract_z
 _atom_site_occupancy
  Hf  Hf0  1  0.509268  0.509268  0.000000  1
  Hf  Hf1  1  0.065847  0.065847  0.000000  1
  Hf  Hf2  1  0.432854  0.838873  0.000000  1
  Hf  Hf3  1  0.432854  0.432854  0.593981  1
  Hf  Hf4  1  0.838873  0.838873  0.406019  1
  Hf  Hf5  1  0.838873  0.432854  0.000000  1
  Hf  Hf6  1  0.128074  0.841607  0.713533  1
  Hf  Hf7  1  0.414540  0.128074  0.286467  1
  Hf  Hf8  1  0.841607  0.128074  0.713533  1
  Hf  Hf9  1  0.128074  0.414540  0.286467  1
  Ga  Ga10  1  0.954772  0.795587  0.159184  1
  Ga  Ga11  1  0.795587  0.636403  0.840816  1
  Ga  Ga12  1  0.648382  0.030865  0.382484  1
  Ga  Ga13  1  0.265898  0.648382  0.617516  1
  Ga  Ga14  1  0.155047  0.419282  0.000000  1
  Ga  Ga15  1  0.030865  0.648382  0.382484  1
  Ga  Ga16  1  0.648382  0.265898  0.617516  1
  Ga  Ga17  1  0.419282  0.155047  0.000000  1
  Ga  Ga18  1  0.419282  0.419282  0.264234  1
  Ga  Ga19  1  0.155047  0.155047  0.735766  1
  Ga  Ga20  1  0.526205  0.735686  0.493477  1
  Ga  Ga21  1  0.032728  0.526205  0.790519  1
  Ga  Ga22  1  0.735686  0.242209  0.209481  1
  Ga  Ga23  1  0.242209  0.032728  0.506523  1
  Ga  Ga24  1  0.032728  0.242209  0.506523  1
  Ga  Ga25  1  0.735686  0.526205  0.493477  1
  Ga  Ga26  1  0.242209  0.735686  0.209481  1
  Ga  Ga27  1  0.526205  0.032728  0.790519  1
  Ga  Ga28  1  0.795587  0.954772  0.159184  1
  Ga  Ga29  1  0.636403  0.795587  0.840816  1
  Ni  Ni30  1  0.136347  0.811371  0.000000  1
  Ni  Ni31  1  0.401303  0.901303  0.500000  1
  Ni  Ni32  1  0.901303  0.401303  0.500000  1
  Ni  Ni33  1  0.811371  0.136347  0.000000  1
  Ni  Ni34  1  0.811371  0.811371  0.675024  1
  Ni  Ni35  1  0.136347  0.136347  0.324976  1
  Ni  Ni36  1  0.484909  0.268879  0.783970  1
  Ni  Ni37  1  0.700940  0.484909  0.216030  1
  Ni  Ni38  1  0.268879  0.484909  0.783970  1
  Ni  Ni39  1  0.484909  0.700940  0.216030  1
