# generated using pymatgen
data_Na2Ti3O7
_symmetry_space_group_name_H-M   'P 1'
_cell_length_a   8.66178771
_cell_length_b   3.82046029
_cell_length_c   9.24019398
_cell_angle_alpha   90.00000000
_cell_angle_beta   101.73899135
_cell_angle_gamma   90.00000000
_symmetry_Int_Tables_number   1
_chemical_formula_structural   Na2Ti3O7
_chemical_formula_sum   'Na4 Ti6 O14'
_cell_volume   299.38120037
_cell_formula_units_Z   2
loop_
 _symmetry_equiv_pos_site_id
 _symmetry_equiv_pos_as_xyz
  1  'x, y, z'
loop_
 _atom_site_type_symbol
 _atom_site_label
 _atom_site_symmetry_multiplicity
 _atom_site_fract_x
 _atom_site_fract_y
 _atom_site_fract_z
 _atom_site_occupancy
  Na  Na0  1  0.999606  0.750000  0.157571  1
  Na  Na1  1  0.000394  0.250000  0.842429  1
  Na  Na2  1  0.182081  0.750000  0.591254  1
  Na  Na3  1  0.817919  0.250000  0.408746  1
  Ti  Ti4  1  0.531346  0.750000  0.279320  1
  Ti  Ti5  1  0.468654  0.250000  0.720680  1
  Ti  Ti6  1  0.747935  0.750000  0.674968  1
  Ti  Ti7  1  0.252065  0.250000  0.325032  1
  Ti  Ti8  1  0.646733  0.750000  0.984540  1
  Ti  Ti9  1  0.353267  0.250000  0.015460  1
  O  O10  1  0.415056  0.750000  0.043954  1
  O  O11  1  0.584944  0.250000  0.956046  1
  O  O12  1  0.305019  0.750000  0.317891  1
  O  O13  1  0.694981  0.250000  0.682109  1
  O  O14  1  0.514140  0.750000  0.753070  1
  O  O15  1  0.485860  0.250000  0.246930  1
  O  O16  1  0.824069  0.750000  0.908440  1
  O  O17  1  0.175931  0.250000  0.091560  1
  O  O18  1  0.943195  0.750000  0.654272  1
  O  O19  1  0.056805  0.250000  0.345728  1
  O  O20  1  0.281413  0.250000  0.813254  1
  O  O21  1  0.718587  0.750000  0.186746  1
  O  O22  1  0.349179  0.250000  0.538695  1
  O  O23  1  0.650821  0.750000  0.461305  1
