# generated using pymatgen
data_B6H10N
_symmetry_space_group_name_H-M   'P 1'
_cell_length_a   7.77524665
_cell_length_b   7.77524665
_cell_length_c   7.77524665
_cell_angle_alpha   60.00000000
_cell_angle_beta   60.00000000
_cell_angle_gamma   60.00000000
_symmetry_Int_Tables_number   1
_chemical_formula_structural   B6H10N
_chemical_formula_sum   'B12 H20 N2'
_cell_volume   332.37436982
_cell_formula_units_Z   2
loop_
 _symmetry_equiv_pos_site_id
 _symmetry_equiv_pos_as_xyz
  1  'x, y, z'
loop_
 _atom_site_type_symbol
 _atom_site_label
 _atom_site_symmetry_multiplicity
 _atom_site_fract_x
 _atom_site_fract_y
 _atom_site_fract_z
 _atom_site_occupancy
  B  B0  1  0.788262  0.949510  0.050490  1
  B  B1  1  0.949510  0.788262  0.211738  1
  B  B2  1  0.211738  0.050490  0.949510  1
  B  B3  1  0.211738  0.949510  0.788262  1
  B  B4  1  0.949510  0.050490  0.788262  1
  B  B5  1  0.050490  0.788262  0.949510  1
  B  B6  1  0.050490  0.949510  0.211738  1
  B  B7  1  0.211738  0.788262  0.050490  1
  B  B8  1  0.788262  0.050490  0.211738  1
  B  B9  1  0.949510  0.211738  0.050490  1
  B  B10  1  0.788262  0.211738  0.949510  1
  B  B11  1  0.050490  0.211738  0.788262  1
  H  H12  1  0.195713  0.195713  0.195713  1
  H  H13  1  0.412860  0.195713  0.195713  1
  H  H14  1  0.195713  0.195713  0.412860  1
  H  H15  1  0.195713  0.412860  0.195713  1
  H  H16  1  0.804287  0.804287  0.804287  1
  H  H17  1  0.587140  0.804287  0.804287  1
  H  H18  1  0.804287  0.804287  0.587140  1
  H  H19  1  0.804287  0.587140  0.804287  1
  H  H20  1  0.637907  0.912637  0.087363  1
  H  H21  1  0.912637  0.637907  0.362093  1
  H  H22  1  0.362093  0.087363  0.912637  1
  H  H23  1  0.362093  0.912637  0.637907  1
  H  H24  1  0.912637  0.087363  0.637907  1
  H  H25  1  0.087363  0.637907  0.912637  1
  H  H26  1  0.087363  0.362093  0.637907  1
  H  H27  1  0.637907  0.362093  0.912637  1
  H  H28  1  0.912637  0.362093  0.087363  1
  H  H29  1  0.637907  0.087363  0.362093  1
  H  H30  1  0.362093  0.637907  0.087363  1
  H  H31  1  0.087363  0.912637  0.362093  1
  N  N32  1  0.250000  0.250000  0.250000  1
  N  N33  1  0.750000  0.750000  0.750000  1
