# generated using pymatgen
data_Ni4W
_symmetry_space_group_name_H-M   'P 1'
_cell_length_a   4.42852726
_cell_length_b   4.42852726
_cell_length_c   4.42852726
_cell_angle_alpha   99.25761609
_cell_angle_beta   99.25761609
_cell_angle_gamma   132.70723591
_symmetry_Int_Tables_number   1
_chemical_formula_structural   Ni4W
_chemical_formula_sum   'Ni4 W1'
_cell_volume   58.46256604
_cell_formula_units_Z   1
loop_
 _symmetry_equiv_pos_site_id
 _symmetry_equiv_pos_as_xyz
  1  'x, y, z'
loop_
 _atom_site_type_symbol
 _atom_site_label
 _atom_site_symmetry_multiplicity
 _atom_site_fract_x
 _atom_site_fract_y
 _atom_site_fract_z
 _atom_site_occupancy
  Ni  Ni0  1  0.599595  0.199193  0.798789  1
  Ni  Ni1  1  0.800807  0.599595  0.400402  1
  Ni  Ni2  1  0.199193  0.400405  0.599598  1
  Ni  Ni3  1  0.400405  0.800807  0.201211  1
  W  W4  1  0.000000  0.000000  0.000000  1
