# generated using pymatgen
data_K4C2O3
_symmetry_space_group_name_H-M   'P 1'
_cell_length_a   5.41794000
_cell_length_b   5.45699664
_cell_length_c   7.15408451
_cell_angle_alpha   90.18820042
_cell_angle_beta   93.68912840
_cell_angle_gamma   117.34357306
_symmetry_Int_Tables_number   1
_chemical_formula_structural   K4C2O3
_chemical_formula_sum   'K4 C2 O3'
_cell_volume   187.36434979
_cell_formula_units_Z   1
loop_
 _symmetry_equiv_pos_site_id
 _symmetry_equiv_pos_as_xyz
  1  'x, y, z'
loop_
 _atom_site_type_symbol
 _atom_site_label
 _atom_site_symmetry_multiplicity
 _atom_site_fract_x
 _atom_site_fract_y
 _atom_site_fract_z
 _atom_site_occupancy
  K  K0  1  0.978223  0.976331  0.985116  1
  K  K1  1  0.005035  0.016423  0.497328  1
  K  K2  1  0.334515  0.661260  0.753700  1
  K  K3  1  0.637934  0.307683  0.246027  1
  C  C4  1  0.336320  0.701112  0.248370  1
  C  C5  1  0.691484  0.301582  0.739607  1
  O  O6  1  0.196312  0.432167  0.217647  1
  O  O7  1  0.435060  0.193551  0.790706  1
  O  O8  1  0.806117  0.566891  0.707499  1
