# generated using pymatgen
data_ThPd
_symmetry_space_group_name_H-M   'P 1'
_cell_length_a   4.58962085
_cell_length_b   5.89789496
_cell_length_c   7.28961802
_cell_angle_alpha   90.00000000
_cell_angle_beta   90.00000000
_cell_angle_gamma   90.00000000
_symmetry_Int_Tables_number   1
_chemical_formula_structural   ThPd
_chemical_formula_sum   'Th4 Pd4'
_cell_volume   197.32341139
_cell_formula_units_Z   4
loop_
 _symmetry_equiv_pos_site_id
 _symmetry_equiv_pos_as_xyz
  1  'x, y, z'
loop_
 _atom_site_type_symbol
 _atom_site_label
 _atom_site_symmetry_multiplicity
 _atom_site_fract_x
 _atom_site_fract_y
 _atom_site_fract_z
 _atom_site_occupancy
  Th  Th0  1  0.250000  0.141411  0.178759  1
  Th  Th1  1  0.750000  0.858589  0.821241  1
  Th  Th2  1  0.750000  0.641411  0.321241  1
  Th  Th3  1  0.250000  0.358589  0.678759  1
  Pd  Pd4  1  0.250000  0.649761  0.046604  1
  Pd  Pd5  1  0.750000  0.350239  0.953396  1
  Pd  Pd6  1  0.750000  0.149761  0.453396  1
  Pd  Pd7  1  0.250000  0.850239  0.546604  1
