# generated using pymatgen
data_Co(PO3)4
_symmetry_space_group_name_H-M   'P 1'
_cell_length_a   10.50664320
_cell_length_b   10.50664320
_cell_length_c   5.13114217
_cell_angle_alpha   83.51627965
_cell_angle_beta   96.48372035
_cell_angle_gamma   108.28240429
_symmetry_Int_Tables_number   1
_chemical_formula_structural   Co(PO3)4
_chemical_formula_sum   'Co2 P8 O24'
_cell_volume   532.58650012
_cell_formula_units_Z   2
loop_
 _symmetry_equiv_pos_site_id
 _symmetry_equiv_pos_as_xyz
  1  'x, y, z'
loop_
 _atom_site_type_symbol
 _atom_site_label
 _atom_site_symmetry_multiplicity
 _atom_site_fract_x
 _atom_site_fract_y
 _atom_site_fract_z
 _atom_site_occupancy
  Co  Co0  1  0.500000  0.000000  0.000000  1
  Co  Co1  1  1.000000  0.500000  0.000000  1
  P  P2  1  0.638465  0.788221  0.818186  1
  P  P3  1  0.301141  0.941988  0.465828  1
  P  P4  1  0.698859  0.058012  0.534172  1
  P  P5  1  0.211779  0.361535  0.818186  1
  P  P6  1  0.058012  0.698859  0.465828  1
  P  P7  1  0.788221  0.638465  0.181814  1
  P  P8  1  0.941988  0.301141  0.534172  1
  P  P9  1  0.361535  0.211779  0.181814  1
  O  O10  1  0.330167  0.434324  0.663490  1
  O  O11  1  0.915918  0.398895  0.701797  1
  O  O12  1  0.669833  0.565676  0.336510  1
  O  O13  1  0.719082  0.914358  0.627159  1
  O  O14  1  0.446015  0.165665  0.015035  1
  O  O15  1  0.398895  0.915918  0.298203  1
  O  O16  1  0.914358  0.719082  0.372841  1
  O  O17  1  0.927300  0.330517  0.242344  1
  O  O18  1  0.072700  0.669483  0.757656  1
  O  O19  1  0.151868  0.848132  0.386846  1
  O  O20  1  0.601105  0.084082  0.701797  1
  O  O21  1  0.434324  0.330167  0.336510  1
  O  O22  1  0.232524  0.232524  0.000000  1
  O  O23  1  0.280918  0.085642  0.372841  1
  O  O24  1  0.165665  0.446015  0.984965  1
  O  O25  1  0.565676  0.669833  0.663490  1
  O  O26  1  0.767476  0.767476  0.000000  1
  O  O27  1  0.834335  0.553985  0.015035  1
  O  O28  1  0.330517  0.927300  0.757656  1
  O  O29  1  0.669483  0.072700  0.242344  1
  O  O30  1  0.084082  0.601105  0.298203  1
  O  O31  1  0.848132  0.151868  0.613154  1
  O  O32  1  0.085642  0.280918  0.627159  1
  O  O33  1  0.553985  0.834335  0.984965  1
