# generated using pymatgen
data_As2Pb8O13
_symmetry_space_group_name_H-M   'P 1'
_cell_length_a   7.70319256
_cell_length_b   7.70319256
_cell_length_c   14.97911694
_cell_angle_alpha   84.36470795
_cell_angle_beta   95.63529205
_cell_angle_gamma   92.15117737
_symmetry_Int_Tables_number   1
_chemical_formula_structural   As2Pb8O13
_chemical_formula_sum   'As4 Pb16 O26'
_cell_volume   879.92855865
_cell_formula_units_Z   2
loop_
 _symmetry_equiv_pos_site_id
 _symmetry_equiv_pos_as_xyz
  1  'x, y, z'
loop_
 _atom_site_type_symbol
 _atom_site_label
 _atom_site_symmetry_multiplicity
 _atom_site_fract_x
 _atom_site_fract_y
 _atom_site_fract_z
 _atom_site_occupancy
  As  As0  1  0.157045  0.842955  0.597092  1
  As  As1  1  0.252256  0.252256  0.000000  1
  As  As2  1  0.747744  0.747744  0.000000  1
  As  As3  1  0.842955  0.157045  0.402908  1
  Pb  Pb4  1  0.260044  0.739956  0.018585  1
  Pb  Pb5  1  0.565508  0.434492  0.215902  1
  Pb  Pb6  1  0.837942  0.669032  0.401344  1
  Pb  Pb7  1  0.669032  0.837942  0.598656  1
  Pb  Pb8  1  0.739956  0.260044  0.981415  1
  Pb  Pb9  1  0.075831  0.924169  0.200668  1
  Pb  Pb10  1  0.079276  0.457559  0.205472  1
  Pb  Pb11  1  0.162058  0.330968  0.598656  1
  Pb  Pb12  1  0.434492  0.565508  0.784098  1
  Pb  Pb13  1  0.457559  0.079276  0.794528  1
  Pb  Pb14  1  0.325622  0.674378  0.383459  1
  Pb  Pb15  1  0.674378  0.325622  0.616541  1
  Pb  Pb16  1  0.542441  0.920724  0.205472  1
  Pb  Pb17  1  0.920724  0.542441  0.794528  1
  Pb  Pb18  1  0.924169  0.075831  0.799332  1
  Pb  Pb19  1  0.330968  0.162058  0.401344  1
  O  O20  1  0.770860  0.963462  0.359712  1
  O  O21  1  0.942091  0.735508  0.068307  1
  O  O22  1  0.858541  0.141459  0.518892  1
  O  O23  1  0.330492  0.953271  0.306221  1
  O  O24  1  0.311215  0.688785  0.636323  1
  O  O25  1  0.735508  0.942091  0.931693  1
  O  O26  1  0.963462  0.770860  0.640288  1
  O  O27  1  0.730504  0.577218  0.931636  1
  O  O28  1  0.727919  0.272081  0.832657  1
  O  O29  1  0.609244  0.671760  0.290880  1
  O  O30  1  0.390756  0.328240  0.709120  1
  O  O31  1  0.671760  0.609244  0.709120  1
  O  O32  1  0.953271  0.330492  0.693779  1
  O  O33  1  0.669508  0.046729  0.693779  1
  O  O34  1  0.422782  0.269496  0.931636  1
  O  O35  1  0.688785  0.311215  0.363677  1
  O  O36  1  0.141459  0.858541  0.481108  1
  O  O37  1  0.046729  0.669508  0.306221  1
  O  O38  1  0.272081  0.727919  0.167343  1
  O  O39  1  0.036538  0.229140  0.359712  1
  O  O40  1  0.229140  0.036538  0.640288  1
  O  O41  1  0.328240  0.390756  0.290880  1
  O  O42  1  0.269496  0.422782  0.068364  1
  O  O43  1  0.057909  0.264492  0.931693  1
  O  O44  1  0.577218  0.730504  0.068364  1
  O  O45  1  0.264492  0.057909  0.068307  1
