# generated using pymatgen
data_Sr(AlCl4)2
_symmetry_space_group_name_H-M   'P 1'
_cell_length_a   11.62196181
_cell_length_b   11.74725052
_cell_length_c   20.61068062
_cell_angle_alpha   90.00000000
_cell_angle_beta   90.00000000
_cell_angle_gamma   90.00000000
_symmetry_Int_Tables_number   1
_chemical_formula_structural   Sr(AlCl4)2
_chemical_formula_sum   'Sr8 Al16 Cl64'
_cell_volume   2813.89577983
_cell_formula_units_Z   8
loop_
 _symmetry_equiv_pos_site_id
 _symmetry_equiv_pos_as_xyz
  1  'x, y, z'
loop_
 _atom_site_type_symbol
 _atom_site_label
 _atom_site_symmetry_multiplicity
 _atom_site_fract_x
 _atom_site_fract_y
 _atom_site_fract_z
 _atom_site_occupancy
  Sr  Sr0  1  0.763405  0.008220  0.124553  1
  Sr  Sr1  1  0.263405  0.991780  0.375447  1
  Sr  Sr2  1  0.736595  0.508220  0.875447  1
  Sr  Sr3  1  0.236595  0.491780  0.624553  1
  Sr  Sr4  1  0.236595  0.991780  0.875447  1
  Sr  Sr5  1  0.736595  0.008220  0.624553  1
  Sr  Sr6  1  0.263405  0.491780  0.124553  1
  Sr  Sr7  1  0.763405  0.508220  0.375447  1
  Al  Al8  1  0.528433  0.541114  0.239317  1
  Al  Al9  1  0.785954  0.252529  0.497727  1
  Al  Al10  1  0.285954  0.747471  0.002273  1
  Al  Al11  1  0.714046  0.752529  0.502273  1
  Al  Al12  1  0.214046  0.247471  0.997727  1
  Al  Al13  1  0.214046  0.747471  0.502273  1
  Al  Al14  1  0.714046  0.252529  0.997727  1
  Al  Al15  1  0.285954  0.247471  0.497727  1
  Al  Al16  1  0.785954  0.752529  0.002273  1
  Al  Al17  1  0.028433  0.458886  0.260683  1
  Al  Al18  1  0.971567  0.041114  0.760683  1
  Al  Al19  1  0.471567  0.958886  0.739317  1
  Al  Al20  1  0.471567  0.458886  0.760683  1
  Al  Al21  1  0.971567  0.541114  0.739317  1
  Al  Al22  1  0.028433  0.958886  0.239317  1
  Al  Al23  1  0.528433  0.041114  0.260683  1
  Cl  Cl24  1  0.592963  0.389638  0.982278  1
  Cl  Cl25  1  0.795896  0.761629  0.408160  1
  Cl  Cl26  1  0.295896  0.238371  0.091840  1
  Cl  Cl27  1  0.704104  0.261629  0.591840  1
  Cl  Cl28  1  0.204104  0.738371  0.908160  1
  Cl  Cl29  1  0.204104  0.238371  0.591840  1
  Cl  Cl30  1  0.704104  0.761629  0.908160  1
  Cl  Cl31  1  0.295896  0.738371  0.408160  1
  Cl  Cl32  1  0.665054  0.775872  0.080632  1
  Cl  Cl33  1  0.165054  0.224128  0.419368  1
  Cl  Cl34  1  0.834946  0.275872  0.919368  1
  Cl  Cl35  1  0.334946  0.724128  0.580632  1
  Cl  Cl36  1  0.334946  0.224128  0.919368  1
  Cl  Cl37  1  0.834946  0.775872  0.580632  1
  Cl  Cl38  1  0.165054  0.724128  0.080632  1
  Cl  Cl39  1  0.665054  0.275872  0.419368  1
  Cl  Cl40  1  0.503535  0.903561  0.328791  1
  Cl  Cl41  1  0.003535  0.096439  0.171209  1
  Cl  Cl42  1  0.996465  0.403561  0.671209  1
  Cl  Cl43  1  0.496465  0.596439  0.828791  1
  Cl  Cl44  1  0.496465  0.096439  0.671209  1
  Cl  Cl45  1  0.996465  0.903561  0.828791  1
  Cl  Cl46  1  0.003535  0.596439  0.328791  1
  Cl  Cl47  1  0.503535  0.403561  0.171209  1
  Cl  Cl48  1  0.898428  0.837725  0.210014  1
  Cl  Cl49  1  0.398428  0.162275  0.289986  1
  Cl  Cl50  1  0.601572  0.337725  0.789986  1
  Cl  Cl51  1  0.101572  0.662275  0.710014  1
  Cl  Cl52  1  0.101572  0.162275  0.789986  1
  Cl  Cl53  1  0.601572  0.837725  0.710014  1
  Cl  Cl54  1  0.398428  0.662275  0.210014  1
  Cl  Cl55  1  0.898428  0.337725  0.289986  1
  Cl  Cl56  1  0.861479  0.584450  0.001217  1
  Cl  Cl57  1  0.361479  0.415550  0.498783  1
  Cl  Cl58  1  0.638521  0.084450  0.998783  1
  Cl  Cl59  1  0.138521  0.915550  0.501217  1
  Cl  Cl60  1  0.138521  0.415550  0.998783  1
  Cl  Cl61  1  0.638521  0.584450  0.501217  1
  Cl  Cl62  1  0.361479  0.915550  0.001217  1
  Cl  Cl63  1  0.861479  0.084450  0.498783  1
  Cl  Cl64  1  0.907037  0.889638  0.017722  1
  Cl  Cl65  1  0.407037  0.110362  0.482278  1
  Cl  Cl66  1  0.795896  0.261629  0.091840  1
  Cl  Cl67  1  0.092963  0.610362  0.517722  1
  Cl  Cl68  1  0.092963  0.110362  0.982278  1
  Cl  Cl69  1  0.592963  0.889638  0.517722  1
  Cl  Cl70  1  0.407037  0.610362  0.017722  1
  Cl  Cl71  1  0.907037  0.389638  0.482278  1
  Cl  Cl72  1  0.507017  0.988342  0.161058  1
  Cl  Cl73  1  0.007017  0.011658  0.338942  1
  Cl  Cl74  1  0.703543  0.103684  0.260696  1
  Cl  Cl75  1  0.492983  0.511658  0.661058  1
  Cl  Cl76  1  0.492983  0.011658  0.838942  1
  Cl  Cl77  1  0.992983  0.988342  0.661058  1
  Cl  Cl78  1  0.007017  0.511658  0.161058  1
  Cl  Cl79  1  0.507017  0.488342  0.338942  1
  Cl  Cl80  1  0.703543  0.603684  0.239304  1
  Cl  Cl81  1  0.203543  0.396316  0.260696  1
  Cl  Cl82  1  0.796457  0.103684  0.760696  1
  Cl  Cl83  1  0.296457  0.896316  0.739304  1
  Cl  Cl84  1  0.296457  0.396316  0.760696  1
  Cl  Cl85  1  0.796457  0.603684  0.739304  1
  Cl  Cl86  1  0.203543  0.896316  0.239304  1
  Cl  Cl87  1  0.992983  0.488342  0.838942  1
