# generated using pymatgen
data_Ce2Te4O11
_symmetry_space_group_name_H-M   'P 1'
_cell_length_a   6.94888251
_cell_length_b   6.94888251
_cell_length_c   16.54038593
_cell_angle_alpha   75.91416692
_cell_angle_beta   104.08583308
_cell_angle_gamma   135.01632346
_symmetry_Int_Tables_number   1
_chemical_formula_structural   Ce2Te4O11
_chemical_formula_sum   'Ce4 Te8 O22'
_cell_volume   544.65519219
_cell_formula_units_Z   2
loop_
 _symmetry_equiv_pos_site_id
 _symmetry_equiv_pos_as_xyz
  1  'x, y, z'
loop_
 _atom_site_type_symbol
 _atom_site_label
 _atom_site_symmetry_multiplicity
 _atom_site_fract_x
 _atom_site_fract_y
 _atom_site_fract_z
 _atom_site_occupancy
  Ce  Ce0  1  0.134531  0.371932  0.462202  1
  Ce  Ce1  1  0.865469  0.628068  0.537798  1
  Ce  Ce2  1  0.371932  0.134531  0.037798  1
  Ce  Ce3  1  0.628068  0.865469  0.962202  1
  Te  Te4  1  0.391812  0.151682  0.701621  1
  Te  Te5  1  0.149582  0.410010  0.127615  1
  Te  Te6  1  0.848318  0.608188  0.201621  1
  Te  Te7  1  0.608188  0.848318  0.298379  1
  Te  Te8  1  0.850418  0.589990  0.872385  1
  Te  Te9  1  0.589990  0.850418  0.627615  1
  Te  Te10  1  0.410010  0.149582  0.372385  1
  Te  Te11  1  0.151682  0.391812  0.798379  1
  O  O12  1  0.191965  0.045663  0.454475  1
  O  O13  1  0.617141  0.563766  0.101020  1
  O  O14  1  0.436234  0.382859  0.601020  1
  O  O15  1  0.682052  0.183123  0.629255  1
  O  O16  1  0.797750  0.089713  0.829568  1
  O  O17  1  0.954337  0.808035  0.954475  1
  O  O18  1  0.251590  0.664276  0.557015  1
  O  O19  1  0.183123  0.682052  0.870745  1
  O  O20  1  0.142540  0.142540  0.750000  1
  O  O21  1  0.910287  0.202250  0.329568  1
  O  O22  1  0.317948  0.816877  0.370745  1
  O  O23  1  0.045663  0.191965  0.045525  1
  O  O24  1  0.089713  0.797750  0.670432  1
  O  O25  1  0.857460  0.857460  0.250000  1
  O  O26  1  0.563766  0.617141  0.398980  1
  O  O27  1  0.808035  0.954337  0.545525  1
  O  O28  1  0.382859  0.436234  0.898980  1
  O  O29  1  0.748410  0.335724  0.442985  1
  O  O30  1  0.816877  0.317948  0.129255  1
  O  O31  1  0.664276  0.251590  0.942985  1
  O  O32  1  0.202250  0.910287  0.170432  1
  O  O33  1  0.335724  0.748410  0.057015  1
