# generated using pymatgen
data_Ca7Au3
_symmetry_space_group_name_H-M   'P 1'
_cell_length_a   6.72650217
_cell_length_b   18.10713986
_cell_length_c   20.81255175
_cell_angle_alpha   90.00000000
_cell_angle_beta   90.00000000
_cell_angle_gamma   90.00000000
_symmetry_Int_Tables_number   1
_chemical_formula_structural   Ca7Au3
_chemical_formula_sum   'Ca56 Au24'
_cell_volume   2534.92125814
_cell_formula_units_Z   8
loop_
 _symmetry_equiv_pos_site_id
 _symmetry_equiv_pos_as_xyz
  1  'x, y, z'
loop_
 _atom_site_type_symbol
 _atom_site_label
 _atom_site_symmetry_multiplicity
 _atom_site_fract_x
 _atom_site_fract_y
 _atom_site_fract_z
 _atom_site_occupancy
  Ca  Ca0  1  0.043268  0.814592  0.216824  1
  Ca  Ca1  1  0.543268  0.185408  0.283176  1
  Ca  Ca2  1  0.456732  0.314592  0.783176  1
  Ca  Ca3  1  0.956732  0.685408  0.716824  1
  Ca  Ca4  1  0.956732  0.185408  0.783176  1
  Ca  Ca5  1  0.456732  0.814592  0.716824  1
  Ca  Ca6  1  0.543268  0.685408  0.216824  1
  Ca  Ca7  1  0.043268  0.314592  0.283176  1
  Ca  Ca8  1  0.052241  0.811162  0.029962  1
  Ca  Ca9  1  0.552241  0.188838  0.470038  1
  Ca  Ca10  1  0.447759  0.311162  0.970038  1
  Ca  Ca11  1  0.947759  0.688838  0.529962  1
  Ca  Ca12  1  0.947759  0.188838  0.970038  1
  Ca  Ca13  1  0.447759  0.811162  0.529962  1
  Ca  Ca14  1  0.552241  0.688838  0.029962  1
  Ca  Ca15  1  0.052241  0.311162  0.470038  1
  Ca  Ca16  1  0.544690  0.874881  0.124908  1
  Ca  Ca17  1  0.044690  0.125119  0.375092  1
  Ca  Ca18  1  0.955310  0.374881  0.875092  1
  Ca  Ca19  1  0.455310  0.625119  0.624908  1
  Ca  Ca20  1  0.455310  0.125119  0.875092  1
  Ca  Ca21  1  0.955310  0.874881  0.624908  1
  Ca  Ca22  1  0.044690  0.625119  0.124908  1
  Ca  Ca23  1  0.544690  0.374881  0.375092  1
  Ca  Ca24  1  0.751839  0.788733  0.373894  1
  Ca  Ca25  1  0.251839  0.211267  0.126106  1
  Ca  Ca26  1  0.748161  0.288733  0.626106  1
  Ca  Ca27  1  0.248161  0.711267  0.873894  1
  Ca  Ca28  1  0.248161  0.211267  0.626106  1
  Ca  Ca29  1  0.748161  0.788733  0.873894  1
  Ca  Ca30  1  0.251839  0.711267  0.373894  1
  Ca  Ca31  1  0.751839  0.288733  0.126106  1
  Ca  Ca32  1  0.730183  0.978915  0.282693  1
  Ca  Ca33  1  0.230183  0.021085  0.217307  1
  Ca  Ca34  1  0.769817  0.478915  0.717307  1
  Ca  Ca35  1  0.269817  0.521085  0.782693  1
  Ca  Ca36  1  0.269817  0.021085  0.717307  1
  Ca  Ca37  1  0.769817  0.978915  0.782693  1
  Ca  Ca38  1  0.230183  0.521085  0.282693  1
  Ca  Ca39  1  0.730183  0.478915  0.217307  1
  Ca  Ca40  1  0.749139  0.979170  0.472063  1
  Ca  Ca41  1  0.249139  0.020830  0.027937  1
  Ca  Ca42  1  0.750861  0.479170  0.527937  1
  Ca  Ca43  1  0.250861  0.520830  0.972063  1
  Ca  Ca44  1  0.250861  0.020830  0.527937  1
  Ca  Ca45  1  0.750861  0.979170  0.972063  1
  Ca  Ca46  1  0.249139  0.520830  0.472063  1
  Ca  Ca47  1  0.749139  0.479170  0.027937  1
  Ca  Ca48  1  0.245573  0.917158  0.372973  1
  Ca  Ca49  1  0.745573  0.082842  0.127027  1
  Ca  Ca50  1  0.254427  0.417158  0.627027  1
  Ca  Ca51  1  0.754427  0.582842  0.872973  1
  Ca  Ca52  1  0.754427  0.082842  0.627027  1
  Ca  Ca53  1  0.254427  0.917158  0.872973  1
  Ca  Ca54  1  0.745573  0.582842  0.372973  1
  Ca  Ca55  1  0.245573  0.417158  0.127027  1
  Au  Au56  1  0.967138  0.939733  0.119306  1
  Au  Au57  1  0.467138  0.060267  0.380694  1
  Au  Au58  1  0.532862  0.439733  0.880694  1
  Au  Au59  1  0.032862  0.560267  0.619306  1
  Au  Au60  1  0.032862  0.060267  0.880694  1
  Au  Au61  1  0.532862  0.939733  0.619306  1
  Au  Au62  1  0.467138  0.560267  0.119306  1
  Au  Au63  1  0.967138  0.439733  0.380694  1
  Au  Au64  1  0.468961  0.840842  0.267742  1
  Au  Au65  1  0.968961  0.159158  0.232258  1
  Au  Au66  1  0.031039  0.340842  0.732258  1
  Au  Au67  1  0.531039  0.659158  0.767742  1
  Au  Au68  1  0.531039  0.159158  0.732258  1
  Au  Au69  1  0.031039  0.840842  0.767742  1
  Au  Au70  1  0.968961  0.659158  0.267742  1
  Au  Au71  1  0.468961  0.340842  0.232258  1
  Au  Au72  1  0.027866  0.845273  0.480791  1
  Au  Au73  1  0.527866  0.154727  0.019209  1
  Au  Au74  1  0.472134  0.345273  0.519209  1
  Au  Au75  1  0.972134  0.654727  0.980791  1
  Au  Au76  1  0.972134  0.154727  0.519209  1
  Au  Au77  1  0.472134  0.845273  0.980791  1
  Au  Au78  1  0.527866  0.654727  0.480791  1
  Au  Au79  1  0.027866  0.345273  0.019209  1
