# generated using pymatgen
data_Ba3Re2O9
_symmetry_space_group_name_H-M   'P 1'
_cell_length_a   7.78281219
_cell_length_b   7.78281219
_cell_length_c   7.78281219
_cell_angle_alpha   43.57748128
_cell_angle_beta   43.57748128
_cell_angle_gamma   43.57748128
_symmetry_Int_Tables_number   1
_chemical_formula_structural   Ba3Re2O9
_chemical_formula_sum   'Ba3 Re2 O9'
_cell_volume   203.28512543
_cell_formula_units_Z   1
loop_
 _symmetry_equiv_pos_site_id
 _symmetry_equiv_pos_as_xyz
  1  'x, y, z'
loop_
 _atom_site_type_symbol
 _atom_site_label
 _atom_site_symmetry_multiplicity
 _atom_site_fract_x
 _atom_site_fract_y
 _atom_site_fract_z
 _atom_site_occupancy
  Ba  Ba0  1  0.000000  0.000000  0.000000  1
  Ba  Ba1  1  0.788835  0.788835  0.788835  1
  Ba  Ba2  1  0.211165  0.211165  0.211165  1
  Re  Re3  1  0.608707  0.608707  0.608707  1
  Re  Re4  1  0.391293  0.391293  0.391293  1
  O  O5  1  0.500000  0.500000  0.000000  1
  O  O6  1  0.500000  0.000000  0.500000  1
  O  O7  1  0.000000  0.500000  0.500000  1
  O  O8  1  0.246683  0.720621  0.720621  1
  O  O9  1  0.720621  0.246683  0.720621  1
  O  O10  1  0.720621  0.720621  0.246683  1
  O  O11  1  0.279379  0.279379  0.753317  1
  O  O12  1  0.279379  0.753317  0.279379  1
  O  O13  1  0.753317  0.279379  0.279379  1
