# generated using pymatgen
data_Mn(FeO2)2
_symmetry_space_group_name_H-M   'P 1'
_cell_length_a   6.03855682
_cell_length_b   6.03855682
_cell_length_c   6.03855682
_cell_angle_alpha   118.30715705
_cell_angle_beta   117.46586189
_cell_angle_gamma   93.70284046
_symmetry_Int_Tables_number   1
_chemical_formula_structural   Mn(FeO2)2
_chemical_formula_sum   'Mn2 Fe4 O8'
_cell_volume   160.30022816
_cell_formula_units_Z   2
loop_
 _symmetry_equiv_pos_site_id
 _symmetry_equiv_pos_as_xyz
  1  'x, y, z'
loop_
 _atom_site_type_symbol
 _atom_site_label
 _atom_site_symmetry_multiplicity
 _atom_site_fract_x
 _atom_site_fract_y
 _atom_site_fract_z
 _atom_site_occupancy
  Mn  Mn0  1  0.000000  0.000000  0.500000  1
  Mn  Mn1  1  0.500000  0.000000  0.000000  1
  Fe  Fe2  1  0.878078  0.628078  0.750000  1
  Fe  Fe3  1  0.121922  0.371922  0.250000  1
  Fe  Fe4  1  0.500000  0.500000  0.000000  1
  Fe  Fe5  1  0.500000  0.000000  0.500000  1
  O  O6  1  0.259498  0.239447  0.979949  1
  O  O7  1  0.263305  0.235617  0.527687  1
  O  O8  1  0.259498  0.779548  0.520051  1
  O  O9  1  0.707930  0.235617  0.972313  1
  O  O10  1  0.292070  0.764383  0.027687  1
  O  O11  1  0.736695  0.764383  0.472313  1
  O  O12  1  0.740502  0.220452  0.479949  1
  O  O13  1  0.740502  0.760553  0.020051  1
