# generated using pymatgen
data_Ca2Pb
_symmetry_space_group_name_H-M   'P 1'
_cell_length_a   5.15327447
_cell_length_b   7.98830496
_cell_length_c   9.70804127
_cell_angle_alpha   90.00000000
_cell_angle_beta   90.00000000
_cell_angle_gamma   90.00000000
_symmetry_Int_Tables_number   1
_chemical_formula_structural   Ca2Pb
_chemical_formula_sum   'Ca8 Pb4'
_cell_volume   399.64052803
_cell_formula_units_Z   4
loop_
 _symmetry_equiv_pos_site_id
 _symmetry_equiv_pos_as_xyz
  1  'x, y, z'
loop_
 _atom_site_type_symbol
 _atom_site_label
 _atom_site_symmetry_multiplicity
 _atom_site_fract_x
 _atom_site_fract_y
 _atom_site_fract_z
 _atom_site_occupancy
  Ca  Ca0  1  0.750000  0.341461  0.069932  1
  Ca  Ca1  1  0.250000  0.658539  0.930068  1
  Ca  Ca2  1  0.750000  0.841461  0.430068  1
  Ca  Ca3  1  0.250000  0.158539  0.569932  1
  Ca  Ca4  1  0.750000  0.478552  0.685408  1
  Ca  Ca5  1  0.250000  0.521448  0.314592  1
  Ca  Ca6  1  0.750000  0.978552  0.814592  1
  Ca  Ca7  1  0.250000  0.021448  0.185408  1
  Pb  Pb8  1  0.750000  0.751914  0.109307  1
  Pb  Pb9  1  0.250000  0.248086  0.890693  1
  Pb  Pb10  1  0.750000  0.251914  0.390693  1
  Pb  Pb11  1  0.250000  0.748086  0.609307  1
