# generated using pymatgen
data_Cr4(PO4)3
_symmetry_space_group_name_H-M   'P 1'
_cell_length_a   8.85273945
_cell_length_b   8.85273945
_cell_length_c   6.80955924
_cell_angle_alpha   71.48046587
_cell_angle_beta   108.51953413
_cell_angle_gamma   89.12516539
_symmetry_Int_Tables_number   1
_chemical_formula_structural   Cr4(PO4)3
_chemical_formula_sum   'Cr8 P6 O24'
_cell_volume   475.81009570
_cell_formula_units_Z   2
loop_
 _symmetry_equiv_pos_site_id
 _symmetry_equiv_pos_as_xyz
  1  'x, y, z'
loop_
 _atom_site_type_symbol
 _atom_site_label
 _atom_site_symmetry_multiplicity
 _atom_site_fract_x
 _atom_site_fract_y
 _atom_site_fract_z
 _atom_site_occupancy
  Cr  Cr0  1  0.936917  0.378691  0.368155  1
  Cr  Cr1  1  0.063083  0.621309  0.631845  1
  Cr  Cr2  1  0.503201  0.503201  0.250000  1
  Cr  Cr3  1  0.746012  0.746012  0.750000  1
  Cr  Cr4  1  0.621309  0.063083  0.868155  1
  Cr  Cr5  1  0.496799  0.496799  0.750000  1
  Cr  Cr6  1  0.378691  0.936917  0.131845  1
  Cr  Cr7  1  0.253988  0.253988  0.250000  1
  P  P8  1  0.127271  0.647846  0.125059  1
  P  P9  1  0.719949  0.719949  0.250000  1
  P  P10  1  0.872729  0.352154  0.874941  1
  P  P11  1  0.280051  0.280051  0.750000  1
  P  P12  1  0.647846  0.127271  0.374941  1
  P  P13  1  0.352154  0.872729  0.625059  1
  O  O14  1  0.797925  0.201029  0.866464  1
  O  O15  1  0.328271  0.998287  0.393839  1
  O  O16  1  0.540066  0.731712  0.248995  1
  O  O17  1  0.833103  0.740857  0.459566  1
  O  O18  1  0.731712  0.540066  0.251005  1
  O  O19  1  0.045362  0.588955  0.305000  1
  O  O20  1  0.737126  0.493109  0.824527  1
  O  O21  1  0.001713  0.671729  0.893839  1
  O  O22  1  0.268288  0.459934  0.748995  1
  O  O23  1  0.671729  0.001713  0.606161  1
  O  O24  1  0.201029  0.797925  0.633536  1
  O  O25  1  0.493109  0.737126  0.675473  1
  O  O26  1  0.202075  0.798971  0.133536  1
  O  O27  1  0.259143  0.166897  0.959566  1
  O  O28  1  0.798971  0.202075  0.366464  1
  O  O29  1  0.459934  0.268288  0.751005  1
  O  O30  1  0.740857  0.833103  0.040434  1
  O  O31  1  0.166897  0.259143  0.540434  1
  O  O32  1  0.506891  0.262874  0.324527  1
  O  O33  1  0.588955  0.045362  0.195000  1
  O  O34  1  0.998287  0.328271  0.106161  1
  O  O35  1  0.262874  0.506891  0.175473  1
  O  O36  1  0.954638  0.411045  0.695000  1
  O  O37  1  0.411045  0.954638  0.805000  1
