# generated using pymatgen
data_Bi5NO10
_symmetry_space_group_name_H-M   'P 1'
_cell_length_a   5.68721115
_cell_length_b   23.50622470
_cell_length_c   8.78840206
_cell_angle_alpha   90.00000000
_cell_angle_beta   107.98493567
_cell_angle_gamma   90.00000000
_symmetry_Int_Tables_number   1
_chemical_formula_structural   Bi5NO10
_chemical_formula_sum   'Bi20 N4 O40'
_cell_volume   1117.46920297
_cell_formula_units_Z   4
loop_
 _symmetry_equiv_pos_site_id
 _symmetry_equiv_pos_as_xyz
  1  'x, y, z'
loop_
 _atom_site_type_symbol
 _atom_site_label
 _atom_site_symmetry_multiplicity
 _atom_site_fract_x
 _atom_site_fract_y
 _atom_site_fract_z
 _atom_site_occupancy
  Bi  Bi0  1  0.790731  0.798471  0.994929  1
  Bi  Bi1  1  0.709269  0.298471  0.005071  1
  Bi  Bi2  1  0.209269  0.201529  0.005071  1
  Bi  Bi3  1  0.290731  0.701529  0.994929  1
  Bi  Bi4  1  0.545907  0.687812  0.646798  1
  Bi  Bi5  1  0.954093  0.187812  0.353202  1
  Bi  Bi6  1  0.454093  0.312188  0.353202  1
  Bi  Bi7  1  0.045907  0.812188  0.646798  1
  Bi  Bi8  1  0.967667  0.691412  0.345440  1
  Bi  Bi9  1  0.532333  0.191412  0.654560  1
  Bi  Bi10  1  0.032333  0.308588  0.654560  1
  Bi  Bi11  1  0.467667  0.808588  0.345440  1
  Bi  Bi12  1  0.598718  0.938328  0.694008  1
  Bi  Bi13  1  0.901282  0.438328  0.305992  1
  Bi  Bi14  1  0.401282  0.061672  0.305992  1
  Bi  Bi15  1  0.098718  0.561672  0.694008  1
  Bi  Bi16  1  0.967059  0.938176  0.365453  1
  Bi  Bi17  1  0.532941  0.438176  0.634547  1
  Bi  Bi18  1  0.032941  0.061824  0.634547  1
  Bi  Bi19  1  0.467059  0.561824  0.365453  1
  N  N20  1  0.809100  0.573460  0.002231  1
  N  N21  1  0.309100  0.926540  0.002231  1
  N  N22  1  0.190900  0.426540  0.997769  1
  N  N23  1  0.690900  0.073460  0.997769  1
  O  O24  1  0.763490  0.254610  0.485882  1
  O  O25  1  0.690021  0.085034  0.855789  1
  O  O26  1  0.190021  0.414966  0.855789  1
  O  O27  1  0.309979  0.914966  0.144211  1
  O  O28  1  0.905716  0.609051  0.928172  1
  O  O29  1  0.594284  0.109051  0.071828  1
  O  O30  1  0.094284  0.390949  0.071828  1
  O  O31  1  0.405716  0.890949  0.928172  1
  O  O32  1  0.717220  0.527854  0.935710  1
  O  O33  1  0.217220  0.972146  0.935710  1
  O  O34  1  0.282780  0.472146  0.064290  1
  O  O35  1  0.782780  0.027854  0.064290  1
  O  O36  1  0.064049  0.738170  0.159932  1
  O  O37  1  0.435951  0.238170  0.840068  1
  O  O38  1  0.935951  0.261830  0.840068  1
  O  O39  1  0.564049  0.761830  0.159932  1
  O  O40  1  0.736510  0.754610  0.514118  1
  O  O41  1  0.809979  0.585034  0.144211  1
  O  O42  1  0.263490  0.245390  0.485882  1
  O  O43  1  0.236510  0.745390  0.514118  1
  O  O44  1  0.800278  0.600812  0.514266  1
  O  O45  1  0.699722  0.100812  0.485734  1
  O  O46  1  0.199722  0.399188  0.485734  1
  O  O47  1  0.300278  0.899188  0.514266  1
  O  O48  1  0.999839  0.753847  0.849167  1
  O  O49  1  0.500161  0.253847  0.150833  1
  O  O50  1  0.000161  0.246153  0.150833  1
  O  O51  1  0.499839  0.746153  0.849167  1
  O  O52  1  0.806706  0.972973  0.539413  1
  O  O53  1  0.676557  0.354262  0.601939  1
  O  O54  1  0.176557  0.145738  0.601939  1
  O  O55  1  0.323443  0.645738  0.398061  1
  O  O56  1  0.276243  0.640170  0.751151  1
  O  O57  1  0.223757  0.140170  0.248849  1
  O  O58  1  0.723757  0.359830  0.248849  1
  O  O59  1  0.776243  0.859830  0.751151  1
  O  O60  1  0.306706  0.527027  0.539413  1
  O  O61  1  0.193294  0.027027  0.460587  1
  O  O62  1  0.693294  0.472973  0.460587  1
  O  O63  1  0.823443  0.854262  0.398061  1
