# generated using pymatgen
data_DyScO3
_symmetry_space_group_name_H-M   'P 1'
_cell_length_a   5.45366998
_cell_length_b   5.74784187
_cell_length_c   7.98824733
_cell_angle_alpha   90.00000000
_cell_angle_beta   90.00000000
_cell_angle_gamma   90.00000000
_symmetry_Int_Tables_number   1
_chemical_formula_structural   DyScO3
_chemical_formula_sum   'Dy4 Sc4 O12'
_cell_volume   250.40625227
_cell_formula_units_Z   4
loop_
 _symmetry_equiv_pos_site_id
 _symmetry_equiv_pos_as_xyz
  1  'x, y, z'
loop_
 _atom_site_type_symbol
 _atom_site_label
 _atom_site_symmetry_multiplicity
 _atom_site_fract_x
 _atom_site_fract_y
 _atom_site_fract_z
 _atom_site_occupancy
  Dy  Dy0  1  0.979882  0.062153  0.750000  1
  Dy  Dy1  1  0.479882  0.437847  0.250000  1
  Dy  Dy2  1  0.520118  0.562153  0.750000  1
  Dy  Dy3  1  0.020118  0.937847  0.250000  1
  Sc  Sc4  1  0.000000  0.500000  0.500000  1
  Sc  Sc5  1  0.500000  0.000000  0.500000  1
  Sc  Sc6  1  0.500000  0.000000  0.000000  1
  Sc  Sc7  1  0.000000  0.500000  0.000000  1
  O  O8  1  0.691053  0.306363  0.568387  1
  O  O9  1  0.191053  0.193637  0.431613  1
  O  O10  1  0.808947  0.806363  0.931613  1
  O  O11  1  0.308947  0.693637  0.068387  1
  O  O12  1  0.308947  0.693637  0.431613  1
  O  O13  1  0.808947  0.806363  0.568387  1
  O  O14  1  0.191053  0.193637  0.068387  1
  O  O15  1  0.691053  0.306363  0.931613  1
  O  O16  1  0.869301  0.557375  0.250000  1
  O  O17  1  0.369301  0.942625  0.750000  1
  O  O18  1  0.630699  0.057375  0.250000  1
  O  O19  1  0.130699  0.442625  0.750000  1
