# generated using pymatgen
data_SmPS4
_symmetry_space_group_name_H-M   'P 1'
_cell_length_a   12.37685773
_cell_length_b   12.37685773
_cell_length_c   12.37685773
_cell_angle_alpha   127.49203738
_cell_angle_beta   127.49203738
_cell_angle_gamma   77.44936460
_symmetry_Int_Tables_number   1
_chemical_formula_structural   SmPS4
_chemical_formula_sum   'Sm8 P8 S32'
_cell_volume   1157.73580484
_cell_formula_units_Z   8
loop_
 _symmetry_equiv_pos_site_id
 _symmetry_equiv_pos_as_xyz
  1  'x, y, z'
loop_
 _atom_site_type_symbol
 _atom_site_label
 _atom_site_symmetry_multiplicity
 _atom_site_fract_x
 _atom_site_fract_y
 _atom_site_fract_z
 _atom_site_occupancy
  Sm  Sm0  1  0.000000  0.000000  0.000000  1
  Sm  Sm1  1  0.750000  0.250000  0.500000  1
  Sm  Sm2  1  0.250000  0.750000  0.500000  1
  Sm  Sm3  1  0.500000  0.500000  0.000000  1
  Sm  Sm4  1  0.750000  0.750000  0.000000  1
  Sm  Sm5  1  0.500000  1.000000  0.500000  1
  Sm  Sm6  1  0.000000  0.500000  0.500000  1
  Sm  Sm7  1  0.250000  0.250000  0.000000  1
  P  P8  1  0.125000  0.412675  0.787675  1
  P  P9  1  0.125000  0.912675  0.287675  1
  P  P10  1  0.662675  0.875000  0.287675  1
  P  P11  1  0.587325  0.375000  0.712325  1
  P  P12  1  0.625000  0.837325  0.712325  1
  P  P13  1  0.625000  0.337325  0.212325  1
  P  P14  1  0.087325  0.375000  0.212325  1
  P  P15  1  0.162675  0.875000  0.787675  1
  S  S16  1  0.487236  0.213512  0.454569  1
  S  S17  1  0.758943  0.032667  0.545431  1
  S  S18  1  0.782667  0.737236  0.773724  1
  S  S19  1  0.963512  0.008943  0.226276  1
  S  S20  1  0.491057  0.536488  0.773724  1
  S  S21  1  0.762764  0.717333  0.226276  1
  S  S22  1  0.286488  0.012764  0.545431  1
  S  S23  1  0.467333  0.741057  0.454569  1
  S  S24  1  0.278667  0.465761  0.317420  1
  S  S25  1  0.215761  0.398341  0.687094  1
  S  S26  1  0.711247  0.528667  0.312906  1
  S  S27  1  0.971333  0.788753  0.687094  1
  S  S28  1  0.101659  0.284239  0.312906  1
  S  S29  1  0.538753  0.351659  0.317420  1
  S  S30  1  0.034239  0.221333  0.682580  1
  S  S31  1  0.148341  0.961247  0.682580  1
  S  S32  1  0.471333  0.784239  0.182580  1
  S  S33  1  0.534239  0.851659  0.812906  1
  S  S34  1  0.038753  0.721333  0.187094  1
  S  S35  1  0.778667  0.461247  0.812906  1
  S  S36  1  0.648341  0.965761  0.187094  1
  S  S37  1  0.211247  0.898341  0.182580  1
  S  S38  1  0.715761  0.028667  0.817420  1
  S  S39  1  0.601659  0.288753  0.817420  1
  S  S40  1  0.991057  0.217333  0.954569  1
  S  S41  1  0.967333  0.512764  0.726276  1
  S  S42  1  0.786488  0.241057  0.273724  1
  S  S43  1  0.258943  0.713512  0.726276  1
  S  S44  1  0.987236  0.532667  0.273724  1
  S  S45  1  0.463512  0.237236  0.954569  1
  S  S46  1  0.282667  0.508943  0.045431  1
  S  S47  1  0.262764  0.036488  0.045431  1
