# generated using pymatgen
data_Tm2S3
_symmetry_space_group_name_H-M   'P 1'
_cell_length_a   13.61010036
_cell_length_b   13.61010036
_cell_length_c   13.61010036
_cell_angle_alpha   144.82024837
_cell_angle_beta   144.82024837
_cell_angle_gamma   50.60247611
_symmetry_Int_Tables_number   1
_chemical_formula_structural   Tm2S3
_chemical_formula_sum   'Tm16 S24'
_cell_volume   832.60829257
_cell_formula_units_Z   8
loop_
 _symmetry_equiv_pos_site_id
 _symmetry_equiv_pos_as_xyz
  1  'x, y, z'
loop_
 _atom_site_type_symbol
 _atom_site_label
 _atom_site_symmetry_multiplicity
 _atom_site_fract_x
 _atom_site_fract_y
 _atom_site_fract_z
 _atom_site_occupancy
  Tm  Tm0  1  0.177805  0.299153  0.399973  1
  Tm  Tm1  1  0.899180  0.777833  0.600027  1
  Tm  Tm2  1  0.585162  0.085162  0.500000  1
  Tm  Tm3  1  0.375000  0.741963  0.866963  1
  Tm  Tm4  1  0.164838  0.164838  0.000000  1
  Tm  Tm5  1  0.850820  0.950847  0.378652  1
  Tm  Tm6  1  0.875000  0.508037  0.133037  1
  Tm  Tm7  1  0.572195  0.472167  0.621348  1
  Tm  Tm8  1  0.049153  0.427805  0.899973  1
  Tm  Tm9  1  0.491963  0.625000  0.366963  1
  Tm  Tm10  1  0.835162  0.835162  0.000000  1
  Tm  Tm11  1  0.527833  0.149180  0.100027  1
  Tm  Tm12  1  0.258037  0.125000  0.633037  1
  Tm  Tm13  1  0.914838  0.414838  0.500000  1
  Tm  Tm14  1  0.700847  0.100820  0.878652  1
  Tm  Tm15  1  0.222167  0.822195  0.121348  1
  S  S16  1  0.537192  0.421943  0.746208  1
  S  S17  1  0.247008  0.001402  0.117788  1
  S  S18  1  0.502992  0.120780  0.254394  1
  S  S19  1  0.883614  0.129220  0.882212  1
  S  S20  1  0.866386  0.248598  0.745606  1
  S  S21  1  0.212808  0.459017  0.384751  1
  S  S22  1  0.675735  0.790983  0.253792  1
  S  S23  1  0.074265  0.828057  0.615249  1
  S  S24  1  0.189114  0.091858  0.745663  1
  S  S25  1  0.908142  0.653805  0.097257  1
  S  S26  1  0.556548  0.810886  0.902743  1
  S  S27  1  0.171943  0.787192  0.246208  1
  S  S28  1  0.540983  0.925735  0.753792  1
  S  S29  1  0.879220  0.133614  0.382212  1
  S  S30  1  0.346195  0.443452  0.254337  1
  S  S31  1  0.751402  0.497008  0.617788  1
  S  S32  1  0.870780  0.752992  0.754394  1
  S  S33  1  0.578057  0.324265  0.115249  1
  S  S34  1  0.209017  0.462808  0.884751  1
  S  S35  1  0.841858  0.439114  0.245663  1
  S  S36  1  0.193452  0.596195  0.754337  1
  S  S37  1  0.560886  0.806548  0.402743  1
  S  S38  1  0.998598  0.116386  0.245606  1
  S  S39  1  0.403805  0.158142  0.597257  1
