# generated using pymatgen
data_HoAu4
_symmetry_space_group_name_H-M   'P 1'
_cell_length_a   5.24977793
_cell_length_b   5.24977793
_cell_length_c   5.24977793
_cell_angle_alpha   99.32437627
_cell_angle_beta   99.32437627
_cell_angle_gamma   132.52817497
_symmetry_Int_Tables_number   1
_chemical_formula_structural   HoAu4
_chemical_formula_sum   'Ho1 Au4'
_cell_volume   97.60538331
_cell_formula_units_Z   1
loop_
 _symmetry_equiv_pos_site_id
 _symmetry_equiv_pos_as_xyz
  1  'x, y, z'
loop_
 _atom_site_type_symbol
 _atom_site_label
 _atom_site_symmetry_multiplicity
 _atom_site_fract_x
 _atom_site_fract_y
 _atom_site_fract_z
 _atom_site_occupancy
  Ho  Ho0  1  0.000000  0.000000  0.000000  1
  Au  Au1  1  0.801076  0.598688  0.399765  1
  Au  Au2  1  0.198924  0.401312  0.600235  1
  Au  Au3  1  0.401312  0.801076  0.202388  1
  Au  Au4  1  0.598688  0.198924  0.797612  1
