# generated using pymatgen
data_Sc(Al2Fe)4
_symmetry_space_group_name_H-M   'P 1'
_cell_length_a   6.57373319
_cell_length_b   6.57373319
_cell_length_c   6.57373319
_cell_angle_alpha   98.32423500
_cell_angle_beta   98.32423500
_cell_angle_gamma   135.27158299
_symmetry_Int_Tables_number   1
_chemical_formula_structural   Sc(Al2Fe)4
_chemical_formula_sum   'Sc1 Al8 Fe4'
_cell_volume   184.88136172
_cell_formula_units_Z   1
loop_
 _symmetry_equiv_pos_site_id
 _symmetry_equiv_pos_as_xyz
  1  'x, y, z'
loop_
 _atom_site_type_symbol
 _atom_site_label
 _atom_site_symmetry_multiplicity
 _atom_site_fract_x
 _atom_site_fract_y
 _atom_site_fract_z
 _atom_site_occupancy
  Sc  Sc0  1  0.000000  0.000000  0.000000  1
  Al  Al1  1  0.000000  0.664437  0.664437  1
  Al  Al2  1  0.335563  0.000000  0.335563  1
  Al  Al3  1  0.664437  0.000000  0.664437  1
  Al  Al4  1  0.000000  0.335563  0.335563  1
  Al  Al5  1  0.500000  0.717857  0.217857  1
  Al  Al6  1  0.500000  0.282143  0.782143  1
  Al  Al7  1  0.717857  0.500000  0.217857  1
  Al  Al8  1  0.282143  0.500000  0.782143  1
  Fe  Fe9  1  0.500000  0.500000  0.500000  1
  Fe  Fe10  1  0.000000  0.000000  0.500000  1
  Fe  Fe11  1  0.000000  0.500000  0.000000  1
  Fe  Fe12  1  0.500000  0.000000  0.000000  1
