# generated using pymatgen
data_Ni3(P2O7)2
_symmetry_space_group_name_H-M   'P 1'
_cell_length_a   7.26615521
_cell_length_b   7.92580551
_cell_length_c   9.42149246
_cell_angle_alpha   90.00000000
_cell_angle_beta   110.70486700
_cell_angle_gamma   90.00000000
_symmetry_Int_Tables_number   1
_chemical_formula_structural   Ni3(P2O7)2
_chemical_formula_sum   'Ni6 P8 O28'
_cell_volume   507.54160944
_cell_formula_units_Z   2
loop_
 _symmetry_equiv_pos_site_id
 _symmetry_equiv_pos_as_xyz
  1  'x, y, z'
loop_
 _atom_site_type_symbol
 _atom_site_label
 _atom_site_symmetry_multiplicity
 _atom_site_fract_x
 _atom_site_fract_y
 _atom_site_fract_z
 _atom_site_occupancy
  Ni  Ni0  1  0.185992  0.627590  0.026020  1
  Ni  Ni1  1  0.185992  0.872410  0.526020  1
  Ni  Ni2  1  0.814008  0.127590  0.473980  1
  Ni  Ni3  1  0.000000  0.500000  0.500000  1
  Ni  Ni4  1  0.814008  0.372410  0.973980  1
  Ni  Ni5  1  0.000000  0.000000  0.000000  1
  P  P6  1  0.885789  0.709884  0.197739  1
  P  P7  1  0.597864  0.047739  0.707964  1
  P  P8  1  0.597864  0.452261  0.207964  1
  P  P9  1  0.402136  0.547739  0.792036  1
  P  P10  1  0.402136  0.952261  0.292036  1
  P  P11  1  0.114211  0.290116  0.802261  1
  P  P12  1  0.885789  0.790116  0.697739  1
  P  P13  1  0.114211  0.209884  0.302261  1
  O  O14  1  0.271919  0.614922  0.635130  1
  O  O15  1  0.998945  0.709629  0.370055  1
  O  O16  1  0.032053  0.079867  0.388460  1
  O  O17  1  0.138586  0.380272  0.376485  1
  O  O18  1  0.998945  0.790371  0.870055  1
  O  O19  1  0.032053  0.420133  0.888460  1
  O  O20  1  0.001055  0.290371  0.629945  1
  O  O21  1  0.967947  0.920133  0.611540  1
  O  O22  1  0.861414  0.619728  0.623515  1
  O  O23  1  0.001055  0.209629  0.129945  1
  O  O24  1  0.967947  0.579867  0.111540  1
  O  O25  1  0.672273  0.860026  0.686190  1
  O  O26  1  0.629859  0.163986  0.587834  1
  O  O27  1  0.861414  0.880272  0.123515  1
  O  O28  1  0.728081  0.114922  0.864870  1
  O  O29  1  0.619244  0.525215  0.818509  1
  O  O30  1  0.672273  0.639974  0.186190  1
  O  O31  1  0.370141  0.836014  0.412166  1
  O  O32  1  0.728081  0.385078  0.364870  1
  O  O33  1  0.380756  0.025215  0.681491  1
  O  O34  1  0.619244  0.974785  0.318509  1
  O  O35  1  0.327727  0.139974  0.313810  1
  O  O36  1  0.370141  0.663986  0.912166  1
  O  O37  1  0.327727  0.360026  0.813810  1
  O  O38  1  0.380756  0.474785  0.181491  1
  O  O39  1  0.271919  0.885078  0.135130  1
  O  O40  1  0.138586  0.119728  0.876485  1
  O  O41  1  0.629859  0.336014  0.087834  1
