# generated using pymatgen
data_Cs3As5O9
_symmetry_space_group_name_H-M   'P 1'
_cell_length_a   8.70441208
_cell_length_b   8.70441208
_cell_length_c   6.21080460
_cell_angle_alpha   90.00000000
_cell_angle_beta   90.00000000
_cell_angle_gamma   120.00000000
_symmetry_Int_Tables_number   1
_chemical_formula_structural   Cs3As5O9
_chemical_formula_sum   'Cs3 As5 O9'
_cell_volume   407.52793497
_cell_formula_units_Z   1
loop_
 _symmetry_equiv_pos_site_id
 _symmetry_equiv_pos_as_xyz
  1  'x, y, z'
loop_
 _atom_site_type_symbol
 _atom_site_label
 _atom_site_symmetry_multiplicity
 _atom_site_fract_x
 _atom_site_fract_y
 _atom_site_fract_z
 _atom_site_occupancy
  Cs  Cs0  1  0.628360  0.628360  0.995711  1
  Cs  Cs1  1  0.000000  0.371640  0.995711  1
  Cs  Cs2  1  0.371640  0.000000  0.995711  1
  As  As3  1  0.666667  0.333333  0.472570  1
  As  As4  1  0.333333  0.666667  0.472570  1
  As  As5  1  0.260783  0.260783  0.498090  1
  As  As6  1  0.000000  0.739217  0.498090  1
  As  As7  1  0.739217  0.000000  0.498090  1
  O  O8  1  0.718070  0.186641  0.626556  1
  O  O9  1  0.813359  0.531429  0.626556  1
  O  O10  1  0.468571  0.281930  0.626556  1
  O  O11  1  0.186641  0.718070  0.626556  1
  O  O12  1  0.531429  0.813359  0.626556  1
  O  O13  1  0.281930  0.468571  0.626556  1
  O  O14  1  0.319326  0.319326  0.235407  1
  O  O15  1  0.000000  0.680674  0.235407  1
  O  O16  1  0.680674  0.000000  0.235407  1
