# generated using pymatgen
data_Mg(FeO2)2
_symmetry_space_group_name_H-M   'P 1'
_cell_length_a   6.03800078
_cell_length_b   6.03800078
_cell_length_c   20.01395357
_cell_angle_alpha   81.23445185
_cell_angle_beta   98.76554815
_cell_angle_gamma   119.97574562
_symmetry_Int_Tables_number   1
_chemical_formula_structural   Mg(FeO2)2
_chemical_formula_sum   'Mg8 Fe16 O32'
_cell_volume   622.19159591
_cell_formula_units_Z   8
loop_
 _symmetry_equiv_pos_site_id
 _symmetry_equiv_pos_as_xyz
  1  'x, y, z'
loop_
 _atom_site_type_symbol
 _atom_site_label
 _atom_site_symmetry_multiplicity
 _atom_site_fract_x
 _atom_site_fract_y
 _atom_site_fract_z
 _atom_site_occupancy
  Mg  Mg0  1  0.653650  0.346350  0.969504  1
  Mg  Mg1  1  0.123844  0.876156  0.875080  1
  Mg  Mg2  1  0.903309  0.096691  0.718399  1
  Mg  Mg3  1  0.374370  0.625630  0.624596  1
  Mg  Mg4  1  0.625021  0.374979  0.375175  1
  Mg  Mg5  1  0.500135  0.499865  0.500350  1
  Mg  Mg6  1  0.874670  0.125330  0.125663  1
  Mg  Mg7  1  0.750222  0.249778  0.250478  1
  Fe  Fe8  1  0.633508  0.877812  0.875244  1
  Fe  Fe9  1  0.249731  0.750269  0.746998  1
  Fe  Fe10  1  0.122188  0.366492  0.875244  1
  Fe  Fe11  1  0.152217  0.847783  0.467209  1
  Fe  Fe12  1  0.878186  0.625539  0.624971  1
  Fe  Fe13  1  0.597523  0.402477  0.780781  1
  Fe  Fe14  1  0.402478  0.597522  0.218411  1
  Fe  Fe15  1  0.374461  0.121814  0.624971  1
  Fe  Fe16  1  0.125153  0.374846  0.375300  1
  Fe  Fe17  1  0.848003  0.151997  0.532791  1
  Fe  Fe18  1  0.625154  0.874847  0.375300  1
  Fe  Fe19  1  0.873000  0.620023  0.125603  1
  Fe  Fe20  1  0.379977  0.127000  0.125603  1
  Fe  Fe21  1  0.097754  0.902246  0.282529  1
  Fe  Fe22  1  0.000021  0.999979  0.997217  1
  Fe  Fe23  1  0.347358  0.652642  0.030449  1
  O  O24  1  0.284628  0.179964  0.936173  1
  O  O25  1  0.935849  0.064151  0.819745  1
  O  O26  1  0.820036  0.715372  0.936173  1
  O  O27  1  0.823333  0.176667  0.935381  1
  O  O28  1  0.429546  0.570454  0.814417  1
  O  O29  1  0.532295  0.929524  0.685611  1
  O  O30  1  0.431518  0.043145  0.813953  1
  O  O31  1  0.186207  0.813793  0.566049  1
  O  O32  1  0.070476  0.467705  0.685611  1
  O  O33  1  0.312900  0.687100  0.932685  1
  O  O34  1  0.074270  0.925730  0.684886  1
  O  O35  1  0.956855  0.568482  0.813953  1
  O  O36  1  0.795091  0.685132  0.434907  1
  O  O37  1  0.681212  0.318788  0.565739  1
  O  O38  1  0.685672  0.796684  0.565237  1
  O  O39  1  0.436742  0.563258  0.317625  1
  O  O40  1  0.314868  0.204909  0.434907  1
  O  O41  1  0.562871  0.437129  0.682909  1
  O  O42  1  0.319764  0.680236  0.434384  1
  O  O43  1  0.203316  0.314328  0.565237  1
  O  O44  1  0.930434  0.069566  0.315199  1
  O  O45  1  0.047577  0.435704  0.185255  1
  O  O46  1  0.935278  0.546160  0.314662  1
  O  O47  1  0.686462  0.313538  0.071462  1
  O  O48  1  0.564296  0.952423  0.185255  1
  O  O49  1  0.813292  0.186708  0.432295  1
  O  O50  1  0.568554  0.431446  0.184789  1
  O  O51  1  0.453840  0.064722  0.314662  1
  O  O52  1  0.178815  0.821185  0.063974  1
  O  O53  1  0.181180  0.292543  0.063492  1
  O  O54  1  0.063436  0.936564  0.182017  1
  O  O55  1  0.707457  0.818820  0.063492  1
