# generated using pymatgen
data_LaTlPd
_symmetry_space_group_name_H-M   'P 1'
_cell_length_a   8.04197687
_cell_length_b   8.04197687
_cell_length_c   4.03666120
_cell_angle_alpha   90.00000000
_cell_angle_beta   90.00000000
_cell_angle_gamma   120.00000000
_symmetry_Int_Tables_number   1
_chemical_formula_structural   LaTlPd
_chemical_formula_sum   'La3 Tl3 Pd3'
_cell_volume   226.08855122
_cell_formula_units_Z   3
loop_
 _symmetry_equiv_pos_site_id
 _symmetry_equiv_pos_as_xyz
  1  'x, y, z'
loop_
 _atom_site_type_symbol
 _atom_site_label
 _atom_site_symmetry_multiplicity
 _atom_site_fract_x
 _atom_site_fract_y
 _atom_site_fract_z
 _atom_site_occupancy
  La  La0  1  0.590970  0.000000  0.500000  1
  La  La1  1  0.409030  0.409030  0.500000  1
  La  La2  1  0.000000  0.590970  0.500000  1
  Tl  Tl3  1  0.257685  0.000000  0.000000  1
  Tl  Tl4  1  0.742315  0.742315  0.000000  1
  Tl  Tl5  1  0.000000  0.257685  0.000000  1
  Pd  Pd6  1  0.333333  0.666667  0.000000  1
  Pd  Pd7  1  0.666667  0.333333  0.000000  1
  Pd  Pd8  1  0.000000  0.000000  0.500000  1
