# generated using pymatgen
data_Li2TiO3
_symmetry_space_group_name_H-M   'P 1'
_cell_length_a   5.05918587
_cell_length_b   5.05918587
_cell_length_c   5.08653629
_cell_angle_alpha   78.81777906
_cell_angle_beta   101.18222094
_cell_angle_gamma   62.09933303
_symmetry_Int_Tables_number   1
_chemical_formula_structural   Li2TiO3
_chemical_formula_sum   'Li4 Ti2 O6'
_cell_volume   106.61558994
_cell_formula_units_Z   2
loop_
 _symmetry_equiv_pos_site_id
 _symmetry_equiv_pos_as_xyz
  1  'x, y, z'
loop_
 _atom_site_type_symbol
 _atom_site_label
 _atom_site_symmetry_multiplicity
 _atom_site_fract_x
 _atom_site_fract_y
 _atom_site_fract_z
 _atom_site_occupancy
  Li  Li0  1  0.919019  0.919019  0.250000  1
  Li  Li1  1  0.244632  0.244632  0.250000  1
  Li  Li2  1  0.080981  0.080981  0.750000  1
  Li  Li3  1  0.755368  0.755368  0.750000  1
  Ti  Ti4  1  0.589139  0.589139  0.250000  1
  Ti  Ti5  1  0.410861  0.410861  0.750000  1
  O  O6  1  0.647971  0.204590  0.512130  1
  O  O7  1  0.352029  0.795410  0.487870  1
  O  O8  1  0.204590  0.647971  0.987870  1
  O  O9  1  0.000000  0.500000  0.500000  1
  O  O10  1  0.795410  0.352029  0.012130  1
  O  O11  1  0.500000  0.000000  0.000000  1
