# generated using pymatgen
data_Co(PO3)4
_symmetry_space_group_name_H-M   'P 1'
_cell_length_a   8.40770495
_cell_length_b   9.26223809
_cell_length_c   12.81841353
_cell_angle_alpha   90.00000000
_cell_angle_beta   90.00000000
_cell_angle_gamma   90.00000000
_symmetry_Int_Tables_number   1
_chemical_formula_structural   Co(PO3)4
_chemical_formula_sum   'Co4 P16 O48'
_cell_volume   998.22325075
_cell_formula_units_Z   4
loop_
 _symmetry_equiv_pos_site_id
 _symmetry_equiv_pos_as_xyz
  1  'x, y, z'
loop_
 _atom_site_type_symbol
 _atom_site_label
 _atom_site_symmetry_multiplicity
 _atom_site_fract_x
 _atom_site_fract_y
 _atom_site_fract_z
 _atom_site_occupancy
  Co  Co0  1  0.859017  0.750000  0.500000  1
  Co  Co1  1  0.359017  0.750000  0.000000  1
  Co  Co2  1  0.140983  0.250000  0.500000  1
  Co  Co3  1  0.640983  0.250000  0.000000  1
  P  P4  1  0.964261  0.487290  0.648856  1
  P  P5  1  0.183723  0.992275  0.857029  1
  P  P6  1  0.183723  0.507725  0.142971  1
  P  P7  1  0.683723  0.507725  0.357029  1
  P  P8  1  0.464261  0.012710  0.148856  1
  P  P9  1  0.035739  0.512710  0.351144  1
  P  P10  1  0.816277  0.492275  0.857029  1
  P  P11  1  0.683723  0.992275  0.642971  1
  P  P12  1  0.964261  0.012710  0.351144  1
  P  P13  1  0.535739  0.987290  0.851144  1
  P  P14  1  0.316277  0.492275  0.642971  1
  P  P15  1  0.816277  0.007725  0.142971  1
  P  P16  1  0.316277  0.007725  0.357029  1
  P  P17  1  0.035739  0.987290  0.648856  1
  P  P18  1  0.464261  0.487290  0.851144  1
  P  P19  1  0.535739  0.512710  0.148856  1
  O  O20  1  0.198714  0.865662  0.932779  1
  O  O21  1  0.095220  0.379595  0.104885  1
  O  O22  1  0.868991  0.879544  0.375447  1
  O  O23  1  0.471430  0.131500  0.068450  1
  O  O24  1  0.198714  0.634338  0.067221  1
  O  O25  1  0.028570  0.631500  0.431550  1
  O  O26  1  0.095220  0.120405  0.895115  1
  O  O27  1  0.971430  0.131500  0.431550  1
  O  O28  1  0.028570  0.868500  0.568450  1
  O  O29  1  0.893183  0.079675  0.245978  1
  O  O30  1  0.801286  0.134338  0.067221  1
  O  O31  1  0.140394  0.965269  0.316452  1
  O  O32  1  0.359606  0.465269  0.183548  1
  O  O33  1  0.698714  0.634338  0.432779  1
  O  O34  1  0.140394  0.534731  0.683548  1
  O  O35  1  0.868991  0.620456  0.624553  1
  O  O36  1  0.393183  0.420325  0.745978  1
  O  O37  1  0.106817  0.579675  0.245978  1
  O  O38  1  0.404780  0.879595  0.395115  1
  O  O39  1  0.631009  0.379544  0.124553  1
  O  O40  1  0.595220  0.120405  0.604885  1
  O  O41  1  0.404780  0.620405  0.604885  1
  O  O42  1  0.359606  0.034731  0.816452  1
  O  O43  1  0.904780  0.879595  0.104885  1
  O  O44  1  0.859606  0.034731  0.683548  1
  O  O45  1  0.301286  0.134338  0.432779  1
  O  O46  1  0.859606  0.465269  0.316452  1
  O  O47  1  0.640394  0.965269  0.183548  1
  O  O48  1  0.131009  0.120456  0.624553  1
  O  O49  1  0.698714  0.865662  0.567221  1
  O  O50  1  0.471430  0.368500  0.931550  1
  O  O51  1  0.801286  0.365662  0.932779  1
  O  O52  1  0.528570  0.868500  0.931550  1
  O  O53  1  0.631009  0.120456  0.875447  1
  O  O54  1  0.904780  0.620405  0.895115  1
  O  O55  1  0.606817  0.920325  0.745978  1
  O  O56  1  0.131009  0.379544  0.375447  1
  O  O57  1  0.528570  0.631500  0.068450  1
  O  O58  1  0.971430  0.368500  0.568450  1
  O  O59  1  0.106817  0.920325  0.754022  1
  O  O60  1  0.393183  0.079675  0.254022  1
  O  O61  1  0.368991  0.879544  0.124553  1
  O  O62  1  0.606817  0.579675  0.254022  1
  O  O63  1  0.640394  0.534731  0.816452  1
  O  O64  1  0.595220  0.379595  0.395115  1
  O  O65  1  0.893183  0.420325  0.754022  1
  O  O66  1  0.368991  0.620456  0.875447  1
  O  O67  1  0.301286  0.365662  0.567221  1
