# generated using pymatgen
data_La5TlS8
_symmetry_space_group_name_H-M   'P 1'
_cell_length_a   7.64522747
_cell_length_b   7.64522747
_cell_length_c   7.64522747
_cell_angle_alpha   109.04459142
_cell_angle_beta   109.04459142
_cell_angle_gamma   110.32789046
_symmetry_Int_Tables_number   1
_chemical_formula_structural   La5TlS8
_chemical_formula_sum   'La5 Tl1 S8'
_cell_volume   343.93501793
_cell_formula_units_Z   1
loop_
 _symmetry_equiv_pos_site_id
 _symmetry_equiv_pos_as_xyz
  1  'x, y, z'
loop_
 _atom_site_type_symbol
 _atom_site_label
 _atom_site_symmetry_multiplicity
 _atom_site_fract_x
 _atom_site_fract_y
 _atom_site_fract_z
 _atom_site_occupancy
  La  La0  1  0.117895  0.502453  0.881173  1
  La  La1  1  0.250000  0.750000  0.500000  1
  La  La2  1  0.497547  0.378720  0.615442  1
  La  La3  1  0.621280  0.236722  0.118827  1
  La  La4  1  0.763278  0.882104  0.384558  1
  Tl  Tl5  1  1.000000  1.000000  0.000000  1
  S  S6  1  0.870142  0.611119  0.107454  1
  S  S7  1  0.870540  0.609921  0.582852  1
  S  S8  1  0.390079  0.972931  0.260620  1
  S  S9  1  0.027069  0.287689  0.417148  1
  S  S10  1  0.237312  0.129858  0.740977  1
  S  S11  1  0.503665  0.762688  0.892546  1
  S  S12  1  0.388881  0.496335  0.259023  1
  S  S13  1  0.712311  0.129460  0.739380  1
