# generated using pymatgen
data_GaCuTe2
_symmetry_space_group_name_H-M   'P 1'
_cell_length_a   7.44633557
_cell_length_b   7.44633557
_cell_length_c   7.44633557
_cell_angle_alpha   131.75002112
_cell_angle_beta   131.75002112
_cell_angle_gamma   70.62412904
_symmetry_Int_Tables_number   1
_chemical_formula_structural   GaCuTe2
_chemical_formula_sum   'Ga2 Cu2 Te4'
_cell_volume   225.14192535
_cell_formula_units_Z   2
loop_
 _symmetry_equiv_pos_site_id
 _symmetry_equiv_pos_as_xyz
  1  'x, y, z'
loop_
 _atom_site_type_symbol
 _atom_site_label
 _atom_site_symmetry_multiplicity
 _atom_site_fract_x
 _atom_site_fract_y
 _atom_site_fract_z
 _atom_site_occupancy
  Ga  Ga0  1  0.250000  0.750000  0.500000  1
  Ga  Ga1  1  0.500000  0.500000  0.000000  1
  Cu  Cu2  1  0.750000  0.250000  0.500000  1
  Cu  Cu3  1  0.000000  0.000000  0.000000  1
  Te  Te4  1  0.111831  0.125000  0.486831  1
  Te  Te5  1  0.875000  0.361831  0.986831  1
  Te  Te6  1  0.375000  0.888169  0.013169  1
  Te  Te7  1  0.638169  0.625000  0.513169  1
