# generated using pymatgen
data_YZn3
_symmetry_space_group_name_H-M   'P 1'
_cell_length_a   4.39204107
_cell_length_b   6.71303025
_cell_length_c   10.12188413
_cell_angle_alpha   90.00000000
_cell_angle_beta   90.00000000
_cell_angle_gamma   90.00000000
_symmetry_Int_Tables_number   1
_chemical_formula_structural   YZn3
_chemical_formula_sum   'Y4 Zn12'
_cell_volume   298.43266568
_cell_formula_units_Z   4
loop_
 _symmetry_equiv_pos_site_id
 _symmetry_equiv_pos_as_xyz
  1  'x, y, z'
loop_
 _atom_site_type_symbol
 _atom_site_label
 _atom_site_symmetry_multiplicity
 _atom_site_fract_x
 _atom_site_fract_y
 _atom_site_fract_z
 _atom_site_occupancy
  Y  Y0  1  0.250000  0.779880  0.838750  1
  Y  Y1  1  0.750000  0.220120  0.161250  1
  Y  Y2  1  0.250000  0.279880  0.661250  1
  Y  Y3  1  0.750000  0.720120  0.338750  1
  Zn  Zn4  1  0.250000  0.036604  0.394446  1
  Zn  Zn5  1  0.750000  0.963396  0.605554  1
  Zn  Zn6  1  0.250000  0.536604  0.105554  1
  Zn  Zn7  1  0.750000  0.463396  0.894446  1
  Zn  Zn8  1  0.750000  0.780242  0.043797  1
  Zn  Zn9  1  0.250000  0.219758  0.956203  1
  Zn  Zn10  1  0.750000  0.280242  0.456203  1
  Zn  Zn11  1  0.250000  0.719758  0.543797  1
  Zn  Zn12  1  0.750000  0.082915  0.852486  1
  Zn  Zn13  1  0.250000  0.917085  0.147514  1
  Zn  Zn14  1  0.750000  0.582915  0.647514  1
  Zn  Zn15  1  0.250000  0.417085  0.352486  1
