# generated using pymatgen
data_Yb(GePd)2
_symmetry_space_group_name_H-M   'P 1'
_cell_length_a   5.90470441
_cell_length_b   5.90470441
_cell_length_c   5.90470441
_cell_angle_alpha   136.85669354
_cell_angle_beta   136.85669354
_cell_angle_gamma   62.65861774
_symmetry_Int_Tables_number   1
_chemical_formula_structural   Yb(GePd)2
_chemical_formula_sum   'Yb1 Ge2 Pd2'
_cell_volume   95.08540857
_cell_formula_units_Z   1
loop_
 _symmetry_equiv_pos_site_id
 _symmetry_equiv_pos_as_xyz
  1  'x, y, z'
loop_
 _atom_site_type_symbol
 _atom_site_label
 _atom_site_symmetry_multiplicity
 _atom_site_fract_x
 _atom_site_fract_y
 _atom_site_fract_z
 _atom_site_occupancy
  Yb  Yb0  1  0.000000  0.000000  0.000000  1
  Ge  Ge1  1  0.623538  0.623538  0.000000  1
  Ge  Ge2  1  0.376462  0.376462  0.000000  1
  Pd  Pd3  1  0.250000  0.750000  0.500000  1
  Pd  Pd4  1  0.750000  0.250000  0.500000  1
