# generated using pymatgen
data_Al(CN)3
_symmetry_space_group_name_H-M   'P 1'
_cell_length_a   7.35179907
_cell_length_b   7.35179907
_cell_length_c   5.20541980
_cell_angle_alpha   90.00000000
_cell_angle_beta   90.00000000
_cell_angle_gamma   90.00000000
_symmetry_Int_Tables_number   1
_chemical_formula_structural   Al(CN)3
_chemical_formula_sum   'Al2 C6 N6'
_cell_volume   281.34747237
_cell_formula_units_Z   2
loop_
 _symmetry_equiv_pos_site_id
 _symmetry_equiv_pos_as_xyz
  1  'x, y, z'
loop_
 _atom_site_type_symbol
 _atom_site_label
 _atom_site_symmetry_multiplicity
 _atom_site_fract_x
 _atom_site_fract_y
 _atom_site_fract_z
 _atom_site_occupancy
  Al  Al0  1  0.000000  0.500000  0.007076  1
  Al  Al1  1  0.500000  0.000000  0.992924  1
  C  C2  1  0.801386  0.301386  0.002398  1
  C  C3  1  0.000000  0.500000  0.607947  1
  C  C4  1  0.500000  0.000000  0.392053  1
  C  C5  1  0.698614  0.801386  0.997602  1
  C  C6  1  0.198614  0.698614  0.002398  1
  C  C7  1  0.301386  0.198614  0.997602  1
  N  N8  1  0.189468  0.310532  0.003189  1
  N  N9  1  0.689468  0.189468  0.996811  1
  N  N10  1  0.500000  0.000000  0.615972  1
  N  N11  1  0.000000  0.500000  0.384028  1
  N  N12  1  0.810532  0.689468  0.003189  1
  N  N13  1  0.310532  0.810532  0.996811  1
