# generated using pymatgen
data_BaRuO3
_symmetry_space_group_name_H-M   'P 1'
_cell_length_a   5.81647246
_cell_length_b   5.81647246
_cell_length_c   9.62493054
_cell_angle_alpha   90.00000000
_cell_angle_beta   90.00000000
_cell_angle_gamma   120.00000000
_symmetry_Int_Tables_number   1
_chemical_formula_structural   BaRuO3
_chemical_formula_sum   'Ba4 Ru4 O12'
_cell_volume   281.99901276
_cell_formula_units_Z   4
loop_
 _symmetry_equiv_pos_site_id
 _symmetry_equiv_pos_as_xyz
  1  'x, y, z'
loop_
 _atom_site_type_symbol
 _atom_site_label
 _atom_site_symmetry_multiplicity
 _atom_site_fract_x
 _atom_site_fract_y
 _atom_site_fract_z
 _atom_site_occupancy
  Ba  Ba0  1  0.666667  0.333333  0.750000  1
  Ba  Ba1  1  0.333333  0.666667  0.250000  1
  Ba  Ba2  1  0.000000  0.000000  0.500000  1
  Ba  Ba3  1  0.000000  0.000000  0.000000  1
  Ru  Ru4  1  0.666667  0.333333  0.383075  1
  Ru  Ru5  1  0.333333  0.666667  0.883075  1
  Ru  Ru6  1  0.333333  0.666667  0.616925  1
  Ru  Ru7  1  0.666667  0.333333  0.116925  1
  O  O8  1  0.643895  0.821948  0.750000  1
  O  O9  1  0.821948  0.643895  0.250000  1
  O  O10  1  0.821948  0.178052  0.250000  1
  O  O11  1  0.178052  0.821948  0.750000  1
  O  O12  1  0.178052  0.356105  0.750000  1
  O  O13  1  0.356105  0.178052  0.250000  1
  O  O14  1  0.500000  0.500000  0.500000  1
  O  O15  1  0.000000  0.500000  0.000000  1
  O  O16  1  0.500000  0.500000  0.000000  1
  O  O17  1  0.000000  0.500000  0.500000  1
  O  O18  1  0.500000  0.000000  0.500000  1
  O  O19  1  0.500000  0.000000  0.000000  1
