# generated using pymatgen
data_Bi4Rh
_symmetry_space_group_name_H-M   'P 1'
_cell_length_a   13.15719718
_cell_length_b   13.15719718
_cell_length_c   13.15719718
_cell_angle_alpha   109.47122063
_cell_angle_beta   109.47122063
_cell_angle_gamma   109.47122063
_symmetry_Int_Tables_number   1
_chemical_formula_structural   Bi4Rh
_chemical_formula_sum   'Bi48 Rh12'
_cell_volume   1753.34855290
_cell_formula_units_Z   12
loop_
 _symmetry_equiv_pos_site_id
 _symmetry_equiv_pos_as_xyz
  1  'x, y, z'
loop_
 _atom_site_type_symbol
 _atom_site_label
 _atom_site_symmetry_multiplicity
 _atom_site_fract_x
 _atom_site_fract_y
 _atom_site_fract_z
 _atom_site_occupancy
  Bi  Bi0  1  0.587327  0.910991  0.371620  1
  Bi  Bi1  1  0.460629  0.589009  0.176336  1
  Bi  Bi2  1  0.176336  0.460629  0.589009  1
  Bi  Bi3  1  0.215708  0.128380  0.039371  1
  Bi  Bi4  1  0.323664  0.910991  0.039371  1
  Bi  Bi5  1  0.284292  0.323664  0.912673  1
  Bi  Bi6  1  0.039371  0.323664  0.910991  1
  Bi  Bi7  1  0.910991  0.371620  0.587327  1
  Bi  Bi8  1  0.910991  0.039371  0.323664  1
  Bi  Bi9  1  0.371620  0.284292  0.460629  1
  Bi  Bi10  1  0.587327  0.176336  0.215708  1
  Bi  Bi11  1  0.589009  0.912673  0.128380  1
  Bi  Bi12  1  0.410991  0.823664  0.539371  1
  Bi  Bi13  1  0.823664  0.784292  0.412673  1
  Bi  Bi14  1  0.871620  0.410991  0.087327  1
  Bi  Bi15  1  0.087327  0.871620  0.410991  1
  Bi  Bi16  1  0.539371  0.628380  0.715708  1
  Bi  Bi17  1  0.715708  0.539371  0.628380  1
  Bi  Bi18  1  0.784292  0.412673  0.823664  1
  Bi  Bi19  1  0.871620  0.960629  0.784292  1
  Bi  Bi20  1  0.087327  0.715708  0.676336  1
  Bi  Bi21  1  0.628380  0.412673  0.089009  1
  Bi  Bi22  1  0.960629  0.784292  0.871620  1
  Bi  Bi23  1  0.676336  0.087327  0.715708  1
  Bi  Bi24  1  0.412673  0.089009  0.628380  1
  Bi  Bi25  1  0.539371  0.410991  0.823664  1
  Bi  Bi26  1  0.823664  0.539371  0.410991  1
  Bi  Bi27  1  0.784292  0.871620  0.960629  1
  Bi  Bi28  1  0.676336  0.089009  0.960629  1
  Bi  Bi29  1  0.715708  0.676336  0.087327  1
  Bi  Bi30  1  0.960629  0.676336  0.089009  1
  Bi  Bi31  1  0.089009  0.628380  0.412673  1
  Bi  Bi32  1  0.089009  0.960629  0.676336  1
  Bi  Bi33  1  0.628380  0.715708  0.539371  1
  Bi  Bi34  1  0.412673  0.823664  0.784292  1
  Bi  Bi35  1  0.410991  0.087327  0.871620  1
  Bi  Bi36  1  0.323664  0.912673  0.284292  1
  Bi  Bi37  1  0.039371  0.215708  0.128380  1
  Bi  Bi38  1  0.371620  0.587327  0.910991  1
  Bi  Bi39  1  0.912673  0.284292  0.323664  1
  Bi  Bi40  1  0.128380  0.039371  0.215708  1
  Bi  Bi41  1  0.215708  0.587327  0.176336  1
  Bi  Bi42  1  0.284292  0.460629  0.371620  1
  Bi  Bi43  1  0.460629  0.371620  0.284292  1
  Bi  Bi44  1  0.912673  0.128380  0.589009  1
  Bi  Bi45  1  0.128380  0.589009  0.912673  1
  Bi  Bi46  1  0.176336  0.215708  0.587327  1
  Bi  Bi47  1  0.589009  0.176336  0.460629  1
  Rh  Rh48  1  0.250000  0.875000  0.625000  1
  Rh  Rh49  1  0.875000  0.625000  0.250000  1
  Rh  Rh50  1  0.625000  0.875000  0.750000  1
  Rh  Rh51  1  0.875000  0.750000  0.625000  1
  Rh  Rh52  1  0.625000  0.250000  0.875000  1
  Rh  Rh53  1  0.750000  0.625000  0.875000  1
  Rh  Rh54  1  0.750000  0.125000  0.375000  1
  Rh  Rh55  1  0.125000  0.375000  0.750000  1
  Rh  Rh56  1  0.375000  0.125000  0.250000  1
  Rh  Rh57  1  0.125000  0.250000  0.375000  1
  Rh  Rh58  1  0.375000  0.750000  0.125000  1
  Rh  Rh59  1  0.250000  0.375000  0.125000  1
