# generated using pymatgen
data_Cr2P5O16
_symmetry_space_group_name_H-M   'P 1'
_cell_length_a   18.81527756
_cell_length_b   6.76677584
_cell_length_c   19.48886887
_cell_angle_alpha   90.00000000
_cell_angle_beta   164.93546228
_cell_angle_gamma   90.00000000
_symmetry_Int_Tables_number   1
_chemical_formula_structural   Cr2P5O16
_chemical_formula_sum   'Cr4 P10 O32'
_cell_volume   644.90664889
_cell_formula_units_Z   2
loop_
 _symmetry_equiv_pos_site_id
 _symmetry_equiv_pos_as_xyz
  1  'x, y, z'
loop_
 _atom_site_type_symbol
 _atom_site_label
 _atom_site_symmetry_multiplicity
 _atom_site_fract_x
 _atom_site_fract_y
 _atom_site_fract_z
 _atom_site_occupancy
  Cr  Cr0  1  0.662911  0.180262  0.256198  1
  Cr  Cr1  1  0.162911  0.819738  0.256198  1
  Cr  Cr2  1  0.337089  0.819738  0.743802  1
  Cr  Cr3  1  0.837089  0.180262  0.743802  1
  P  P4  1  0.750000  0.740808  0.000000  1
  P  P5  1  0.815238  0.123600  0.237362  1
  P  P6  1  0.250000  0.259192  0.000000  1
  P  P7  1  0.119022  0.459853  0.748138  1
  P  P8  1  0.880978  0.540147  0.251862  1
  P  P9  1  0.184762  0.876400  0.762638  1
  P  P10  1  0.380978  0.459853  0.251862  1
  P  P11  1  0.684762  0.123600  0.762638  1
  P  P12  1  0.315238  0.876400  0.237362  1
  P  P13  1  0.619022  0.540147  0.748138  1
  O  O14  1  0.155516  0.794287  0.662975  1
  O  O15  1  0.033380  0.976857  0.419264  1
  O  O16  1  0.345182  0.692180  0.212423  1
  O  O17  1  0.966620  0.023143  0.580736  1
  O  O18  1  0.366052  0.361053  0.947524  1
  O  O19  1  0.466620  0.976857  0.580736  1
  O  O20  1  0.654923  0.422129  0.540574  1
  O  O21  1  0.520403  0.053905  0.948484  1
  O  O22  1  0.845077  0.422129  0.459426  1
  O  O23  1  0.958898  0.856082  0.154791  1
  O  O24  1  0.154818  0.692180  0.787577  1
  O  O25  1  0.089884  0.409175  0.801248  1
  O  O26  1  0.479597  0.946095  0.051516  1
  O  O27  1  0.020403  0.946095  0.948484  1
  O  O28  1  0.844484  0.205713  0.337025  1
  O  O29  1  0.533380  0.023143  0.419264  1
  O  O30  1  0.655516  0.205713  0.662975  1
  O  O31  1  0.458898  0.143918  0.154791  1
  O  O32  1  0.845182  0.307820  0.212423  1
  O  O33  1  0.541102  0.856082  0.845209  1
  O  O34  1  0.345077  0.577871  0.459426  1
  O  O35  1  0.910116  0.590825  0.198752  1
  O  O36  1  0.410116  0.409175  0.198752  1
  O  O37  1  0.979597  0.053905  0.051516  1
  O  O38  1  0.866052  0.638947  0.947524  1
  O  O39  1  0.133948  0.361053  0.052476  1
  O  O40  1  0.154923  0.577871  0.540574  1
  O  O41  1  0.654818  0.307820  0.787577  1
  O  O42  1  0.041102  0.143918  0.845209  1
  O  O43  1  0.633948  0.638947  0.052476  1
  O  O44  1  0.344484  0.794287  0.337025  1
  O  O45  1  0.589884  0.590825  0.801248  1
