# generated using pymatgen
data_La5TlTe8
_symmetry_space_group_name_H-M   'P 1'
_cell_length_a   8.45140605
_cell_length_b   8.45140605
_cell_length_c   8.45140605
_cell_angle_alpha   109.31680533
_cell_angle_beta   109.31680533
_cell_angle_gamma   109.78049461
_symmetry_Int_Tables_number   1
_chemical_formula_structural   La5TlTe8
_chemical_formula_sum   'La5 Tl1 Te8'
_cell_volume   464.68164292
_cell_formula_units_Z   1
loop_
 _symmetry_equiv_pos_site_id
 _symmetry_equiv_pos_as_xyz
  1  'x, y, z'
loop_
 _atom_site_type_symbol
 _atom_site_label
 _atom_site_symmetry_multiplicity
 _atom_site_fract_x
 _atom_site_fract_y
 _atom_site_fract_z
 _atom_site_occupancy
  La  La0  1  0.119626  0.500764  0.876989  1
  La  La1  1  0.250000  0.750000  0.500000  1
  La  La2  1  0.499236  0.376224  0.618861  1
  La  La3  1  0.623776  0.242637  0.123012  1
  La  La4  1  0.757363  0.880374  0.381139  1
  Tl  Tl5  1  0.000000  0.000000  0.000000  1
  Te  Te6  1  0.870362  0.615926  0.101133  1
  Te  Te7  1  0.030578  0.286411  0.412847  1
  Te  Te8  1  0.230770  0.129638  0.745563  1
  Te  Te9  1  0.514793  0.769230  0.898867  1
  Te  Te10  1  0.382269  0.969422  0.255833  1
  Te  Te11  1  0.384074  0.485207  0.254437  1
  Te  Te12  1  0.713589  0.126436  0.744167  1
  Te  Te13  1  0.873564  0.617731  0.587153  1
