# generated using pymatgen
data_P2PbO6
_symmetry_space_group_name_H-M   'P 1'
_cell_length_a   7.41968916
_cell_length_b   8.13880730
_cell_length_c   17.72509861
_cell_angle_alpha   90.00000000
_cell_angle_beta   91.06224924
_cell_angle_gamma   90.00000000
_symmetry_Int_Tables_number   1
_chemical_formula_structural   P2PbO6
_chemical_formula_sum   'P16 Pb8 O48'
_cell_volume   1070.18903001
_cell_formula_units_Z   8
loop_
 _symmetry_equiv_pos_site_id
 _symmetry_equiv_pos_as_xyz
  1  'x, y, z'
loop_
 _atom_site_type_symbol
 _atom_site_label
 _atom_site_symmetry_multiplicity
 _atom_site_fract_x
 _atom_site_fract_y
 _atom_site_fract_z
 _atom_site_occupancy
  P  P0  1  0.750339  0.785518  0.410444  1
  P  P1  1  0.249661  0.285518  0.089556  1
  P  P2  1  0.249661  0.214482  0.589556  1
  P  P3  1  0.750339  0.714482  0.910444  1
  P  P4  1  0.362208  0.800932  0.458276  1
  P  P5  1  0.637792  0.300932  0.041724  1
  P  P6  1  0.637792  0.199068  0.541724  1
  P  P7  1  0.362208  0.699068  0.958276  1
  P  P8  1  0.263508  0.517914  0.356519  1
  P  P9  1  0.736492  0.017914  0.143481  1
  P  P10  1  0.736492  0.482086  0.643481  1
  P  P11  1  0.263508  0.982086  0.856519  1
  P  P12  1  0.869797  0.985102  0.808508  1
  P  P13  1  0.130203  0.485102  0.691492  1
  P  P14  1  0.130203  0.014898  0.191492  1
  P  P15  1  0.869797  0.514898  0.308508  1
  Pb  Pb16  1  0.517203  0.141694  0.325715  1
  Pb  Pb17  1  0.482797  0.641694  0.174285  1
  Pb  Pb18  1  0.482797  0.858306  0.674285  1
  Pb  Pb19  1  0.517203  0.358306  0.825715  1
  Pb  Pb20  1  0.024714  0.124657  0.398085  1
  Pb  Pb21  1  0.975286  0.624656  0.101915  1
  Pb  Pb22  1  0.975286  0.875343  0.601915  1
  Pb  Pb23  1  0.024714  0.375343  0.898085  1
  O  O24  1  0.798201  0.589798  0.236529  1
  O  O25  1  0.201799  0.089798  0.263471  1
  O  O26  1  0.201799  0.410202  0.763471  1
  O  O27  1  0.798201  0.910202  0.736529  1
  O  O28  1  0.847518  0.333221  0.320754  1
  O  O29  1  0.152482  0.833221  0.179246  1
  O  O30  1  0.152482  0.666779  0.679246  1
  O  O31  1  0.847518  0.166779  0.820754  1
  O  O32  1  0.079591  0.930357  0.813109  1
  O  O33  1  0.920409  0.430357  0.686891  1
  O  O34  1  0.920409  0.069643  0.186891  1
  O  O35  1  0.079591  0.569643  0.313109  1
  O  O36  1  0.788029  0.601360  0.382171  1
  O  O37  1  0.211971  0.101360  0.117829  1
  O  O38  1  0.211971  0.398640  0.617829  1
  O  O39  1  0.788029  0.898640  0.882171  1
  O  O40  1  0.251998  0.156277  0.885344  1
  O  O41  1  0.748002  0.656277  0.614656  1
  O  O42  1  0.282973  0.400049  0.155305  1
  O  O43  1  0.251998  0.343723  0.385344  1
  O  O44  1  0.417932  0.940202  0.806758  1
  O  O45  1  0.582068  0.440202  0.693242  1
  O  O46  1  0.582068  0.059798  0.193242  1
  O  O47  1  0.417932  0.559798  0.306758  1
  O  O48  1  0.262759  0.864845  0.929948  1
  O  O49  1  0.737241  0.364845  0.570052  1
  O  O50  1  0.737241  0.135155  0.070052  1
  O  O51  1  0.262759  0.635155  0.429948  1
  O  O52  1  0.717027  0.900049  0.344695  1
  O  O53  1  0.900765  0.665770  0.964441  1
  O  O54  1  0.282973  0.099951  0.655305  1
  O  O55  1  0.717027  0.599951  0.844695  1
  O  O56  1  0.310391  0.676963  0.039032  1
  O  O57  1  0.689609  0.176963  0.460968  1
  O  O58  1  0.689609  0.323037  0.960968  1
  O  O59  1  0.310391  0.823037  0.539032  1
  O  O60  1  0.327276  0.559619  0.903436  1
  O  O61  1  0.672724  0.059619  0.596564  1
  O  O62  1  0.672724  0.440381  0.096564  1
  O  O63  1  0.327276  0.940381  0.403436  1
  O  O64  1  0.572630  0.748362  0.958310  1
  O  O65  1  0.427370  0.248362  0.541690  1
  O  O66  1  0.427370  0.251638  0.041690  1
  O  O67  1  0.572630  0.751638  0.458310  1
  O  O68  1  0.900765  0.834230  0.464441  1
  O  O69  1  0.099235  0.334230  0.035559  1
  O  O70  1  0.099235  0.165770  0.535559  1
  O  O71  1  0.748002  0.843723  0.114656  1
