# generated using pymatgen
data_Ho10Ti6O27
_symmetry_space_group_name_H-M   'P 1'
_cell_length_a   7.39899511
_cell_length_b   7.39899511
_cell_length_c   12.49936344
_cell_angle_alpha   72.14272655
_cell_angle_beta   107.85727345
_cell_angle_gamma   121.30509404
_symmetry_Int_Tables_number   1
_chemical_formula_structural   Ho10Ti6O27
_chemical_formula_sum   'Ho10 Ti6 O27'
_cell_volume   547.28386897
_cell_formula_units_Z   1
loop_
 _symmetry_equiv_pos_site_id
 _symmetry_equiv_pos_as_xyz
  1  'x, y, z'
loop_
 _atom_site_type_symbol
 _atom_site_label
 _atom_site_symmetry_multiplicity
 _atom_site_fract_x
 _atom_site_fract_y
 _atom_site_fract_z
 _atom_site_occupancy
  Ho  Ho0  1  0.519007  0.480993  0.004048  1
  Ho  Ho1  1  0.745024  0.254976  0.764692  1
  Ho  Ho2  1  0.259039  0.250626  0.747472  1
  Ho  Ho3  1  0.249660  0.750340  0.231828  1
  Ho  Ho4  1  0.515698  0.484302  0.496634  1
  Ho  Ho5  1  0.749374  0.740961  0.747472  1
  Ho  Ho6  1  0.771914  0.721144  0.268376  1
  Ho  Ho7  1  0.257750  0.742250  0.725969  1
  Ho  Ho8  1  0.278856  0.228086  0.268376  1
  Ho  Ho9  1  0.981980  0.018020  0.009500  1
  Ti  Ti10  1  0.020136  0.504853  0.994932  1
  Ti  Ti11  1  0.495147  0.979864  0.994932  1
  Ti  Ti12  1  0.007384  0.480904  0.506369  1
  Ti  Ti13  1  0.519096  0.992616  0.506369  1
  Ti  Ti14  1  0.747869  0.252131  0.243830  1
  Ti  Ti15  1  0.001296  0.998704  0.493983  1
  O  O16  1  0.609209  0.972701  0.683713  1
  O  O17  1  0.790418  0.209582  0.957005  1
  O  O18  1  0.834971  0.721341  0.935926  1
  O  O19  1  0.027299  0.390791  0.683713  1
  O  O20  1  0.143984  0.321248  0.522479  1
  O  O21  1  0.435991  0.564009  0.814294  1
  O  O22  1  0.267196  0.732804  0.544618  1
  O  O23  1  0.920605  0.443428  0.136819  1
  O  O24  1  0.278659  0.165029  0.935926  1
  O  O25  1  0.058649  0.941351  0.659015  1
  O  O26  1  0.422339  0.003106  0.834374  1
  O  O27  1  0.569310  0.430690  0.684471  1
  O  O28  1  0.283660  0.120184  0.461888  1
  O  O29  1  0.678752  0.856016  0.522479  1
  O  O30  1  0.556572  0.079395  0.136819  1
  O  O31  1  0.431484  0.568516  0.310362  1
  O  O32  1  0.627977  0.802038  0.056984  1
  O  O33  1  0.906674  0.093326  0.325214  1
  O  O34  1  0.696350  0.303650  0.502956  1
  O  O35  1  0.996894  0.577661  0.834374  1
  O  O36  1  0.879816  0.716340  0.461888  1
  O  O37  1  0.586096  0.413904  0.204073  1
  O  O38  1  0.064859  0.935141  0.189161  1
  O  O39  1  0.972792  0.533640  0.339500  1
  O  O40  1  0.197962  0.372023  0.056984  1
  O  O41  1  0.466360  0.027208  0.339500  1
  O  O42  1  0.238395  0.761605  0.048185  1
