# generated using pymatgen
data_Zn12Pt7
_symmetry_space_group_name_H-M   'P 1'
_cell_length_a   2.80123434
_cell_length_b   7.02879061
_cell_length_c   29.33571624
_cell_angle_alpha   90.00000000
_cell_angle_beta   90.00000000
_cell_angle_gamma   90.00000000
_symmetry_Int_Tables_number   1
_chemical_formula_structural   Zn12Pt7
_chemical_formula_sum   'Zn24 Pt14'
_cell_volume   577.59941342
_cell_formula_units_Z   2
loop_
 _symmetry_equiv_pos_site_id
 _symmetry_equiv_pos_as_xyz
  1  'x, y, z'
loop_
 _atom_site_type_symbol
 _atom_site_label
 _atom_site_symmetry_multiplicity
 _atom_site_fract_x
 _atom_site_fract_y
 _atom_site_fract_z
 _atom_site_occupancy
  Zn  Zn0  1  0.500000  0.875662  0.071320  1
  Zn  Zn1  1  0.500000  0.124338  0.928680  1
  Zn  Zn2  1  0.500000  0.375662  0.428680  1
  Zn  Zn3  1  0.500000  0.624338  0.571320  1
  Zn  Zn4  1  0.500000  0.862718  0.216374  1
  Zn  Zn5  1  0.500000  0.137282  0.783626  1
  Zn  Zn6  1  0.500000  0.362718  0.283626  1
  Zn  Zn7  1  0.500000  0.637282  0.716374  1
  Zn  Zn8  1  0.500000  0.817018  0.492101  1
  Zn  Zn9  1  0.500000  0.182982  0.507899  1
  Zn  Zn10  1  0.500000  0.317018  0.007899  1
  Zn  Zn11  1  0.500000  0.682982  0.992101  1
  Zn  Zn12  1  0.500000  0.629402  0.143188  1
  Zn  Zn13  1  0.500000  0.370598  0.856812  1
  Zn  Zn14  1  0.500000  0.748521  0.899699  1
  Zn  Zn15  1  0.500000  0.251479  0.100301  1
  Zn  Zn16  1  0.500000  0.248521  0.600301  1
  Zn  Zn17  1  0.500000  0.751479  0.399699  1
  Zn  Zn18  1  0.500000  0.768529  0.801795  1
  Zn  Zn19  1  0.500000  0.231471  0.198205  1
  Zn  Zn20  1  0.500000  0.268530  0.698205  1
  Zn  Zn21  1  0.500000  0.731471  0.301795  1
  Zn  Zn22  1  0.500000  0.870598  0.643188  1
  Zn  Zn23  1  0.500000  0.129402  0.356812  1
  Pt  Pt24  1  0.000000  0.536841  0.067335  1
  Pt  Pt25  1  0.000000  0.463159  0.932665  1
  Pt  Pt26  1  0.000000  0.036841  0.432665  1
  Pt  Pt27  1  0.000000  0.963159  0.567335  1
  Pt  Pt28  1  0.000000  0.540636  0.218649  1
  Pt  Pt29  1  0.000000  0.459364  0.781351  1
  Pt  Pt30  1  0.000000  0.040636  0.281351  1
  Pt  Pt31  1  0.000000  0.959364  0.718649  1
  Pt  Pt32  1  0.000000  0.492687  0.355663  1
  Pt  Pt33  1  0.000000  0.507313  0.644337  1
  Pt  Pt34  1  0.000000  0.992687  0.144337  1
  Pt  Pt35  1  0.000000  0.007313  0.855663  1
  Pt  Pt36  1  0.000000  0.500000  0.500000  1
  Pt  Pt37  1  0.000000  0.000000  0.000000  1
