# generated using pymatgen
data_MoP2O7
_symmetry_space_group_name_H-M   'P 1'
_cell_length_a   6.99672257
_cell_length_b   8.25485256
_cell_length_c   9.77255089
_cell_angle_alpha   90.00000000
_cell_angle_beta   108.82189665
_cell_angle_gamma   90.00000000
_symmetry_Int_Tables_number   1
_chemical_formula_structural   MoP2O7
_chemical_formula_sum   'Mo4 P8 O28'
_cell_volume   534.24993448
_cell_formula_units_Z   4
loop_
 _symmetry_equiv_pos_site_id
 _symmetry_equiv_pos_as_xyz
  1  'x, y, z'
loop_
 _atom_site_type_symbol
 _atom_site_label
 _atom_site_symmetry_multiplicity
 _atom_site_fract_x
 _atom_site_fract_y
 _atom_site_fract_z
 _atom_site_occupancy
  Mo  Mo0  1  0.720579  0.726411  0.509370  1
  Mo  Mo1  1  0.720579  0.773589  0.009370  1
  Mo  Mo2  1  0.279421  0.273589  0.490630  1
  Mo  Mo3  1  0.279421  0.226411  0.990630  1
  P  P4  1  0.456764  0.590550  0.705925  1
  P  P5  1  0.935510  0.963614  0.795513  1
  P  P6  1  0.456764  0.909450  0.205925  1
  P  P7  1  0.064490  0.036386  0.204487  1
  P  P8  1  0.935510  0.536386  0.295513  1
  P  P9  1  0.543236  0.409450  0.294075  1
  P  P10  1  0.064490  0.463614  0.704487  1
  P  P11  1  0.543236  0.090550  0.794075  1
  O  O12  1  0.533361  0.927445  0.868127  1
  O  O13  1  0.139301  0.447281  0.344885  1
  O  O14  1  0.411356  0.093472  0.635056  1
  O  O15  1  0.773714  0.105218  0.793283  1
  O  O16  1  0.102811  0.101200  0.358404  1
  O  O17  1  0.588644  0.593472  0.864944  1
  O  O18  1  0.925483  0.672346  0.398873  1
  O  O19  1  0.897189  0.601200  0.141596  1
  O  O20  1  0.897189  0.898800  0.641596  1
  O  O21  1  0.500534  0.769223  0.118531  1
  O  O22  1  0.499466  0.230777  0.881469  1
  O  O23  1  0.074517  0.172346  0.101127  1
  O  O24  1  0.773714  0.394782  0.293283  1
  O  O25  1  0.139301  0.052719  0.844885  1
  O  O26  1  0.411356  0.406528  0.135056  1
  O  O27  1  0.102811  0.398800  0.858404  1
  O  O28  1  0.500534  0.730777  0.618531  1
  O  O29  1  0.074517  0.327654  0.601127  1
  O  O30  1  0.925483  0.827654  0.898873  1
  O  O31  1  0.533361  0.572555  0.368127  1
  O  O32  1  0.466639  0.072555  0.131873  1
  O  O33  1  0.860699  0.552719  0.655115  1
  O  O34  1  0.860699  0.947281  0.155115  1
  O  O35  1  0.226286  0.894782  0.206717  1
  O  O36  1  0.226286  0.605218  0.706717  1
  O  O37  1  0.499466  0.269223  0.381469  1
  O  O38  1  0.466639  0.427445  0.631873  1
  O  O39  1  0.588644  0.906528  0.364944  1
