# generated using pymatgen
data_Li4Fe(PO4)2
_symmetry_space_group_name_H-M   'P 1'
_cell_length_a   8.22064732
_cell_length_b   10.47948087
_cell_length_c   8.27894760
_cell_angle_alpha   90.00000000
_cell_angle_beta   104.28379227
_cell_angle_gamma   90.00000000
_symmetry_Int_Tables_number   1
_chemical_formula_structural   Li4Fe(PO4)2
_chemical_formula_sum   'Li16 Fe4 P8 O32'
_cell_volume   691.16707738
_cell_formula_units_Z   4
loop_
 _symmetry_equiv_pos_site_id
 _symmetry_equiv_pos_as_xyz
  1  'x, y, z'
loop_
 _atom_site_type_symbol
 _atom_site_label
 _atom_site_symmetry_multiplicity
 _atom_site_fract_x
 _atom_site_fract_y
 _atom_site_fract_z
 _atom_site_occupancy
  Li  Li0  1  0.725846  0.073045  0.475873  1
  Li  Li1  1  0.898216  0.337692  0.397884  1
  Li  Li2  1  0.150134  0.347369  0.150803  1
  Li  Li3  1  0.846435  0.837467  0.349257  1
  Li  Li4  1  0.274154  0.926955  0.524127  1
  Li  Li5  1  0.101784  0.662308  0.602116  1
  Li  Li6  1  0.601784  0.837692  0.602116  1
  Li  Li7  1  0.225846  0.426955  0.475873  1
  Li  Li8  1  0.346435  0.662533  0.349257  1
  Li  Li9  1  0.398216  0.162308  0.397884  1
  Li  Li10  1  0.153565  0.162533  0.650743  1
  Li  Li11  1  0.349866  0.847369  0.849197  1
  Li  Li12  1  0.774154  0.573045  0.524127  1
  Li  Li13  1  0.653565  0.337467  0.650743  1
  Li  Li14  1  0.650134  0.152631  0.150803  1
  Li  Li15  1  0.849866  0.652631  0.849197  1
  Fe  Fe16  1  0.409330  0.343187  0.907153  1
  Fe  Fe17  1  0.090670  0.843187  0.092847  1
  Fe  Fe18  1  0.909330  0.156813  0.907153  1
  Fe  Fe19  1  0.590670  0.656813  0.092847  1
  P  P20  1  0.974837  0.907957  0.709170  1
  P  P21  1  0.025163  0.092043  0.290830  1
  P  P22  1  0.030015  0.406322  0.765685  1
  P  P23  1  0.530015  0.093678  0.765685  1
  P  P24  1  0.969985  0.593678  0.234315  1
  P  P25  1  0.469985  0.906322  0.234315  1
  P  P26  1  0.474837  0.592043  0.709170  1
  P  P27  1  0.525163  0.407957  0.290830  1
  O  O28  1  0.877137  0.331395  0.797323  1
  O  O29  1  0.815669  0.902157  0.561869  1
  O  O30  1  0.622863  0.831395  0.202677  1
  O  O31  1  0.176153  0.390850  0.926332  1
  O  O32  1  0.979167  0.547221  0.726332  1
  O  O33  1  0.515096  0.449375  0.756986  1
  O  O34  1  0.684331  0.402157  0.438131  1
  O  O35  1  0.371581  0.346897  0.339287  1
  O  O36  1  0.315669  0.597843  0.561869  1
  O  O37  1  0.913829  0.654093  0.384126  1
  O  O38  1  0.437508  0.666063  0.859754  1
  O  O39  1  0.128419  0.846897  0.660713  1
  O  O40  1  0.020833  0.452779  0.273668  1
  O  O41  1  0.562492  0.333937  0.140246  1
  O  O42  1  0.676153  0.109150  0.926332  1
  O  O43  1  0.628419  0.653103  0.660713  1
  O  O44  1  0.184331  0.097843  0.438131  1
  O  O45  1  0.984904  0.949375  0.243014  1
  O  O46  1  0.377137  0.168605  0.797323  1
  O  O47  1  0.823847  0.609150  0.073668  1
  O  O48  1  0.413829  0.845907  0.384126  1
  O  O49  1  0.484904  0.550625  0.243014  1
  O  O50  1  0.062492  0.166063  0.140246  1
  O  O51  1  0.871581  0.153103  0.339287  1
  O  O52  1  0.586171  0.154093  0.615874  1
  O  O53  1  0.086171  0.345907  0.615874  1
  O  O54  1  0.937508  0.833937  0.859754  1
  O  O55  1  0.122863  0.668605  0.202677  1
  O  O56  1  0.520833  0.047221  0.273668  1
  O  O57  1  0.479167  0.952779  0.726332  1
  O  O58  1  0.015096  0.050625  0.756986  1
  O  O59  1  0.323847  0.890850  0.073668  1
