# generated using pymatgen
data_CeSi2Pt
_symmetry_space_group_name_H-M   'P 1'
_cell_length_a   8.59967222
_cell_length_b   8.59967222
_cell_length_c   4.24702052
_cell_angle_alpha   90.00000000
_cell_angle_beta   90.00000000
_cell_angle_gamma   151.25503083
_symmetry_Int_Tables_number   1
_chemical_formula_structural   CeSi2Pt
_chemical_formula_sum   'Ce2 Si4 Pt2'
_cell_volume   151.04751242
_cell_formula_units_Z   2
loop_
 _symmetry_equiv_pos_site_id
 _symmetry_equiv_pos_as_xyz
  1  'x, y, z'
loop_
 _atom_site_type_symbol
 _atom_site_label
 _atom_site_symmetry_multiplicity
 _atom_site_fract_x
 _atom_site_fract_y
 _atom_site_fract_z
 _atom_site_occupancy
  Ce  Ce0  1  0.396417  0.603583  0.250000  1
  Ce  Ce1  1  0.603583  0.396417  0.750000  1
  Si  Si2  1  0.034473  0.965527  0.250000  1
  Si  Si3  1  0.965527  0.034473  0.750000  1
  Si  Si4  1  0.250742  0.749258  0.750000  1
  Si  Si5  1  0.749258  0.250742  0.250000  1
  Pt  Pt6  1  0.821020  0.178980  0.750000  1
  Pt  Pt7  1  0.178980  0.821020  0.250000  1
