# generated using pymatgen
data_TlS
_symmetry_space_group_name_H-M   'P 1'
_cell_length_a   6.63146491
_cell_length_b   6.63146491
_cell_length_c   6.63146491
_cell_angle_alpha   106.08954101
_cell_angle_beta   106.08954101
_cell_angle_gamma   116.46950754
_symmetry_Int_Tables_number   1
_chemical_formula_structural   TlS
_chemical_formula_sum   'Tl4 S4'
_cell_volume   221.95354673
_cell_formula_units_Z   4
loop_
 _symmetry_equiv_pos_site_id
 _symmetry_equiv_pos_as_xyz
  1  'x, y, z'
loop_
 _atom_site_type_symbol
 _atom_site_label
 _atom_site_symmetry_multiplicity
 _atom_site_fract_x
 _atom_site_fract_y
 _atom_site_fract_z
 _atom_site_occupancy
  Tl  Tl0  1  0.750000  0.750000  0.000000  1
  Tl  Tl1  1  0.250000  0.250000  0.000000  1
  Tl  Tl2  1  0.750000  0.250000  0.500000  1
  Tl  Tl3  1  0.250000  0.750000  0.500000  1
  S  S4  1  0.329250  0.829250  0.158499  1
  S  S5  1  0.670750  0.170750  0.841501  1
  S  S6  1  0.829250  0.670750  0.500000  1
  S  S7  1  0.170750  0.329250  0.500000  1
