# generated using pymatgen
data_La2Mg17
_symmetry_space_group_name_H-M   'P 1'
_cell_length_a   10.35945043
_cell_length_b   10.35945043
_cell_length_c   10.17587044
_cell_angle_alpha   90.00000000
_cell_angle_beta   90.00000000
_cell_angle_gamma   120.00000000
_symmetry_Int_Tables_number   1
_chemical_formula_structural   La2Mg17
_chemical_formula_sum   'La4 Mg34'
_cell_volume   945.74844067
_cell_formula_units_Z   2
loop_
 _symmetry_equiv_pos_site_id
 _symmetry_equiv_pos_as_xyz
  1  'x, y, z'
loop_
 _atom_site_type_symbol
 _atom_site_label
 _atom_site_symmetry_multiplicity
 _atom_site_fract_x
 _atom_site_fract_y
 _atom_site_fract_z
 _atom_site_occupancy
  La  La0  1  0.666667  0.333333  0.250000  1
  La  La1  1  0.333333  0.666667  0.750000  1
  La  La2  1  0.000000  0.000000  0.750000  1
  La  La3  1  0.000000  0.000000  0.250000  1
  Mg  Mg4  1  0.162349  0.837651  0.521343  1
  Mg  Mg5  1  0.162349  0.324697  0.521343  1
  Mg  Mg6  1  0.675303  0.837651  0.521343  1
  Mg  Mg7  1  0.324697  0.162349  0.021343  1
  Mg  Mg8  1  0.333333  0.666667  0.100947  1
  Mg  Mg9  1  0.666667  0.333333  0.600947  1
  Mg  Mg10  1  0.666667  0.333333  0.899053  1
  Mg  Mg11  1  0.333333  0.666667  0.399053  1
  Mg  Mg12  1  0.500000  0.000000  0.000000  1
  Mg  Mg13  1  0.500000  0.500000  0.500000  1
  Mg  Mg14  1  0.000000  0.500000  0.500000  1
  Mg  Mg15  1  0.000000  0.500000  0.000000  1
  Mg  Mg16  1  0.500000  0.500000  0.000000  1
  Mg  Mg17  1  0.500000  0.000000  0.500000  1
  Mg  Mg18  1  0.328403  0.964349  0.250000  1
  Mg  Mg19  1  0.364054  0.328403  0.750000  1
  Mg  Mg20  1  0.964349  0.635946  0.750000  1
  Mg  Mg21  1  0.035651  0.364054  0.250000  1
  Mg  Mg22  1  0.635946  0.671597  0.250000  1
  Mg  Mg23  1  0.364054  0.035651  0.750000  1
  Mg  Mg24  1  0.671597  0.635946  0.750000  1
  Mg  Mg25  1  0.671597  0.035651  0.750000  1
  Mg  Mg26  1  0.964349  0.328403  0.750000  1
  Mg  Mg27  1  0.035651  0.671597  0.250000  1
  Mg  Mg28  1  0.635946  0.964349  0.250000  1
  Mg  Mg29  1  0.328403  0.364054  0.250000  1
  Mg  Mg30  1  0.162349  0.324697  0.978657  1
  Mg  Mg31  1  0.837651  0.162349  0.478657  1
  Mg  Mg32  1  0.324697  0.162349  0.478657  1
  Mg  Mg33  1  0.675303  0.837651  0.978657  1
  Mg  Mg34  1  0.162349  0.837651  0.978657  1
  Mg  Mg35  1  0.837651  0.675303  0.021343  1
  Mg  Mg36  1  0.837651  0.162349  0.021343  1
  Mg  Mg37  1  0.837651  0.675303  0.478657  1
