# generated using pymatgen
data_ThGa
_symmetry_space_group_name_H-M   'P 1'
_cell_length_a   4.13426469
_cell_length_b   6.07172020
_cell_length_c   16.46233044
_cell_angle_alpha   90.00000000
_cell_angle_beta   90.00000000
_cell_angle_gamma   90.00000000
_symmetry_Int_Tables_number   1
_chemical_formula_structural   ThGa
_chemical_formula_sum   'Th8 Ga8'
_cell_volume   413.23903910
_cell_formula_units_Z   8
loop_
 _symmetry_equiv_pos_site_id
 _symmetry_equiv_pos_as_xyz
  1  'x, y, z'
loop_
 _atom_site_type_symbol
 _atom_site_label
 _atom_site_symmetry_multiplicity
 _atom_site_fract_x
 _atom_site_fract_y
 _atom_site_fract_z
 _atom_site_occupancy
  Th  Th0  1  0.250000  0.487113  0.286196  1
  Th  Th1  1  0.750000  0.512887  0.713804  1
  Th  Th2  1  0.750000  0.987113  0.213804  1
  Th  Th3  1  0.250000  0.012887  0.786196  1
  Th  Th4  1  0.250000  0.750026  0.036428  1
  Th  Th5  1  0.750000  0.249974  0.963572  1
  Th  Th6  1  0.750000  0.250026  0.463572  1
  Th  Th7  1  0.250000  0.749974  0.536428  1
  Ga  Ga8  1  0.250000  0.995482  0.356618  1
  Ga  Ga9  1  0.750000  0.004518  0.643382  1
  Ga  Ga10  1  0.750000  0.495482  0.143382  1
  Ga  Ga11  1  0.250000  0.504518  0.856618  1
  Ga  Ga12  1  0.250000  0.242406  0.106454  1
  Ga  Ga13  1  0.750000  0.757594  0.893546  1
  Ga  Ga14  1  0.750000  0.742406  0.393546  1
  Ga  Ga15  1  0.250000  0.257594  0.606454  1
