# generated using pymatgen
data_Tb3(CuGe)4
_symmetry_space_group_name_H-M   'P 1'
_cell_length_a   8.02813696
_cell_length_b   8.02813696
_cell_length_c   8.02813696
_cell_angle_alpha   149.56451580
_cell_angle_beta   130.88125251
_cell_angle_gamma   58.88927722
_symmetry_Int_Tables_number   1
_chemical_formula_structural   Tb3(CuGe)4
_chemical_formula_sum   'Tb3 Cu4 Ge4'
_cell_volume   196.63499596
_cell_formula_units_Z   1
loop_
 _symmetry_equiv_pos_site_id
 _symmetry_equiv_pos_as_xyz
  1  'x, y, z'
loop_
 _atom_site_type_symbol
 _atom_site_label
 _atom_site_symmetry_multiplicity
 _atom_site_fract_x
 _atom_site_fract_y
 _atom_site_fract_z
 _atom_site_occupancy
  Tb  Tb0  1  0.869525  0.869525  0.000000  1
  Tb  Tb1  1  0.130475  0.130475  0.000000  1
  Tb  Tb2  1  0.500000  0.000000  0.500000  1
  Cu  Cu3  1  0.857455  0.668452  0.189003  1
  Cu  Cu4  1  0.142545  0.331548  0.810997  1
  Cu  Cu5  1  0.479449  0.668452  0.810997  1
  Cu  Cu6  1  0.520551  0.331548  0.189003  1
  Ge  Ge7  1  0.283167  0.783167  0.500000  1
  Ge  Ge8  1  0.808881  0.500000  0.308881  1
  Ge  Ge9  1  0.191119  0.500000  0.691119  1
  Ge  Ge10  1  0.716833  0.216833  0.500000  1
