# generated using pymatgen
data_Ga9Ir2
_symmetry_space_group_name_H-M   'P 1'
_cell_length_a   6.51341891
_cell_length_b   6.45253535
_cell_length_c   8.92349536
_cell_angle_alpha   90.00000000
_cell_angle_beta   93.22366863
_cell_angle_gamma   90.00000000
_symmetry_Int_Tables_number   1
_chemical_formula_structural   Ga9Ir2
_chemical_formula_sum   'Ga18 Ir4'
_cell_volume   374.44379796
_cell_formula_units_Z   2
loop_
 _symmetry_equiv_pos_site_id
 _symmetry_equiv_pos_as_xyz
  1  'x, y, z'
loop_
 _atom_site_type_symbol
 _atom_site_label
 _atom_site_symmetry_multiplicity
 _atom_site_fract_x
 _atom_site_fract_y
 _atom_site_fract_z
 _atom_site_occupancy
  Ga  Ga0  1  0.030428  0.740632  0.528072  1
  Ga  Ga1  1  0.030428  0.259368  0.028072  1
  Ga  Ga2  1  0.214839  0.659343  0.037995  1
  Ga  Ga3  1  0.214839  0.340657  0.537995  1
  Ga  Ga4  1  0.599656  0.760536  0.227029  1
  Ga  Ga5  1  0.599656  0.239464  0.727029  1
  Ga  Ga6  1  0.397503  0.738309  0.765736  1
  Ga  Ga7  1  0.397503  0.261691  0.265736  1
  Ga  Ga8  1  0.612148  0.553638  0.499966  1
  Ga  Ga9  1  0.612148  0.446362  0.999966  1
  Ga  Ga10  1  0.400355  0.948666  0.492246  1
  Ga  Ga11  1  0.400355  0.051334  0.992246  1
  Ga  Ga12  1  0.892020  0.474984  0.280771  1
  Ga  Ga13  1  0.892020  0.525016  0.780771  1
  Ga  Ga14  1  0.092798  0.042799  0.732235  1
  Ga  Ga15  1  0.092798  0.957201  0.232235  1
  Ga  Ga16  1  0.800618  0.139285  0.455967  1
  Ga  Ga17  1  0.800618  0.860715  0.955967  1
  Ir  Ir18  1  0.259218  0.621999  0.331191  1
  Ir  Ir19  1  0.259218  0.378001  0.831191  1
  Ir  Ir20  1  0.737569  0.876230  0.667162  1
  Ir  Ir21  1  0.737569  0.123770  0.167162  1
