# generated using pymatgen
data_Nb10C7
_symmetry_space_group_name_H-M   'P 1'
_cell_length_a   8.34786844
_cell_length_b   8.34786844
_cell_length_c   5.51650617
_cell_angle_alpha   83.60980194
_cell_angle_beta   96.39019806
_cell_angle_gamma   38.48976361
_symmetry_Int_Tables_number   1
_chemical_formula_structural   Nb10C7
_chemical_formula_sum   'Nb10 C7'
_cell_volume   225.20531232
_cell_formula_units_Z   1
loop_
 _symmetry_equiv_pos_site_id
 _symmetry_equiv_pos_as_xyz
  1  'x, y, z'
loop_
 _atom_site_type_symbol
 _atom_site_label
 _atom_site_symmetry_multiplicity
 _atom_site_fract_x
 _atom_site_fract_y
 _atom_site_fract_z
 _atom_site_occupancy
  Nb  Nb0  1  0.452288  0.939167  0.231544  1
  Nb  Nb1  1  0.060833  0.547712  0.231544  1
  Nb  Nb2  1  0.939167  0.452288  0.768456  1
  Nb  Nb3  1  0.648441  0.147183  0.258603  1
  Nb  Nb4  1  0.547712  0.060833  0.768456  1
  Nb  Nb5  1  0.236221  0.763779  0.263979  1
  Nb  Nb6  1  0.147183  0.648441  0.741397  1
  Nb  Nb7  1  0.852817  0.351559  0.258603  1
  Nb  Nb8  1  0.763779  0.236221  0.736021  1
  Nb  Nb9  1  0.351559  0.852817  0.741397  1
  C  C10  1  0.699646  0.699646  0.000000  1
  C  C11  1  0.300354  0.300354  0.000000  1
  C  C12  1  0.898899  0.898899  0.000000  1
  C  C13  1  0.399278  0.399278  0.500000  1
  C  C14  1  0.101101  0.101101  0.000000  1
  C  C15  1  0.000000  1.000000  0.500000  1
  C  C16  1  0.600722  0.600722  0.500000  1
