# generated using pymatgen
data_Sn2Mo
_symmetry_space_group_name_H-M   'P 1'
_cell_length_a   5.54385446
_cell_length_b   5.54385446
_cell_length_c   14.34192853
_cell_angle_alpha   90.00000000
_cell_angle_beta   90.00000000
_cell_angle_gamma   120.00000000
_symmetry_Int_Tables_number   1
_chemical_formula_structural   Sn2Mo
_chemical_formula_sum   'Sn12 Mo6'
_cell_volume   381.73486459
_cell_formula_units_Z   6
loop_
 _symmetry_equiv_pos_site_id
 _symmetry_equiv_pos_as_xyz
  1  'x, y, z'
loop_
 _atom_site_type_symbol
 _atom_site_label
 _atom_site_symmetry_multiplicity
 _atom_site_fract_x
 _atom_site_fract_y
 _atom_site_fract_z
 _atom_site_occupancy
  Sn  Sn0  1  0.500000  0.000000  0.396792  1
  Sn  Sn1  1  0.500000  0.500000  0.730125  1
  Sn  Sn2  1  0.000000  0.500000  0.063458  1
  Sn  Sn3  1  0.500000  0.000000  0.603208  1
  Sn  Sn4  1  0.500000  0.500000  0.936542  1
  Sn  Sn5  1  0.000000  0.500000  0.269875  1
  Sn  Sn6  1  0.167713  0.335427  0.500000  1
  Sn  Sn7  1  0.832287  0.167713  0.833333  1
  Sn  Sn8  1  0.335427  0.167713  0.166667  1
  Sn  Sn9  1  0.664573  0.832287  0.166667  1
  Sn  Sn10  1  0.167713  0.832287  0.833333  1
  Sn  Sn11  1  0.832287  0.664573  0.500000  1
  Mo  Mo12  1  0.000000  0.000000  0.000000  1
  Mo  Mo13  1  0.000000  0.000000  0.333333  1
  Mo  Mo14  1  0.000000  0.000000  0.666667  1
  Mo  Mo15  1  0.500000  0.000000  0.000000  1
  Mo  Mo16  1  0.500000  0.500000  0.333333  1
  Mo  Mo17  1  0.000000  0.500000  0.666667  1
