# generated using pymatgen
data_Cs2TaS6
_symmetry_space_group_name_H-M   'P 1'
_cell_length_a   8.03994834
_cell_length_b   8.03994834
_cell_length_c   4.82740909
_cell_angle_alpha   90.00000000
_cell_angle_beta   90.00000000
_cell_angle_gamma   120.00000000
_symmetry_Int_Tables_number   1
_chemical_formula_structural   Cs2TaS6
_chemical_formula_sum   'Cs2 Ta1 S6'
_cell_volume   270.24100815
_cell_formula_units_Z   1
loop_
 _symmetry_equiv_pos_site_id
 _symmetry_equiv_pos_as_xyz
  1  'x, y, z'
loop_
 _atom_site_type_symbol
 _atom_site_label
 _atom_site_symmetry_multiplicity
 _atom_site_fract_x
 _atom_site_fract_y
 _atom_site_fract_z
 _atom_site_occupancy
  Cs  Cs0  1  0.333333  0.666667  0.724637  1
  Cs  Cs1  1  0.666667  0.333333  0.275363  1
  Ta  Ta2  1  0.000000  0.000000  0.500000  1
  S  S3  1  0.139519  0.860481  0.203602  1
  S  S4  1  0.139519  0.279039  0.203602  1
  S  S5  1  0.279039  0.139519  0.796398  1
  S  S6  1  0.720961  0.860481  0.203602  1
  S  S7  1  0.860481  0.720961  0.796398  1
  S  S8  1  0.860481  0.139519  0.796398  1
