# generated using pymatgen
data_SrLaI4
_symmetry_space_group_name_H-M   'P 1'
_cell_length_a   9.14081558
_cell_length_b   9.14081558
_cell_length_c   7.56849240
_cell_angle_alpha   71.06135048
_cell_angle_beta   108.93864952
_cell_angle_gamma   69.05537153
_symmetry_Int_Tables_number   1
_chemical_formula_structural   SrLaI4
_chemical_formula_sum   'Sr2 La2 I8'
_cell_volume   484.19032068
_cell_formula_units_Z   2
loop_
 _symmetry_equiv_pos_site_id
 _symmetry_equiv_pos_as_xyz
  1  'x, y, z'
loop_
 _atom_site_type_symbol
 _atom_site_label
 _atom_site_symmetry_multiplicity
 _atom_site_fract_x
 _atom_site_fract_y
 _atom_site_fract_z
 _atom_site_occupancy
  Sr  Sr0  1  0.634841  0.634841  0.250000  1
  Sr  Sr1  1  0.365159  0.365159  0.750000  1
  La  La2  1  0.999646  0.999646  0.750000  1
  La  La3  1  0.000354  0.000354  0.250000  1
  I  I4  1  0.700252  0.946265  0.912271  1
  I  I5  1  0.946265  0.700252  0.587729  1
  I  I6  1  0.299748  0.053735  0.087729  1
  I  I7  1  0.053735  0.299748  0.412271  1
  I  I8  1  0.757242  0.365739  0.762559  1
  I  I9  1  0.365739  0.757242  0.737441  1
  I  I10  1  0.242758  0.634261  0.237441  1
  I  I11  1  0.634261  0.242758  0.262559  1
