# generated using pymatgen
data_Pr2SmS4
_symmetry_space_group_name_H-M   'P 1'
_cell_length_a   7.43968721
_cell_length_b   7.43968721
_cell_length_c   7.43968721
_cell_angle_alpha   109.58923506
_cell_angle_beta   109.58923506
_cell_angle_gamma   109.23544873
_symmetry_Int_Tables_number   1
_chemical_formula_structural   Pr2SmS4
_chemical_formula_sum   'Pr4 Sm2 S8'
_cell_volume   316.98347826
_cell_formula_units_Z   2
loop_
 _symmetry_equiv_pos_site_id
 _symmetry_equiv_pos_as_xyz
  1  'x, y, z'
loop_
 _atom_site_type_symbol
 _atom_site_label
 _atom_site_symmetry_multiplicity
 _atom_site_fract_x
 _atom_site_fract_y
 _atom_site_fract_z
 _atom_site_occupancy
  Pr  Pr0  1  0.499225  0.125000  0.874225  1
  Pr  Pr1  1  0.250775  0.625000  0.125775  1
  Pr  Pr2  1  0.375000  0.500775  0.625775  1
  Pr  Pr3  1  0.875000  0.749225  0.374225  1
  Sm  Sm4  1  0.000000  0.000000  0.000000  1
  Sm  Sm5  1  0.750000  0.250000  0.500000  1
  S  S6  1  0.627878  0.879223  0.103047  1
  S  S7  1  0.274831  0.026176  0.396953  1
  S  S8  1  0.120777  0.223824  0.748655  1
  S  S9  1  0.776176  0.524831  0.896953  1
  S  S10  1  0.973824  0.370777  0.248655  1
  S  S11  1  0.475169  0.372122  0.251345  1
  S  S12  1  0.122122  0.725169  0.751345  1
  S  S13  1  0.629223  0.877878  0.603047  1
