# generated using pymatgen
data_Pr4Se3O4
_symmetry_space_group_name_H-M   'P 1'
_cell_length_a   6.88949395
_cell_length_b   6.88949395
_cell_length_c   8.54234117
_cell_angle_alpha   90.00000000
_cell_angle_beta   90.00000000
_cell_angle_gamma   145.61710866
_symmetry_Int_Tables_number   1
_chemical_formula_structural   Pr4Se3O4
_chemical_formula_sum   'Pr4 Se3 O4'
_cell_volume   228.97348116
_cell_formula_units_Z   1
loop_
 _symmetry_equiv_pos_site_id
 _symmetry_equiv_pos_as_xyz
  1  'x, y, z'
loop_
 _atom_site_type_symbol
 _atom_site_label
 _atom_site_symmetry_multiplicity
 _atom_site_fract_x
 _atom_site_fract_y
 _atom_site_fract_z
 _atom_site_occupancy
  Pr  Pr0  1  0.316013  0.683987  0.761988  1
  Pr  Pr1  1  0.316013  0.683987  0.238012  1
  Pr  Pr2  1  0.983612  0.016388  0.500000  1
  Pr  Pr3  1  0.998052  0.001948  0.000000  1
  Se  Se4  1  0.644006  0.355994  0.351156  1
  Se  Se5  1  0.685053  0.314947  0.000000  1
  Se  Se6  1  0.644006  0.355994  0.648844  1
  O  O7  1  0.911175  0.088825  0.755681  1
  O  O8  1  0.410578  0.589422  0.000000  1
  O  O9  1  0.911175  0.088825  0.244319  1
  O  O10  1  0.385639  0.614361  0.500000  1
