# generated using pymatgen
data_ErSiPd2
_symmetry_space_group_name_H-M   'P 1'
_cell_length_a   5.50895304
_cell_length_b   7.00250198
_cell_length_c   7.28484595
_cell_angle_alpha   90.00000000
_cell_angle_beta   90.00000000
_cell_angle_gamma   90.00000000
_symmetry_Int_Tables_number   1
_chemical_formula_structural   ErSiPd2
_chemical_formula_sum   'Er4 Si4 Pd8'
_cell_volume   281.02352884
_cell_formula_units_Z   4
loop_
 _symmetry_equiv_pos_site_id
 _symmetry_equiv_pos_as_xyz
  1  'x, y, z'
loop_
 _atom_site_type_symbol
 _atom_site_label
 _atom_site_symmetry_multiplicity
 _atom_site_fract_x
 _atom_site_fract_y
 _atom_site_fract_z
 _atom_site_occupancy
  Er  Er0  1  0.140042  0.750000  0.527219  1
  Er  Er1  1  0.640042  0.250000  0.972781  1
  Er  Er2  1  0.859958  0.250000  0.472781  1
  Er  Er3  1  0.359958  0.750000  0.027219  1
  Si  Si4  1  0.860216  0.750000  0.878955  1
  Si  Si5  1  0.360216  0.250000  0.621045  1
  Si  Si6  1  0.139784  0.250000  0.121045  1
  Si  Si7  1  0.639784  0.750000  0.378955  1
  Pd  Pd8  1  0.905687  0.948465  0.179178  1
  Pd  Pd9  1  0.405687  0.051535  0.320822  1
  Pd  Pd10  1  0.094313  0.448465  0.820822  1
  Pd  Pd11  1  0.594313  0.551535  0.679178  1
  Pd  Pd12  1  0.094313  0.051535  0.820822  1
  Pd  Pd13  1  0.594313  0.948465  0.679178  1
  Pd  Pd14  1  0.905687  0.551535  0.179178  1
  Pd  Pd15  1  0.405687  0.448465  0.320822  1
