# generated using pymatgen
data_CaZnSn
_symmetry_space_group_name_H-M   'P 1'
_cell_length_a   4.70569656
_cell_length_b   4.70569656
_cell_length_c   7.56569009
_cell_angle_alpha   90.00000000
_cell_angle_beta   90.00000000
_cell_angle_gamma   120.00000000
_symmetry_Int_Tables_number   1
_chemical_formula_structural   CaZnSn
_chemical_formula_sum   'Ca2 Zn2 Sn2'
_cell_volume   145.08650460
_cell_formula_units_Z   2
loop_
 _symmetry_equiv_pos_site_id
 _symmetry_equiv_pos_as_xyz
  1  'x, y, z'
loop_
 _atom_site_type_symbol
 _atom_site_label
 _atom_site_symmetry_multiplicity
 _atom_site_fract_x
 _atom_site_fract_y
 _atom_site_fract_z
 _atom_site_occupancy
  Ca  Ca0  1  0.000000  0.000000  0.246255  1
  Ca  Ca1  1  0.000000  0.000000  0.746255  1
  Zn  Zn2  1  0.333333  0.666667  0.055031  1
  Zn  Zn3  1  0.666667  0.333333  0.555031  1
  Sn  Sn4  1  0.333333  0.666667  0.464514  1
  Sn  Sn5  1  0.666667  0.333333  0.964514  1
