# generated using pymatgen
data_TlSb5S8
_symmetry_space_group_name_H-M   'P 1'
_cell_length_a   8.56401512
_cell_length_b   19.67596553
_cell_length_c   12.53067121
_cell_angle_alpha   90.00000000
_cell_angle_beta   132.85983970
_cell_angle_gamma   90.00000000
_symmetry_Int_Tables_number   1
_chemical_formula_structural   TlSb5S8
_chemical_formula_sum   'Tl4 Sb20 S32'
_cell_volume   1547.75976390
_cell_formula_units_Z   4
loop_
 _symmetry_equiv_pos_site_id
 _symmetry_equiv_pos_as_xyz
  1  'x, y, z'
loop_
 _atom_site_type_symbol
 _atom_site_label
 _atom_site_symmetry_multiplicity
 _atom_site_fract_x
 _atom_site_fract_y
 _atom_site_fract_z
 _atom_site_occupancy
  Tl  Tl0  1  0.009299  0.450810  0.001609  1
  Tl  Tl1  1  0.009299  0.549190  0.501609  1
  Tl  Tl2  1  0.081463  0.052143  0.273054  1
  Tl  Tl3  1  0.081463  0.947857  0.773054  1
  Sb  Sb4  1  0.215113  0.286165  0.455954  1
  Sb  Sb5  1  0.215113  0.713835  0.955954  1
  Sb  Sb6  1  0.582253  0.458068  0.552980  1
  Sb  Sb7  1  0.582253  0.541932  0.052980  1
  Sb  Sb8  1  0.387805  0.215202  0.264936  1
  Sb  Sb9  1  0.387805  0.784798  0.764936  1
  Sb  Sb10  1  0.812908  0.264499  0.015591  1
  Sb  Sb11  1  0.812908  0.735501  0.515591  1
  Sb  Sb12  1  0.643010  0.369045  0.209046  1
  Sb  Sb13  1  0.643010  0.630955  0.709046  1
  Sb  Sb14  1  0.013985  0.129334  0.536784  1
  Sb  Sb15  1  0.013985  0.870666  0.036784  1
  Sb  Sb16  1  0.579969  0.043771  0.808269  1
  Sb  Sb17  1  0.579969  0.956229  0.308269  1
  Sb  Sb18  1  0.404832  0.154022  0.970874  1
  Sb  Sb19  1  0.404832  0.845978  0.470874  1
  Sb  Sb20  1  0.803470  0.229426  0.707965  1
  Sb  Sb21  1  0.803470  0.770574  0.207965  1
  Sb  Sb22  1  0.157838  0.350313  0.734673  1
  Sb  Sb23  1  0.157838  0.649687  0.234673  1
  S  S24  1  0.827254  0.277513  0.536183  1
  S  S25  1  0.827254  0.722487  0.036183  1
  S  S26  1  0.781728  0.229048  0.187571  1
  S  S27  1  0.781728  0.770952  0.687571  1
  S  S28  1  0.446089  0.197688  0.805298  1
  S  S29  1  0.446089  0.802312  0.305298  1
  S  S30  1  0.606943  0.404401  0.004829  1
  S  S31  1  0.606943  0.595599  0.504829  1
  S  S32  1  0.547747  0.492476  0.218320  1
  S  S33  1  0.547747  0.507524  0.718320  1
  S  S34  1  0.198735  0.017038  0.587314  1
  S  S35  1  0.198735  0.982962  0.087314  1
  S  S36  1  0.650479  0.083591  0.316673  1
  S  S37  1  0.650479  0.916409  0.816673  1
  S  S38  1  0.562554  0.037028  0.995741  1
  S  S39  1  0.562554  0.962972  0.495741  1
  S  S40  1  0.171247  0.292224  0.916401  1
  S  S41  1  0.171247  0.707776  0.416401  1
  S  S42  1  0.007487  0.111825  0.729685  1
  S  S43  1  0.007487  0.888175  0.229685  1
  S  S44  1  0.429116  0.167836  0.463356  1
  S  S45  1  0.429116  0.832164  0.963356  1
  S  S46  1  0.573280  0.340754  0.666071  1
  S  S47  1  0.573280  0.659246  0.166071  1
  S  S48  1  0.980944  0.459590  0.714467  1
  S  S49  1  0.980944  0.540410  0.214467  1
  S  S50  1  0.215519  0.323424  0.263012  1
  S  S51  1  0.215519  0.676576  0.763012  1
  S  S52  1  0.026280  0.397689  0.418831  1
  S  S53  1  0.026280  0.602311  0.918831  1
  S  S54  1  0.029752  0.162937  0.052213  1
  S  S55  1  0.029752  0.837063  0.552213  1
