# generated using pymatgen
data_Mn6Al31Ni2
_symmetry_space_group_name_H-M   'P 1'
_cell_length_a   12.53474068
_cell_length_b   12.53474068
_cell_length_c   12.38853914
_cell_angle_alpha   90.00000000
_cell_angle_beta   90.00000000
_cell_angle_gamma   143.92274828
_symmetry_Int_Tables_number   1
_chemical_formula_structural   Mn6Al31Ni2
_chemical_formula_sum   'Mn12 Al62 Ni4'
_cell_volume   1146.23667549
_cell_formula_units_Z   2
loop_
 _symmetry_equiv_pos_site_id
 _symmetry_equiv_pos_as_xyz
  1  'x, y, z'
loop_
 _atom_site_type_symbol
 _atom_site_label
 _atom_site_symmetry_multiplicity
 _atom_site_fract_x
 _atom_site_fract_y
 _atom_site_fract_z
 _atom_site_occupancy
  Mn  Mn0  1  0.459118  0.540882  0.750000  1
  Mn  Mn1  1  0.540882  0.459118  0.250000  1
  Mn  Mn2  1  0.081881  0.918119  0.750000  1
  Mn  Mn3  1  0.918119  0.081881  0.250000  1
  Mn  Mn4  1  0.641616  0.358384  0.947659  1
  Mn  Mn5  1  0.358384  0.641616  0.052341  1
  Mn  Mn6  1  0.358384  0.641616  0.447659  1
  Mn  Mn7  1  0.641616  0.358384  0.552341  1
  Mn  Mn8  1  0.912376  0.087624  0.921857  1
  Mn  Mn9  1  0.087624  0.912376  0.078143  1
  Mn  Mn10  1  0.087624  0.912376  0.421857  1
  Mn  Mn11  1  0.912376  0.087624  0.578143  1
  Al  Al12  1  0.188344  0.811656  0.750000  1
  Al  Al13  1  0.811656  0.188344  0.250000  1
  Al  Al14  1  0.803131  0.196869  0.750000  1
  Al  Al15  1  0.196869  0.803131  0.250000  1
  Al  Al16  1  0.635597  0.364403  0.750000  1
  Al  Al17  1  0.364403  0.635597  0.250000  1
  Al  Al18  1  0.637660  0.362340  0.149958  1
  Al  Al19  1  0.362340  0.637660  0.850042  1
  Al  Al20  1  0.362340  0.637660  0.649958  1
  Al  Al21  1  0.637660  0.362340  0.350042  1
  Al  Al22  1  0.740584  0.259416  0.061627  1
  Al  Al23  1  0.259416  0.740584  0.938373  1
  Al  Al24  1  0.259416  0.740584  0.561627  1
  Al  Al25  1  0.740584  0.259416  0.438373  1
  Al  Al26  1  0.539887  0.460113  0.886581  1
  Al  Al27  1  0.460113  0.539887  0.113419  1
  Al  Al28  1  0.460113  0.539887  0.386581  1
  Al  Al29  1  0.539887  0.460113  0.613419  1
  Al  Al30  1  0.981900  0.018100  0.092249  1
  Al  Al31  1  0.018100  0.981900  0.907751  1
  Al  Al32  1  0.018100  0.981900  0.592249  1
  Al  Al33  1  0.981900  0.018100  0.407751  1
  Al  Al34  1  0.249214  0.219155  0.750000  1
  Al  Al35  1  0.219155  0.249214  0.250000  1
  Al  Al36  1  0.750786  0.780845  0.250000  1
  Al  Al37  1  0.780845  0.750786  0.750000  1
  Al  Al38  1  0.088914  0.288377  0.750000  1
  Al  Al39  1  0.288377  0.088914  0.250000  1
  Al  Al40  1  0.911086  0.711623  0.250000  1
  Al  Al41  1  0.711623  0.911086  0.750000  1
  Al  Al42  1  0.744080  0.636655  0.068300  1
  Al  Al43  1  0.636655  0.744080  0.931700  1
  Al  Al44  1  0.255920  0.363345  0.568300  1
  Al  Al45  1  0.363345  0.255920  0.431700  1
  Al  Al46  1  0.255920  0.363345  0.931700  1
  Al  Al47  1  0.363345  0.255920  0.068300  1
  Al  Al48  1  0.744080  0.636655  0.431700  1
  Al  Al49  1  0.636655  0.744080  0.568300  1
  Al  Al50  1  0.021799  0.364985  0.932817  1
  Al  Al51  1  0.364985  0.021799  0.067183  1
  Al  Al52  1  0.978201  0.635015  0.432817  1
  Al  Al53  1  0.635015  0.978201  0.567183  1
  Al  Al54  1  0.978201  0.635015  0.067183  1
  Al  Al55  1  0.635015  0.978201  0.932817  1
  Al  Al56  1  0.021799  0.364985  0.567183  1
  Al  Al57  1  0.364985  0.021799  0.432817  1
  Al  Al58  1  0.901960  0.465492  0.874400  1
  Al  Al59  1  0.465492  0.901960  0.125600  1
  Al  Al60  1  0.098040  0.534508  0.374400  1
  Al  Al61  1  0.534508  0.098040  0.625600  1
  Al  Al62  1  0.098040  0.534508  0.125600  1
  Al  Al63  1  0.534508  0.098040  0.874400  1
  Al  Al64  1  0.901960  0.465492  0.625600  1
  Al  Al65  1  0.465492  0.901960  0.374400  1
  Al  Al66  1  0.079731  0.301697  0.106567  1
  Al  Al67  1  0.301697  0.079731  0.893433  1
  Al  Al68  1  0.920269  0.698303  0.606567  1
  Al  Al69  1  0.698303  0.920269  0.393433  1
  Al  Al70  1  0.920269  0.698303  0.893433  1
  Al  Al71  1  0.698303  0.920269  0.106567  1
  Al  Al72  1  0.079731  0.301697  0.393433  1
  Al  Al73  1  0.301697  0.079731  0.606567  1
  Ni  Ni74  1  0.469060  0.898345  0.750000  1
  Ni  Ni75  1  0.898345  0.469060  0.250000  1
  Ni  Ni76  1  0.530940  0.101655  0.250000  1
  Ni  Ni77  1  0.101655  0.530940  0.750000  1
