# generated using pymatgen
data_Zn2SiO4
_symmetry_space_group_name_H-M   'P 1'
_cell_length_a   8.75260173
_cell_length_b   8.75260173
_cell_length_c   8.75260173
_cell_angle_alpha   107.87354430
_cell_angle_beta   107.87354430
_cell_angle_gamma   107.87354430
_symmetry_Int_Tables_number   1
_chemical_formula_structural   Zn2SiO4
_chemical_formula_sum   'Zn12 Si6 O24'
_cell_volume   544.56079260
_cell_formula_units_Z   6
loop_
 _symmetry_equiv_pos_site_id
 _symmetry_equiv_pos_as_xyz
  1  'x, y, z'
loop_
 _atom_site_type_symbol
 _atom_site_label
 _atom_site_symmetry_multiplicity
 _atom_site_fract_x
 _atom_site_fract_y
 _atom_site_fract_z
 _atom_site_occupancy
  Zn  Zn0  1  0.204660  0.610184  0.439912  1
  Zn  Zn1  1  0.439912  0.204660  0.610184  1
  Zn  Zn2  1  0.610184  0.439912  0.204660  1
  Zn  Zn3  1  0.795340  0.389816  0.560088  1
  Zn  Zn4  1  0.560088  0.795340  0.389816  1
  Zn  Zn5  1  0.389816  0.560088  0.795340  1
  Zn  Zn6  1  0.722088  0.900868  0.124891  1
  Zn  Zn7  1  0.900868  0.124891  0.722088  1
  Zn  Zn8  1  0.124891  0.722088  0.900868  1
  Zn  Zn9  1  0.277912  0.099132  0.875109  1
  Zn  Zn10  1  0.099132  0.875109  0.277912  1
  Zn  Zn11  1  0.875109  0.277912  0.099132  1
  Si  Si12  1  0.053452  0.235203  0.459770  1
  Si  Si13  1  0.235203  0.459770  0.053452  1
  Si  Si14  1  0.459770  0.053452  0.235203  1
  Si  Si15  1  0.946548  0.764797  0.540230  1
  Si  Si16  1  0.764797  0.540230  0.946548  1
  Si  Si17  1  0.540230  0.946548  0.764797  1
  O  O18  1  0.033953  0.360170  0.353235  1
  O  O19  1  0.353235  0.033953  0.360170  1
  O  O20  1  0.360170  0.353235  0.033953  1
  O  O21  1  0.966047  0.639830  0.646765  1
  O  O22  1  0.646765  0.966047  0.639830  1
  O  O23  1  0.639830  0.646765  0.966047  1
  O  O24  1  0.401048  0.733557  0.687692  1
  O  O25  1  0.687692  0.401048  0.733557  1
  O  O26  1  0.733557  0.687692  0.401048  1
  O  O27  1  0.598952  0.266443  0.312308  1
  O  O28  1  0.312308  0.598952  0.266443  1
  O  O29  1  0.266443  0.312308  0.598952  1
  O  O30  1  0.690765  0.026011  0.972127  1
  O  O31  1  0.972127  0.690765  0.026011  1
  O  O32  1  0.026011  0.972127  0.690765  1
  O  O33  1  0.309235  0.973989  0.027873  1
  O  O34  1  0.027873  0.309235  0.973989  1
  O  O35  1  0.973989  0.027873  0.309235  1
  O  O36  1  0.933630  0.248897  0.572274  1
  O  O37  1  0.248897  0.572274  0.933630  1
  O  O38  1  0.572274  0.933630  0.248897  1
  O  O39  1  0.066370  0.751103  0.427726  1
  O  O40  1  0.751103  0.427726  0.066370  1
  O  O41  1  0.427726  0.066370  0.751103  1
