# generated using pymatgen
data_KHS
_symmetry_space_group_name_H-M   'P 1'
_cell_length_a   4.35671185
_cell_length_b   4.35671185
_cell_length_c   4.35671185
_cell_angle_alpha   70.41702260
_cell_angle_beta   70.41702260
_cell_angle_gamma   70.41702260
_symmetry_Int_Tables_number   1
_chemical_formula_structural   KHS
_chemical_formula_sum   'K1 H1 S1'
_cell_volume   71.05406085
_cell_formula_units_Z   1
loop_
 _symmetry_equiv_pos_site_id
 _symmetry_equiv_pos_as_xyz
  1  'x, y, z'
loop_
 _atom_site_type_symbol
 _atom_site_label
 _atom_site_symmetry_multiplicity
 _atom_site_fract_x
 _atom_site_fract_y
 _atom_site_fract_z
 _atom_site_occupancy
  K  K0  1  0.998932  0.998932  0.998932  1
  H  H1  1  0.355705  0.355705  0.355705  1
  S  S2  1  0.494363  0.494363  0.494363  1
