# generated using pymatgen
data_Tb5C2Br9
_symmetry_space_group_name_H-M   'P 1'
_cell_length_a   10.23896186
_cell_length_b   16.67085572
_cell_length_c   13.58268329
_cell_angle_alpha   90.00000000
_cell_angle_beta   121.70117633
_cell_angle_gamma   90.00000000
_symmetry_Int_Tables_number   1
_chemical_formula_structural   Tb5C2Br9
_chemical_formula_sum   'Tb20 C8 Br36'
_cell_volume   1972.54553583
_cell_formula_units_Z   4
loop_
 _symmetry_equiv_pos_site_id
 _symmetry_equiv_pos_as_xyz
  1  'x, y, z'
loop_
 _atom_site_type_symbol
 _atom_site_label
 _atom_site_symmetry_multiplicity
 _atom_site_fract_x
 _atom_site_fract_y
 _atom_site_fract_z
 _atom_site_occupancy
  Tb  Tb0  1  0.713624  0.814368  0.555974  1
  Tb  Tb1  1  0.286376  0.314368  0.944026  1
  Tb  Tb2  1  0.286376  0.185632  0.444026  1
  Tb  Tb3  1  0.713624  0.685632  0.055974  1
  Tb  Tb4  1  0.508656  0.055048  0.762850  1
  Tb  Tb5  1  0.491344  0.555048  0.737150  1
  Tb  Tb6  1  0.491344  0.944952  0.237150  1
  Tb  Tb7  1  0.508656  0.444952  0.262850  1
  Tb  Tb8  1  0.512883  0.837723  0.721350  1
  Tb  Tb9  1  0.487117  0.337723  0.778650  1
  Tb  Tb10  1  0.487117  0.162277  0.278650  1
  Tb  Tb11  1  0.512883  0.662277  0.221350  1
  Tb  Tb12  1  0.858343  0.941798  0.812852  1
  Tb  Tb13  1  0.141657  0.441798  0.687148  1
  Tb  Tb14  1  0.141657  0.058202  0.187148  1
  Tb  Tb15  1  0.858343  0.558202  0.312852  1
  Tb  Tb16  1  0.660891  0.039900  0.534491  1
  Tb  Tb17  1  0.339109  0.539900  0.965509  1
  Tb  Tb18  1  0.339109  0.960100  0.465509  1
  Tb  Tb19  1  0.660891  0.460100  0.034491  1
  C  C20  1  0.573526  0.969028  0.669443  1
  C  C21  1  0.426474  0.469028  0.830557  1
  C  C22  1  0.426474  0.030972  0.330557  1
  C  C23  1  0.573526  0.530972  0.169443  1
  C  C24  1  0.628448  0.912014  0.620479  1
  C  C25  1  0.371552  0.412014  0.879521  1
  C  C26  1  0.371552  0.087986  0.379521  1
  C  C27  1  0.628448  0.587986  0.120479  1
  Br  Br28  1  0.963452  0.062888  0.735432  1
  Br  Br29  1  0.036548  0.562888  0.764568  1
  Br  Br30  1  0.036548  0.937112  0.264568  1
  Br  Br31  1  0.963452  0.437112  0.235432  1
  Br  Br32  1  0.203511  0.068108  0.558359  1
  Br  Br33  1  0.796489  0.568108  0.941641  1
  Br  Br34  1  0.796489  0.931892  0.441641  1
  Br  Br35  1  0.203511  0.431892  0.058359  1
  Br  Br36  1  0.578787  0.198637  0.670175  1
  Br  Br37  1  0.421213  0.698637  0.829825  1
  Br  Br38  1  0.421213  0.801363  0.329825  1
  Br  Br39  1  0.578787  0.301363  0.170175  1
  Br  Br40  1  0.802462  0.817534  0.937556  1
  Br  Br41  1  0.197538  0.317534  0.562444  1
  Br  Br42  1  0.197538  0.182466  0.062444  1
  Br  Br43  1  0.802462  0.682466  0.437556  1
  Br  Br44  1  0.598229  0.693584  0.641726  1
  Br  Br45  1  0.401771  0.193584  0.858274  1
  Br  Br46  1  0.401771  0.306416  0.358274  1
  Br  Br47  1  0.598229  0.806416  0.141726  1
  Br  Br48  1  0.003966  0.821283  0.752765  1
  Br  Br49  1  0.996034  0.321283  0.747235  1
  Br  Br50  1  0.996034  0.178717  0.247235  1
  Br  Br51  1  0.003966  0.678717  0.252765  1
  Br  Br52  1  0.411171  0.931811  0.845488  1
  Br  Br53  1  0.588829  0.431811  0.654512  1
  Br  Br54  1  0.588829  0.068189  0.154512  1
  Br  Br55  1  0.411171  0.568189  0.345488  1
  Br  Br56  1  0.818684  0.057416  0.958645  1
  Br  Br57  1  0.181316  0.557416  0.541355  1
  Br  Br58  1  0.181316  0.942584  0.041355  1
  Br  Br59  1  0.818684  0.442584  0.458645  1
  Br  Br60  1  0.220257  0.827552  0.531963  1
  Br  Br61  1  0.779743  0.327552  0.968037  1
  Br  Br62  1  0.779743  0.172448  0.468037  1
  Br  Br63  1  0.220257  0.672448  0.031963  1
