# generated using pymatgen
data_Ag7NO11
_symmetry_space_group_name_H-M   'P 1'
_cell_length_a   7.21653309
_cell_length_b   7.08496803
_cell_length_c   7.05652644
_cell_angle_alpha   61.36844912
_cell_angle_beta   59.50997284
_cell_angle_gamma   59.12157804
_symmetry_Int_Tables_number   1
_chemical_formula_structural   Ag7NO11
_chemical_formula_sum   'Ag7 N1 O11'
_cell_volume   254.89181513
_cell_formula_units_Z   1
loop_
 _symmetry_equiv_pos_site_id
 _symmetry_equiv_pos_as_xyz
  1  'x, y, z'
loop_
 _atom_site_type_symbol
 _atom_site_label
 _atom_site_symmetry_multiplicity
 _atom_site_fract_x
 _atom_site_fract_y
 _atom_site_fract_z
 _atom_site_occupancy
  Ag  Ag0  1  0.996938  0.502104  0.003062  1
  Ag  Ag1  1  0.998292  0.489396  0.510604  1
  Ag  Ag2  1  0.489396  0.998292  0.001708  1
  Ag  Ag3  1  0.502104  0.996938  0.497896  1
  Ag  Ag4  1  0.998044  0.998044  0.501956  1
  Ag  Ag5  1  0.497817  0.497817  0.502183  1
  Ag  Ag6  1  0.498044  0.498044  0.001956  1
  N  N7  1  0.010244  0.010244  0.989756  1
  O  O8  1  0.058060  0.841390  0.158610  1
  O  O9  1  0.356062  0.914997  0.367480  1
  O  O10  1  0.638540  0.632520  0.085003  1
  O  O11  1  0.632520  0.638540  0.643938  1
  O  O12  1  0.080827  0.640772  0.644779  1
  O  O13  1  0.914997  0.356062  0.361460  1
  O  O14  1  0.366378  0.355221  0.359228  1
  O  O15  1  0.355221  0.366378  0.919173  1
  O  O16  1  0.640772  0.080827  0.633622  1
  O  O17  1  0.134354  0.134354  0.865646  1
  O  O18  1  0.841390  0.058060  0.941940  1
