# generated using pymatgen
data_TbGe2Pd
_symmetry_space_group_name_H-M   'P 1'
_cell_length_a   9.61454024
_cell_length_b   9.61454024
_cell_length_c   9.61454024
_cell_angle_alpha   153.90509635
_cell_angle_beta   125.39746732
_cell_angle_gamma   61.49001900
_symmetry_Int_Tables_number   1
_chemical_formula_structural   TbGe2Pd
_chemical_formula_sum   'Tb4 Ge8 Pd4'
_cell_volume   316.38017102
_cell_formula_units_Z   4
loop_
 _symmetry_equiv_pos_site_id
 _symmetry_equiv_pos_as_xyz
  1  'x, y, z'
loop_
 _atom_site_type_symbol
 _atom_site_label
 _atom_site_symmetry_multiplicity
 _atom_site_fract_x
 _atom_site_fract_y
 _atom_site_fract_z
 _atom_site_occupancy
  Tb  Tb0  1  0.240017  1.000000  0.240017  1
  Tb  Tb1  1  0.759983  0.000000  0.759983  1
  Tb  Tb2  1  0.201821  0.201821  0.000000  1
  Tb  Tb3  1  0.798179  0.798179  0.000000  1
  Ge  Ge4  1  0.847552  0.197788  0.649764  1
  Ge  Ge5  1  0.152448  0.802212  0.350236  1
  Ge  Ge6  1  0.451977  0.802212  0.649764  1
  Ge  Ge7  1  0.548023  0.197788  0.350236  1
  Ge  Ge8  1  0.074024  0.574024  0.500000  1
  Ge  Ge9  1  0.425395  0.425395  0.000000  1
  Ge  Ge10  1  0.574605  0.574605  0.000000  1
  Ge  Ge11  1  0.925976  0.425976  0.500000  1
  Pd  Pd12  1  0.102098  0.352346  0.749752  1
  Pd  Pd13  1  0.397406  0.647654  0.749752  1
  Pd  Pd14  1  0.897902  0.647654  0.250248  1
  Pd  Pd15  1  0.602594  0.352346  0.250248  1
