# generated using pymatgen
data_ZrBi
_symmetry_space_group_name_H-M   'P 1'
_cell_length_a   5.79233263
_cell_length_b   5.79233263
_cell_length_c   14.54583017
_cell_angle_alpha   90.00000000
_cell_angle_beta   90.00000000
_cell_angle_gamma   140.88512150
_symmetry_Int_Tables_number   1
_chemical_formula_structural   ZrBi
_chemical_formula_sum   'Zr6 Bi6'
_cell_volume   307.88633004
_cell_formula_units_Z   6
loop_
 _symmetry_equiv_pos_site_id
 _symmetry_equiv_pos_as_xyz
  1  'x, y, z'
loop_
 _atom_site_type_symbol
 _atom_site_label
 _atom_site_symmetry_multiplicity
 _atom_site_fract_x
 _atom_site_fract_y
 _atom_site_fract_z
 _atom_site_occupancy
  Zr  Zr0  1  0.928974  0.071026  0.889890  1
  Zr  Zr1  1  0.071026  0.928974  0.110110  1
  Zr  Zr2  1  0.071026  0.928974  0.389890  1
  Zr  Zr3  1  0.928974  0.071026  0.610110  1
  Zr  Zr4  1  0.607670  0.392330  0.750000  1
  Zr  Zr5  1  0.392330  0.607670  0.250000  1
  Bi  Bi6  1  0.322118  0.677882  0.750000  1
  Bi  Bi7  1  0.677882  0.322118  0.250000  1
  Bi  Bi8  1  0.358699  0.641301  0.450403  1
  Bi  Bi9  1  0.641301  0.358699  0.549597  1
  Bi  Bi10  1  0.641301  0.358699  0.950403  1
  Bi  Bi11  1  0.358699  0.641301  0.049597  1
