# generated using pymatgen
data_Hg2SeO5
_symmetry_space_group_name_H-M   'P 1'
_cell_length_a   9.79135439
_cell_length_b   7.31752693
_cell_length_c   15.49779812
_cell_angle_alpha   90.00000000
_cell_angle_beta   108.17171536
_cell_angle_gamma   90.00000000
_symmetry_Int_Tables_number   1
_chemical_formula_structural   Hg2SeO5
_chemical_formula_sum   'Hg16 Se8 O40'
_cell_volume   1055.01432659
_cell_formula_units_Z   8
loop_
 _symmetry_equiv_pos_site_id
 _symmetry_equiv_pos_as_xyz
  1  'x, y, z'
loop_
 _atom_site_type_symbol
 _atom_site_label
 _atom_site_symmetry_multiplicity
 _atom_site_fract_x
 _atom_site_fract_y
 _atom_site_fract_z
 _atom_site_occupancy
  Hg  Hg0  1  0.668540  0.882784  0.857928  1
  Hg  Hg1  1  0.331460  0.382784  0.642072  1
  Hg  Hg2  1  0.331460  0.117216  0.142072  1
  Hg  Hg3  1  0.668540  0.617216  0.357928  1
  Hg  Hg4  1  0.370386  0.635385  0.887716  1
  Hg  Hg5  1  0.629614  0.135385  0.612284  1
  Hg  Hg6  1  0.629614  0.364615  0.112284  1
  Hg  Hg7  1  0.370386  0.864615  0.387716  1
  Hg  Hg8  1  0.330426  0.882272  0.644124  1
  Hg  Hg9  1  0.669574  0.382272  0.855876  1
  Hg  Hg10  1  0.669574  0.117728  0.355876  1
  Hg  Hg11  1  0.330426  0.617728  0.144124  1
  Hg  Hg12  1  0.005968  0.635357  0.623319  1
  Hg  Hg13  1  0.994032  0.135357  0.876681  1
  Hg  Hg14  1  0.994032  0.364643  0.376681  1
  Hg  Hg15  1  0.005968  0.864643  0.123319  1
  Se  Se16  1  0.657131  0.653395  0.622303  1
  Se  Se17  1  0.342869  0.153395  0.877697  1
  Se  Se18  1  0.342869  0.346605  0.377697  1
  Se  Se19  1  0.657131  0.846605  0.122303  1
  Se  Se20  1  0.039216  0.652894  0.886249  1
  Se  Se21  1  0.960784  0.152894  0.613751  1
  Se  Se22  1  0.960784  0.347106  0.113751  1
  Se  Se23  1  0.039216  0.847106  0.386249  1
  O  O24  1  0.727211  0.815776  0.699072  1
  O  O25  1  0.272789  0.315776  0.800928  1
  O  O26  1  0.272789  0.184224  0.300928  1
  O  O27  1  0.727211  0.684224  0.199072  1
  O  O28  1  0.561121  0.632231  0.849507  1
  O  O29  1  0.438879  0.132231  0.650493  1
  O  O30  1  0.438879  0.367769  0.150493  1
  O  O31  1  0.561121  0.867769  0.349507  1
  O  O32  1  0.502770  0.727968  0.549204  1
  O  O33  1  0.497230  0.227968  0.950796  1
  O  O34  1  0.497230  0.272032  0.450796  1
  O  O35  1  0.502770  0.772032  0.049204  1
  O  O36  1  0.373737  0.960671  0.827675  1
  O  O37  1  0.626263  0.460671  0.672325  1
  O  O38  1  0.626263  0.039329  0.172325  1
  O  O39  1  0.210503  0.597872  0.955444  1
  O  O40  1  0.373737  0.539329  0.327675  1
  O  O41  1  0.758719  0.130617  0.837116  1
  O  O42  1  0.758719  0.369383  0.337116  1
  O  O43  1  0.241281  0.869383  0.162884  1
  O  O44  1  0.227234  0.105562  0.938283  1
  O  O45  1  0.772766  0.605562  0.561717  1
  O  O46  1  0.772766  0.894438  0.061717  1
  O  O47  1  0.227234  0.394438  0.438283  1
  O  O48  1  0.028270  0.183811  0.062047  1
  O  O49  1  0.971730  0.683811  0.437953  1
  O  O50  1  0.971730  0.816189  0.937953  1
  O  O51  1  0.028270  0.316189  0.562047  1
  O  O52  1  0.059508  0.769617  0.290349  1
  O  O53  1  0.940492  0.269617  0.209651  1
  O  O54  1  0.940492  0.230383  0.709651  1
  O  O55  1  0.059508  0.730383  0.790349  1
  O  O56  1  0.062879  0.532939  0.123076  1
  O  O57  1  0.937121  0.032939  0.376924  1
  O  O58  1  0.937121  0.467061  0.876924  1
  O  O59  1  0.062879  0.967061  0.623076  1
  O  O60  1  0.210503  0.902128  0.455444  1
  O  O61  1  0.789497  0.402128  0.044556  1
  O  O62  1  0.789497  0.097872  0.544556  1
  O  O63  1  0.241281  0.630617  0.662884  1
