# generated using pymatgen
data_CaTiFe(PO4)3
_symmetry_space_group_name_H-M   'P 1'
_cell_length_a   8.86057245
_cell_length_b   8.86057245
_cell_length_c   8.86057245
_cell_angle_alpha   58.53616539
_cell_angle_beta   58.53616539
_cell_angle_gamma   58.53616539
_symmetry_Int_Tables_number   1
_chemical_formula_structural   CaTiFe(PO4)3
_chemical_formula_sum   'Ca2 Ti2 Fe2 P6 O24'
_cell_volume   475.42426099
_cell_formula_units_Z   2
loop_
 _symmetry_equiv_pos_site_id
 _symmetry_equiv_pos_as_xyz
  1  'x, y, z'
loop_
 _atom_site_type_symbol
 _atom_site_label
 _atom_site_symmetry_multiplicity
 _atom_site_fract_x
 _atom_site_fract_y
 _atom_site_fract_z
 _atom_site_occupancy
  Ca  Ca0  1  0.002219  0.002219  0.002219  1
  Ca  Ca1  1  0.502219  0.502219  0.502219  1
  Ti  Ti2  1  0.852511  0.852511  0.852511  1
  Ti  Ti3  1  0.352511  0.352511  0.352511  1
  Fe  Fe4  1  0.647772  0.647772  0.647772  1
  Fe  Fe5  1  0.147772  0.147772  0.147772  1
  P  P6  1  0.540237  0.249134  0.958459  1
  P  P7  1  0.249134  0.958459  0.540237  1
  P  P8  1  0.958459  0.540237  0.249134  1
  P  P9  1  0.040237  0.458459  0.749134  1
  P  P10  1  0.749134  0.040237  0.458459  1
  P  P11  1  0.458459  0.749134  0.040237  1
  O  O12  1  0.492913  0.703210  0.879243  1
  O  O13  1  0.879243  0.492913  0.703210  1
  O  O14  1  0.728203  0.078428  0.941682  1
  O  O15  1  0.703210  0.879243  0.492913  1
  O  O16  1  0.379243  0.203210  0.992913  1
  O  O17  1  0.563065  0.417002  0.773250  1
  O  O18  1  0.078428  0.941682  0.728203  1
  O  O19  1  0.417002  0.773250  0.563065  1
  O  O20  1  0.001369  0.627731  0.793571  1
  O  O21  1  0.773250  0.563065  0.417002  1
  O  O22  1  0.063065  0.273250  0.917002  1
  O  O23  1  0.793571  0.001369  0.627731  1
  O  O24  1  0.203210  0.992913  0.379243  1
  O  O25  1  0.941682  0.728203  0.078428  1
  O  O26  1  0.228203  0.441682  0.578428  1
  O  O27  1  0.992913  0.379243  0.203210  1
  O  O28  1  0.578428  0.228203  0.441682  1
  O  O29  1  0.917002  0.063065  0.273250  1
  O  O30  1  0.441682  0.578428  0.228203  1
  O  O31  1  0.627731  0.793571  0.001369  1
  O  O32  1  0.293571  0.127731  0.501369  1
  O  O33  1  0.273250  0.917002  0.063065  1
  O  O34  1  0.127731  0.501369  0.293571  1
  O  O35  1  0.501369  0.293571  0.127731  1
