# generated using pymatgen
data_Pr3OsO7
_symmetry_space_group_name_H-M   'P 1'
_cell_length_a   6.71048550
_cell_length_b   6.71048550
_cell_length_c   7.65575126
_cell_angle_alpha   90.00000000
_cell_angle_beta   90.00000000
_cell_angle_gamma   111.41112353
_symmetry_Int_Tables_number   1
_chemical_formula_structural   Pr3OsO7
_chemical_formula_sum   'Pr6 Os2 O14'
_cell_volume   320.95072736
_cell_formula_units_Z   2
loop_
 _symmetry_equiv_pos_site_id
 _symmetry_equiv_pos_as_xyz
  1  'x, y, z'
loop_
 _atom_site_type_symbol
 _atom_site_label
 _atom_site_symmetry_multiplicity
 _atom_site_fract_x
 _atom_site_fract_y
 _atom_site_fract_z
 _atom_site_occupancy
  Pr  Pr0  1  0.000000  0.000000  0.000000  1
  Pr  Pr1  1  0.000000  0.000000  0.500000  1
  Pr  Pr2  1  0.472428  0.917172  0.750000  1
  Pr  Pr3  1  0.527572  0.082828  0.250000  1
  Pr  Pr4  1  0.917172  0.472428  0.750000  1
  Pr  Pr5  1  0.082828  0.527572  0.250000  1
  Os  Os6  1  0.500000  0.500000  0.000000  1
  Os  Os7  1  0.500000  0.500000  0.500000  1
  O  O8  1  0.582530  0.582530  0.750000  1
  O  O9  1  0.417470  0.417470  0.250000  1
  O  O10  1  0.841940  0.105261  0.750000  1
  O  O11  1  0.158060  0.894739  0.250000  1
  O  O12  1  0.105261  0.841940  0.750000  1
  O  O13  1  0.894739  0.158060  0.250000  1
  O  O14  1  0.440134  0.190517  0.961085  1
  O  O15  1  0.559866  0.809483  0.461085  1
  O  O16  1  0.190517  0.440134  0.961085  1
  O  O17  1  0.809483  0.559866  0.461085  1
  O  O18  1  0.440134  0.190517  0.538915  1
  O  O19  1  0.559866  0.809483  0.038915  1
  O  O20  1  0.809483  0.559866  0.038915  1
  O  O21  1  0.190517  0.440134  0.538915  1
