# generated using pymatgen
data_Ti9O8
_symmetry_space_group_name_H-M   'P 1'
_cell_length_a   6.05961793
_cell_length_b   6.69628200
_cell_length_c   9.06180739
_cell_angle_alpha   102.86932340
_cell_angle_beta   89.10521992
_cell_angle_gamma   102.93622446
_symmetry_Int_Tables_number   1
_chemical_formula_structural   Ti9O8
_chemical_formula_sum   'Ti18 O16'
_cell_volume   349.13887685
_cell_formula_units_Z   2
loop_
 _symmetry_equiv_pos_site_id
 _symmetry_equiv_pos_as_xyz
  1  'x, y, z'
loop_
 _atom_site_type_symbol
 _atom_site_label
 _atom_site_symmetry_multiplicity
 _atom_site_fract_x
 _atom_site_fract_y
 _atom_site_fract_z
 _atom_site_occupancy
  Ti  Ti0  1  0.241000  0.512087  0.162532  1
  Ti  Ti1  1  0.603057  0.836584  0.070575  1
  Ti  Ti2  1  0.946003  0.166760  0.928842  1
  Ti  Ti3  1  0.053997  0.833240  0.071158  1
  Ti  Ti4  1  0.396943  0.163416  0.929425  1
  Ti  Ti5  1  0.549345  0.825383  0.717297  1
  Ti  Ti6  1  0.759000  0.487913  0.837468  1
  Ti  Ti7  1  0.939633  0.170602  0.624478  1
  Ti  Ti8  1  0.095711  0.853977  0.725760  1
  Ti  Ti9  1  0.248466  0.489075  0.825145  1
  Ti  Ti10  1  0.396861  0.165620  0.623867  1
  Ti  Ti11  1  0.737882  0.493903  0.476361  1
  Ti  Ti12  1  0.904289  0.146023  0.274240  1
  Ti  Ti13  1  0.060367  0.829398  0.375522  1
  Ti  Ti14  1  0.262118  0.506097  0.523639  1
  Ti  Ti15  1  0.450655  0.174617  0.282703  1
  Ti  Ti16  1  0.603139  0.834380  0.376133  1
  Ti  Ti17  1  0.751534  0.510925  0.174855  1
  O  O18  1  0.176878  0.171463  0.117851  1
  O  O19  1  0.500000  0.500000  0.000000  1
  O  O20  1  0.668038  0.167935  0.096988  1
  O  O21  1  0.823122  0.828537  0.882149  1
  O  O22  1  0.000000  0.500000  0.000000  1
  O  O23  1  0.331962  0.832065  0.903012  1
  O  O24  1  0.529510  0.499863  0.670300  1
  O  O25  1  0.667818  0.155964  0.777021  1
  O  O26  1  0.828677  0.829961  0.560255  1
  O  O27  1  0.982453  0.506888  0.659181  1
  O  O28  1  0.171323  0.170039  0.439745  1
  O  O29  1  0.327295  0.834415  0.539388  1
  O  O30  1  0.470490  0.500137  0.329700  1
  O  O31  1  0.672705  0.165585  0.460612  1
  O  O32  1  0.017547  0.493112  0.340819  1
  O  O33  1  0.332182  0.844036  0.222979  1
