# generated using pymatgen
data_Ho3CrB7
_symmetry_space_group_name_H-M   'P 1'
_cell_length_a   8.06353828
_cell_length_b   8.06353828
_cell_length_c   9.32185694
_cell_angle_alpha   90.00000000
_cell_angle_beta   90.00000000
_cell_angle_gamma   155.45655541
_symmetry_Int_Tables_number   1
_chemical_formula_structural   Ho3CrB7
_chemical_formula_sum   'Ho6 Cr2 B14'
_cell_volume   251.76917874
_cell_formula_units_Z   2
loop_
 _symmetry_equiv_pos_site_id
 _symmetry_equiv_pos_as_xyz
  1  'x, y, z'
loop_
 _atom_site_type_symbol
 _atom_site_label
 _atom_site_symmetry_multiplicity
 _atom_site_fract_x
 _atom_site_fract_y
 _atom_site_fract_z
 _atom_site_occupancy
  Ho  Ho0  1  0.104923  0.895077  0.059715  1
  Ho  Ho1  1  0.895077  0.104923  0.940285  1
  Ho  Ho2  1  0.758510  0.241490  0.250000  1
  Ho  Ho3  1  0.241490  0.758510  0.750000  1
  Ho  Ho4  1  0.104923  0.895077  0.440285  1
  Ho  Ho5  1  0.895077  0.104923  0.559715  1
  Cr  Cr6  1  0.053271  0.946729  0.750000  1
  Cr  Cr7  1  0.946729  0.053271  0.250000  1
  B  B8  1  0.727149  0.272851  0.532229  1
  B  B9  1  0.272851  0.727149  0.467771  1
  B  B10  1  0.272851  0.727149  0.032229  1
  B  B11  1  0.727149  0.272851  0.967771  1
  B  B12  1  0.521174  0.478826  0.903690  1
  B  B13  1  0.478826  0.521174  0.096310  1
  B  B14  1  0.478826  0.521174  0.403690  1
  B  B15  1  0.521174  0.478826  0.596310  1
  B  B16  1  0.459030  0.540970  0.750000  1
  B  B17  1  0.540970  0.459030  0.250000  1
  B  B18  1  0.631133  0.368867  0.651311  1
  B  B19  1  0.368867  0.631133  0.348689  1
  B  B20  1  0.368867  0.631133  0.151311  1
  B  B21  1  0.631133  0.368867  0.848689  1
