# generated using pymatgen
data_H18SO12
_symmetry_space_group_name_H-M   'P 1'
_cell_length_a   7.43991880
_cell_length_b   7.43991880
_cell_length_c   11.99662540
_cell_angle_alpha   71.95958199
_cell_angle_beta   108.04041801
_cell_angle_gamma   90.00984258
_symmetry_Int_Tables_number   1
_chemical_formula_structural   H18SO12
_chemical_formula_sum   'H36 S2 O24'
_cell_volume   596.98063075
_cell_formula_units_Z   2
loop_
 _symmetry_equiv_pos_site_id
 _symmetry_equiv_pos_as_xyz
  1  'x, y, z'
loop_
 _atom_site_type_symbol
 _atom_site_label
 _atom_site_symmetry_multiplicity
 _atom_site_fract_x
 _atom_site_fract_y
 _atom_site_fract_z
 _atom_site_occupancy
  H  H0  1  0.685106  0.843265  0.612733  1
  H  H1  1  0.156735  0.314894  0.112733  1
  H  H2  1  0.841665  0.946826  0.553366  1
  H  H3  1  0.053174  0.158335  0.053366  1
  H  H4  1  0.322456  0.156780  0.887421  1
  H  H5  1  0.843220  0.677544  0.387421  1
  H  H6  1  0.538154  0.053094  0.946796  1
  H  H7  1  0.946906  0.461846  0.446796  1
  H  H8  1  0.646194  0.103393  0.541918  1
  H  H9  1  0.896607  0.353806  0.041918  1
  H  H10  1  0.462421  0.250240  0.553415  1
  H  H11  1  0.749760  0.537579  0.053415  1
  H  H12  1  0.679029  0.293583  0.612061  1
  H  H13  1  0.706417  0.320971  0.112061  1
  H  H14  1  0.316717  0.706725  0.887658  1
  H  H15  1  0.293275  0.683283  0.387658  1
  H  H16  1  0.158560  0.749907  0.946330  1
  H  H17  1  0.250093  0.841440  0.446330  1
  H  H18  1  0.353765  0.896429  0.958028  1
  H  H19  1  0.103571  0.646235  0.458028  1
  H  H20  1  0.725035  0.551722  0.737560  1
  H  H21  1  0.448278  0.274965  0.237560  1
  H  H22  1  0.764550  0.708203  0.806330  1
  H  H23  1  0.291797  0.235450  0.306330  1
  H  H24  1  0.208362  0.291726  0.693671  1
  H  H25  1  0.708274  0.791638  0.193671  1
  H  H26  1  0.334738  0.547631  0.254058  1
  H  H27  1  0.452369  0.665262  0.754058  1
  H  H28  1  0.233246  0.761298  0.193139  1
  H  H29  1  0.238702  0.766754  0.693139  1
  H  H30  1  0.766680  0.204548  0.306770  1
  H  H31  1  0.795452  0.233320  0.806770  1
  H  H32  1  0.665188  0.051676  0.245905  1
  H  H33  1  0.948324  0.334812  0.745905  1
  H  H34  1  0.551716  0.762530  0.262372  1
  H  H35  1  0.237470  0.448284  0.762372  1
  S  S36  1  0.125334  0.124994  0.500021  1
  S  S37  1  0.875006  0.874666  0.000021  1
  O  O38  1  0.701321  0.950767  0.540952  1
  O  O39  1  0.049233  0.298679  0.040952  1
  O  O40  1  0.410234  0.049307  0.959210  1
  O  O41  1  0.950693  0.589766  0.459210  1
  O  O42  1  0.590094  0.258279  0.540616  1
  O  O43  1  0.741721  0.409906  0.040616  1
  O  O44  1  0.299026  0.742025  0.959109  1
  O  O45  1  0.257975  0.700974  0.459109  1
  O  O46  1  0.673854  0.678135  0.735255  1
  O  O47  1  0.321865  0.326146  0.235255  1
  O  O48  1  0.188602  0.321854  0.764704  1
  O  O49  1  0.678146  0.811398  0.264704  1
  O  O50  1  0.809168  0.338494  0.735469  1
  O  O51  1  0.661506  0.190832  0.235469  1
  O  O52  1  0.323646  0.661631  0.764500  1
  O  O53  1  0.338369  0.676354  0.264500  1
  O  O54  1  0.072685  0.948870  0.579229  1
  O  O55  1  0.051130  0.927315  0.079229  1
  O  O56  1  0.949111  0.256667  0.420932  1
  O  O57  1  0.743333  0.050889  0.920932  1
  O  O58  1  0.257243  0.222128  0.579085  1
  O  O59  1  0.777872  0.742757  0.079085  1
  O  O60  1  0.222217  0.072169  0.420786  1
  O  O61  1  0.927831  0.777783  0.920786  1
