# generated using pymatgen
data_Tm(CoSi)2
_symmetry_space_group_name_H-M   'P 1'
_cell_length_a   5.55817448
_cell_length_b   5.55817448
_cell_length_c   5.55817448
_cell_angle_alpha   139.42637478
_cell_angle_beta   139.42637478
_cell_angle_gamma   58.72531125
_symmetry_Int_Tables_number   1
_chemical_formula_structural   Tm(CoSi)2
_chemical_formula_sum   'Tm1 Co2 Si2'
_cell_volume   71.96111312
_cell_formula_units_Z   1
loop_
 _symmetry_equiv_pos_site_id
 _symmetry_equiv_pos_as_xyz
  1  'x, y, z'
loop_
 _atom_site_type_symbol
 _atom_site_label
 _atom_site_symmetry_multiplicity
 _atom_site_fract_x
 _atom_site_fract_y
 _atom_site_fract_z
 _atom_site_occupancy
  Tm  Tm0  1  0.000000  0.000000  0.000000  1
  Co  Co1  1  0.250000  0.750000  0.500000  1
  Co  Co2  1  0.750000  0.250000  0.500000  1
  Si  Si3  1  0.626887  0.626887  0.000000  1
  Si  Si4  1  0.373113  0.373113  0.000000  1
