# generated using pymatgen
data_Li2CrP4O13
_symmetry_space_group_name_H-M   'P 1'
_cell_length_a   5.05861320
_cell_length_b   7.95873017
_cell_length_c   13.33154457
_cell_angle_alpha   78.40176493
_cell_angle_beta   87.43009386
_cell_angle_gamma   81.95986266
_symmetry_Int_Tables_number   1
_chemical_formula_structural   Li2CrP4O13
_chemical_formula_sum   'Li4 Cr2 P8 O26'
_cell_volume   520.52507974
_cell_formula_units_Z   2
loop_
 _symmetry_equiv_pos_site_id
 _symmetry_equiv_pos_as_xyz
  1  'x, y, z'
loop_
 _atom_site_type_symbol
 _atom_site_label
 _atom_site_symmetry_multiplicity
 _atom_site_fract_x
 _atom_site_fract_y
 _atom_site_fract_z
 _atom_site_occupancy
  Li  Li0  1  0.593799  0.695899  0.015801  1
  Li  Li1  1  0.072762  0.323921  0.518113  1
  Li  Li2  1  0.406201  0.304101  0.984199  1
  Li  Li3  1  0.927238  0.676079  0.481887  1
  Cr  Cr4  1  0.450195  0.048222  0.756857  1
  Cr  Cr5  1  0.549805  0.951778  0.243143  1
  P  P6  1  0.993562  0.894481  0.650176  1
  P  P7  1  0.321159  0.657149  0.804157  1
  P  P8  1  0.648115  0.426217  0.676778  1
  P  P9  1  0.006438  0.105519  0.349824  1
  P  P10  1  0.904248  0.198965  0.860648  1
  P  P11  1  0.678841  0.342851  0.195843  1
  P  P12  1  0.351885  0.573783  0.323222  1
  P  P13  1  0.095752  0.801035  0.139352  1
  O  O14  1  0.745483  0.056084  0.839160  1
  O  O15  1  0.042192  0.737656  0.751166  1
  O  O16  1  0.285192  0.510608  0.889400  1
  O  O17  1  0.872591  0.356550  0.761502  1
  O  O18  1  0.301062  0.030948  0.345119  1
  O  O19  1  0.795173  0.866378  0.136059  1
  O  O20  1  0.496817  0.598198  0.709059  1
  O  O21  1  0.069662  0.821402  0.556850  1
  O  O22  1  0.204827  0.133622  0.863941  1
  O  O23  1  0.208911  0.738581  0.045840  1
  O  O24  1  0.791089  0.261419  0.954160  1
  O  O25  1  0.503183  0.401802  0.290941  1
  O  O26  1  0.549589  0.196110  0.167800  1
  O  O27  1  0.836207  0.964367  0.332259  1
  O  O28  1  0.454279  0.294488  0.682622  1
  O  O29  1  0.211997  0.520513  0.423599  1
  O  O30  1  0.930338  0.178598  0.443150  1
  O  O31  1  0.698938  0.969052  0.654881  1
  O  O32  1  0.788003  0.479487  0.576401  1
  O  O33  1  0.545721  0.705512  0.317378  1
  O  O34  1  0.127409  0.643450  0.238498  1
  O  O35  1  0.163793  0.035633  0.667741  1
  O  O36  1  0.450411  0.803890  0.832200  1
  O  O37  1  0.254517  0.943916  0.160840  1
  O  O38  1  0.957808  0.262344  0.248834  1
  O  O39  1  0.714808  0.489392  0.110600  1
