# generated using pymatgen
data_Nd4Ge3Rh4
_symmetry_space_group_name_H-M   'P 1'
_cell_length_a   11.02862976
_cell_length_b   11.02862976
_cell_length_c   8.04343470
_cell_angle_alpha   70.99511486
_cell_angle_beta   109.00488514
_cell_angle_gamma   149.97145448
_symmetry_Int_Tables_number   1
_chemical_formula_structural   Nd4Ge3Rh4
_chemical_formula_sum   'Nd8 Ge6 Rh8'
_cell_volume   460.91986880
_cell_formula_units_Z   2
loop_
 _symmetry_equiv_pos_site_id
 _symmetry_equiv_pos_as_xyz
  1  'x, y, z'
loop_
 _atom_site_type_symbol
 _atom_site_label
 _atom_site_symmetry_multiplicity
 _atom_site_fract_x
 _atom_site_fract_y
 _atom_site_fract_z
 _atom_site_occupancy
  Nd  Nd0  1  0.554729  0.214184  0.398970  1
  Nd  Nd1  1  0.214184  0.554729  0.101030  1
  Nd  Nd2  1  0.785816  0.445271  0.898970  1
  Nd  Nd3  1  0.787365  0.921074  0.331084  1
  Nd  Nd4  1  0.921074  0.787365  0.168916  1
  Nd  Nd5  1  0.212635  0.078926  0.668916  1
  Nd  Nd6  1  0.078926  0.212635  0.831084  1
  Nd  Nd7  1  0.445271  0.785816  0.601030  1
  Ge  Ge8  1  0.645551  0.645551  0.750000  1
  Ge  Ge9  1  0.354449  0.354449  0.250000  1
  Ge  Ge10  1  0.947939  0.291457  0.441967  1
  Ge  Ge11  1  0.291457  0.947939  0.058033  1
  Ge  Ge12  1  0.052061  0.708543  0.558033  1
  Ge  Ge13  1  0.708543  0.052061  0.941967  1
  Rh  Rh14  1  0.427878  0.303155  0.017371  1
  Rh  Rh15  1  0.696845  0.572122  0.517371  1
  Rh  Rh16  1  0.572122  0.696845  0.982629  1
  Rh  Rh17  1  0.628914  0.071561  0.185912  1
  Rh  Rh18  1  0.071561  0.628914  0.314088  1
  Rh  Rh19  1  0.303155  0.427878  0.482629  1
  Rh  Rh20  1  0.371086  0.928439  0.814088  1
  Rh  Rh21  1  0.928439  0.371086  0.685912  1
