# generated using pymatgen
data_Ca(Sm2Se3)4
_symmetry_space_group_name_H-M   'P 1'
_cell_length_a   8.86197188
_cell_length_b   8.86197188
_cell_length_c   14.68060629
_cell_angle_alpha   72.48100833
_cell_angle_beta   107.51899167
_cell_angle_gamma   89.90479748
_symmetry_Int_Tables_number   1
_chemical_formula_structural   Ca(Sm2Se3)4
_chemical_formula_sum   'Ca2 Sm16 Se24'
_cell_volume   1043.05091386
_cell_formula_units_Z   2
loop_
 _symmetry_equiv_pos_site_id
 _symmetry_equiv_pos_as_xyz
  1  'x, y, z'
loop_
 _atom_site_type_symbol
 _atom_site_label
 _atom_site_symmetry_multiplicity
 _atom_site_fract_x
 _atom_site_fract_y
 _atom_site_fract_z
 _atom_site_occupancy
  Ca  Ca0  1  0.041589  0.083399  0.833359  1
  Ca  Ca1  1  0.916601  0.958411  0.333359  1
  Sm  Sm2  1  0.751440  0.875556  0.000695  1
  Sm  Sm3  1  0.249415  0.624835  0.998737  1
  Sm  Sm4  1  0.458091  0.290147  0.917278  1
  Sm  Sm5  1  0.372922  0.874282  0.750024  1
  Sm  Sm6  1  0.082717  0.543863  0.666607  1
  Sm  Sm7  1  0.794825  0.583802  0.833299  1
  Sm  Sm8  1  0.584862  0.291951  0.667216  1
  Sm  Sm9  1  0.792494  0.958307  0.583643  1
  Sm  Sm10  1  0.375165  0.750585  0.498737  1
  Sm  Sm11  1  0.416198  0.205175  0.333299  1
  Sm  Sm12  1  0.709853  0.541909  0.417278  1
  Sm  Sm13  1  0.124444  0.248560  0.500695  1
  Sm  Sm14  1  0.125718  0.627078  0.250024  1
  Sm  Sm15  1  0.708049  0.415138  0.167216  1
  Sm  Sm16  1  0.041693  0.207506  0.083643  1
  Sm  Sm17  1  0.456137  0.917283  0.166607  1
  Se  Se18  1  0.550100  0.598391  0.950448  1
  Se  Se19  1  0.761506  0.236077  0.882437  1
  Se  Se20  1  0.405773  0.949713  0.951492  1
  Se  Se21  1  0.286447  0.217952  0.714618  1
  Se  Se22  1  0.432662  0.568596  0.716498  1
  Se  Se23  1  0.117101  0.383093  0.883691  1
  Se  Se24  1  0.882248  0.266533  0.616329  1
  Se  Se25  1  0.067345  0.783079  0.783784  1
  Se  Se26  1  0.100493  0.899793  0.550548  1
  Se  Se27  1  0.733122  0.617053  0.617060  1
  Se  Se28  1  0.711744  0.930792  0.783246  1
  Se  Se29  1  0.616907  0.882899  0.383691  1
  Se  Se30  1  0.763923  0.238494  0.382437  1
  Se  Se31  1  0.450750  0.050431  0.548992  1
  Se  Se32  1  0.216921  0.932655  0.283784  1
  Se  Se33  1  0.401609  0.449900  0.450448  1
  Se  Se34  1  0.431404  0.567338  0.216498  1
  Se  Se35  1  0.069208  0.288256  0.283246  1
  Se  Se36  1  0.050287  0.594227  0.451492  1
  Se  Se37  1  0.949569  0.549250  0.048992  1
  Se  Se38  1  0.100207  0.899507  0.050548  1
  Se  Se39  1  0.782048  0.713553  0.214618  1
  Se  Se40  1  0.733467  0.117752  0.116329  1
  Se  Se41  1  0.382947  0.266878  0.117060  1
