# generated using pymatgen
data_Na2PdF4
_symmetry_space_group_name_H-M   'P 1'
_cell_length_a   3.49787597
_cell_length_b   5.66813867
_cell_length_c   10.24658635
_cell_angle_alpha   90.00000000
_cell_angle_beta   95.18958166
_cell_angle_gamma   90.00000000
_symmetry_Int_Tables_number   1
_chemical_formula_structural   Na2PdF4
_chemical_formula_sum   'Na4 Pd2 F8'
_cell_volume   202.32063783
_cell_formula_units_Z   2
loop_
 _symmetry_equiv_pos_site_id
 _symmetry_equiv_pos_as_xyz
  1  'x, y, z'
loop_
 _atom_site_type_symbol
 _atom_site_label
 _atom_site_symmetry_multiplicity
 _atom_site_fract_x
 _atom_site_fract_y
 _atom_site_fract_z
 _atom_site_occupancy
  Na  Na0  1  0.718032  0.043516  0.651107  1
  Na  Na1  1  0.281968  0.543516  0.848893  1
  Na  Na2  1  0.281968  0.956484  0.348893  1
  Na  Na3  1  0.718032  0.456484  0.151107  1
  Pd  Pd4  1  0.000000  0.500000  0.500000  1
  Pd  Pd5  1  0.000000  0.000000  0.000000  1
  F  F6  1  0.791076  0.677545  0.338754  1
  F  F7  1  0.208924  0.177545  0.161246  1
  F  F8  1  0.208924  0.322455  0.661246  1
  F  F9  1  0.791076  0.822455  0.838754  1
  F  F10  1  0.208855  0.806445  0.573906  1
  F  F11  1  0.791145  0.306445  0.926094  1
  F  F12  1  0.208855  0.693555  0.073906  1
  F  F13  1  0.791145  0.193555  0.426094  1
