# generated using pymatgen
data_Ca2As3
_symmetry_space_group_name_H-M   'P 1'
_cell_length_a   12.03680703
_cell_length_b   5.85844833
_cell_length_c   18.18277642
_cell_angle_alpha   90.00000000
_cell_angle_beta   130.63730051
_cell_angle_gamma   90.00000000
_symmetry_Int_Tables_number   1
_chemical_formula_structural   Ca2As3
_chemical_formula_sum   'Ca16 As24'
_cell_volume   972.99049502
_cell_formula_units_Z   8
loop_
 _symmetry_equiv_pos_site_id
 _symmetry_equiv_pos_as_xyz
  1  'x, y, z'
loop_
 _atom_site_type_symbol
 _atom_site_label
 _atom_site_symmetry_multiplicity
 _atom_site_fract_x
 _atom_site_fract_y
 _atom_site_fract_z
 _atom_site_occupancy
  Ca  Ca0  1  0.375440  0.245580  0.000796  1
  Ca  Ca1  1  0.624560  0.245580  0.499204  1
  Ca  Ca2  1  0.624560  0.754420  0.999204  1
  Ca  Ca3  1  0.375440  0.754420  0.500796  1
  Ca  Ca4  1  0.133485  0.259945  0.509120  1
  Ca  Ca5  1  0.866515  0.259945  0.990880  1
  Ca  Ca6  1  0.866515  0.740055  0.490880  1
  Ca  Ca7  1  0.133485  0.740055  0.009120  1
  Ca  Ca8  1  0.759091  0.548008  0.751052  1
  Ca  Ca9  1  0.240909  0.548008  0.748948  1
  Ca  Ca10  1  0.240909  0.451992  0.248948  1
  Ca  Ca11  1  0.759091  0.451992  0.251052  1
  Ca  Ca12  1  0.000000  0.960116  0.750000  1
  Ca  Ca13  1  0.000000  0.039884  0.250000  1
  Ca  Ca14  1  0.500000  0.908531  0.750000  1
  Ca  Ca15  1  0.500000  0.091469  0.250000  1
  As  As16  1  0.925079  0.546749  0.158130  1
  As  As17  1  0.074921  0.546749  0.341870  1
  As  As18  1  0.074921  0.453251  0.841870  1
  As  As19  1  0.925079  0.453251  0.658130  1
  As  As20  1  0.713729  0.731664  0.577499  1
  As  As21  1  0.286271  0.731664  0.922501  1
  As  As22  1  0.286271  0.268336  0.422501  1
  As  As23  1  0.713729  0.268336  0.077499  1
  As  As24  1  0.548156  0.396950  0.835488  1
  As  As25  1  0.451844  0.396950  0.664512  1
  As  As26  1  0.451844  0.603050  0.164512  1
  As  As27  1  0.548156  0.603050  0.335488  1
  As  As28  1  0.157128  0.049830  0.670971  1
  As  As29  1  0.842872  0.049830  0.829029  1
  As  As30  1  0.842872  0.950170  0.329029  1
  As  As31  1  0.157128  0.950170  0.170971  1
  As  As32  1  0.188280  0.225815  0.077698  1
  As  As33  1  0.811720  0.225815  0.422302  1
  As  As34  1  0.811720  0.774185  0.922302  1
  As  As35  1  0.188280  0.774185  0.577698  1
  As  As36  1  0.394106  0.096761  0.845039  1
  As  As37  1  0.605894  0.096761  0.654961  1
  As  As38  1  0.605894  0.903239  0.154961  1
  As  As39  1  0.394106  0.903239  0.345039  1
