# generated using pymatgen
data_Co2CuS4
_symmetry_space_group_name_H-M   'P 1'
_cell_length_a   6.69987945
_cell_length_b   6.69987945
_cell_length_c   6.69987945
_cell_angle_alpha   60.00000000
_cell_angle_beta   60.00000000
_cell_angle_gamma   60.00000000
_symmetry_Int_Tables_number   1
_chemical_formula_structural   Co2CuS4
_chemical_formula_sum   'Co4 Cu2 S8'
_cell_volume   212.66007718
_cell_formula_units_Z   2
loop_
 _symmetry_equiv_pos_site_id
 _symmetry_equiv_pos_as_xyz
  1  'x, y, z'
loop_
 _atom_site_type_symbol
 _atom_site_label
 _atom_site_symmetry_multiplicity
 _atom_site_fract_x
 _atom_site_fract_y
 _atom_site_fract_z
 _atom_site_occupancy
  Co  Co0  1  0.125000  0.625000  0.125000  1
  Co  Co1  1  0.125000  0.125000  0.125000  1
  Co  Co2  1  0.625000  0.125000  0.125000  1
  Co  Co3  1  0.125000  0.125000  0.625000  1
  Cu  Cu4  1  0.750000  0.750000  0.750000  1
  Cu  Cu5  1  0.500000  0.500000  0.500000  1
  S  S6  1  0.887911  0.336267  0.887911  1
  S  S7  1  0.362089  0.362089  0.362089  1
  S  S8  1  0.913733  0.362089  0.362089  1
  S  S9  1  0.362089  0.362089  0.913733  1
  S  S10  1  0.336267  0.887911  0.887911  1
  S  S11  1  0.887911  0.887911  0.336267  1
  S  S12  1  0.362089  0.913733  0.362089  1
  S  S13  1  0.887911  0.887911  0.887911  1
