# generated using pymatgen
data_Y(Al2Cr)4
_symmetry_space_group_name_H-M   'P 1'
_cell_length_a   6.79386626
_cell_length_b   6.79386626
_cell_length_c   6.79386626
_cell_angle_alpha   97.95111779
_cell_angle_beta   97.95111779
_cell_angle_gamma   136.33122912
_symmetry_Int_Tables_number   1
_chemical_formula_structural   Y(Al2Cr)4
_chemical_formula_sum   'Y1 Al8 Cr4'
_cell_volume   200.99174262
_cell_formula_units_Z   1
loop_
 _symmetry_equiv_pos_site_id
 _symmetry_equiv_pos_as_xyz
  1  'x, y, z'
loop_
 _atom_site_type_symbol
 _atom_site_label
 _atom_site_symmetry_multiplicity
 _atom_site_fract_x
 _atom_site_fract_y
 _atom_site_fract_z
 _atom_site_occupancy
  Y  Y0  1  0.000000  0.000000  0.000000  1
  Al  Al1  1  1.000000  0.337002  0.337002  1
  Al  Al2  1  0.662998  0.000000  0.662998  1
  Al  Al3  1  0.337002  0.000000  0.337002  1
  Al  Al4  1  1.000000  0.662998  0.662998  1
  Al  Al5  1  0.500000  0.277307  0.777307  1
  Al  Al6  1  0.722693  0.500000  0.222693  1
  Al  Al7  1  0.277307  0.500000  0.777307  1
  Al  Al8  1  0.500000  0.722693  0.222693  1
  Cr  Cr9  1  0.000000  0.500000  0.000000  1
  Cr  Cr10  1  0.000000  0.000000  0.500000  1
  Cr  Cr11  1  0.500000  0.500000  0.500000  1
  Cr  Cr12  1  0.500000  0.000000  0.000000  1
