# generated using pymatgen
data_LiCoP2O7
_symmetry_space_group_name_H-M   'P 1'
_cell_length_a   5.06589011
_cell_length_b   6.78757911
_cell_length_c   8.20519650
_cell_angle_alpha   67.86135905
_cell_angle_beta   87.76922787
_cell_angle_gamma   87.94964976
_symmetry_Int_Tables_number   1
_chemical_formula_structural   LiCoP2O7
_chemical_formula_sum   'Li2 Co2 P4 O14'
_cell_volume   261.07015367
_cell_formula_units_Z   2
loop_
 _symmetry_equiv_pos_site_id
 _symmetry_equiv_pos_as_xyz
  1  'x, y, z'
loop_
 _atom_site_type_symbol
 _atom_site_label
 _atom_site_symmetry_multiplicity
 _atom_site_fract_x
 _atom_site_fract_y
 _atom_site_fract_z
 _atom_site_occupancy
  Li  Li0  1  0.282252  0.831871  0.000330  1
  Li  Li1  1  0.780606  0.180511  0.434698  1
  Co  Co2  1  0.760657  0.794544  0.269531  1
  Co  Co3  1  0.237375  0.228422  0.726540  1
  P  P4  1  0.716975  0.540454  0.689589  1
  P  P5  1  0.279983  0.457605  0.307473  1
  P  P6  1  0.239479  0.116741  0.171284  1
  P  P7  1  0.767581  0.890090  0.828897  1
  O  O8  1  0.818432  0.705248  0.514430  1
  O  O9  1  0.717367  0.655515  0.829038  1
  O  O10  1  0.895352  0.345590  0.765914  1
  O  O11  1  0.147248  0.294204  0.472375  1
  O  O12  1  0.591180  0.051512  0.691433  1
  O  O13  1  0.447008  0.972510  0.292398  1
  O  O14  1  0.428927  0.481024  0.683263  1
  O  O15  1  0.062819  0.933137  0.791137  1
  O  O16  1  0.954699  0.063398  0.243646  1
  O  O17  1  0.117769  0.663975  0.223015  1
  O  O18  1  0.679648  0.853965  0.019814  1
  O  O19  1  0.279645  0.357455  0.155854  1
  O  O20  1  0.570455  0.493046  0.329559  1
  O  O21  1  0.279302  0.124546  0.984297  1
