# generated using pymatgen
data_Na2CaPO4F
_symmetry_space_group_name_H-M   'P 1'
_cell_length_a   7.14897439
_cell_length_b   7.14897439
_cell_length_c   14.29540886
_cell_angle_alpha   74.71110911
_cell_angle_beta   105.28889089
_cell_angle_gamma   120.68687391
_symmetry_Int_Tables_number   1
_chemical_formula_structural   Na2CaPO4F
_chemical_formula_sum   'Na10 Ca5 P5 O20 F5'
_cell_volume   598.67711821
_cell_formula_units_Z   5
loop_
 _symmetry_equiv_pos_site_id
 _symmetry_equiv_pos_as_xyz
  1  'x, y, z'
loop_
 _atom_site_type_symbol
 _atom_site_label
 _atom_site_symmetry_multiplicity
 _atom_site_fract_x
 _atom_site_fract_y
 _atom_site_fract_z
 _atom_site_occupancy
  Na  Na0  1  0.581396  0.952816  0.204666  1
  Na  Na1  1  0.047184  0.418604  0.204666  1
  Na  Na2  1  0.801375  0.710172  0.405986  1
  Na  Na3  1  0.289828  0.198625  0.405986  1
  Na  Na4  1  0.705961  0.787606  0.612412  1
  Na  Na5  1  0.212394  0.294039  0.612412  1
  Na  Na6  1  0.928860  0.566988  0.809539  1
  Na  Na7  1  0.433012  0.071140  0.809539  1
  Na  Na8  1  0.842711  0.654994  0.006570  1
  Na  Na9  1  0.345006  0.157289  0.006570  1
  Ca  Ca10  1  0.581890  0.418110  0.205868  1
  Ca  Ca11  1  0.308531  0.691469  0.403636  1
  Ca  Ca12  1  0.685564  0.314436  0.608509  1
  Ca  Ca13  1  0.450115  0.549885  0.809124  1
  Ca  Ca14  1  0.825536  0.174464  0.008941  1
  P  P15  1  0.065138  0.934862  0.202046  1
  P  P16  1  0.204248  0.795752  0.598126  1
  P  P17  1  0.338642  0.661358  0.997804  1
  P  P18  1  0.799505  0.200495  0.412281  1
  P  P19  1  0.927680  0.072320  0.800173  1
  O  O20  1  0.027725  0.972275  0.086993  1
  O  O21  1  0.173008  0.826992  0.482868  1
  O  O22  1  0.305078  0.694922  0.882951  1
  O  O23  1  0.470825  0.890051  0.033278  1
  O  O24  1  0.470203  0.529797  0.040615  1
  O  O25  1  0.109949  0.529175  0.033278  1
  O  O26  1  0.688212  0.947148  0.447740  1
  O  O27  1  0.692617  0.307383  0.447616  1
  O  O28  1  0.052852  0.311788  0.447740  1
  O  O29  1  0.974216  0.666464  0.631880  1
  O  O30  1  0.335290  0.664710  0.642893  1
  O  O31  1  0.333536  0.025784  0.631880  1
  O  O32  1  0.821276  0.818502  0.834688  1
  O  O33  1  0.181498  0.178724  0.834688  1
  O  O34  1  0.827373  0.172627  0.844550  1
  O  O35  1  0.962113  0.682763  0.244258  1
  O  O36  1  0.317237  0.037887  0.244258  1
  O  O37  1  0.959386  0.040614  0.237538  1
  O  O38  1  0.764231  0.235769  0.299639  1
  O  O39  1  0.880848  0.119152  0.685443  1
  F  F40  1  0.427523  0.572477  0.282019  1
  F  F41  1  0.496864  0.503136  0.501539  1
  F  F42  1  0.572087  0.427913  0.711299  1
  F  F43  1  0.636559  0.363441  0.911662  1
  F  F44  1  0.702919  0.297081  0.107830  1
