# generated using pymatgen
data_La(CuSi)2
_symmetry_space_group_name_H-M   'P 1'
_cell_length_a   5.77325479
_cell_length_b   5.77325479
_cell_length_c   5.77325479
_cell_angle_alpha   137.91728254
_cell_angle_beta   137.91728254
_cell_angle_gamma   61.02970781
_symmetry_Int_Tables_number   1
_chemical_formula_structural   La(CuSi)2
_chemical_formula_sum   'La1 Cu2 Si2'
_cell_volume   85.48031922
_cell_formula_units_Z   1
loop_
 _symmetry_equiv_pos_site_id
 _symmetry_equiv_pos_as_xyz
  1  'x, y, z'
loop_
 _atom_site_type_symbol
 _atom_site_label
 _atom_site_symmetry_multiplicity
 _atom_site_fract_x
 _atom_site_fract_y
 _atom_site_fract_z
 _atom_site_occupancy
  La  La0  1  0.000000  0.000000  0.000000  1
  Cu  Cu1  1  0.250000  0.750000  0.500000  1
  Cu  Cu2  1  0.750000  0.250000  0.500000  1
  Si  Si3  1  0.622185  0.622185  0.000000  1
  Si  Si4  1  0.377815  0.377815  0.000000  1
