# generated using pymatgen
data_AgSbSe2
_symmetry_space_group_name_H-M   'P 1'
_cell_length_a   7.14858660
_cell_length_b   7.14858660
_cell_length_c   7.14858660
_cell_angle_alpha   132.66312030
_cell_angle_beta   132.66312030
_cell_angle_gamma   69.18369538
_symmetry_Int_Tables_number   1
_chemical_formula_structural   AgSbSe2
_chemical_formula_sum   'Ag2 Sb2 Se4'
_cell_volume   193.85788549
_cell_formula_units_Z   2
loop_
 _symmetry_equiv_pos_site_id
 _symmetry_equiv_pos_as_xyz
  1  'x, y, z'
loop_
 _atom_site_type_symbol
 _atom_site_label
 _atom_site_symmetry_multiplicity
 _atom_site_fract_x
 _atom_site_fract_y
 _atom_site_fract_z
 _atom_site_occupancy
  Ag  Ag0  1  0.250000  0.750000  0.500000  1
  Ag  Ag1  1  0.500000  0.500000  0.000000  1
  Sb  Sb2  1  0.000000  0.000000  0.000000  1
  Sb  Sb3  1  0.750000  0.250000  0.500000  1
  Se  Se4  1  0.753415  0.753415  0.000000  1
  Se  Se5  1  0.996585  0.496585  0.500000  1
  Se  Se6  1  0.503415  0.003415  0.500000  1
  Se  Se7  1  0.246585  0.246585  0.000000  1
