# generated using pymatgen
data_Sc3(Ga3Fe)2
_symmetry_space_group_name_H-M   'P 1'
_cell_length_a   8.15447946
_cell_length_b   8.42243948
_cell_length_c   10.42789042
_cell_angle_alpha   90.00000000
_cell_angle_beta   90.00000000
_cell_angle_gamma   90.00000000
_symmetry_Int_Tables_number   1
_chemical_formula_structural   Sc3(Ga3Fe)2
_chemical_formula_sum   'Sc12 Ga24 Fe8'
_cell_volume   716.19387238
_cell_formula_units_Z   4
loop_
 _symmetry_equiv_pos_site_id
 _symmetry_equiv_pos_as_xyz
  1  'x, y, z'
loop_
 _atom_site_type_symbol
 _atom_site_label
 _atom_site_symmetry_multiplicity
 _atom_site_fract_x
 _atom_site_fract_y
 _atom_site_fract_z
 _atom_site_occupancy
  Sc  Sc0  1  0.567423  0.947683  0.139885  1
  Sc  Sc1  1  0.539871  0.250000  0.564167  1
  Sc  Sc2  1  0.039871  0.250000  0.935833  1
  Sc  Sc3  1  0.460129  0.750000  0.435833  1
  Sc  Sc4  1  0.960129  0.750000  0.064167  1
  Sc  Sc5  1  0.067423  0.947683  0.360115  1
  Sc  Sc6  1  0.567423  0.552317  0.139885  1
  Sc  Sc7  1  0.932577  0.447683  0.639885  1
  Sc  Sc8  1  0.067423  0.552317  0.360115  1
  Sc  Sc9  1  0.432577  0.052317  0.860115  1
  Sc  Sc10  1  0.432577  0.447683  0.860115  1
  Sc  Sc11  1  0.932577  0.052317  0.639885  1
  Ga  Ga12  1  0.115978  0.588792  0.843556  1
  Ga  Ga13  1  0.115978  0.911208  0.843556  1
  Ga  Ga14  1  0.615978  0.588792  0.656444  1
  Ga  Ga15  1  0.884022  0.411208  0.156444  1
  Ga  Ga16  1  0.295476  0.505718  0.587168  1
  Ga  Ga17  1  0.795476  0.994282  0.912832  1
  Ga  Ga18  1  0.704524  0.005718  0.412832  1
  Ga  Ga19  1  0.204524  0.494282  0.087168  1
  Ga  Ga20  1  0.704524  0.494282  0.412832  1
  Ga  Ga21  1  0.204524  0.005718  0.087168  1
  Ga  Ga22  1  0.295476  0.994282  0.587168  1
  Ga  Ga23  1  0.795476  0.505718  0.912832  1
  Ga  Ga24  1  0.615978  0.911208  0.656444  1
  Ga  Ga25  1  0.884022  0.088792  0.156444  1
  Ga  Ga26  1  0.384022  0.411208  0.343556  1
  Ga  Ga27  1  0.098430  0.750000  0.590809  1
  Ga  Ga28  1  0.598430  0.750000  0.909191  1
  Ga  Ga29  1  0.901570  0.250000  0.409191  1
  Ga  Ga30  1  0.401570  0.250000  0.090809  1
  Ga  Ga31  1  0.779832  0.750000  0.284318  1
  Ga  Ga32  1  0.279832  0.750000  0.215682  1
  Ga  Ga33  1  0.220168  0.250000  0.715682  1
  Ga  Ga34  1  0.720168  0.250000  0.784318  1
  Ga  Ga35  1  0.384022  0.088792  0.343556  1
  Fe  Fe36  1  0.317648  0.750000  0.977700  1
  Fe  Fe37  1  0.817648  0.750000  0.522300  1
  Fe  Fe38  1  0.682352  0.250000  0.022300  1
  Fe  Fe39  1  0.182352  0.250000  0.477700  1
  Fe  Fe40  1  0.362899  0.750000  0.735923  1
  Fe  Fe41  1  0.862899  0.750000  0.764077  1
  Fe  Fe42  1  0.637101  0.250000  0.264077  1
  Fe  Fe43  1  0.137101  0.250000  0.235923  1
