# generated using pymatgen
data_NaBH4
_symmetry_space_group_name_H-M   'P 1'
_cell_length_a   4.33260381
_cell_length_b   4.33260381
_cell_length_c   5.89381969
_cell_angle_alpha   90.00000000
_cell_angle_beta   90.00000000
_cell_angle_gamma   90.00000000
_symmetry_Int_Tables_number   1
_chemical_formula_structural   NaBH4
_chemical_formula_sum   'Na2 B2 H8'
_cell_volume   110.63557565
_cell_formula_units_Z   2
loop_
 _symmetry_equiv_pos_site_id
 _symmetry_equiv_pos_as_xyz
  1  'x, y, z'
loop_
 _atom_site_type_symbol
 _atom_site_label
 _atom_site_symmetry_multiplicity
 _atom_site_fract_x
 _atom_site_fract_y
 _atom_site_fract_z
 _atom_site_occupancy
  Na  Na0  1  0.500000  0.500000  0.500000  1
  Na  Na1  1  0.000000  0.000000  0.000000  1
  B  B2  1  0.500000  0.500000  0.000000  1
  B  B3  1  0.000000  0.000000  0.500000  1
  H  H4  1  0.000000  0.231682  0.380603  1
  H  H5  1  0.000000  0.768318  0.380603  1
  H  H6  1  0.231682  0.000000  0.619397  1
  H  H7  1  0.500000  0.268318  0.119397  1
  H  H8  1  0.268318  0.500000  0.880603  1
  H  H9  1  0.768318  0.000000  0.619397  1
  H  H10  1  0.731682  0.500000  0.880603  1
  H  H11  1  0.500000  0.731682  0.119397  1
