# generated using pymatgen
data_Li7Ti7O16
_symmetry_space_group_name_H-M   'P 1'
_cell_length_a   10.37588542
_cell_length_b   10.37588542
_cell_length_c   10.37588542
_cell_angle_alpha   33.24048275
_cell_angle_beta   33.24048275
_cell_angle_gamma   33.24048275
_symmetry_Int_Tables_number   1
_chemical_formula_structural   Li7Ti7O16
_chemical_formula_sum   'Li7 Ti7 O16'
_cell_volume   298.81252658
_cell_formula_units_Z   1
loop_
 _symmetry_equiv_pos_site_id
 _symmetry_equiv_pos_as_xyz
  1  'x, y, z'
loop_
 _atom_site_type_symbol
 _atom_site_label
 _atom_site_symmetry_multiplicity
 _atom_site_fract_x
 _atom_site_fract_y
 _atom_site_fract_z
 _atom_site_occupancy
  Li  Li0  1  0.516405  0.516405  0.984152  1
  Li  Li1  1  0.516405  0.984152  0.516405  1
  Li  Li2  1  0.001603  0.001603  0.001603  1
  Li  Li3  1  0.183959  0.183959  0.183959  1
  Li  Li4  1  0.984152  0.516405  0.516405  1
  Li  Li5  1  0.811128  0.811128  0.811128  1
  Li  Li6  1  0.266691  0.266691  0.266691  1
  Ti  Ti7  1  0.758021  0.245958  0.245958  1
  Ti  Ti8  1  0.245958  0.245958  0.758021  1
  Ti  Ti9  1  0.245128  0.755748  0.755748  1
  Ti  Ti10  1  0.500527  0.500527  0.500527  1
  Ti  Ti11  1  0.245958  0.758021  0.245958  1
  Ti  Ti12  1  0.755748  0.755748  0.245128  1
  Ti  Ti13  1  0.755748  0.245128  0.755748  1
  O  O14  1  0.890405  0.890405  0.358530  1
  O  O15  1  0.119760  0.119760  0.119760  1
  O  O16  1  0.358530  0.890405  0.890405  1
  O  O17  1  0.890405  0.358530  0.890405  1
  O  O18  1  0.606204  0.161463  0.606204  1
  O  O19  1  0.393478  0.393478  0.850566  1
  O  O20  1  0.379369  0.379369  0.379369  1
  O  O21  1  0.161463  0.606204  0.606204  1
  O  O22  1  0.623838  0.623838  0.623838  1
  O  O23  1  0.850566  0.393478  0.393478  1
  O  O24  1  0.393478  0.850566  0.393478  1
  O  O25  1  0.606204  0.606204  0.161463  1
  O  O26  1  0.114559  0.639915  0.114559  1
  O  O27  1  0.882337  0.882337  0.882337  1
  O  O28  1  0.639915  0.114559  0.114559  1
  O  O29  1  0.114559  0.114559  0.639915  1
