# generated using pymatgen
data_NbGe2
_symmetry_space_group_name_H-M   'P 1'
_cell_length_a   5.01331954
_cell_length_b   5.01331954
_cell_length_c   6.84171179
_cell_angle_alpha   90.00000000
_cell_angle_beta   90.00000000
_cell_angle_gamma   120.00000000
_symmetry_Int_Tables_number   1
_chemical_formula_structural   NbGe2
_chemical_formula_sum   'Nb3 Ge6'
_cell_volume   148.91765215
_cell_formula_units_Z   3
loop_
 _symmetry_equiv_pos_site_id
 _symmetry_equiv_pos_as_xyz
  1  'x, y, z'
loop_
 _atom_site_type_symbol
 _atom_site_label
 _atom_site_symmetry_multiplicity
 _atom_site_fract_x
 _atom_site_fract_y
 _atom_site_fract_z
 _atom_site_occupancy
  Nb  Nb0  1  0.000000  0.500000  0.166667  1
  Nb  Nb1  1  0.500000  0.500000  0.833333  1
  Nb  Nb2  1  0.500000  0.000000  0.500000  1
  Ge  Ge3  1  0.835877  0.671753  0.500000  1
  Ge  Ge4  1  0.164123  0.835877  0.833333  1
  Ge  Ge5  1  0.671753  0.835877  0.166667  1
  Ge  Ge6  1  0.164123  0.328247  0.500000  1
  Ge  Ge7  1  0.835877  0.164123  0.833333  1
  Ge  Ge8  1  0.328247  0.164123  0.166667  1
