# generated using pymatgen
data_Ce2CdSe4
_symmetry_space_group_name_H-M   'P 1'
_cell_length_a   7.78610458
_cell_length_b   7.78610458
_cell_length_c   7.78610458
_cell_angle_alpha   110.90343966
_cell_angle_beta   110.90343966
_cell_angle_gamma   106.64325928
_symmetry_Int_Tables_number   1
_chemical_formula_structural   Ce2CdSe4
_chemical_formula_sum   'Ce4 Cd2 Se8'
_cell_volume   362.70166337
_cell_formula_units_Z   2
loop_
 _symmetry_equiv_pos_site_id
 _symmetry_equiv_pos_as_xyz
  1  'x, y, z'
loop_
 _atom_site_type_symbol
 _atom_site_label
 _atom_site_symmetry_multiplicity
 _atom_site_fract_x
 _atom_site_fract_y
 _atom_site_fract_z
 _atom_site_occupancy
  Ce  Ce0  1  0.238008  0.625000  0.113008  1
  Ce  Ce1  1  0.375000  0.488008  0.613008  1
  Ce  Ce2  1  0.511992  0.125000  0.886992  1
  Ce  Ce3  1  0.875000  0.761992  0.386992  1
  Cd  Cd4  1  0.750000  0.250000  0.500000  1
  Cd  Cd5  1  0.000000  0.000000  0.000000  1
  Se  Se6  1  0.132096  0.754136  0.762359  1
  Se  Se7  1  0.119736  0.241777  0.737641  1
  Se  Se8  1  0.617904  0.880264  0.122041  1
  Se  Se9  1  0.245864  0.008223  0.377959  1
  Se  Se10  1  0.504136  0.382096  0.262359  1
  Se  Se11  1  0.758223  0.495864  0.877959  1
  Se  Se12  1  0.630264  0.867904  0.622041  1
  Se  Se13  1  0.991777  0.369736  0.237641  1
