# generated using pymatgen
data_BaZn5
_symmetry_space_group_name_H-M   'P 1'
_cell_length_a   6.91794948
_cell_length_b   6.91794948
_cell_length_c   5.33743543
_cell_angle_alpha   90.00000000
_cell_angle_beta   90.00000000
_cell_angle_gamma   104.30312955
_symmetry_Int_Tables_number   1
_chemical_formula_structural   BaZn5
_chemical_formula_sum   'Ba2 Zn10'
_cell_volume   247.52107770
_cell_formula_units_Z   2
loop_
 _symmetry_equiv_pos_site_id
 _symmetry_equiv_pos_as_xyz
  1  'x, y, z'
loop_
 _atom_site_type_symbol
 _atom_site_label
 _atom_site_symmetry_multiplicity
 _atom_site_fract_x
 _atom_site_fract_y
 _atom_site_fract_z
 _atom_site_occupancy
  Ba  Ba0  1  0.331622  0.331622  0.750000  1
  Ba  Ba1  1  0.668378  0.668378  0.250000  1
  Zn  Zn2  1  0.794965  0.205035  0.500000  1
  Zn  Zn3  1  0.205035  0.794965  0.000000  1
  Zn  Zn4  1  0.078380  0.078380  0.250000  1
  Zn  Zn5  1  0.921620  0.921620  0.750000  1
  Zn  Zn6  1  0.080534  0.464156  0.250000  1
  Zn  Zn7  1  0.919466  0.535844  0.750000  1
  Zn  Zn8  1  0.464156  0.080534  0.250000  1
  Zn  Zn9  1  0.535844  0.919466  0.750000  1
  Zn  Zn10  1  0.794965  0.205035  0.000000  1
  Zn  Zn11  1  0.205035  0.794965  0.500000  1
