# generated using pymatgen
data_Ca5Au3
_symmetry_space_group_name_H-M   'P 1'
_cell_length_a   9.20085662
_cell_length_b   9.20085662
_cell_length_c   9.20085662
_cell_angle_alpha   129.27201898
_cell_angle_beta   129.27201898
_cell_angle_gamma   74.57327578
_symmetry_Int_Tables_number   1
_chemical_formula_structural   Ca5Au3
_chemical_formula_sum   'Ca10 Au6'
_cell_volume   454.86265389
_cell_formula_units_Z   2
loop_
 _symmetry_equiv_pos_site_id
 _symmetry_equiv_pos_as_xyz
  1  'x, y, z'
loop_
 _atom_site_type_symbol
 _atom_site_label
 _atom_site_symmetry_multiplicity
 _atom_site_fract_x
 _atom_site_fract_y
 _atom_site_fract_z
 _atom_site_occupancy
  Ca  Ca0  1  0.474774  0.974774  0.161467  1
  Ca  Ca1  1  0.186693  0.686693  0.161467  1
  Ca  Ca2  1  0.525226  0.025226  0.838533  1
  Ca  Ca3  1  0.025226  0.186693  0.500000  1
  Ca  Ca4  1  0.686693  0.525226  0.500000  1
  Ca  Ca5  1  0.974774  0.813307  0.500000  1
  Ca  Ca6  1  0.000000  0.000000  0.000000  1
  Ca  Ca7  1  0.500000  0.500000  0.000000  1
  Ca  Ca8  1  0.813307  0.313307  0.838533  1
  Ca  Ca9  1  0.313307  0.474774  0.500000  1
  Au  Au10  1  0.130176  0.630176  0.760351  1
  Au  Au11  1  0.630176  0.869824  0.500000  1
  Au  Au12  1  0.369824  0.130176  0.500000  1
  Au  Au13  1  0.869824  0.369824  0.239649  1
  Au  Au14  1  0.750000  0.750000  0.000000  1
  Au  Au15  1  0.250000  0.250000  0.000000  1
