# generated using pymatgen
data_K3ErCl6
_symmetry_space_group_name_H-M   'P 1'
_cell_length_a   12.79713479
_cell_length_b   7.82128624
_cell_length_c   13.23078262
_cell_angle_alpha   90.00000000
_cell_angle_beta   110.06407930
_cell_angle_gamma   90.00000000
_symmetry_Int_Tables_number   1
_chemical_formula_structural   K3ErCl6
_chemical_formula_sum   'K12 Er4 Cl24'
_cell_volume   1243.89918253
_cell_formula_units_Z   4
loop_
 _symmetry_equiv_pos_site_id
 _symmetry_equiv_pos_as_xyz
  1  'x, y, z'
loop_
 _atom_site_type_symbol
 _atom_site_label
 _atom_site_symmetry_multiplicity
 _atom_site_fract_x
 _atom_site_fract_y
 _atom_site_fract_z
 _atom_site_occupancy
  K  K0  1  0.890440  0.575293  0.176284  1
  K  K1  1  0.609560  0.075293  0.823716  1
  K  K2  1  0.109560  0.424707  0.823716  1
  K  K3  1  0.390440  0.924707  0.176284  1
  K  K4  1  0.732772  0.054077  0.189061  1
  K  K5  1  0.767228  0.554077  0.810939  1
  K  K6  1  0.267228  0.945923  0.810939  1
  K  K7  1  0.232772  0.445923  0.189061  1
  K  K8  1  0.629582  0.463603  0.391316  1
  K  K9  1  0.870418  0.963603  0.608684  1
  K  K10  1  0.370418  0.536397  0.608684  1
  K  K11  1  0.129582  0.036397  0.391316  1
  Er  Er12  1  0.500000  0.000000  0.500000  1
  Er  Er13  1  0.000000  0.500000  0.500000  1
  Er  Er14  1  0.500000  0.500000  0.000000  1
  Er  Er15  1  0.000000  0.000000  0.000000  1
  Cl  Cl16  1  0.350442  0.167845  0.347964  1
  Cl  Cl17  1  0.149558  0.667845  0.652036  1
  Cl  Cl18  1  0.649558  0.832155  0.652036  1
  Cl  Cl19  1  0.850442  0.332155  0.347964  1
  Cl  Cl20  1  0.425973  0.710013  0.393862  1
  Cl  Cl21  1  0.074027  0.210013  0.606138  1
  Cl  Cl22  1  0.574027  0.289987  0.606138  1
  Cl  Cl23  1  0.925973  0.789987  0.393862  1
  Cl  Cl24  1  0.642565  0.032144  0.399945  1
  Cl  Cl25  1  0.857435  0.532144  0.600055  1
  Cl  Cl26  1  0.357435  0.967856  0.600055  1
  Cl  Cl27  1  0.142565  0.467856  0.399945  1
  Cl  Cl28  1  0.606407  0.703241  0.161472  1
  Cl  Cl29  1  0.893593  0.203241  0.838528  1
  Cl  Cl30  1  0.393593  0.296759  0.838528  1
  Cl  Cl31  1  0.106407  0.796759  0.161472  1
  Cl  Cl32  1  0.809553  0.871418  0.003097  1
  Cl  Cl33  1  0.690447  0.371418  0.996903  1
  Cl  Cl34  1  0.190447  0.128582  0.996903  1
  Cl  Cl35  1  0.309553  0.628582  0.003097  1
  Cl  Cl36  1  0.998638  0.771255  0.855316  1
  Cl  Cl37  1  0.501362  0.271255  0.144684  1
  Cl  Cl38  1  0.001362  0.228745  0.144684  1
  Cl  Cl39  1  0.498638  0.728745  0.855316  1
