# generated using pymatgen
data_LaCo13
_symmetry_space_group_name_H-M   'P 1'
_cell_length_a   7.97271933
_cell_length_b   7.97271933
_cell_length_c   7.97271933
_cell_angle_alpha   60.00000000
_cell_angle_beta   60.00000000
_cell_angle_gamma   60.00000000
_symmetry_Int_Tables_number   1
_chemical_formula_structural   LaCo13
_chemical_formula_sum   'La2 Co26'
_cell_volume   358.34754163
_cell_formula_units_Z   2
loop_
 _symmetry_equiv_pos_site_id
 _symmetry_equiv_pos_as_xyz
  1  'x, y, z'
loop_
 _atom_site_type_symbol
 _atom_site_label
 _atom_site_symmetry_multiplicity
 _atom_site_fract_x
 _atom_site_fract_y
 _atom_site_fract_z
 _atom_site_occupancy
  La  La0  1  0.750000  0.750000  0.750000  1
  La  La1  1  0.250000  0.250000  0.250000  1
  Co  Co2  1  0.000000  0.000000  0.000000  1
  Co  Co3  1  0.500000  0.500000  0.500000  1
  Co  Co4  1  0.059560  0.295391  0.704609  1
  Co  Co5  1  0.559560  0.795391  0.440440  1
  Co  Co6  1  0.795391  0.559560  0.204609  1
  Co  Co7  1  0.204609  0.559560  0.440440  1
  Co  Co8  1  0.795391  0.440440  0.559560  1
  Co  Co9  1  0.204609  0.795391  0.559560  1
  Co  Co10  1  0.559560  0.440440  0.204609  1
  Co  Co11  1  0.704609  0.295391  0.940440  1
  Co  Co12  1  0.940440  0.295391  0.059560  1
  Co  Co13  1  0.704609  0.059560  0.295391  1
  Co  Co14  1  0.295391  0.704609  0.059560  1
  Co  Co15  1  0.059560  0.940440  0.295391  1
  Co  Co16  1  0.059560  0.704609  0.940440  1
  Co  Co17  1  0.940440  0.059560  0.704609  1
  Co  Co18  1  0.295391  0.940440  0.704609  1
  Co  Co19  1  0.440440  0.795391  0.204609  1
  Co  Co20  1  0.204609  0.440440  0.795391  1
  Co  Co21  1  0.440440  0.559560  0.795391  1
  Co  Co22  1  0.795391  0.204609  0.440440  1
  Co  Co23  1  0.440440  0.204609  0.559560  1
  Co  Co24  1  0.559560  0.204609  0.795391  1
  Co  Co25  1  0.295391  0.059560  0.940440  1
  Co  Co26  1  0.940440  0.704609  0.295391  1
  Co  Co27  1  0.704609  0.940440  0.059560  1
