# generated using pymatgen
data_Li3Co3(PO4)4
_symmetry_space_group_name_H-M   'P 1'
_cell_length_a   7.58353498
_cell_length_b   7.88955749
_cell_length_c   9.97414836
_cell_angle_alpha   90.00000000
_cell_angle_beta   93.89358006
_cell_angle_gamma   90.00000000
_symmetry_Int_Tables_number   1
_chemical_formula_structural   Li3Co3(PO4)4
_chemical_formula_sum   'Li6 Co6 P8 O32'
_cell_volume   595.38324234
_cell_formula_units_Z   2
loop_
 _symmetry_equiv_pos_site_id
 _symmetry_equiv_pos_as_xyz
  1  'x, y, z'
loop_
 _atom_site_type_symbol
 _atom_site_label
 _atom_site_symmetry_multiplicity
 _atom_site_fract_x
 _atom_site_fract_y
 _atom_site_fract_z
 _atom_site_occupancy
  Li  Li0  1  0.851042  0.140482  0.423554  1
  Li  Li1  1  0.664412  0.867309  0.822952  1
  Li  Li2  1  0.837640  0.138203  0.928497  1
  Li  Li3  1  0.148958  0.640482  0.576446  1
  Li  Li4  1  0.335588  0.367309  0.177048  1
  Li  Li5  1  0.162360  0.638203  0.071503  1
  Co  Co6  1  0.773837  0.510327  0.874781  1
  Co  Co7  1  0.651425  0.853858  0.317586  1
  Co  Co8  1  0.226163  0.010327  0.125219  1
  Co  Co9  1  0.245273  0.993871  0.622366  1
  Co  Co10  1  0.348575  0.353858  0.682414  1
  Co  Co11  1  0.754727  0.493871  0.377634  1
  P  P12  1  0.059114  0.819962  0.855846  1
  P  P13  1  0.561625  0.682313  0.101356  1
  P  P14  1  0.949931  0.301595  0.644101  1
  P  P15  1  0.050069  0.801595  0.355899  1
  P  P16  1  0.553868  0.689357  0.609228  1
  P  P17  1  0.446132  0.189357  0.390772  1
  P  P18  1  0.940886  0.319962  0.144154  1
  P  P19  1  0.438375  0.182313  0.898644  1
  O  O20  1  0.905482  0.939782  0.846460  1
  O  O21  1  0.889397  0.923798  0.350051  1
  O  O22  1  0.599187  0.059547  0.399324  1
  O  O23  1  0.365679  0.187792  0.533704  1
  O  O24  1  0.341379  0.196400  0.028329  1
  O  O25  1  0.400813  0.559547  0.600676  1
  O  O26  1  0.292727  0.144098  0.287970  1
  O  O27  1  0.485474  0.867881  0.643373  1
  O  O28  1  0.865012  0.306933  0.781495  1
  O  O29  1  0.094518  0.439782  0.153540  1
  O  O30  1  0.491621  0.364474  0.843701  1
  O  O31  1  0.658621  0.696400  0.971671  1
  O  O32  1  0.293442  0.146865  0.775074  1
  O  O33  1  0.707273  0.644098  0.712030  1
  O  O34  1  0.208922  0.874248  0.965295  1
  O  O35  1  0.804418  0.357610  0.535958  1
  O  O36  1  0.134988  0.806933  0.218505  1
  O  O37  1  0.110603  0.423798  0.649949  1
  O  O38  1  0.634321  0.687792  0.466296  1
  O  O39  1  0.988795  0.622323  0.399660  1
  O  O40  1  0.791078  0.374248  0.034705  1
  O  O41  1  0.151769  0.812342  0.719304  1
  O  O42  1  0.011205  0.122323  0.600340  1
  O  O43  1  0.988491  0.135568  0.106697  1
  O  O44  1  0.514526  0.367881  0.356627  1
  O  O45  1  0.590516  0.063063  0.907594  1
  O  O46  1  0.508379  0.864474  0.156299  1
  O  O47  1  0.195582  0.857610  0.464042  1
  O  O48  1  0.848231  0.312342  0.280696  1
  O  O49  1  0.409484  0.563063  0.092406  1
  O  O50  1  0.706558  0.646865  0.224926  1
  O  O51  1  0.011509  0.635568  0.893303  1
