# generated using pymatgen
data_La2Au5F21
_symmetry_space_group_name_H-M   'P 1'
_cell_length_a   8.53988277
_cell_length_b   8.53988277
_cell_length_c   26.65907724
_cell_angle_alpha   90.00000000
_cell_angle_beta   90.00000000
_cell_angle_gamma   90.00000000
_symmetry_Int_Tables_number   1
_chemical_formula_structural   La2Au5F21
_chemical_formula_sum   'La8 Au20 F84'
_cell_volume   1944.23577884
_cell_formula_units_Z   4
loop_
 _symmetry_equiv_pos_site_id
 _symmetry_equiv_pos_as_xyz
  1  'x, y, z'
loop_
 _atom_site_type_symbol
 _atom_site_label
 _atom_site_symmetry_multiplicity
 _atom_site_fract_x
 _atom_site_fract_y
 _atom_site_fract_z
 _atom_site_occupancy
  La  La0  1  0.071322  0.448361  0.501831  1
  La  La1  1  0.051639  0.571322  0.751831  1
  La  La2  1  0.948361  0.428678  0.251831  1
  La  La3  1  0.571322  0.051639  0.248169  1
  La  La4  1  0.428678  0.948361  0.748169  1
  La  La5  1  0.928678  0.551639  0.001831  1
  La  La6  1  0.448361  0.071322  0.498169  1
  La  La7  1  0.551639  0.928678  0.998169  1
  Au  Au8  1  0.204062  0.820803  0.889191  1
  Au  Au9  1  0.795938  0.179197  0.389191  1
  Au  Au10  1  0.820803  0.204062  0.110809  1
  Au  Au11  1  0.320803  0.295938  0.639191  1
  Au  Au12  1  0.679197  0.704062  0.139191  1
  Au  Au13  1  0.295938  0.320803  0.360809  1
  Au  Au14  1  0.704062  0.679197  0.860809  1
  Au  Au15  1  0.179197  0.795938  0.610809  1
  Au  Au16  1  0.564611  0.564611  0.500000  1
  Au  Au17  1  0.935389  0.064611  0.750000  1
  Au  Au18  1  0.064611  0.935389  0.250000  1
  Au  Au19  1  0.435389  0.435389  0.000000  1
  Au  Au20  1  0.644647  0.595749  0.655914  1
  Au  Au21  1  0.904251  0.144647  0.905914  1
  Au  Au22  1  0.095749  0.855353  0.405914  1
  Au  Au23  1  0.144647  0.904251  0.094086  1
  Au  Au24  1  0.855353  0.095749  0.594086  1
  Au  Au25  1  0.355353  0.404251  0.155914  1
  Au  Au26  1  0.595749  0.644647  0.344086  1
  Au  Au27  1  0.404251  0.355353  0.844086  1
  F  F28  1  0.580814  0.297978  0.885509  1
  F  F29  1  0.419186  0.702022  0.385509  1
  F  F30  1  0.297978  0.580814  0.114491  1
  F  F31  1  0.797978  0.919186  0.635509  1
  F  F32  1  0.202022  0.080814  0.135509  1
  F  F33  1  0.919186  0.797978  0.364491  1
  F  F34  1  0.080814  0.202022  0.864491  1
  F  F35  1  0.702022  0.419186  0.614491  1
  F  F36  1  0.716575  0.090469  0.055778  1
  F  F37  1  0.283425  0.909531  0.555778  1
  F  F38  1  0.090469  0.716575  0.944222  1
  F  F39  1  0.590469  0.783425  0.805778  1
  F  F40  1  0.409531  0.216575  0.305778  1
  F  F41  1  0.783425  0.590469  0.194222  1
  F  F42  1  0.216575  0.409531  0.694222  1
  F  F43  1  0.909531  0.283425  0.444222  1
  F  F44  1  0.976843  0.858683  0.141266  1
  F  F45  1  0.023157  0.141317  0.641266  1
  F  F46  1  0.858683  0.976843  0.858734  1
  F  F47  1  0.358683  0.523157  0.891266  1
  F  F48  1  0.641317  0.476843  0.391266  1
  F  F49  1  0.523157  0.358683  0.108734  1
  F  F50  1  0.476843  0.641317  0.608734  1
  F  F51  1  0.141317  0.023157  0.358734  1
  F  F52  1  0.312244  0.958696  0.046009  1
  F  F53  1  0.687756  0.041304  0.546009  1
  F  F54  1  0.958696  0.312244  0.953991  1
  F  F55  1  0.541304  0.812244  0.296009  1
  F  F56  1  0.458696  0.187756  0.796009  1
  F  F57  1  0.294324  0.935773  0.247926  1
  F  F58  1  0.705676  0.064227  0.747926  1
  F  F59  1  0.935773  0.294324  0.752074  1
  F  F60  1  0.064227  0.705676  0.252074  1
  F  F61  1  0.564227  0.794324  0.497926  1
  F  F62  1  0.205676  0.435773  0.002074  1
  F  F63  1  0.794324  0.564227  0.502074  1
  F  F64  1  0.200691  0.416776  0.589535  1
  F  F65  1  0.083224  0.700691  0.839535  1
  F  F66  1  0.916776  0.299309  0.339535  1
  F  F67  1  0.700691  0.083224  0.160465  1
  F  F68  1  0.299309  0.916776  0.660465  1
  F  F69  1  0.799309  0.583224  0.089535  1
  F  F70  1  0.416776  0.200691  0.410465  1
  F  F71  1  0.583224  0.799309  0.910465  1
  F  F72  1  0.446612  0.181780  0.689332  1
  F  F73  1  0.318220  0.946612  0.939332  1
  F  F74  1  0.681780  0.053388  0.439332  1
  F  F75  1  0.946612  0.318220  0.060668  1
  F  F76  1  0.053388  0.681780  0.560668  1
  F  F77  1  0.553388  0.818220  0.189332  1
  F  F78  1  0.181780  0.446612  0.310668  1
  F  F79  1  0.818220  0.553388  0.810668  1
  F  F80  1  0.333896  0.567367  0.500042  1
  F  F81  1  0.932633  0.833896  0.750042  1
  F  F82  1  0.067367  0.166104  0.250042  1
  F  F83  1  0.833896  0.932633  0.249958  1
  F  F84  1  0.166104  0.067367  0.749958  1
  F  F85  1  0.666104  0.432633  0.000042  1
  F  F86  1  0.567367  0.333896  0.499958  1
  F  F87  1  0.432633  0.666104  0.999958  1
  F  F88  1  0.184335  0.432490  0.414111  1
  F  F89  1  0.067510  0.684335  0.664111  1
  F  F90  1  0.932490  0.315665  0.164111  1
  F  F91  1  0.684335  0.067510  0.335889  1
  F  F92  1  0.315665  0.932490  0.835889  1
  F  F93  1  0.815665  0.567510  0.914111  1
  F  F94  1  0.432490  0.184335  0.585889  1
  F  F95  1  0.567510  0.815665  0.085889  1
  F  F96  1  0.225640  0.225640  0.500000  1
  F  F97  1  0.274360  0.725640  0.750000  1
  F  F98  1  0.725640  0.274360  0.250000  1
  F  F99  1  0.774360  0.774360  0.000000  1
  F  F100  1  0.917421  0.274889  0.550791  1
  F  F101  1  0.225111  0.417421  0.800791  1
  F  F102  1  0.774889  0.582579  0.300791  1
  F  F103  1  0.417421  0.225111  0.199209  1
  F  F104  1  0.582579  0.774889  0.699209  1
  F  F105  1  0.082579  0.725111  0.050791  1
  F  F106  1  0.274889  0.917421  0.449209  1
  F  F107  1  0.725111  0.082579  0.949209  1
  F  F108  1  0.041304  0.687756  0.453991  1
  F  F109  1  0.812244  0.541304  0.703991  1
  F  F110  1  0.187756  0.458696  0.203991  1
  F  F111  1  0.435773  0.205676  0.997926  1
