# generated using pymatgen
data_Nd2CdS4
_symmetry_space_group_name_H-M   'P 1'
_cell_length_a   7.45417355
_cell_length_b   7.45417355
_cell_length_c   7.45417355
_cell_angle_alpha   110.72169557
_cell_angle_beta   110.72169557
_cell_angle_gamma   106.99821636
_symmetry_Int_Tables_number   1
_chemical_formula_structural   Nd2CdS4
_chemical_formula_sum   'Nd4 Cd2 S8'
_cell_volume   318.39971371
_cell_formula_units_Z   2
loop_
 _symmetry_equiv_pos_site_id
 _symmetry_equiv_pos_as_xyz
  1  'x, y, z'
loop_
 _atom_site_type_symbol
 _atom_site_label
 _atom_site_symmetry_multiplicity
 _atom_site_fract_x
 _atom_site_fract_y
 _atom_site_fract_z
 _atom_site_occupancy
  Nd  Nd0  1  0.236498  0.625000  0.111498  1
  Nd  Nd1  1  0.375000  0.486498  0.611498  1
  Nd  Nd2  1  0.513502  0.125000  0.888502  1
  Nd  Nd3  1  0.875000  0.763502  0.388502  1
  Cd  Cd4  1  0.750000  0.250000  0.500000  1
  Cd  Cd5  1  1.000000  1.000000  0.000000  1
  S  S6  1  0.132404  0.757031  0.764281  1
  S  S7  1  0.242969  0.007250  0.375373  1
  S  S8  1  0.507031  0.382404  0.264281  1
  S  S9  1  0.617596  0.881877  0.124627  1
  S  S10  1  0.757250  0.492969  0.875373  1
  S  S11  1  0.631877  0.867596  0.624627  1
  S  S12  1  0.992750  0.368123  0.235719  1
  S  S13  1  0.118123  0.242750  0.735719  1
