# generated using pymatgen
data_RbTaO3
_symmetry_space_group_name_H-M   'P 1'
_cell_length_a   6.48784019
_cell_length_b   6.48784019
_cell_length_c   8.27244118
_cell_angle_alpha   86.45282242
_cell_angle_beta   93.54717758
_cell_angle_gamma   97.04883572
_symmetry_Int_Tables_number   1
_chemical_formula_structural   RbTaO3
_chemical_formula_sum   'Rb4 Ta4 O12'
_cell_volume   344.39216058
_cell_formula_units_Z   4
loop_
 _symmetry_equiv_pos_site_id
 _symmetry_equiv_pos_as_xyz
  1  'x, y, z'
loop_
 _atom_site_type_symbol
 _atom_site_label
 _atom_site_symmetry_multiplicity
 _atom_site_fract_x
 _atom_site_fract_y
 _atom_site_fract_z
 _atom_site_occupancy
  Rb  Rb0  1  0.336241  0.663759  0.761829  1
  Rb  Rb1  1  0.663759  0.336241  0.238171  1
  Rb  Rb2  1  0.764647  0.764647  0.500000  1
  Rb  Rb3  1  0.235353  0.235353  0.500000  1
  Ta  Ta4  1  0.810663  0.810663  0.000000  1
  Ta  Ta5  1  0.189337  0.189337  0.000000  1
  Ta  Ta6  1  0.259599  0.740401  0.195184  1
  Ta  Ta7  1  0.740401  0.259599  0.804816  1
  O  O8  1  0.877600  0.122400  0.052321  1
  O  O9  1  0.122400  0.877600  0.947679  1
  O  O10  1  0.226110  0.453886  0.102038  1
  O  O11  1  0.453886  0.226110  0.897962  1
  O  O12  1  0.773890  0.546114  0.897962  1
  O  O13  1  0.546114  0.773890  0.102038  1
  O  O14  1  0.670666  0.329334  0.591940  1
  O  O15  1  0.329334  0.670666  0.408060  1
  O  O16  1  0.713909  0.951831  0.789651  1
  O  O17  1  0.951831  0.713909  0.210349  1
  O  O18  1  0.286091  0.048169  0.210349  1
  O  O19  1  0.048169  0.286091  0.789651  1
