# generated using pymatgen
data_K2SnBi
_symmetry_space_group_name_H-M   'P 1'
_cell_length_a   6.64330999
_cell_length_b   6.87695409
_cell_length_c   13.62513986
_cell_angle_alpha   90.00000000
_cell_angle_beta   90.00000000
_cell_angle_gamma   90.00000000
_symmetry_Int_Tables_number   1
_chemical_formula_structural   K2SnBi
_chemical_formula_sum   'K8 Sn4 Bi4'
_cell_volume   622.47456723
_cell_formula_units_Z   4
loop_
 _symmetry_equiv_pos_site_id
 _symmetry_equiv_pos_as_xyz
  1  'x, y, z'
loop_
 _atom_site_type_symbol
 _atom_site_label
 _atom_site_symmetry_multiplicity
 _atom_site_fract_x
 _atom_site_fract_y
 _atom_site_fract_z
 _atom_site_occupancy
  K  K0  1  0.750000  0.388757  0.666563  1
  K  K1  1  0.250000  0.611243  0.333437  1
  K  K2  1  0.750000  0.611243  0.166563  1
  K  K3  1  0.250000  0.158980  0.511020  1
  K  K4  1  0.250000  0.841020  0.011020  1
  K  K5  1  0.750000  0.841020  0.488980  1
  K  K6  1  0.750000  0.158980  0.988980  1
  K  K7  1  0.250000  0.388757  0.833437  1
  Sn  Sn8  1  0.500000  0.094139  0.250000  1
  Sn  Sn9  1  0.000000  0.094139  0.250000  1
  Sn  Sn10  1  0.000000  0.905861  0.750000  1
  Sn  Sn11  1  0.500000  0.905861  0.750000  1
  Bi  Bi12  1  0.250000  0.339539  0.105611  1
  Bi  Bi13  1  0.250000  0.660461  0.605611  1
  Bi  Bi14  1  0.750000  0.660461  0.894389  1
  Bi  Bi15  1  0.750000  0.339539  0.394389  1
