# generated using pymatgen
data_Dy5Bi3
_symmetry_space_group_name_H-M   'P 1'
_cell_length_a   8.26615242
_cell_length_b   9.54730245
_cell_length_c   12.04979016
_cell_angle_alpha   90.00000000
_cell_angle_beta   90.00000000
_cell_angle_gamma   90.00000000
_symmetry_Int_Tables_number   1
_chemical_formula_structural   Dy5Bi3
_chemical_formula_sum   'Dy20 Bi12'
_cell_volume   950.96289942
_cell_formula_units_Z   4
loop_
 _symmetry_equiv_pos_site_id
 _symmetry_equiv_pos_as_xyz
  1  'x, y, z'
loop_
 _atom_site_type_symbol
 _atom_site_label
 _atom_site_symmetry_multiplicity
 _atom_site_fract_x
 _atom_site_fract_y
 _atom_site_fract_z
 _atom_site_occupancy
  Dy  Dy0  1  0.352576  0.750000  0.214818  1
  Dy  Dy1  1  0.852576  0.750000  0.285182  1
  Dy  Dy2  1  0.647424  0.250000  0.785182  1
  Dy  Dy3  1  0.147424  0.250000  0.714818  1
  Dy  Dy4  1  0.692926  0.563530  0.058301  1
  Dy  Dy5  1  0.192926  0.936470  0.441699  1
  Dy  Dy6  1  0.307074  0.063530  0.941699  1
  Dy  Dy7  1  0.807074  0.436470  0.558301  1
  Dy  Dy8  1  0.307074  0.436470  0.941699  1
  Dy  Dy9  1  0.807074  0.063530  0.558301  1
  Dy  Dy10  1  0.692926  0.936470  0.058301  1
  Dy  Dy11  1  0.192926  0.563530  0.441699  1
  Dy  Dy12  1  0.475846  0.250000  0.488394  1
  Dy  Dy13  1  0.975846  0.250000  0.011606  1
  Dy  Dy14  1  0.524154  0.750000  0.511606  1
  Dy  Dy15  1  0.024154  0.750000  0.988394  1
  Dy  Dy16  1  0.312696  0.250000  0.218795  1
  Dy  Dy17  1  0.812696  0.250000  0.281205  1
  Dy  Dy18  1  0.687304  0.750000  0.781205  1
  Dy  Dy19  1  0.187304  0.750000  0.718795  1
  Bi  Bi20  1  0.407406  0.750000  0.956664  1
  Bi  Bi21  1  0.907406  0.750000  0.543336  1
  Bi  Bi22  1  0.592594  0.250000  0.043336  1
  Bi  Bi23  1  0.092594  0.250000  0.456664  1
  Bi  Bi24  1  0.564470  0.995576  0.325310  1
  Bi  Bi25  1  0.064470  0.504424  0.174690  1
  Bi  Bi26  1  0.435530  0.495576  0.674690  1
  Bi  Bi27  1  0.935530  0.004424  0.825310  1
  Bi  Bi28  1  0.435530  0.004424  0.674690  1
  Bi  Bi29  1  0.935530  0.495576  0.825310  1
  Bi  Bi30  1  0.564470  0.504424  0.325310  1
  Bi  Bi31  1  0.064470  0.995576  0.174690  1
