# generated using pymatgen
data_La3TaO7
_symmetry_space_group_name_H-M   'P 1'
_cell_length_a   6.78563333
_cell_length_b   6.78563333
_cell_length_c   7.81800636
_cell_angle_alpha   90.00000000
_cell_angle_beta   90.00000000
_cell_angle_gamma   111.48393943
_symmetry_Int_Tables_number   1
_chemical_formula_structural   La3TaO7
_chemical_formula_sum   'La6 Ta2 O14'
_cell_volume   334.96746931
_cell_formula_units_Z   2
loop_
 _symmetry_equiv_pos_site_id
 _symmetry_equiv_pos_as_xyz
  1  'x, y, z'
loop_
 _atom_site_type_symbol
 _atom_site_label
 _atom_site_symmetry_multiplicity
 _atom_site_fract_x
 _atom_site_fract_y
 _atom_site_fract_z
 _atom_site_occupancy
  La  La0  1  0.000000  0.000000  0.000000  1
  La  La1  1  0.000000  0.000000  0.500000  1
  La  La2  1  0.476912  0.932221  0.750000  1
  La  La3  1  0.523088  0.067779  0.250000  1
  La  La4  1  0.932221  0.476912  0.750000  1
  La  La5  1  0.067779  0.523088  0.250000  1
  Ta  Ta6  1  0.500000  0.500000  0.000000  1
  Ta  Ta7  1  0.500000  0.500000  0.500000  1
  O  O8  1  0.846052  0.106707  0.750000  1
  O  O9  1  0.153948  0.893293  0.250000  1
  O  O10  1  0.106707  0.846052  0.750000  1
  O  O11  1  0.893293  0.153948  0.250000  1
  O  O12  1  0.439117  0.189350  0.967635  1
  O  O13  1  0.560883  0.810650  0.467635  1
  O  O14  1  0.189350  0.439117  0.532365  1
  O  O15  1  0.810650  0.560883  0.032365  1
  O  O16  1  0.438008  0.438008  0.250000  1
  O  O17  1  0.561992  0.561992  0.750000  1
  O  O18  1  0.189350  0.439117  0.967635  1
  O  O19  1  0.810650  0.560883  0.467635  1
  O  O20  1  0.439117  0.189350  0.532365  1
  O  O21  1  0.560883  0.810650  0.032365  1
