# generated using pymatgen
data_Tb10Ti6O27
_symmetry_space_group_name_H-M   'P 1'
_cell_length_a   7.46916911
_cell_length_b   7.46916911
_cell_length_c   12.61817116
_cell_angle_alpha   72.00396273
_cell_angle_beta   107.99603727
_cell_angle_gamma   121.41898005
_symmetry_Int_Tables_number   1
_chemical_formula_structural   Tb10Ti6O27
_chemical_formula_sum   'Tb10 Ti6 O27'
_cell_volume   561.77935178
_cell_formula_units_Z   1
loop_
 _symmetry_equiv_pos_site_id
 _symmetry_equiv_pos_as_xyz
  1  'x, y, z'
loop_
 _atom_site_type_symbol
 _atom_site_label
 _atom_site_symmetry_multiplicity
 _atom_site_fract_x
 _atom_site_fract_y
 _atom_site_fract_z
 _atom_site_occupancy
  Tb  Tb0  1  0.780246  0.727569  0.769197  1
  Tb  Tb1  1  0.272431  0.219754  0.769197  1
  Tb  Tb2  1  0.019338  0.980662  0.502722  1
  Tb  Tb3  1  0.481147  0.518853  0.509046  1
  Tb  Tb4  1  0.249156  0.242648  0.246614  1
  Tb  Tb5  1  0.757352  0.750844  0.246614  1
  Tb  Tb6  1  0.750001  0.249999  0.732563  1
  Tb  Tb7  1  0.017281  0.982719  0.997173  1
  Tb  Tb8  1  0.757009  0.242991  0.224327  1
  Tb  Tb9  1  0.245846  0.754154  0.266804  1
  Ti  Ti10  1  0.020205  0.491380  0.005541  1
  Ti  Ti11  1  0.508620  0.979795  0.005541  1
  Ti  Ti12  1  0.501654  0.498346  0.993311  1
  Ti  Ti13  1  0.248465  0.751535  0.741997  1
  Ti  Ti14  1  0.522299  0.004599  0.495968  1
  Ti  Ti15  1  0.995401  0.477701  0.495968  1
  O  O16  1  0.422259  0.942631  0.637780  1
  O  O17  1  0.767705  0.232295  0.041969  1
  O  O18  1  0.932444  0.067556  0.810412  1
  O  O19  1  0.781359  0.620098  0.962539  1
  O  O20  1  0.057369  0.577741  0.637780  1
  O  O21  1  0.125570  0.302211  0.556117  1
  O  O22  1  0.106378  0.473828  0.182258  1
  O  O23  1  0.404900  0.595100  0.826856  1
  O  O24  1  0.287816  0.712184  0.459979  1
  O  O25  1  0.379902  0.218641  0.962539  1
  O  O26  1  0.088163  0.911837  0.704088  1
  O  O27  1  0.474533  0.036105  0.840651  1
  O  O28  1  0.333390  0.223412  0.435090  1
  O  O29  1  0.564223  0.435777  0.688790  1
  O  O30  1  0.697789  0.874430  0.556117  1
  O  O31  1  0.526172  0.893622  0.182258  1
  O  O32  1  0.936234  0.063766  0.312119  1
  O  O33  1  0.642133  0.820408  0.023549  1
  O  O34  1  0.559194  0.440806  0.157012  1
  O  O35  1  0.776588  0.666610  0.435090  1
  O  O36  1  0.737334  0.262666  0.547741  1
  O  O37  1  0.963895  0.525467  0.840651  1
  O  O38  1  0.923430  0.500180  0.337311  1
  O  O39  1  0.070482  0.929518  0.185251  1
  O  O40  1  0.179592  0.357867  0.023549  1
  O  O41  1  0.499820  0.076570  0.337311  1
  O  O42  1  0.197352  0.802648  0.000113  1
