# generated using pymatgen
data_SrAg2
_symmetry_space_group_name_H-M   'P 1'
_cell_length_a   6.20861059
_cell_length_b   6.20861059
_cell_length_c   6.20861059
_cell_angle_alpha   133.54150434
_cell_angle_beta   102.26005651
_cell_angle_gamma   95.66840136
_symmetry_Int_Tables_number   1
_chemical_formula_structural   SrAg2
_chemical_formula_sum   'Sr2 Ag4'
_cell_volume   159.05480150
_cell_formula_units_Z   2
loop_
 _symmetry_equiv_pos_site_id
 _symmetry_equiv_pos_as_xyz
  1  'x, y, z'
loop_
 _atom_site_type_symbol
 _atom_site_label
 _atom_site_symmetry_multiplicity
 _atom_site_fract_x
 _atom_site_fract_y
 _atom_site_fract_z
 _atom_site_occupancy
  Sr  Sr0  1  0.292496  0.042496  0.750000  1
  Sr  Sr1  1  0.707504  0.957504  0.250000  1
  Ag  Ag2  1  0.282864  0.336407  0.446457  1
  Ag  Ag3  1  0.717136  0.663593  0.553543  1
  Ag  Ag4  1  0.889950  0.336407  0.053543  1
  Ag  Ag5  1  0.110050  0.663593  0.946457  1
