# generated using pymatgen
data_Li2CdCl4
_symmetry_space_group_name_H-M   'P 1'
_cell_length_a   7.58454978
_cell_length_b   7.58454978
_cell_length_c   7.58454978
_cell_angle_alpha   120.01097323
_cell_angle_beta   118.41148231
_cell_angle_gamma   91.37716012
_symmetry_Int_Tables_number   1
_chemical_formula_structural   Li2CdCl4
_chemical_formula_sum   'Li4 Cd2 Cl8'
_cell_volume   312.02048302
_cell_formula_units_Z   2
loop_
 _symmetry_equiv_pos_site_id
 _symmetry_equiv_pos_as_xyz
  1  'x, y, z'
loop_
 _atom_site_type_symbol
 _atom_site_label
 _atom_site_symmetry_multiplicity
 _atom_site_fract_x
 _atom_site_fract_y
 _atom_site_fract_z
 _atom_site_occupancy
  Li  Li0  1  0.886820  0.636820  0.750000  1
  Li  Li1  1  0.500000  0.000000  0.500000  1
  Li  Li2  1  0.500000  0.500000  0.000000  1
  Li  Li3  1  0.113180  0.363180  0.250000  1
  Cd  Cd4  1  0.500000  0.000000  0.000000  1
  Cd  Cd5  1  0.000000  0.000000  0.500000  1
  Cl  Cl6  1  0.270560  0.753982  0.016578  1
  Cl  Cl7  1  0.743837  0.239139  0.495301  1
  Cl  Cl8  1  0.737404  0.753982  0.483422  1
  Cl  Cl9  1  0.743837  0.748536  0.004699  1
  Cl  Cl10  1  0.256163  0.251464  0.995301  1
  Cl  Cl11  1  0.262596  0.246018  0.516578  1
  Cl  Cl12  1  0.256163  0.760861  0.504699  1
  Cl  Cl13  1  0.729440  0.246018  0.983422  1
