# generated using pymatgen
data_Nd5Si4
_symmetry_space_group_name_H-M   'P 1'
_cell_length_a   7.89445420
_cell_length_b   7.89445420
_cell_length_c   15.13741246
_cell_angle_alpha   90.00000000
_cell_angle_beta   90.00000000
_cell_angle_gamma   90.00000000
_symmetry_Int_Tables_number   1
_chemical_formula_structural   Nd5Si4
_chemical_formula_sum   'Nd20 Si16'
_cell_volume   943.39998201
_cell_formula_units_Z   4
loop_
 _symmetry_equiv_pos_site_id
 _symmetry_equiv_pos_as_xyz
  1  'x, y, z'
loop_
 _atom_site_type_symbol
 _atom_site_label
 _atom_site_symmetry_multiplicity
 _atom_site_fract_x
 _atom_site_fract_y
 _atom_site_fract_z
 _atom_site_occupancy
  Nd  Nd0  1  0.981231  0.872769  0.125967  1
  Nd  Nd1  1  0.481231  0.627231  0.624033  1
  Nd  Nd2  1  0.372769  0.518769  0.875967  1
  Nd  Nd3  1  0.627231  0.481231  0.375967  1
  Nd  Nd4  1  0.018769  0.127231  0.625967  1
  Nd  Nd5  1  0.872769  0.981231  0.874033  1
  Nd  Nd6  1  0.127231  0.018769  0.374033  1
  Nd  Nd7  1  0.518769  0.372769  0.124033  1
  Nd  Nd8  1  0.122747  0.488588  0.448210  1
  Nd  Nd9  1  0.877253  0.511412  0.948210  1
  Nd  Nd10  1  0.488588  0.122747  0.551790  1
  Nd  Nd11  1  0.988588  0.377253  0.198210  1
  Nd  Nd12  1  0.011412  0.622747  0.698210  1
  Nd  Nd13  1  0.377253  0.988588  0.801790  1
  Nd  Nd14  1  0.622747  0.011412  0.301790  1
  Nd  Nd15  1  0.511412  0.877253  0.051790  1
  Nd  Nd16  1  0.808602  0.808602  0.500000  1
  Nd  Nd17  1  0.691398  0.308602  0.750000  1
  Nd  Nd18  1  0.308602  0.691398  0.250000  1
  Nd  Nd19  1  0.191398  0.191398  0.000000  1
  Si  Si20  1  0.787827  0.422574  0.559725  1
  Si  Si21  1  0.212173  0.577426  0.059725  1
  Si  Si22  1  0.422574  0.787827  0.440275  1
  Si  Si23  1  0.922574  0.712173  0.309725  1
  Si  Si24  1  0.077426  0.287827  0.809725  1
  Si  Si25  1  0.712173  0.922574  0.690275  1
  Si  Si26  1  0.287827  0.077426  0.190275  1
  Si  Si27  1  0.577426  0.212173  0.940275  1
  Si  Si28  1  0.305654  0.330569  0.701242  1
  Si  Si29  1  0.694346  0.669431  0.201242  1
  Si  Si30  1  0.330569  0.305654  0.298758  1
  Si  Si31  1  0.830569  0.194346  0.451242  1
  Si  Si32  1  0.169431  0.805654  0.951242  1
  Si  Si33  1  0.194346  0.830569  0.548758  1
  Si  Si34  1  0.805654  0.169431  0.048758  1
  Si  Si35  1  0.669431  0.694346  0.798758  1
