# generated using pymatgen
data_Nd5ErS8
_symmetry_space_group_name_H-M   'P 1'
_cell_length_a   7.39907963
_cell_length_b   7.39907963
_cell_length_c   7.39907963
_cell_angle_alpha   109.70389052
_cell_angle_beta   109.70389052
_cell_angle_gamma   109.00687634
_symmetry_Int_Tables_number   1
_chemical_formula_structural   Nd5ErS8
_chemical_formula_sum   'Nd5 Er1 S8'
_cell_volume   311.80985625
_cell_formula_units_Z   1
loop_
 _symmetry_equiv_pos_site_id
 _symmetry_equiv_pos_as_xyz
  1  'x, y, z'
loop_
 _atom_site_type_symbol
 _atom_site_label
 _atom_site_symmetry_multiplicity
 _atom_site_fract_x
 _atom_site_fract_y
 _atom_site_fract_z
 _atom_site_occupancy
  Nd  Nd0  1  0.249110  0.622128  0.123196  1
  Nd  Nd1  1  0.377872  0.501068  0.626982  1
  Nd  Nd2  1  0.498932  0.125914  0.876804  1
  Nd  Nd3  1  0.750000  0.250000  0.500000  1
  Nd  Nd4  1  0.874086  0.750890  0.373018  1
  Er  Er5  1  1.000000  1.000000  0.000000  1
  S  S6  1  0.635144  0.880307  0.612388  1
  S  S7  1  0.267919  0.022755  0.387612  1
  S  S8  1  0.470242  0.373560  0.249014  1
  S  S9  1  0.778772  0.529758  0.903318  1
  S  S10  1  0.626440  0.875454  0.096682  1
  S  S11  1  0.119693  0.732081  0.754837  1
  S  S12  1  0.977245  0.364856  0.245163  1
  S  S13  1  0.124546  0.221228  0.750986  1
