# generated using pymatgen
data_CdGeP2
_symmetry_space_group_name_H-M   'P 1'
_cell_length_a   6.85419226
_cell_length_b   6.85419226
_cell_length_c   6.85419226
_cell_angle_alpha   129.83833103
_cell_angle_beta   129.83833103
_cell_angle_gamma   73.66535156
_symmetry_Int_Tables_number   1
_chemical_formula_structural   CdGeP2
_chemical_formula_sum   'Cd2 Ge2 P4'
_cell_volume   185.24645910
_cell_formula_units_Z   2
loop_
 _symmetry_equiv_pos_site_id
 _symmetry_equiv_pos_as_xyz
  1  'x, y, z'
loop_
 _atom_site_type_symbol
 _atom_site_label
 _atom_site_symmetry_multiplicity
 _atom_site_fract_x
 _atom_site_fract_y
 _atom_site_fract_z
 _atom_site_occupancy
  Cd  Cd0  1  0.000000  0.000000  0.000000  1
  Cd  Cd1  1  0.750000  0.250000  0.500000  1
  Ge  Ge2  1  0.250000  0.750000  0.500000  1
  Ge  Ge3  1  0.500000  0.500000  0.000000  1
  P  P4  1  0.592373  0.625000  0.467373  1
  P  P5  1  0.375000  0.842373  0.967373  1
  P  P6  1  0.157627  0.125000  0.532627  1
  P  P7  1  0.875000  0.407627  0.032627  1
