# generated using pymatgen
data_La5SmS8
_symmetry_space_group_name_H-M   'P 1'
_cell_length_a   7.53539681
_cell_length_b   7.53539681
_cell_length_c   7.53539681
_cell_angle_alpha   109.48380837
_cell_angle_beta   109.48380837
_cell_angle_gamma   109.44604809
_symmetry_Int_Tables_number   1
_chemical_formula_structural   La5SmS8
_chemical_formula_sum   'La5 Sm1 S8'
_cell_volume   329.37939457
_cell_formula_units_Z   1
loop_
 _symmetry_equiv_pos_site_id
 _symmetry_equiv_pos_as_xyz
  1  'x, y, z'
loop_
 _atom_site_type_symbol
 _atom_site_label
 _atom_site_symmetry_multiplicity
 _atom_site_fract_x
 _atom_site_fract_y
 _atom_site_fract_z
 _atom_site_occupancy
  La  La0  1  0.502270  0.126023  0.877567  1
  La  La1  1  0.750000  0.250000  0.500000  1
  La  La2  1  0.248456  0.624703  0.122433  1
  La  La3  1  0.375297  0.497730  0.623753  1
  La  La4  1  0.873977  0.751544  0.376247  1
  Sm  Sm5  1  1.000000  1.000000  0.000000  1
  S  S6  1  0.627697  0.876236  0.098046  1
  S  S7  1  0.629247  0.877442  0.605177  1
  S  S8  1  0.975931  0.370753  0.248196  1
  S  S9  1  0.272265  0.024069  0.394823  1
  S  S10  1  0.470349  0.372303  0.248539  1
  S  S11  1  0.123764  0.221810  0.751461  1
  S  S12  1  0.778190  0.529651  0.901954  1
  S  S13  1  0.122558  0.727735  0.751805  1
