# generated using pymatgen
data_Ba(GeRu)2
_symmetry_space_group_name_H-M   'P 1'
_cell_length_a   8.34069283
_cell_length_b   7.18730709
_cell_length_c   6.23273283
_cell_angle_alpha   76.48547520
_cell_angle_beta   56.91435754
_cell_angle_gamma   46.60016726
_symmetry_Int_Tables_number   1
_chemical_formula_structural   Ba(GeRu)2
_chemical_formula_sum   'Ba2 Ge4 Ru4'
_cell_volume   221.23679405
_cell_formula_units_Z   2
loop_
 _symmetry_equiv_pos_site_id
 _symmetry_equiv_pos_as_xyz
  1  'x, y, z'
loop_
 _atom_site_type_symbol
 _atom_site_label
 _atom_site_symmetry_multiplicity
 _atom_site_fract_x
 _atom_site_fract_y
 _atom_site_fract_z
 _atom_site_occupancy
  Ba  Ba0  1  0.500000  0.500000  0.500000  1
  Ba  Ba1  1  0.750000  0.750000  0.750000  1
  Ge  Ge2  1  0.176842  0.823158  0.176842  1
  Ge  Ge3  1  0.823158  0.176842  0.823158  1
  Ge  Ge4  1  0.073158  0.426842  0.073158  1
  Ge  Ge5  1  0.426842  0.073158  0.426842  1
  Ru  Ru6  1  0.877047  0.877047  0.122953  1
  Ru  Ru7  1  0.122953  0.122953  0.877047  1
  Ru  Ru8  1  0.127047  0.127047  0.372953  1
  Ru  Ru9  1  0.372953  0.372953  0.127047  1
