# generated using pymatgen
data_BaUS3
_symmetry_space_group_name_H-M   'P 1'
_cell_length_a   7.26197928
_cell_length_b   7.49293331
_cell_length_c   10.39596009
_cell_angle_alpha   90.00000000
_cell_angle_beta   90.00000000
_cell_angle_gamma   90.00000000
_symmetry_Int_Tables_number   1
_chemical_formula_structural   BaUS3
_chemical_formula_sum   'Ba4 U4 S12'
_cell_volume   565.68084926
_cell_formula_units_Z   4
loop_
 _symmetry_equiv_pos_site_id
 _symmetry_equiv_pos_as_xyz
  1  'x, y, z'
loop_
 _atom_site_type_symbol
 _atom_site_label
 _atom_site_symmetry_multiplicity
 _atom_site_fract_x
 _atom_site_fract_y
 _atom_site_fract_z
 _atom_site_occupancy
  Ba  Ba0  1  0.985091  0.056528  0.250000  1
  Ba  Ba1  1  0.485091  0.443472  0.750000  1
  Ba  Ba2  1  0.514909  0.556528  0.250000  1
  Ba  Ba3  1  0.014909  0.943472  0.750000  1
  U  U4  1  0.500000  0.000000  0.000000  1
  U  U5  1  0.000000  0.500000  0.000000  1
  U  U6  1  0.000000  0.500000  0.500000  1
  U  U7  1  0.500000  0.000000  0.500000  1
  S  S8  1  0.706635  0.292731  0.456186  1
  S  S9  1  0.206635  0.207269  0.543814  1
  S  S10  1  0.793365  0.792731  0.043814  1
  S  S11  1  0.293365  0.707269  0.956186  1
  S  S12  1  0.293365  0.707269  0.543814  1
  S  S13  1  0.793365  0.792731  0.456186  1
  S  S14  1  0.206635  0.207269  0.956186  1
  S  S15  1  0.706635  0.292731  0.043814  1
  S  S16  1  0.082300  0.479411  0.250000  1
  S  S17  1  0.582300  0.020589  0.750000  1
  S  S18  1  0.417700  0.979411  0.250000  1
  S  S19  1  0.917700  0.520589  0.750000  1
