# generated using pymatgen
data_SrCuSn2
_symmetry_space_group_name_H-M   'P 1'
_cell_length_a   10.06565214
_cell_length_b   10.06565214
_cell_length_c   4.57739355
_cell_angle_alpha   90.00000000
_cell_angle_beta   90.00000000
_cell_angle_gamma   153.36434094
_symmetry_Int_Tables_number   1
_chemical_formula_structural   SrCuSn2
_chemical_formula_sum   'Sr2 Cu2 Sn4'
_cell_volume   207.91500675
_cell_formula_units_Z   2
loop_
 _symmetry_equiv_pos_site_id
 _symmetry_equiv_pos_as_xyz
  1  'x, y, z'
loop_
 _atom_site_type_symbol
 _atom_site_label
 _atom_site_symmetry_multiplicity
 _atom_site_fract_x
 _atom_site_fract_y
 _atom_site_fract_z
 _atom_site_occupancy
  Sr  Sr0  1  0.608089  0.391911  0.750000  1
  Sr  Sr1  1  0.391911  0.608089  0.250000  1
  Cu  Cu2  1  0.824841  0.175159  0.750000  1
  Cu  Cu3  1  0.175159  0.824841  0.250000  1
  Sn  Sn4  1  0.750346  0.249654  0.250000  1
  Sn  Sn5  1  0.043255  0.956745  0.250000  1
  Sn  Sn6  1  0.249654  0.750346  0.750000  1
  Sn  Sn7  1  0.956745  0.043255  0.750000  1
