# generated using pymatgen
data_Zn2GeSe4
_symmetry_space_group_name_H-M   'P 1'
_cell_length_a   6.74705374
_cell_length_b   6.74705374
_cell_length_c   6.74705374
_cell_angle_alpha   129.32530059
_cell_angle_beta   129.32530059
_cell_angle_gamma   74.48771150
_symmetry_Int_Tables_number   1
_chemical_formula_structural   Zn2GeSe4
_chemical_formula_sum   'Zn2 Ge1 Se4'
_cell_volume   179.11513666
_cell_formula_units_Z   1
loop_
 _symmetry_equiv_pos_site_id
 _symmetry_equiv_pos_as_xyz
  1  'x, y, z'
loop_
 _atom_site_type_symbol
 _atom_site_label
 _atom_site_symmetry_multiplicity
 _atom_site_fract_x
 _atom_site_fract_y
 _atom_site_fract_z
 _atom_site_occupancy
  Zn  Zn0  1  0.750000  0.250000  0.500000  1
  Zn  Zn1  1  0.250000  0.750000  0.500000  1
  Ge  Ge2  1  0.500000  0.500000  0.000000  1
  Se  Se3  1  0.868603  0.364823  1.000000  1
  Se  Se4  1  0.131397  0.131397  0.496220  1
  Se  Se5  1  0.364823  0.868603  0.000000  1
  Se  Se6  1  0.635177  0.635177  0.503780  1
