# generated using pymatgen
data_Na(Pr2Se3)4
_symmetry_space_group_name_H-M   'P 1'
_cell_length_a   14.97720212
_cell_length_b   14.97720212
_cell_length_c   14.97720212
_cell_angle_alpha   144.99042668
_cell_angle_beta   144.99042668
_cell_angle_gamma   50.34879106
_symmetry_Int_Tables_number   1
_chemical_formula_structural   Na(Pr2Se3)4
_chemical_formula_sum   'Na2 Pr16 Se24'
_cell_volume   1100.32918780
_cell_formula_units_Z   2
loop_
 _symmetry_equiv_pos_site_id
 _symmetry_equiv_pos_as_xyz
  1  'x, y, z'
loop_
 _atom_site_type_symbol
 _atom_site_label
 _atom_site_symmetry_multiplicity
 _atom_site_fract_x
 _atom_site_fract_y
 _atom_site_fract_z
 _atom_site_occupancy
  Na  Na0  1  0.750000  0.250000  0.500000  1
  Na  Na1  1  0.000000  0.000000  0.000000  1
  Pr  Pr2  1  0.080721  0.962991  0.624874  1
  Pr  Pr3  1  0.544153  0.919279  0.882271  1
  Pr  Pr4  1  0.332583  0.332583  0.000000  1
  Pr  Pr5  1  0.994882  0.125000  0.369882  1
  Pr  Pr6  1  0.755118  0.625000  0.630118  1
  Pr  Pr7  1  0.037009  0.661882  0.117729  1
  Pr  Pr8  1  0.417417  0.917417  0.500000  1
  Pr  Pr9  1  0.205847  0.588118  0.875126  1
  Pr  Pr10  1  0.669279  0.794153  0.382271  1
  Pr  Pr11  1  0.411882  0.287009  0.617729  1
  Pr  Pr12  1  0.712991  0.330721  0.124874  1
  Pr  Pr13  1  0.082583  0.582583  0.500000  1
  Pr  Pr14  1  0.875000  0.244882  0.869882  1
  Pr  Pr15  1  0.338118  0.455847  0.375126  1
  Pr  Pr16  1  0.667417  0.667417  0.000000  1
  Pr  Pr17  1  0.375000  0.005118  0.130118  1
  Se  Se18  1  0.688299  0.591624  0.747886  1
  Se  Se19  1  0.408376  0.156262  0.096675  1
  Se  Se20  1  0.059587  0.311701  0.903325  1
  Se  Se21  1  0.673468  0.279030  0.247038  1
  Se  Se22  1  0.031991  0.426430  0.752962  1
  Se  Se23  1  0.843738  0.940413  0.252114  1
  Se  Se24  1  0.242843  0.991355  0.600491  1
  Se  Se25  1  0.359137  0.258645  0.751488  1
  Se  Se26  1  0.076532  0.823570  0.105561  1
  Se  Se27  1  0.390863  0.642352  0.399509  1
  Se  Se28  1  0.718009  0.970970  0.894439  1
  Se  Se29  1  0.341624  0.938299  0.247886  1
  Se  Se30  1  0.690413  0.093738  0.752114  1
  Se  Se31  1  0.507157  0.607648  0.248512  1
  Se  Se32  1  0.906262  0.658376  0.596675  1
  Se  Se33  1  0.029030  0.923468  0.747038  1
  Se  Se34  1  0.741355  0.492843  0.100491  1
  Se  Se35  1  0.061701  0.309587  0.403325  1
  Se  Se36  1  0.392352  0.640863  0.899509  1
  Se  Se37  1  0.008645  0.609137  0.251488  1
  Se  Se38  1  0.357648  0.757157  0.748512  1
  Se  Se39  1  0.176430  0.281991  0.252962  1
  Se  Se40  1  0.573570  0.326532  0.605561  1
  Se  Se41  1  0.720970  0.968009  0.394439  1
