# generated using pymatgen
data_Tm2Se3
_symmetry_space_group_name_H-M   'P 1'
_cell_length_a   14.28535544
_cell_length_b   14.28535544
_cell_length_c   14.28535544
_cell_angle_alpha   144.92473720
_cell_angle_beta   144.92473720
_cell_angle_gamma   50.44669721
_symmetry_Int_Tables_number   1
_chemical_formula_structural   Tm2Se3
_chemical_formula_sum   'Tm16 Se24'
_cell_volume   957.86934236
_cell_formula_units_Z   8
loop_
 _symmetry_equiv_pos_site_id
 _symmetry_equiv_pos_as_xyz
  1  'x, y, z'
loop_
 _atom_site_type_symbol
 _atom_site_label
 _atom_site_symmetry_multiplicity
 _atom_site_fract_x
 _atom_site_fract_y
 _atom_site_fract_z
 _atom_site_occupancy
  Tm  Tm0  1  0.173290  0.299749  0.395765  1
  Tm  Tm1  1  0.903985  0.777526  0.604235  1
  Tm  Tm2  1  0.584699  0.084699  0.500000  1
  Tm  Tm3  1  0.375000  0.739187  0.864187  1
  Tm  Tm4  1  0.846015  0.950251  0.373541  1
  Tm  Tm5  1  0.165301  0.165301  0.000000  1
  Tm  Tm6  1  0.875000  0.510813  0.135813  1
  Tm  Tm7  1  0.576710  0.472474  0.626459  1
  Tm  Tm8  1  0.049749  0.423290  0.895765  1
  Tm  Tm9  1  0.489187  0.625000  0.364187  1
  Tm  Tm10  1  0.834699  0.834699  0.000000  1
  Tm  Tm11  1  0.260813  0.125000  0.635813  1
  Tm  Tm12  1  0.527526  0.153985  0.104235  1
  Tm  Tm13  1  0.915301  0.415301  0.500000  1
  Tm  Tm14  1  0.700251  0.096015  0.873541  1
  Tm  Tm15  1  0.222474  0.826710  0.126459  1
  Se  Se16  1  0.883787  0.127723  0.881064  1
  Se  Se17  1  0.537800  0.422319  0.747740  1
  Se  Se18  1  0.246659  0.002723  0.118936  1
  Se  Se19  1  0.503341  0.122277  0.256064  1
  Se  Se20  1  0.866213  0.247277  0.743936  1
  Se  Se21  1  0.212200  0.459941  0.384519  1
  Se  Se22  1  0.674578  0.790059  0.252260  1
  Se  Se23  1  0.553599  0.811380  0.900119  1
  Se  Se24  1  0.075422  0.827681  0.615481  1
  Se  Se25  1  0.188620  0.088739  0.742219  1
  Se  Se26  1  0.911261  0.653480  0.099881  1
  Se  Se27  1  0.172319  0.787800  0.247740  1
  Se  Se28  1  0.540059  0.924578  0.752260  1
  Se  Se29  1  0.877723  0.133787  0.381064  1
  Se  Se30  1  0.346520  0.446401  0.257781  1
  Se  Se31  1  0.209941  0.462200  0.884519  1
  Se  Se32  1  0.752723  0.496659  0.618936  1
  Se  Se33  1  0.872277  0.753341  0.756064  1
  Se  Se34  1  0.577681  0.325422  0.115481  1
  Se  Se35  1  0.838739  0.438620  0.242219  1
  Se  Se36  1  0.196401  0.596520  0.757781  1
  Se  Se37  1  0.997277  0.116213  0.243936  1
  Se  Se38  1  0.561380  0.803599  0.400119  1
  Se  Se39  1  0.403480  0.161261  0.599881  1
