# generated using pymatgen
data_CoPO4
_symmetry_space_group_name_H-M   'P 1'
_cell_length_a   7.44303373
_cell_length_b   7.44303373
_cell_length_c   9.37266362
_cell_angle_alpha   90.00000000
_cell_angle_beta   90.00000000
_cell_angle_gamma   120.00000000
_symmetry_Int_Tables_number   1
_chemical_formula_structural   CoPO4
_chemical_formula_sum   'Co6 P6 O24'
_cell_volume   449.66971203
_cell_formula_units_Z   6
loop_
 _symmetry_equiv_pos_site_id
 _symmetry_equiv_pos_as_xyz
  1  'x, y, z'
loop_
 _atom_site_type_symbol
 _atom_site_label
 _atom_site_symmetry_multiplicity
 _atom_site_fract_x
 _atom_site_fract_y
 _atom_site_fract_z
 _atom_site_occupancy
  Co  Co0  1  0.066045  0.622119  0.462313  1
  Co  Co1  1  0.443926  0.377881  0.962313  1
  Co  Co2  1  0.377881  0.443926  0.462313  1
  Co  Co3  1  0.622119  0.066045  0.962313  1
  Co  Co4  1  0.933955  0.556074  0.962313  1
  Co  Co5  1  0.556074  0.933955  0.462313  1
  P  P6  1  0.666667  0.333333  0.663664  1
  P  P7  1  0.333333  0.666667  0.776987  1
  P  P8  1  0.000000  0.000000  0.016282  1
  P  P9  1  0.666667  0.333333  0.276987  1
  P  P10  1  0.000000  0.000000  0.516282  1
  P  P11  1  0.333333  0.666667  0.163664  1
  O  O12  1  0.227961  0.117074  0.952218  1
  O  O13  1  0.421035  0.892733  0.829823  1
  O  O14  1  0.528302  0.107267  0.329823  1
  O  O15  1  0.110887  0.882926  0.452218  1
  O  O16  1  0.772039  0.889113  0.452218  1
  O  O17  1  0.889113  0.772039  0.952218  1
  O  O18  1  0.107267  0.528302  0.829823  1
  O  O19  1  0.333333  0.666667  0.606690  1
  O  O20  1  0.651594  0.130375  0.615717  1
  O  O21  1  0.666667  0.333333  0.836116  1
  O  O22  1  0.000000  0.000000  0.675153  1
  O  O23  1  0.892733  0.421035  0.329823  1
  O  O24  1  0.666667  0.333333  0.106690  1
  O  O25  1  0.521219  0.869625  0.115717  1
  O  O26  1  0.869625  0.521219  0.615717  1
  O  O27  1  0.471698  0.578965  0.829823  1
  O  O28  1  0.478781  0.348406  0.615717  1
  O  O29  1  0.578965  0.471698  0.329823  1
  O  O30  1  0.333333  0.666667  0.336116  1
  O  O31  1  0.117074  0.227961  0.452218  1
  O  O32  1  0.000000  0.000000  0.175153  1
  O  O33  1  0.882926  0.110887  0.952218  1
  O  O34  1  0.348406  0.478781  0.115717  1
  O  O35  1  0.130375  0.651594  0.115717  1
