# generated using pymatgen
data_Sc2Ni12P7
_symmetry_space_group_name_H-M   'P 1'
_cell_length_a   8.97868187
_cell_length_b   8.97868187
_cell_length_c   3.59498409
_cell_angle_alpha   90.00000000
_cell_angle_beta   90.00000000
_cell_angle_gamma   120.00000000
_symmetry_Int_Tables_number   1
_chemical_formula_structural   Sc2Ni12P7
_chemical_formula_sum   'Sc2 Ni12 P7'
_cell_volume   250.98789283
_cell_formula_units_Z   1
loop_
 _symmetry_equiv_pos_site_id
 _symmetry_equiv_pos_as_xyz
  1  'x, y, z'
loop_
 _atom_site_type_symbol
 _atom_site_label
 _atom_site_symmetry_multiplicity
 _atom_site_fract_x
 _atom_site_fract_y
 _atom_site_fract_z
 _atom_site_occupancy
  Sc  Sc0  1  0.666667  0.333333  0.500000  1
  Sc  Sc1  1  0.333333  0.666667  0.000000  1
  Ni  Ni2  1  0.383261  0.433856  0.500000  1
  Ni  Ni3  1  0.050595  0.616739  0.500000  1
  Ni  Ni4  1  0.219859  0.093843  0.500000  1
  Ni  Ni5  1  0.873984  0.780141  0.500000  1
  Ni  Ni6  1  0.906157  0.126016  0.500000  1
  Ni  Ni7  1  0.723627  0.878527  0.000000  1
  Ni  Ni8  1  0.121473  0.845099  0.000000  1
  Ni  Ni9  1  0.154901  0.276373  0.000000  1
  Ni  Ni10  1  0.937196  0.373015  0.000000  1
  Ni  Ni11  1  0.626985  0.564182  0.000000  1
  Ni  Ni12  1  0.435818  0.062804  0.000000  1
  Ni  Ni13  1  0.566144  0.949405  0.500000  1
  P  P14  1  0.000000  0.000000  0.000000  1
  P  P15  1  0.412461  0.293881  0.000000  1
  P  P16  1  0.588235  0.706388  0.500000  1
  P  P17  1  0.293612  0.881847  0.500000  1
  P  P18  1  0.118153  0.411765  0.500000  1
  P  P19  1  0.706119  0.118580  0.000000  1
  P  P20  1  0.881420  0.587539  0.000000  1
