# generated using pymatgen
data_LiMn(PO3)4
_symmetry_space_group_name_H-M   'P 1'
_cell_length_a   7.27137775
_cell_length_b   9.30121884
_cell_length_c   7.56878259
_cell_angle_alpha   90.00000000
_cell_angle_beta   109.27710368
_cell_angle_gamma   90.00000000
_symmetry_Int_Tables_number   1
_chemical_formula_structural   LiMn(PO3)4
_chemical_formula_sum   'Li2 Mn2 P8 O24'
_cell_volume   483.19646530
_cell_formula_units_Z   2
loop_
 _symmetry_equiv_pos_site_id
 _symmetry_equiv_pos_as_xyz
  1  'x, y, z'
loop_
 _atom_site_type_symbol
 _atom_site_label
 _atom_site_symmetry_multiplicity
 _atom_site_fract_x
 _atom_site_fract_y
 _atom_site_fract_z
 _atom_site_occupancy
  Li  Li0  1  0.125677  0.662065  0.916637  1
  Li  Li1  1  0.874323  0.162065  0.083363  1
  Mn  Mn2  1  0.745722  0.501767  0.746141  1
  Mn  Mn3  1  0.254278  0.001767  0.253859  1
  P  P4  1  0.405094  0.793885  0.623732  1
  P  P5  1  0.895947  0.706239  0.131286  1
  P  P6  1  0.104053  0.206239  0.868714  1
  P  P7  1  0.548132  0.910553  0.018926  1
  P  P8  1  0.594906  0.293885  0.376268  1
  P  P9  1  0.058433  0.584542  0.519221  1
  P  P10  1  0.941567  0.084542  0.480779  1
  P  P11  1  0.451868  0.410553  0.981074  1
  O  O12  1  0.945009  0.598427  0.657798  1
  O  O13  1  0.098899  0.128198  0.681358  1
  O  O14  1  0.399822  0.912768  0.486382  1
  O  O15  1  0.600178  0.412768  0.513618  1
  O  O16  1  0.835893  0.951210  0.488781  1
  O  O17  1  0.660789  0.043509  0.019031  1
  O  O18  1  0.943134  0.312023  0.846590  1
  O  O19  1  0.404773  0.872628  0.812859  1
  O  O20  1  0.436335  0.186244  0.337866  1
  O  O21  1  0.339211  0.543509  0.980969  1
  O  O22  1  0.595227  0.372628  0.187141  1
  O  O23  1  0.164107  0.451210  0.511219  1
  O  O24  1  0.582254  0.399943  0.862689  1
  O  O25  1  0.100974  0.091528  0.012764  1
  O  O26  1  0.417746  0.899943  0.137311  1
  O  O27  1  0.899026  0.591528  0.987236  1
  O  O28  1  0.809387  0.227966  0.436438  1
  O  O29  1  0.317245  0.269796  0.932002  1
  O  O30  1  0.054991  0.098427  0.342202  1
  O  O31  1  0.563665  0.686244  0.662134  1
  O  O32  1  0.682755  0.769796  0.067998  1
  O  O33  1  0.190613  0.727966  0.563562  1
  O  O34  1  0.056866  0.812023  0.153410  1
  O  O35  1  0.901101  0.628198  0.318642  1
