# generated using pymatgen
data_Li11(NiO2)12
_symmetry_space_group_name_H-M   'P 1'
_cell_length_a   7.64183255
_cell_length_b   7.64183255
_cell_length_c   9.75054542
_cell_angle_alpha   58.90321297
_cell_angle_beta   121.09678703
_cell_angle_gamma   110.24194258
_symmetry_Int_Tables_number   1
_chemical_formula_structural   Li11(NiO2)12
_chemical_formula_sum   'Li11 Ni12 O24'
_cell_volume   415.07032392
_cell_formula_units_Z   1
loop_
 _symmetry_equiv_pos_site_id
 _symmetry_equiv_pos_as_xyz
  1  'x, y, z'
loop_
 _atom_site_type_symbol
 _atom_site_label
 _atom_site_symmetry_multiplicity
 _atom_site_fract_x
 _atom_site_fract_y
 _atom_site_fract_z
 _atom_site_occupancy
  Li  Li0  1  0.250818  0.749182  0.749721  1
  Li  Li1  1  0.407880  0.918505  0.246108  1
  Li  Li2  1  0.500000  0.500000  0.500000  1
  Li  Li3  1  0.674268  0.674268  0.000000  1
  Li  Li4  1  0.749182  0.250818  0.250279  1
  Li  Li5  1  0.830456  0.830456  0.500000  1
  Li  Li6  1  0.918505  0.407880  0.753892  1
  Li  Li7  1  0.081495  0.592120  0.246108  1
  Li  Li8  1  0.169544  0.169544  0.500000  1
  Li  Li9  1  0.325732  0.325732  0.000000  1
  Li  Li10  1  0.592120  0.081495  0.753892  1
  Ni  Ni11  1  0.124713  0.875287  0.376411  1
  Ni  Ni12  1  0.376564  0.623436  0.127913  1
  Ni  Ni13  1  0.541986  0.789328  0.624527  1
  Ni  Ni14  1  0.623436  0.376564  0.872087  1
  Ni  Ni15  1  0.707472  0.959456  0.123601  1
  Ni  Ni16  1  0.789328  0.541986  0.375473  1
  Ni  Ni17  1  0.875287  0.124713  0.623589  1
  Ni  Ni18  1  0.959456  0.707472  0.876399  1
  Ni  Ni19  1  0.040544  0.292528  0.123601  1
  Ni  Ni20  1  0.210672  0.458014  0.624527  1
  Ni  Ni21  1  0.292528  0.040544  0.876399  1
  Ni  Ni22  1  0.458014  0.210672  0.375473  1
  O  O23  1  0.069798  0.930202  0.708076  1
  O  O24  1  0.318064  0.681936  0.459454  1
  O  O25  1  0.476709  0.860245  0.949513  1
  O  O26  1  0.553309  0.446691  0.190251  1
  O  O27  1  0.368897  0.973035  0.563281  1
  O  O28  1  0.720868  0.609533  0.691603  1
  O  O29  1  0.796796  0.203204  0.933650  1
  O  O30  1  0.609533  0.720868  0.308397  1
  O  O31  1  0.877841  0.763571  0.202680  1
  O  O32  1  0.973035  0.368897  0.436719  1
  O  O33  1  0.763571  0.877841  0.797320  1
  O  O34  1  0.860245  0.476709  0.050487  1
  O  O35  1  0.139755  0.523291  0.949513  1
  O  O36  1  0.236429  0.122159  0.202680  1
  O  O37  1  0.026965  0.631103  0.563281  1
  O  O38  1  0.122159  0.236429  0.797320  1
  O  O39  1  0.390467  0.279132  0.691603  1
  O  O40  1  0.203204  0.796796  0.066350  1
  O  O41  1  0.279132  0.390467  0.308397  1
  O  O42  1  0.631103  0.026965  0.436719  1
  O  O43  1  0.446691  0.553309  0.809749  1
  O  O44  1  0.523291  0.139755  0.050487  1
  O  O45  1  0.681936  0.318064  0.540546  1
  O  O46  1  0.930202  0.069798  0.291924  1
