# generated using pymatgen
data_Na3As7
_symmetry_space_group_name_H-M   'P 1'
_cell_length_a   14.47755301
_cell_length_b   11.08950709
_cell_length_c   15.79946235
_cell_angle_alpha   90.00000000
_cell_angle_beta   115.83435828
_cell_angle_gamma   90.00000000
_symmetry_Int_Tables_number   1
_chemical_formula_structural   Na3As7
_chemical_formula_sum   'Na24 As56'
_cell_volume   2283.07420182
_cell_formula_units_Z   8
loop_
 _symmetry_equiv_pos_site_id
 _symmetry_equiv_pos_as_xyz
  1  'x, y, z'
loop_
 _atom_site_type_symbol
 _atom_site_label
 _atom_site_symmetry_multiplicity
 _atom_site_fract_x
 _atom_site_fract_y
 _atom_site_fract_z
 _atom_site_occupancy
  Na  Na0  1  0.431026  0.293280  0.285011  1
  Na  Na1  1  0.068974  0.793280  0.714989  1
  Na  Na2  1  0.568974  0.706720  0.714989  1
  Na  Na3  1  0.931026  0.206720  0.285011  1
  Na  Na4  1  0.651671  0.800627  0.209862  1
  Na  Na5  1  0.848329  0.300627  0.790138  1
  Na  Na6  1  0.348329  0.199373  0.790138  1
  Na  Na7  1  0.151671  0.699373  0.209862  1
  Na  Na8  1  0.632251  0.441287  0.931600  1
  Na  Na9  1  0.867749  0.941287  0.068400  1
  Na  Na10  1  0.367749  0.558713  0.068400  1
  Na  Na11  1  0.132251  0.058713  0.931600  1
  Na  Na12  1  0.303318  0.434522  0.438485  1
  Na  Na13  1  0.196682  0.934522  0.561515  1
  Na  Na14  1  0.696682  0.565478  0.561515  1
  Na  Na15  1  0.803318  0.065478  0.438485  1
  Na  Na16  1  0.981282  0.457357  0.102592  1
  Na  Na17  1  0.518718  0.957357  0.897408  1
  Na  Na18  1  0.018718  0.542643  0.897408  1
  Na  Na19  1  0.481282  0.042643  0.102592  1
  Na  Na20  1  0.873796  0.538067  0.398415  1
  Na  Na21  1  0.626204  0.038067  0.601585  1
  Na  Na22  1  0.126204  0.461933  0.601585  1
  Na  Na23  1  0.373796  0.961933  0.398415  1
  As  As24  1  0.680176  0.660639  0.378834  1
  As  As25  1  0.459310  0.220383  0.484101  1
  As  As26  1  0.959310  0.279617  0.484101  1
  As  As27  1  0.540690  0.779617  0.515899  1
  As  As28  1  0.208045  0.345603  0.058239  1
  As  As29  1  0.291955  0.845603  0.941761  1
  As  As30  1  0.791955  0.654397  0.941761  1
  As  As31  1  0.708045  0.154397  0.058239  1
  As  As32  1  0.205955  0.070999  0.193666  1
  As  As33  1  0.294045  0.570999  0.806334  1
  As  As34  1  0.794045  0.929001  0.806334  1
  As  As35  1  0.705955  0.429001  0.193666  1
  As  As36  1  0.150554  0.252797  0.258167  1
  As  As37  1  0.349446  0.752797  0.741833  1
  As  As38  1  0.849446  0.747203  0.741833  1
  As  As39  1  0.650554  0.247203  0.258167  1
  As  As40  1  0.040690  0.720383  0.515899  1
  As  As41  1  0.474647  0.652596  0.893011  1
  As  As42  1  0.974647  0.847404  0.893011  1
  As  As43  1  0.525353  0.347404  0.106989  1
  As  As44  1  0.298031  0.155168  0.112801  1
  As  As45  1  0.201969  0.655168  0.887199  1
  As  As46  1  0.701969  0.844832  0.887199  1
  As  As47  1  0.798031  0.344832  0.112801  1
  As  As48  1  0.214760  0.424428  0.206447  1
  As  As49  1  0.285240  0.924428  0.793553  1
  As  As50  1  0.785240  0.575572  0.793553  1
  As  As51  1  0.714760  0.075572  0.206447  1
  As  As52  1  0.030016  0.272177  0.981773  1
  As  As53  1  0.469984  0.772177  0.018227  1
  As  As54  1  0.969984  0.727823  0.018227  1
  As  As55  1  0.530016  0.227823  0.981773  1
  As  As56  1  0.488131  0.915716  0.281791  1
  As  As57  1  0.011869  0.415716  0.718209  1
  As  As58  1  0.511869  0.084284  0.718209  1
  As  As59  1  0.988131  0.584284  0.281791  1
  As  As60  1  0.025353  0.152596  0.106989  1
  As  As61  1  0.819824  0.160639  0.621166  1
  As  As62  1  0.319824  0.339361  0.621166  1
  As  As63  1  0.180176  0.839361  0.378834  1
  As  As64  1  0.421930  0.644298  0.401781  1
  As  As65  1  0.078070  0.144298  0.598219  1
  As  As66  1  0.578070  0.355702  0.598219  1
  As  As67  1  0.921930  0.855702  0.401781  1
  As  As68  1  0.386885  0.734825  0.243383  1
  As  As69  1  0.113115  0.234825  0.756617  1
  As  As70  1  0.613115  0.265175  0.756617  1
  As  As71  1  0.886885  0.765175  0.243383  1
  As  As72  1  0.515782  0.563467  0.311129  1
  As  As73  1  0.984218  0.063467  0.688871  1
  As  As74  1  0.484218  0.436533  0.688871  1
  As  As75  1  0.015782  0.936533  0.311129  1
  As  As76  1  0.634058  0.851730  0.427374  1
  As  As77  1  0.865942  0.351730  0.572626  1
  As  As78  1  0.365942  0.148270  0.572626  1
  As  As79  1  0.134058  0.648270  0.427374  1
