# generated using pymatgen
data_K5Sb4
_symmetry_space_group_name_H-M   'P 1'
_cell_length_a   6.86553021
_cell_length_b   6.86553021
_cell_length_c   11.41641942
_cell_angle_alpha   70.34658595
_cell_angle_beta   109.65341405
_cell_angle_gamma   132.44438428
_symmetry_Int_Tables_number   1
_chemical_formula_structural   K5Sb4
_chemical_formula_sum   'K5 Sb4'
_cell_volume   369.30386775
_cell_formula_units_Z   1
loop_
 _symmetry_equiv_pos_site_id
 _symmetry_equiv_pos_as_xyz
  1  'x, y, z'
loop_
 _atom_site_type_symbol
 _atom_site_label
 _atom_site_symmetry_multiplicity
 _atom_site_fract_x
 _atom_site_fract_y
 _atom_site_fract_z
 _atom_site_occupancy
  K  K0  1  0.899606  0.100394  0.608664  1
  K  K1  1  0.100394  0.899606  0.391336  1
  K  K2  1  0.245226  0.754774  0.834063  1
  K  K3  1  0.754774  0.245226  0.165937  1
  K  K4  1  0.000000  0.000000  0.000000  1
  Sb  Sb5  1  0.543912  0.456088  0.824104  1
  Sb  Sb6  1  0.456088  0.543912  0.175896  1
  Sb  Sb7  1  0.604751  0.395249  0.608353  1
  Sb  Sb8  1  0.395249  0.604751  0.391647  1
