# generated using pymatgen
data_BiPd2Pb
_symmetry_space_group_name_H-M   'P 1'
_cell_length_a   5.74745020
_cell_length_b   5.74745020
_cell_length_c   5.66882060
_cell_angle_alpha   78.30107319
_cell_angle_beta   101.69892681
_cell_angle_gamma   79.26281758
_symmetry_Int_Tables_number   1
_chemical_formula_structural   BiPd2Pb
_chemical_formula_sum   'Bi2 Pd4 Pb2'
_cell_volume   174.43677167
_cell_formula_units_Z   2
loop_
 _symmetry_equiv_pos_site_id
 _symmetry_equiv_pos_as_xyz
  1  'x, y, z'
loop_
 _atom_site_type_symbol
 _atom_site_label
 _atom_site_symmetry_multiplicity
 _atom_site_fract_x
 _atom_site_fract_y
 _atom_site_fract_z
 _atom_site_occupancy
  Bi  Bi0  1  0.494407  0.053975  0.427312  1
  Bi  Bi1  1  0.946025  0.505593  0.427312  1
  Pd  Pd2  1  0.828718  0.658628  0.870360  1
  Pd  Pd3  1  0.341372  0.171282  0.870360  1
  Pd  Pd4  1  0.039691  0.960309  0.535739  1
  Pd  Pd5  1  0.447809  0.552191  0.523364  1
  Pb  Pb6  1  0.872988  0.127012  0.988891  1
  Pb  Pb7  1  0.359990  0.640010  0.992663  1
