# generated using pymatgen
data_P2Pb4O9
_symmetry_space_group_name_H-M   'P 1'
_cell_length_a   9.67316597
_cell_length_b   7.32000206
_cell_length_c   14.83321532
_cell_angle_alpha   90.00000000
_cell_angle_beta   104.15429770
_cell_angle_gamma   90.00000000
_symmetry_Int_Tables_number   1
_chemical_formula_structural   P2Pb4O9
_chemical_formula_sum   'P8 Pb16 O36'
_cell_volume   1018.41780988
_cell_formula_units_Z   4
loop_
 _symmetry_equiv_pos_site_id
 _symmetry_equiv_pos_as_xyz
  1  'x, y, z'
loop_
 _atom_site_type_symbol
 _atom_site_label
 _atom_site_symmetry_multiplicity
 _atom_site_fract_x
 _atom_site_fract_y
 _atom_site_fract_z
 _atom_site_occupancy
  P  P0  1  0.372802  0.735614  0.814269  1
  P  P1  1  0.627198  0.235614  0.685731  1
  P  P2  1  0.627198  0.264386  0.185731  1
  P  P3  1  0.372802  0.764386  0.314269  1
  P  P4  1  0.032181  0.292286  0.905394  1
  P  P5  1  0.967819  0.792286  0.594606  1
  P  P6  1  0.967819  0.707714  0.094606  1
  P  P7  1  0.032181  0.207714  0.405394  1
  Pb  Pb8  1  0.279174  0.016333  0.614758  1
  Pb  Pb9  1  0.720826  0.516333  0.885242  1
  Pb  Pb10  1  0.720826  0.983667  0.385242  1
  Pb  Pb11  1  0.279174  0.483667  0.114758  1
  Pb  Pb12  1  0.310872  0.496026  0.589048  1
  Pb  Pb13  1  0.689128  0.996026  0.910952  1
  Pb  Pb14  1  0.689128  0.503974  0.410952  1
  Pb  Pb15  1  0.310872  0.003974  0.089048  1
  Pb  Pb16  1  0.320938  0.271431  0.833010  1
  Pb  Pb17  1  0.679062  0.771431  0.666990  1
  Pb  Pb18  1  0.679062  0.728569  0.166990  1
  Pb  Pb19  1  0.320938  0.228569  0.333010  1
  Pb  Pb20  1  0.960042  0.292372  0.651044  1
  Pb  Pb21  1  0.039958  0.792372  0.848956  1
  Pb  Pb22  1  0.039958  0.707628  0.348956  1
  Pb  Pb23  1  0.960042  0.207628  0.151044  1
  O  O24  1  0.427337  0.650962  0.732136  1
  O  O25  1  0.572663  0.150962  0.767864  1
  O  O26  1  0.572663  0.349038  0.267864  1
  O  O27  1  0.427337  0.849038  0.232136  1
  O  O28  1  0.294908  0.920975  0.784370  1
  O  O29  1  0.705092  0.420975  0.715630  1
  O  O30  1  0.705092  0.079025  0.215630  1
  O  O31  1  0.294908  0.579025  0.284370  1
  O  O32  1  0.062872  0.216566  0.812320  1
  O  O33  1  0.937128  0.716566  0.687680  1
  O  O34  1  0.937128  0.783434  0.187680  1
  O  O35  1  0.062872  0.283434  0.312320  1
  O  O36  1  0.920988  0.175440  0.937096  1
  O  O37  1  0.079012  0.675440  0.562904  1
  O  O38  1  0.225935  0.289209  0.675584  1
  O  O39  1  0.079012  0.824560  0.062904  1
  O  O40  1  0.503731  0.760532  0.898360  1
  O  O41  1  0.496269  0.260532  0.601640  1
  O  O42  1  0.496269  0.239468  0.101640  1
  O  O43  1  0.503731  0.739468  0.398360  1
  O  O44  1  0.262387  0.602394  0.840936  1
  O  O45  1  0.737613  0.102394  0.659064  1
  O  O46  1  0.737613  0.397606  0.159064  1
  O  O47  1  0.262387  0.897606  0.340936  1
  O  O48  1  0.973710  0.008053  0.388766  1
  O  O49  1  0.026290  0.508053  0.111234  1
  O  O50  1  0.026290  0.991947  0.611234  1
  O  O51  1  0.973710  0.491947  0.888766  1
  O  O52  1  0.180657  0.212471  0.476027  1
  O  O53  1  0.819343  0.712471  0.023973  1
  O  O54  1  0.819343  0.787529  0.523973  1
  O  O55  1  0.180657  0.287529  0.976027  1
  O  O56  1  0.225935  0.210791  0.175584  1
  O  O57  1  0.774065  0.710791  0.324416  1
  O  O58  1  0.774065  0.789209  0.824416  1
  O  O59  1  0.920988  0.324560  0.437096  1
