# generated using pymatgen
data_LiCo2(PO4)3
_symmetry_space_group_name_H-M   'P 1'
_cell_length_a   8.50403283
_cell_length_b   8.79900282
_cell_length_c   14.54271097
_cell_angle_alpha   90.00000000
_cell_angle_beta   124.71079290
_cell_angle_gamma   90.00000000
_symmetry_Int_Tables_number   1
_chemical_formula_structural   LiCo2(PO4)3
_chemical_formula_sum   'Li4 Co8 P12 O48'
_cell_volume   894.53021097
_cell_formula_units_Z   4
loop_
 _symmetry_equiv_pos_site_id
 _symmetry_equiv_pos_as_xyz
  1  'x, y, z'
loop_
 _atom_site_type_symbol
 _atom_site_label
 _atom_site_symmetry_multiplicity
 _atom_site_fract_x
 _atom_site_fract_y
 _atom_site_fract_z
 _atom_site_occupancy
  Li  Li0  1  0.996154  0.783943  0.181402  1
  Li  Li1  1  0.996154  0.716057  0.681402  1
  Li  Li2  1  0.003846  0.216057  0.818598  1
  Li  Li3  1  0.003846  0.283943  0.318598  1
  Co  Co4  1  0.861459  0.469020  0.109905  1
  Co  Co5  1  0.630001  0.022867  0.881929  1
  Co  Co6  1  0.138541  0.530980  0.890095  1
  Co  Co7  1  0.630001  0.477133  0.381929  1
  Co  Co8  1  0.369999  0.977133  0.118071  1
  Co  Co9  1  0.138541  0.969020  0.390095  1
  Co  Co10  1  0.861459  0.030980  0.609905  1
  Co  Co11  1  0.369999  0.522867  0.618071  1
  P  P12  1  0.032984  0.107749  0.147783  1
  P  P13  1  0.741578  0.118038  0.352311  1
  P  P14  1  0.741578  0.381962  0.852311  1
  P  P15  1  0.967016  0.607749  0.352217  1
  P  P16  1  0.546892  0.750514  0.009692  1
  P  P17  1  0.032984  0.392251  0.647783  1
  P  P18  1  0.258422  0.881962  0.647689  1
  P  P19  1  0.967016  0.892251  0.852217  1
  P  P20  1  0.546892  0.749486  0.509692  1
  P  P21  1  0.258422  0.618038  0.147689  1
  P  P22  1  0.453108  0.250514  0.490308  1
  P  P23  1  0.453108  0.249486  0.990308  1
  O  O24  1  0.899957  0.009138  0.756640  1
  O  O25  1  0.748749  0.818769  0.567614  1
  O  O26  1  0.170049  0.926807  0.524076  1
  O  O27  1  0.844475  0.045476  0.044483  1
  O  O28  1  0.844475  0.454524  0.544483  1
  O  O29  1  0.829951  0.073193  0.475924  1
  O  O30  1  0.888712  0.085232  0.324968  1
  O  O31  1  0.514339  0.865351  0.919609  1
  O  O32  1  0.708014  0.207963  0.838602  1
  O  O33  1  0.445956  0.970341  0.722948  1
  O  O34  1  0.888712  0.414768  0.824968  1
  O  O35  1  0.390896  0.629911  0.949606  1
  O  O36  1  0.100043  0.509138  0.743360  1
  O  O37  1  0.100043  0.990862  0.243360  1
  O  O38  1  0.992262  0.764480  0.317247  1
  O  O39  1  0.514339  0.634649  0.419609  1
  O  O40  1  0.179600  0.113420  0.115791  1
  O  O41  1  0.554044  0.029659  0.277052  1
  O  O42  1  0.708014  0.292037  0.338602  1
  O  O43  1  0.829951  0.426807  0.975924  1
  O  O44  1  0.485661  0.134649  0.080391  1
  O  O45  1  0.111288  0.914768  0.675032  1
  O  O46  1  0.535005  0.663084  0.598319  1
  O  O47  1  0.111288  0.585232  0.175032  1
  O  O48  1  0.748749  0.681231  0.067614  1
  O  O49  1  0.445956  0.529659  0.222948  1
  O  O50  1  0.291986  0.792037  0.161398  1
  O  O51  1  0.464995  0.163084  0.901681  1
  O  O52  1  0.179600  0.386580  0.615791  1
  O  O53  1  0.007738  0.235520  0.682753  1
  O  O54  1  0.609104  0.129911  0.550394  1
  O  O55  1  0.251251  0.318769  0.932386  1
  O  O56  1  0.485661  0.365351  0.580391  1
  O  O57  1  0.251251  0.181231  0.432386  1
  O  O58  1  0.007738  0.264480  0.182753  1
  O  O59  1  0.170049  0.573193  0.024076  1
  O  O60  1  0.820400  0.613420  0.384209  1
  O  O61  1  0.155525  0.545476  0.455517  1
  O  O62  1  0.390896  0.870089  0.449606  1
  O  O63  1  0.992262  0.735520  0.817247  1
  O  O64  1  0.535005  0.836916  0.098319  1
  O  O65  1  0.155525  0.954524  0.955517  1
  O  O66  1  0.899957  0.490862  0.256640  1
  O  O67  1  0.464995  0.336916  0.401681  1
  O  O68  1  0.820400  0.886580  0.884209  1
  O  O69  1  0.291986  0.707963  0.661398  1
  O  O70  1  0.609104  0.370089  0.050394  1
  O  O71  1  0.554044  0.470341  0.777052  1
