# generated using pymatgen
data_Mg(SbO3)2
_symmetry_space_group_name_H-M   'P 1'
_cell_length_a   4.72889109
_cell_length_b   4.72889109
_cell_length_c   9.38538260
_cell_angle_alpha   90.00000000
_cell_angle_beta   90.00000000
_cell_angle_gamma   90.00000000
_symmetry_Int_Tables_number   1
_chemical_formula_structural   Mg(SbO3)2
_chemical_formula_sum   'Mg2 Sb4 O12'
_cell_volume   209.87978254
_cell_formula_units_Z   2
loop_
 _symmetry_equiv_pos_site_id
 _symmetry_equiv_pos_as_xyz
  1  'x, y, z'
loop_
 _atom_site_type_symbol
 _atom_site_label
 _atom_site_symmetry_multiplicity
 _atom_site_fract_x
 _atom_site_fract_y
 _atom_site_fract_z
 _atom_site_occupancy
  Mg  Mg0  1  0.000000  0.000000  0.000000  1
  Mg  Mg1  1  0.500000  0.500000  0.500000  1
  Sb  Sb2  1  0.500000  0.500000  0.832338  1
  Sb  Sb3  1  0.000000  0.000000  0.332338  1
  Sb  Sb4  1  0.500000  0.500000  0.167662  1
  Sb  Sb5  1  0.000000  0.000000  0.667662  1
  O  O6  1  0.697599  0.697599  0.671429  1
  O  O7  1  0.302401  0.302401  0.671429  1
  O  O8  1  0.697599  0.697599  0.328571  1
  O  O9  1  0.197599  0.802401  0.171429  1
  O  O10  1  0.802401  0.197599  0.171429  1
  O  O11  1  0.802401  0.197599  0.828571  1
  O  O12  1  0.310180  0.310180  0.000000  1
  O  O13  1  0.189820  0.810180  0.500000  1
  O  O14  1  0.810180  0.189820  0.500000  1
  O  O15  1  0.689820  0.689820  0.000000  1
  O  O16  1  0.302401  0.302401  0.328571  1
  O  O17  1  0.197599  0.802401  0.828571  1
