# generated using pymatgen
data_SiNi
_symmetry_space_group_name_H-M   'P 1'
_cell_length_a   3.35012570
_cell_length_b   5.15462838
_cell_length_c   5.58064767
_cell_angle_alpha   90.00000000
_cell_angle_beta   90.00000000
_cell_angle_gamma   90.00000000
_symmetry_Int_Tables_number   1
_chemical_formula_structural   SiNi
_chemical_formula_sum   'Si4 Ni4'
_cell_volume   96.37026818
_cell_formula_units_Z   4
loop_
 _symmetry_equiv_pos_site_id
 _symmetry_equiv_pos_as_xyz
  1  'x, y, z'
loop_
 _atom_site_type_symbol
 _atom_site_label
 _atom_site_symmetry_multiplicity
 _atom_site_fract_x
 _atom_site_fract_y
 _atom_site_fract_z
 _atom_site_occupancy
  Si  Si0  1  0.250000  0.178421  0.416562  1
  Si  Si1  1  0.250000  0.678421  0.083438  1
  Si  Si2  1  0.750000  0.821579  0.583438  1
  Si  Si3  1  0.750000  0.321579  0.916562  1
  Ni  Ni4  1  0.750000  0.490807  0.311961  1
  Ni  Ni5  1  0.750000  0.990807  0.188039  1
  Ni  Ni6  1  0.250000  0.509193  0.688039  1
  Ni  Ni7  1  0.250000  0.009193  0.811961  1
