# generated using pymatgen
data_Ba5P5I3
_symmetry_space_group_name_H-M   'P 1'
_cell_length_a   21.70147574
_cell_length_b   21.70147574
_cell_length_c   9.57214184
_cell_angle_alpha   87.59456330
_cell_angle_beta   92.40543670
_cell_angle_gamma   167.81292303
_symmetry_Int_Tables_number   1
_chemical_formula_structural   Ba5P5I3
_chemical_formula_sum   'Ba10 P10 I6'
_cell_volume   950.81844923
_cell_formula_units_Z   2
loop_
 _symmetry_equiv_pos_site_id
 _symmetry_equiv_pos_as_xyz
  1  'x, y, z'
loop_
 _atom_site_type_symbol
 _atom_site_label
 _atom_site_symmetry_multiplicity
 _atom_site_fract_x
 _atom_site_fract_y
 _atom_site_fract_z
 _atom_site_occupancy
  Ba  Ba0  1  0.059633  0.940367  0.792846  1
  Ba  Ba1  1  0.940367  0.059633  0.207154  1
  Ba  Ba2  1  0.041662  0.958338  0.350972  1
  Ba  Ba3  1  0.958338  0.041662  0.649028  1
  Ba  Ba4  1  0.638467  0.361533  0.586654  1
  Ba  Ba5  1  0.361533  0.638467  0.413346  1
  Ba  Ba6  1  0.657971  0.342029  0.047440  1
  Ba  Ba7  1  0.342029  0.657971  0.952560  1
  Ba  Ba8  1  0.739920  0.260080  0.777951  1
  Ba  Ba9  1  0.260080  0.739920  0.222049  1
  P  P10  1  0.209108  0.790892  0.972249  1
  P  P11  1  0.790892  0.209108  0.027751  1
  P  P12  1  0.179784  0.820216  0.782751  1
  P  P13  1  0.820216  0.179784  0.217249  1
  P  P14  1  0.130637  0.869363  0.826338  1
  P  P15  1  0.869363  0.130637  0.173662  1
  P  P16  1  0.563400  0.436600  0.559992  1
  P  P17  1  0.436600  0.563400  0.440008  1
  P  P18  1  0.514179  0.485821  0.604132  1
  P  P19  1  0.485821  0.514179  0.395868  1
  I  I20  1  0.124969  0.875031  0.299538  1
  I  I21  1  0.875031  0.124969  0.700462  1
  I  I22  1  0.710148  0.289852  0.395564  1
  I  I23  1  0.289852  0.710148  0.604436  1
  I  I24  1  0.551139  0.448861  0.067981  1
  I  I25  1  0.448861  0.551139  0.932019  1
