# generated using pymatgen
data_La(C2N3)3
_symmetry_space_group_name_H-M   'P 1'
_cell_length_a   7.19465266
_cell_length_b   7.19465266
_cell_length_c   10.65835366
_cell_angle_alpha   90.00000000
_cell_angle_beta   90.00000000
_cell_angle_gamma   112.81984334
_symmetry_Int_Tables_number   1
_chemical_formula_structural   La(C2N3)3
_chemical_formula_sum   'La2 C12 N18'
_cell_volume   508.52579731
_cell_formula_units_Z   2
loop_
 _symmetry_equiv_pos_site_id
 _symmetry_equiv_pos_as_xyz
  1  'x, y, z'
loop_
 _atom_site_type_symbol
 _atom_site_label
 _atom_site_symmetry_multiplicity
 _atom_site_fract_x
 _atom_site_fract_y
 _atom_site_fract_z
 _atom_site_occupancy
  La  La0  1  0.285232  0.714768  0.750000  1
  La  La1  1  0.714768  0.285232  0.250000  1
  C  C2  1  0.554937  0.728833  0.250000  1
  C  C3  1  0.288945  0.996672  0.053432  1
  C  C4  1  0.711055  0.003328  0.553432  1
  C  C5  1  0.445063  0.271167  0.750000  1
  C  C6  1  0.728833  0.554937  0.750000  1
  C  C7  1  0.271167  0.445063  0.250000  1
  C  C8  1  0.996672  0.288945  0.553432  1
  C  C9  1  0.003328  0.711055  0.053432  1
  C  C10  1  0.288945  0.996672  0.446568  1
  C  C11  1  0.711055  0.003328  0.946568  1
  C  C12  1  0.003328  0.711055  0.446568  1
  C  C13  1  0.996672  0.288945  0.946568  1
  N  N14  1  0.416036  0.139063  0.098304  1
  N  N15  1  0.583964  0.860937  0.598304  1
  N  N16  1  0.467159  0.532841  0.250000  1
  N  N17  1  0.532841  0.467159  0.750000  1
  N  N18  1  0.643365  0.905125  0.250000  1
  N  N19  1  0.356635  0.094875  0.750000  1
  N  N20  1  0.905125  0.643365  0.750000  1
  N  N21  1  0.094875  0.356635  0.250000  1
  N  N22  1  0.842071  0.157929  0.495554  1
  N  N23  1  0.157929  0.842071  0.995554  1
  N  N24  1  0.157929  0.842071  0.504446  1
  N  N25  1  0.842071  0.157929  0.004446  1
  N  N26  1  0.139063  0.416036  0.598304  1
  N  N27  1  0.860937  0.583964  0.098304  1
  N  N28  1  0.416036  0.139063  0.401696  1
  N  N29  1  0.583964  0.860937  0.901696  1
  N  N30  1  0.860937  0.583964  0.401696  1
  N  N31  1  0.139063  0.416036  0.901696  1
