# generated using pymatgen
data_Ca11Al14O32
_symmetry_space_group_name_H-M   'P 1'
_cell_length_a   10.48665498
_cell_length_b   10.48665498
_cell_length_c   12.05848357
_cell_angle_alpha   54.91177463
_cell_angle_beta   125.08822537
_cell_angle_gamma   109.52487294
_symmetry_Int_Tables_number   1
_chemical_formula_structural   Ca11Al14O32
_chemical_formula_sum   'Ca11 Al14 O32'
_cell_volume   887.87276474
_cell_formula_units_Z   1
loop_
 _symmetry_equiv_pos_site_id
 _symmetry_equiv_pos_as_xyz
  1  'x, y, z'
loop_
 _atom_site_type_symbol
 _atom_site_label
 _atom_site_symmetry_multiplicity
 _atom_site_fract_x
 _atom_site_fract_y
 _atom_site_fract_z
 _atom_site_occupancy
  Ca  Ca0  1  0.140802  0.365976  0.639044  1
  Ca  Ca1  1  0.748369  0.253889  0.131579  1
  Ca  Ca2  1  0.253889  0.748369  0.868421  1
  Ca  Ca3  1  0.611687  0.879036  0.111444  1
  Ca  Ca4  1  0.117369  0.117369  0.000000  1
  Ca  Ca5  1  0.365976  0.140802  0.360956  1
  Ca  Ca6  1  0.749430  0.249949  0.612894  1
  Ca  Ca7  1  0.864219  0.864219  0.500000  1
  Ca  Ca8  1  0.249949  0.749430  0.387106  1
  Ca  Ca9  1  0.389510  0.389510  0.500000  1
  Ca  Ca10  1  0.879036  0.611687  0.888556  1
  Al  Al11  1  0.125605  0.125605  0.500000  1
  Al  Al12  1  0.000830  0.466038  0.750463  1
  Al  Al13  1  0.874437  0.623671  0.373501  1
  Al  Al14  1  0.378624  0.378624  0.000000  1
  Al  Al15  1  0.000251  0.966504  0.749836  1
  Al  Al16  1  0.966504  0.000251  0.250164  1
  Al  Al17  1  0.466038  0.000830  0.249537  1
  Al  Al18  1  0.248759  0.750410  0.124917  1
  Al  Al19  1  0.499302  0.534033  0.213432  1
  Al  Al20  1  0.623671  0.874437  0.626499  1
  Al  Al21  1  0.040495  0.493392  0.287563  1
  Al  Al22  1  0.534033  0.499302  0.786568  1
  Al  Al23  1  0.750410  0.248759  0.875083  1
  Al  Al24  1  0.493392  0.040495  0.712437  1
  O  O25  1  0.017295  0.587896  0.360538  1
  O  O26  1  0.122366  0.312084  0.465882  1
  O  O27  1  0.510491  0.386479  0.952530  1
  O  O28  1  0.185894  0.387335  0.844563  1
  O  O29  1  0.682489  0.617790  0.238475  1
  O  O30  1  0.386479  0.510491  0.047470  1
  O  O31  1  0.090062  0.979251  0.654728  1
  O  O32  1  0.795829  0.090517  0.063964  1
  O  O33  1  0.466767  0.903758  0.869807  1
  O  O34  1  0.979251  0.090062  0.345272  1
  O  O35  1  0.387335  0.185894  0.155437  1
  O  O36  1  0.912732  0.477757  0.566059  1
  O  O37  1  0.632801  0.993925  0.254218  1
  O  O38  1  0.090517  0.795829  0.936036  1
  O  O39  1  0.898146  0.811722  0.348995  1
  O  O40  1  0.293218  0.907733  0.157239  1
  O  O41  1  0.402919  0.702720  0.138136  1
  O  O42  1  0.003770  0.132861  0.751979  1
  O  O43  1  0.132861  0.003770  0.248021  1
  O  O44  1  0.907733  0.293218  0.842761  1
  O  O45  1  0.477757  0.912732  0.433941  1
  O  O46  1  0.811722  0.898146  0.651005  1
  O  O47  1  0.587896  0.017295  0.639462  1
  O  O48  1  0.212339  0.596134  0.276534  1
  O  O49  1  0.993925  0.632801  0.745782  1
  O  O50  1  0.503767  0.367165  0.384371  1
  O  O51  1  0.617790  0.682489  0.761525  1
  O  O52  1  0.367165  0.503767  0.615629  1
  O  O53  1  0.702720  0.402919  0.861864  1
  O  O54  1  0.312084  0.122366  0.534118  1
  O  O55  1  0.596134  0.212339  0.723466  1
  O  O56  1  0.903758  0.466767  0.130193  1
