# generated using pymatgen
data_Er2(NiB2)3
_symmetry_space_group_name_H-M   'P 1'
_cell_length_a   5.76756712
_cell_length_b   5.76756712
_cell_length_c   3.45771405
_cell_angle_alpha   90.00000000
_cell_angle_beta   90.00000000
_cell_angle_gamma   96.49957546
_symmetry_Int_Tables_number   1
_chemical_formula_structural   Er2(NiB2)3
_chemical_formula_sum   'Er2 Ni3 B6'
_cell_volume   114.28100129
_cell_formula_units_Z   1
loop_
 _symmetry_equiv_pos_site_id
 _symmetry_equiv_pos_as_xyz
  1  'x, y, z'
loop_
 _atom_site_type_symbol
 _atom_site_label
 _atom_site_symmetry_multiplicity
 _atom_site_fract_x
 _atom_site_fract_y
 _atom_site_fract_z
 _atom_site_occupancy
  Er  Er0  1  0.275143  0.724858  0.000000  1
  Er  Er1  1  0.724857  0.275142  0.000000  1
  Ni  Ni2  1  0.771472  0.771472  1.000000  1
  Ni  Ni3  1  0.228528  0.228528  1.000000  1
  Ni  Ni4  1  0.000000  0.000000  0.500000  1
  B  B5  1  0.387617  0.387617  0.500000  1
  B  B6  1  0.612383  0.612383  0.500000  1
  B  B7  1  0.084213  0.384618  0.500000  1
  B  B8  1  0.915787  0.615382  0.500000  1
  B  B9  1  0.384618  0.084213  0.500000  1
  B  B10  1  0.615382  0.915787  0.500000  1
