# generated using pymatgen
data_SrNb2O6
_symmetry_space_group_name_H-M   'P 1'
_cell_length_a   7.85003157
_cell_length_b   5.65793952
_cell_length_c   11.22009046
_cell_angle_alpha   90.00000000
_cell_angle_beta   90.30983924
_cell_angle_gamma   90.00000000
_symmetry_Int_Tables_number   1
_chemical_formula_structural   SrNb2O6
_chemical_formula_sum   'Sr4 Nb8 O24'
_cell_volume   498.33307435
_cell_formula_units_Z   4
loop_
 _symmetry_equiv_pos_site_id
 _symmetry_equiv_pos_as_xyz
  1  'x, y, z'
loop_
 _atom_site_type_symbol
 _atom_site_label
 _atom_site_symmetry_multiplicity
 _atom_site_fract_x
 _atom_site_fract_y
 _atom_site_fract_z
 _atom_site_occupancy
  Sr  Sr0  1  0.249914  0.464787  0.039785  1
  Sr  Sr1  1  0.750086  0.964787  0.460215  1
  Sr  Sr2  1  0.750086  0.535213  0.960215  1
  Sr  Sr3  1  0.249914  0.035213  0.539785  1
  Nb  Nb4  1  0.014308  0.523872  0.643796  1
  Nb  Nb5  1  0.985692  0.023872  0.856204  1
  Nb  Nb6  1  0.985692  0.476128  0.356204  1
  Nb  Nb7  1  0.014308  0.976128  0.143796  1
  Nb  Nb8  1  0.526035  0.533234  0.642291  1
  Nb  Nb9  1  0.473965  0.033234  0.857709  1
  Nb  Nb10  1  0.473965  0.466766  0.357709  1
  Nb  Nb11  1  0.526035  0.966766  0.142291  1
  O  O12  1  0.751601  0.642148  0.628166  1
  O  O13  1  0.248399  0.142148  0.871834  1
  O  O14  1  0.248399  0.357852  0.371834  1
  O  O15  1  0.751601  0.857852  0.128166  1
  O  O16  1  0.250762  0.463915  0.646042  1
  O  O17  1  0.749238  0.963915  0.853958  1
  O  O18  1  0.749238  0.536085  0.353958  1
  O  O19  1  0.250762  0.036085  0.146042  1
  O  O20  1  0.447569  0.643781  0.213734  1
  O  O21  1  0.552431  0.143781  0.286266  1
  O  O22  1  0.552431  0.356219  0.786266  1
  O  O23  1  0.447569  0.856219  0.713734  1
  O  O24  1  0.033775  0.779117  0.974733  1
  O  O25  1  0.966225  0.279117  0.525267  1
  O  O26  1  0.966225  0.220883  0.025267  1
  O  O27  1  0.033775  0.720883  0.474733  1
  O  O28  1  0.466350  0.721614  0.474733  1
  O  O29  1  0.533650  0.221614  0.025267  1
  O  O30  1  0.533650  0.278386  0.525267  1
  O  O31  1  0.466350  0.778386  0.974733  1
  O  O32  1  0.048812  0.638128  0.212580  1
  O  O33  1  0.951188  0.138128  0.287420  1
  O  O34  1  0.951188  0.361872  0.787420  1
  O  O35  1  0.048812  0.861872  0.712580  1
