# generated using pymatgen
data_Y4Al23Ni6
_symmetry_space_group_name_H-M   'P 1'
_cell_length_a   8.16796796
_cell_length_b   8.16796796
_cell_length_c   18.33925276
_cell_angle_alpha   67.87414920
_cell_angle_beta   112.12585080
_cell_angle_gamma   151.14737488
_symmetry_Int_Tables_number   1
_chemical_formula_structural   Y4Al23Ni6
_chemical_formula_sum   'Y4 Al23 Ni6'
_cell_volume   543.93897112
_cell_formula_units_Z   1
loop_
 _symmetry_equiv_pos_site_id
 _symmetry_equiv_pos_as_xyz
  1  'x, y, z'
loop_
 _atom_site_type_symbol
 _atom_site_label
 _atom_site_symmetry_multiplicity
 _atom_site_fract_x
 _atom_site_fract_y
 _atom_site_fract_z
 _atom_site_occupancy
  Y  Y0  1  0.734616  0.265384  0.780968  1
  Y  Y1  1  0.571937  0.428063  0.406434  1
  Y  Y2  1  0.428063  0.571937  0.593566  1
  Y  Y3  1  0.265384  0.734616  0.219032  1
  Al  Al4  1  0.000000  1.000000  0.500000  1
  Al  Al5  1  0.855218  0.144782  0.142912  1
  Al  Al6  1  0.918987  0.081013  0.314151  1
  Al  Al7  1  0.081013  0.918987  0.685849  1
  Al  Al8  1  0.910319  0.089681  0.947664  1
  Al  Al9  1  0.089681  0.910319  0.052336  1
  Al  Al10  1  0.909328  0.090672  0.718215  1
  Al  Al11  1  0.090672  0.909328  0.281785  1
  Al  Al12  1  0.799433  0.200567  0.479702  1
  Al  Al13  1  0.200567  0.799433  0.520298  1
  Al  Al14  1  0.144782  0.855218  0.857087  1
  Al  Al15  1  0.610656  0.389344  0.164232  1
  Al  Al16  1  0.743912  0.256088  0.953517  1
  Al  Al17  1  0.256088  0.743912  0.046483  1
  Al  Al18  1  0.389344  0.610656  0.835768  1
  Al  Al19  1  0.467479  0.532521  0.218528  1
  Al  Al20  1  0.726115  0.273885  0.324973  1
  Al  Al21  1  0.273885  0.726115  0.675027  1
  Al  Al22  1  0.621855  0.378145  0.594659  1
  Al  Al23  1  0.378145  0.621855  0.405341  1
  Al  Al24  1  0.565707  0.434293  0.940658  1
  Al  Al25  1  0.434293  0.565707  0.059342  1
  Al  Al26  1  0.532521  0.467479  0.781472  1
  Ni  Ni27  1  0.991608  0.008392  0.860982  1
  Ni  Ni28  1  0.008392  0.991608  0.139018  1
  Ni  Ni29  1  0.772569  0.227431  0.600747  1
  Ni  Ni30  1  0.689014  0.310986  0.068216  1
  Ni  Ni31  1  0.227431  0.772569  0.399253  1
  Ni  Ni32  1  0.310986  0.689014  0.931784  1
