# generated using pymatgen
data_Ca4IrO6
_symmetry_space_group_name_H-M   'P 1'
_cell_length_a   6.61041703
_cell_length_b   6.61041703
_cell_length_c   6.61041703
_cell_angle_alpha   90.97744593
_cell_angle_beta   90.97744593
_cell_angle_gamma   90.97744593
_symmetry_Int_Tables_number   1
_chemical_formula_structural   Ca4IrO6
_chemical_formula_sum   'Ca8 Ir2 O12'
_cell_volume   288.73189654
_cell_formula_units_Z   2
loop_
 _symmetry_equiv_pos_site_id
 _symmetry_equiv_pos_as_xyz
  1  'x, y, z'
loop_
 _atom_site_type_symbol
 _atom_site_label
 _atom_site_symmetry_multiplicity
 _atom_site_fract_x
 _atom_site_fract_y
 _atom_site_fract_z
 _atom_site_occupancy
  Ca  Ca0  1  0.250000  0.610325  0.889675  1
  Ca  Ca1  1  0.610325  0.889675  0.250000  1
  Ca  Ca2  1  0.750000  0.750000  0.750000  1
  Ca  Ca3  1  0.250000  0.250000  0.250000  1
  Ca  Ca4  1  0.110325  0.750000  0.389675  1
  Ca  Ca5  1  0.389675  0.110325  0.750000  1
  Ca  Ca6  1  0.750000  0.389675  0.110325  1
  Ca  Ca7  1  0.889675  0.250000  0.610325  1
  Ir  Ir8  1  0.000000  0.000000  0.000000  1
  Ir  Ir9  1  0.500000  0.500000  0.500000  1
  O  O10  1  0.796569  0.571292  0.445028  1
  O  O11  1  0.445028  0.796569  0.571292  1
  O  O12  1  0.571292  0.445028  0.796569  1
  O  O13  1  0.054972  0.928708  0.703431  1
  O  O14  1  0.703431  0.054972  0.928708  1
  O  O15  1  0.928708  0.703431  0.054972  1
  O  O16  1  0.203431  0.428708  0.554972  1
  O  O17  1  0.554972  0.203431  0.428708  1
  O  O18  1  0.428708  0.554972  0.203431  1
  O  O19  1  0.945028  0.071292  0.296569  1
  O  O20  1  0.071292  0.296569  0.945028  1
  O  O21  1  0.296569  0.945028  0.071292  1
