# generated using pymatgen
data_NdScGe
_symmetry_space_group_name_H-M   'P 1'
_cell_length_a   8.57562554
_cell_length_b   8.57562554
_cell_length_c   8.57562554
_cell_angle_alpha   150.78276226
_cell_angle_beta   150.78276226
_cell_angle_gamma   41.79359332
_symmetry_Int_Tables_number   1
_chemical_formula_structural   NdScGe
_chemical_formula_sum   'Nd2 Sc2 Ge2'
_cell_volume   149.91676413
_cell_formula_units_Z   2
loop_
 _symmetry_equiv_pos_site_id
 _symmetry_equiv_pos_as_xyz
  1  'x, y, z'
loop_
 _atom_site_type_symbol
 _atom_site_label
 _atom_site_symmetry_multiplicity
 _atom_site_fract_x
 _atom_site_fract_y
 _atom_site_fract_z
 _atom_site_occupancy
  Nd  Nd0  1  0.676565  0.676565  0.000000  1
  Nd  Nd1  1  0.323435  0.323435  0.000000  1
  Sc  Sc2  1  0.500000  1.000000  0.500000  1
  Sc  Sc3  1  0.000000  0.500000  0.500000  1
  Ge  Ge4  1  0.122950  0.122950  0.000000  1
  Ge  Ge5  1  0.877050  0.877050  0.000000  1
