# generated using pymatgen
data_SrAu2
_symmetry_space_group_name_H-M   'P 1'
_cell_length_a   6.14461019
_cell_length_b   6.14461019
_cell_length_c   6.14461019
_cell_angle_alpha   133.61043945
_cell_angle_beta   103.11150562
_cell_angle_gamma   94.78411884
_symmetry_Int_Tables_number   1
_chemical_formula_structural   SrAu2
_chemical_formula_sum   'Sr2 Au4'
_cell_volume   153.84208685
_cell_formula_units_Z   2
loop_
 _symmetry_equiv_pos_site_id
 _symmetry_equiv_pos_as_xyz
  1  'x, y, z'
loop_
 _atom_site_type_symbol
 _atom_site_label
 _atom_site_symmetry_multiplicity
 _atom_site_fract_x
 _atom_site_fract_y
 _atom_site_fract_z
 _atom_site_occupancy
  Sr  Sr0  1  0.784214  0.534214  0.750000  1
  Sr  Sr1  1  0.215786  0.465786  0.250000  1
  Au  Au2  1  0.624141  0.164518  0.959623  1
  Au  Au3  1  0.375859  0.835482  0.040377  1
  Au  Au4  1  0.204895  0.164518  0.540377  1
  Au  Au5  1  0.795105  0.835482  0.459623  1
