# generated using pymatgen
data_Cs2KZrOF5
_symmetry_space_group_name_H-M   'P 1'
_cell_length_a   6.70809339
_cell_length_b   6.70809339
_cell_length_c   6.70809339
_cell_angle_alpha   120.29082045
_cell_angle_beta   120.29082045
_cell_angle_gamma   89.49701797
_symmetry_Int_Tables_number   1
_chemical_formula_structural   Cs2KZrOF5
_chemical_formula_sum   'Cs2 K1 Zr1 O1 F5'
_cell_volume   212.49607208
_cell_formula_units_Z   1
loop_
 _symmetry_equiv_pos_site_id
 _symmetry_equiv_pos_as_xyz
  1  'x, y, z'
loop_
 _atom_site_type_symbol
 _atom_site_label
 _atom_site_symmetry_multiplicity
 _atom_site_fract_x
 _atom_site_fract_y
 _atom_site_fract_z
 _atom_site_occupancy
  Cs  Cs0  1  0.251895  0.751895  0.500000  1
  Cs  Cs1  1  0.751895  0.251895  0.500000  1
  K  K2  1  0.497327  0.497327  0.000000  1
  Zr  Zr3  1  0.017913  0.017913  0.000000  1
  O  O4  1  0.216758  0.216758  0.000000  1
  F  F5  1  0.774651  0.217360  0.000000  1
  F  F6  1  0.217360  0.217360  0.442709  1
  F  F7  1  0.774651  0.774651  0.557291  1
  F  F8  1  0.780191  0.780191  0.000000  1
  F  F9  1  0.217360  0.774651  0.000000  1
