# generated using pymatgen
data_BaAl2O4
_symmetry_space_group_name_H-M   'P 1'
_cell_length_a   10.58473620
_cell_length_b   10.58473620
_cell_length_c   8.87405972
_cell_angle_alpha   90.00000000
_cell_angle_beta   90.00000000
_cell_angle_gamma   120.00000000
_symmetry_Int_Tables_number   1
_chemical_formula_structural   BaAl2O4
_chemical_formula_sum   'Ba8 Al16 O32'
_cell_volume   861.01963654
_cell_formula_units_Z   8
loop_
 _symmetry_equiv_pos_site_id
 _symmetry_equiv_pos_as_xyz
  1  'x, y, z'
loop_
 _atom_site_type_symbol
 _atom_site_label
 _atom_site_symmetry_multiplicity
 _atom_site_fract_x
 _atom_site_fract_y
 _atom_site_fract_z
 _atom_site_occupancy
  Ba  Ba0  1  0.492612  0.991650  0.757823  1
  Ba  Ba1  1  0.500962  0.492612  0.257823  1
  Ba  Ba2  1  0.991650  0.499038  0.257823  1
  Ba  Ba3  1  0.008350  0.500962  0.757823  1
  Ba  Ba4  1  0.499038  0.507388  0.757823  1
  Ba  Ba5  1  0.507388  0.008350  0.257823  1
  Ba  Ba6  1  0.000000  0.000000  0.748096  1
  Ba  Ba7  1  0.000000  0.000000  0.248096  1
  Al  Al8  1  0.666667  0.333333  0.046587  1
  Al  Al9  1  0.333333  0.666667  0.546587  1
  Al  Al10  1  0.666667  0.333333  0.447676  1
  Al  Al11  1  0.333333  0.666667  0.947676  1
  Al  Al12  1  0.846290  0.671733  0.950943  1
  Al  Al13  1  0.174558  0.846290  0.450943  1
  Al  Al14  1  0.671733  0.825442  0.450943  1
  Al  Al15  1  0.328267  0.174558  0.950943  1
  Al  Al16  1  0.825442  0.153710  0.950943  1
  Al  Al17  1  0.153710  0.328267  0.450943  1
  Al  Al18  1  0.845185  0.669126  0.564489  1
  Al  Al19  1  0.176059  0.845185  0.064489  1
  Al  Al20  1  0.669126  0.823941  0.064489  1
  Al  Al21  1  0.330874  0.176059  0.564489  1
  Al  Al22  1  0.823941  0.154815  0.564489  1
  Al  Al23  1  0.154815  0.330874  0.064489  1
  O  O24  1  0.666667  0.333333  0.247078  1
  O  O25  1  0.333333  0.666667  0.747078  1
  O  O26  1  0.889579  0.678582  0.757731  1
  O  O27  1  0.210997  0.889579  0.257731  1
  O  O28  1  0.678582  0.789003  0.257731  1
  O  O29  1  0.321418  0.210997  0.757731  1
  O  O30  1  0.789003  0.110421  0.757731  1
  O  O31  1  0.110421  0.321418  0.257731  1
  O  O32  1  0.819700  0.499346  0.502153  1
  O  O33  1  0.320354  0.819700  0.002153  1
  O  O34  1  0.499346  0.679646  0.002153  1
  O  O35  1  0.500654  0.320354  0.502153  1
  O  O36  1  0.679646  0.180300  0.502153  1
  O  O37  1  0.180300  0.500654  0.002153  1
  O  O38  1  0.502638  0.817160  0.489535  1
  O  O39  1  0.685479  0.502638  0.989535  1
  O  O40  1  0.817160  0.314521  0.989535  1
  O  O41  1  0.182840  0.685479  0.489535  1
  O  O42  1  0.314521  0.497362  0.489535  1
  O  O43  1  0.497362  0.182840  0.989535  1
  O  O44  1  0.312781  0.000493  0.547560  1
  O  O45  1  0.312288  0.312781  0.047560  1
  O  O46  1  0.000493  0.687712  0.047560  1
  O  O47  1  0.999507  0.312288  0.547560  1
  O  O48  1  0.178603  0.997353  0.980287  1
  O  O49  1  0.181250  0.178603  0.480287  1
  O  O50  1  0.997353  0.818750  0.480287  1
  O  O51  1  0.002647  0.181250  0.980287  1
  O  O52  1  0.818750  0.821397  0.980287  1
  O  O53  1  0.821397  0.002647  0.480287  1
  O  O54  1  0.687219  0.999507  0.047560  1
  O  O55  1  0.687712  0.687219  0.547560  1
