# generated using pymatgen
data_Ca2SnO4
_symmetry_space_group_name_H-M   'P 1'
_cell_length_a   3.30732929
_cell_length_b   5.80308684
_cell_length_c   9.84109017
_cell_angle_alpha   90.00000000
_cell_angle_beta   90.00000000
_cell_angle_gamma   90.00000000
_symmetry_Int_Tables_number   1
_chemical_formula_structural   Ca2SnO4
_chemical_formula_sum   'Ca4 Sn2 O8'
_cell_volume   188.87727906
_cell_formula_units_Z   2
loop_
 _symmetry_equiv_pos_site_id
 _symmetry_equiv_pos_as_xyz
  1  'x, y, z'
loop_
 _atom_site_type_symbol
 _atom_site_label
 _atom_site_symmetry_multiplicity
 _atom_site_fract_x
 _atom_site_fract_y
 _atom_site_fract_z
 _atom_site_occupancy
  Ca  Ca0  1  0.500000  0.070373  0.318348  1
  Ca  Ca1  1  0.500000  0.929627  0.681652  1
  Ca  Ca2  1  0.500000  0.429627  0.818348  1
  Ca  Ca3  1  0.500000  0.570373  0.181652  1
  Sn  Sn4  1  0.000000  0.000000  0.000000  1
  Sn  Sn5  1  0.000000  0.500000  0.500000  1
  O  O6  1  0.000000  0.136021  0.806755  1
  O  O7  1  0.000000  0.863979  0.193245  1
  O  O8  1  0.000000  0.636021  0.693245  1
  O  O9  1  0.000000  0.363979  0.306755  1
  O  O10  1  0.500000  0.270688  0.547928  1
  O  O11  1  0.500000  0.729312  0.452072  1
  O  O12  1  0.500000  0.229312  0.047928  1
  O  O13  1  0.500000  0.770688  0.952072  1
