# generated using pymatgen
data_Nd2Fe17N3
_symmetry_space_group_name_H-M   'P 1'
_cell_length_a   6.55316792
_cell_length_b   6.55316792
_cell_length_c   6.55316792
_cell_angle_alpha   83.61919151
_cell_angle_beta   83.61919151
_cell_angle_gamma   83.61919151
_symmetry_Int_Tables_number   1
_chemical_formula_structural   Nd2Fe17N3
_chemical_formula_sum   'Nd2 Fe17 N3'
_cell_volume   276.54966083
_cell_formula_units_Z   1
loop_
 _symmetry_equiv_pos_site_id
 _symmetry_equiv_pos_as_xyz
  1  'x, y, z'
loop_
 _atom_site_type_symbol
 _atom_site_label
 _atom_site_symmetry_multiplicity
 _atom_site_fract_x
 _atom_site_fract_y
 _atom_site_fract_z
 _atom_site_occupancy
  Nd  Nd0  1  0.344432  0.344432  0.344432  1
  Nd  Nd1  1  0.655568  0.655568  0.655568  1
  Fe  Fe2  1  0.093816  0.093816  0.093816  1
  Fe  Fe3  1  0.500000  1.000000  1.000000  1
  Fe  Fe4  1  0.000000  0.500000  0.000000  1
  Fe  Fe5  1  0.000000  0.000000  0.500000  1
  Fe  Fe6  1  0.000000  0.717390  0.282610  1
  Fe  Fe7  1  0.282610  0.000000  0.717390  1
  Fe  Fe8  1  0.717390  0.282610  0.000000  1
  Fe  Fe9  1  0.000000  0.282610  0.717390  1
  Fe  Fe10  1  0.717390  0.000000  0.282610  1
  Fe  Fe11  1  0.282610  0.717390  1.000000  1
  Fe  Fe12  1  0.340715  0.340715  0.859531  1
  Fe  Fe13  1  0.859531  0.340715  0.340715  1
  Fe  Fe14  1  0.340715  0.859531  0.340715  1
  Fe  Fe15  1  0.659285  0.140469  0.659285  1
  Fe  Fe16  1  0.659285  0.659285  0.140469  1
  Fe  Fe17  1  0.140469  0.659285  0.659285  1
  Fe  Fe18  1  0.906184  0.906184  0.906184  1
  N  N19  1  0.500000  0.500000  0.000000  1
  N  N20  1  0.500000  0.000000  0.500000  1
  N  N21  1  0.000000  0.500000  0.500000  1
