# generated using pymatgen
data_Ni2Mo3N
_symmetry_space_group_name_H-M   'P 1'
_cell_length_a   6.66013109
_cell_length_b   6.66013109
_cell_length_c   6.66013109
_cell_angle_alpha   90.00000000
_cell_angle_beta   90.00000000
_cell_angle_gamma   90.00000000
_symmetry_Int_Tables_number   1
_chemical_formula_structural   Ni2Mo3N
_chemical_formula_sum   'Ni8 Mo12 N4'
_cell_volume   295.42574007
_cell_formula_units_Z   4
loop_
 _symmetry_equiv_pos_site_id
 _symmetry_equiv_pos_as_xyz
  1  'x, y, z'
loop_
 _atom_site_type_symbol
 _atom_site_label
 _atom_site_symmetry_multiplicity
 _atom_site_fract_x
 _atom_site_fract_y
 _atom_site_fract_z
 _atom_site_occupancy
  Ni  Ni0  1  0.933557  0.566443  0.433557  1
  Ni  Ni1  1  0.183557  0.816443  0.316443  1
  Ni  Ni2  1  0.433557  0.933557  0.566443  1
  Ni  Ni3  1  0.683557  0.683557  0.683557  1
  Ni  Ni4  1  0.816443  0.316443  0.183557  1
  Ni  Ni5  1  0.316443  0.183557  0.816443  1
  Ni  Ni6  1  0.566443  0.433557  0.933557  1
  Ni  Ni7  1  0.066443  0.066443  0.066443  1
  Mo  Mo8  1  0.200717  0.450717  0.125000  1
  Mo  Mo9  1  0.049283  0.875000  0.700717  1
  Mo  Mo10  1  0.450717  0.125000  0.200717  1
  Mo  Mo11  1  0.299283  0.549283  0.625000  1
  Mo  Mo12  1  0.950717  0.375000  0.799283  1
  Mo  Mo13  1  0.549283  0.625000  0.299283  1
  Mo  Mo14  1  0.700717  0.049283  0.875000  1
  Mo  Mo15  1  0.625000  0.299283  0.549283  1
  Mo  Mo16  1  0.875000  0.700717  0.049283  1
  Mo  Mo17  1  0.375000  0.799283  0.950717  1
  Mo  Mo18  1  0.125000  0.200717  0.450717  1
  Mo  Mo19  1  0.799283  0.950717  0.375000  1
  N  N20  1  0.875000  0.125000  0.625000  1
  N  N21  1  0.625000  0.875000  0.125000  1
  N  N22  1  0.125000  0.625000  0.875000  1
  N  N23  1  0.375000  0.375000  0.375000  1
