# generated using pymatgen
data_SrLaMnCoO6
_symmetry_space_group_name_H-M   'P 1'
_cell_length_a   5.48098219
_cell_length_b   5.48098219
_cell_length_c   5.48098219
_cell_angle_alpha   60.00000000
_cell_angle_beta   60.00000000
_cell_angle_gamma   60.00000000
_symmetry_Int_Tables_number   1
_chemical_formula_structural   SrLaMnCoO6
_chemical_formula_sum   'Sr1 La1 Mn1 Co1 O6'
_cell_volume   116.42873365
_cell_formula_units_Z   1
loop_
 _symmetry_equiv_pos_site_id
 _symmetry_equiv_pos_as_xyz
  1  'x, y, z'
loop_
 _atom_site_type_symbol
 _atom_site_label
 _atom_site_symmetry_multiplicity
 _atom_site_fract_x
 _atom_site_fract_y
 _atom_site_fract_z
 _atom_site_occupancy
  Sr  Sr0  1  0.000000  0.000000  0.000000  1
  La  La1  1  0.500000  0.500000  0.500000  1
  Mn  Mn2  1  0.250000  0.250000  0.250000  1
  Co  Co3  1  0.750000  0.750000  0.750000  1
  O  O4  1  0.000966  0.499034  0.499034  1
  O  O5  1  0.499034  0.499034  0.000966  1
  O  O6  1  0.499034  0.000966  0.499034  1
  O  O7  1  0.000966  0.499034  0.000966  1
  O  O8  1  0.000966  0.000966  0.499034  1
  O  O9  1  0.499034  0.000966  0.000966  1
