# generated using pymatgen
data_NaNbO3
_symmetry_space_group_name_H-M   'P 1'
_cell_length_a   5.58105323
_cell_length_b   5.58105323
_cell_length_c   7.94425568
_cell_angle_alpha   90.00000000
_cell_angle_beta   90.00000000
_cell_angle_gamma   90.60105647
_symmetry_Int_Tables_number   1
_chemical_formula_structural   NaNbO3
_chemical_formula_sum   'Na4 Nb4 O12'
_cell_volume   247.43529311
_cell_formula_units_Z   4
loop_
 _symmetry_equiv_pos_site_id
 _symmetry_equiv_pos_as_xyz
  1  'x, y, z'
loop_
 _atom_site_type_symbol
 _atom_site_label
 _atom_site_symmetry_multiplicity
 _atom_site_fract_x
 _atom_site_fract_y
 _atom_site_fract_z
 _atom_site_occupancy
  Na  Na0  1  0.510896  0.489104  0.750000  1
  Na  Na1  1  0.489104  0.510896  0.250000  1
  Na  Na2  1  0.003495  0.996505  0.750000  1
  Na  Na3  1  0.996505  0.003495  0.250000  1
  Nb  Nb4  1  0.500000  0.000000  0.500000  1
  Nb  Nb5  1  0.500000  0.000000  0.000000  1
  Nb  Nb6  1  0.000000  0.500000  0.500000  1
  Nb  Nb7  1  0.000000  0.500000  0.000000  1
  O  O8  1  0.466358  0.953325  0.250000  1
  O  O9  1  0.533642  0.046675  0.750000  1
  O  O10  1  0.953325  0.466358  0.750000  1
  O  O11  1  0.046675  0.533642  0.250000  1
  O  O12  1  0.708865  0.291135  0.460767  1
  O  O13  1  0.291135  0.708865  0.960767  1
  O  O14  1  0.291135  0.708865  0.539233  1
  O  O15  1  0.708865  0.291135  0.039233  1
  O  O16  1  0.207034  0.207034  1.000000  1
  O  O17  1  0.792966  0.792966  0.500000  1
  O  O18  1  0.792966  0.792966  1.000000  1
  O  O19  1  0.207034  0.207034  0.500000  1
