# generated using pymatgen
data_NdFeSi2
_symmetry_space_group_name_H-M   'P 1'
_cell_length_a   8.72506653
_cell_length_b   8.72506653
_cell_length_c   4.02874174
_cell_angle_alpha   90.00000000
_cell_angle_beta   90.00000000
_cell_angle_gamma   152.79647241
_symmetry_Int_Tables_number   1
_chemical_formula_structural   NdFeSi2
_chemical_formula_sum   'Nd2 Fe2 Si4'
_cell_volume   140.20651622
_cell_formula_units_Z   2
loop_
 _symmetry_equiv_pos_site_id
 _symmetry_equiv_pos_as_xyz
  1  'x, y, z'
loop_
 _atom_site_type_symbol
 _atom_site_label
 _atom_site_symmetry_multiplicity
 _atom_site_fract_x
 _atom_site_fract_y
 _atom_site_fract_z
 _atom_site_occupancy
  Nd  Nd0  1  0.107670  0.892330  0.250000  1
  Nd  Nd1  1  0.892330  0.107670  0.750000  1
  Fe  Fe2  1  0.250327  0.749673  0.750000  1
  Fe  Fe3  1  0.749673  0.250327  0.250000  1
  Si  Si4  1  0.310809  0.689191  0.250000  1
  Si  Si5  1  0.689191  0.310809  0.750000  1
  Si  Si6  1  0.537884  0.462116  0.750000  1
  Si  Si7  1  0.462116  0.537884  0.250000  1
