# generated using pymatgen
data_SrSiN2
_symmetry_space_group_name_H-M   'P 1'
_cell_length_a   5.54669670
_cell_length_b   7.37806532
_cell_length_c   5.98884197
_cell_angle_alpha   90.00000000
_cell_angle_beta   112.68782549
_cell_angle_gamma   90.00000000
_symmetry_Int_Tables_number   1
_chemical_formula_structural   SrSiN2
_chemical_formula_sum   'Sr4 Si4 N8'
_cell_volume   226.12192019
_cell_formula_units_Z   4
loop_
 _symmetry_equiv_pos_site_id
 _symmetry_equiv_pos_as_xyz
  1  'x, y, z'
loop_
 _atom_site_type_symbol
 _atom_site_label
 _atom_site_symmetry_multiplicity
 _atom_site_fract_x
 _atom_site_fract_y
 _atom_site_fract_z
 _atom_site_occupancy
  Sr  Sr0  1  0.824219  0.074903  0.162957  1
  Sr  Sr1  1  0.675781  0.574903  0.837043  1
  Sr  Sr2  1  0.175781  0.925097  0.837043  1
  Sr  Sr3  1  0.324219  0.425097  0.162957  1
  Si  Si4  1  0.429266  0.858702  0.395205  1
  Si  Si5  1  0.570734  0.141298  0.604795  1
  Si  Si6  1  0.070734  0.358702  0.604795  1
  Si  Si7  1  0.929266  0.641298  0.395205  1
  N  N8  1  0.609569  0.716887  0.290536  1
  N  N9  1  0.890431  0.216887  0.709464  1
  N  N10  1  0.390431  0.283113  0.709464  1
  N  N11  1  0.109569  0.783113  0.290536  1
  N  N12  1  0.420726  0.086551  0.290307  1
  N  N13  1  0.920726  0.413449  0.290307  1
  N  N14  1  0.579274  0.913449  0.709693  1
  N  N15  1  0.079274  0.586551  0.709693  1
