# generated using pymatgen
data_Nb4GaS8
_symmetry_space_group_name_H-M   'P 1'
_cell_length_a   7.13338987
_cell_length_b   7.13338987
_cell_length_c   7.13338987
_cell_angle_alpha   60.00000000
_cell_angle_beta   60.00000000
_cell_angle_gamma   60.00000000
_symmetry_Int_Tables_number   1
_chemical_formula_structural   Nb4GaS8
_chemical_formula_sum   'Nb4 Ga1 S8'
_cell_volume   256.66868425
_cell_formula_units_Z   1
loop_
 _symmetry_equiv_pos_site_id
 _symmetry_equiv_pos_as_xyz
  1  'x, y, z'
loop_
 _atom_site_type_symbol
 _atom_site_label
 _atom_site_symmetry_multiplicity
 _atom_site_fract_x
 _atom_site_fract_y
 _atom_site_fract_z
 _atom_site_occupancy
  Nb  Nb0  1  0.066160  0.644613  0.644613  1
  Nb  Nb1  1  0.644613  0.066160  0.644613  1
  Nb  Nb2  1  0.644613  0.644613  0.644613  1
  Nb  Nb3  1  0.644613  0.644613  0.066160  1
  Ga  Ga4  1  0.250000  0.250000  0.250000  1
  S  S5  1  0.881955  0.881955  0.354136  1
  S  S6  1  0.881955  0.881955  0.881955  1
  S  S7  1  0.881955  0.354136  0.881955  1
  S  S8  1  0.354136  0.881955  0.881955  1
  S  S9  1  0.383106  0.383106  0.383106  1
  S  S10  1  0.383106  0.383106  0.850683  1
  S  S11  1  0.850683  0.383106  0.383106  1
  S  S12  1  0.383106  0.850683  0.383106  1
