# generated using pymatgen
data_Gd2SO2
_symmetry_space_group_name_H-M   'P 1'
_cell_length_a   3.86870427
_cell_length_b   3.86870427
_cell_length_c   6.69502276
_cell_angle_alpha   90.00000000
_cell_angle_beta   90.00000000
_cell_angle_gamma   120.00000000
_symmetry_Int_Tables_number   1
_chemical_formula_structural   Gd2SO2
_chemical_formula_sum   'Gd2 S1 O2'
_cell_volume   86.77882309
_cell_formula_units_Z   1
loop_
 _symmetry_equiv_pos_site_id
 _symmetry_equiv_pos_as_xyz
  1  'x, y, z'
loop_
 _atom_site_type_symbol
 _atom_site_label
 _atom_site_symmetry_multiplicity
 _atom_site_fract_x
 _atom_site_fract_y
 _atom_site_fract_z
 _atom_site_occupancy
  Gd  Gd0  1  0.666667  0.333333  0.281357  1
  Gd  Gd1  1  0.333333  0.666667  0.718643  1
  S  S2  1  0.000000  0.000000  0.000000  1
  O  O3  1  0.333333  0.666667  0.369773  1
  O  O4  1  0.666667  0.333333  0.630227  1
