# generated using pymatgen
data_TbPO4
_symmetry_space_group_name_H-M   'P 1'
_cell_length_a   5.80620127
_cell_length_b   5.80620127
_cell_length_c   5.80620127
_cell_angle_alpha   105.92861849
_cell_angle_beta   105.92861849
_cell_angle_gamma   116.81562101
_symmetry_Int_Tables_number   1
_chemical_formula_structural   TbPO4
_chemical_formula_sum   'Tb2 P2 O8'
_cell_volume   148.80009492
_cell_formula_units_Z   2
loop_
 _symmetry_equiv_pos_site_id
 _symmetry_equiv_pos_as_xyz
  1  'x, y, z'
loop_
 _atom_site_type_symbol
 _atom_site_label
 _atom_site_symmetry_multiplicity
 _atom_site_fract_x
 _atom_site_fract_y
 _atom_site_fract_z
 _atom_site_occupancy
  Tb  Tb0  1  0.000000  0.000000  0.000000  1
  Tb  Tb1  1  0.250000  0.750000  0.500000  1
  P  P2  1  0.750000  0.250000  0.500000  1
  P  P3  1  0.500000  0.500000  0.000000  1
  O  O4  1  0.485526  0.659355  0.826170  1
  O  O5  1  0.909355  0.583185  0.673830  1
  O  O6  1  0.909355  0.235526  0.326170  1
  O  O7  1  0.833185  0.659355  0.173830  1
  O  O8  1  0.340645  0.166815  0.826170  1
  O  O9  1  0.764474  0.090645  0.673830  1
  O  O10  1  0.416815  0.090645  0.326170  1
  O  O11  1  0.340645  0.514474  0.173830  1
