# generated using pymatgen
data_PrRhO3
_symmetry_space_group_name_H-M   'P 1'
_cell_length_a   5.44467843
_cell_length_b   5.91698204
_cell_length_c   7.89216193
_cell_angle_alpha   90.00000000
_cell_angle_beta   90.00000000
_cell_angle_gamma   90.00000000
_symmetry_Int_Tables_number   1
_chemical_formula_structural   PrRhO3
_chemical_formula_sum   'Pr4 Rh4 O12'
_cell_volume   254.25439765
_cell_formula_units_Z   4
loop_
 _symmetry_equiv_pos_site_id
 _symmetry_equiv_pos_as_xyz
  1  'x, y, z'
loop_
 _atom_site_type_symbol
 _atom_site_label
 _atom_site_symmetry_multiplicity
 _atom_site_fract_x
 _atom_site_fract_y
 _atom_site_fract_z
 _atom_site_occupancy
  Pr  Pr0  1  0.475115  0.576834  0.750000  1
  Pr  Pr1  1  0.975115  0.923166  0.250000  1
  Pr  Pr2  1  0.024885  0.076834  0.750000  1
  Pr  Pr3  1  0.524885  0.423166  0.250000  1
  Rh  Rh4  1  0.500000  0.000000  0.500000  1
  Rh  Rh5  1  0.000000  0.500000  0.500000  1
  Rh  Rh6  1  0.000000  0.500000  0.000000  1
  Rh  Rh7  1  0.500000  0.000000  0.000000  1
  O  O8  1  0.814734  0.196296  0.446279  1
  O  O9  1  0.314734  0.303704  0.553721  1
  O  O10  1  0.685266  0.696296  0.053721  1
  O  O11  1  0.185266  0.803704  0.946279  1
  O  O12  1  0.185266  0.803704  0.553721  1
  O  O13  1  0.685266  0.696296  0.446279  1
  O  O14  1  0.314734  0.303704  0.946279  1
  O  O15  1  0.814734  0.196296  0.053721  1
  O  O16  1  0.388940  0.035094  0.250000  1
  O  O17  1  0.888940  0.464906  0.750000  1
  O  O18  1  0.111060  0.535094  0.250000  1
  O  O19  1  0.611060  0.964906  0.750000  1
