# generated using pymatgen
data_PrGaO3
_symmetry_space_group_name_H-M   'P 1'
_cell_length_a   5.50864068
_cell_length_b   5.60953694
_cell_length_c   7.83722105
_cell_angle_alpha   90.00000000
_cell_angle_beta   90.00000000
_cell_angle_gamma   90.00000000
_symmetry_Int_Tables_number   1
_chemical_formula_structural   PrGaO3
_chemical_formula_sum   'Pr4 Ga4 O12'
_cell_volume   242.17736721
_cell_formula_units_Z   4
loop_
 _symmetry_equiv_pos_site_id
 _symmetry_equiv_pos_as_xyz
  1  'x, y, z'
loop_
 _atom_site_type_symbol
 _atom_site_label
 _atom_site_symmetry_multiplicity
 _atom_site_fract_x
 _atom_site_fract_y
 _atom_site_fract_z
 _atom_site_occupancy
  Pr  Pr0  1  0.011589  0.953654  0.750000  1
  Pr  Pr1  1  0.511589  0.546346  0.250000  1
  Pr  Pr2  1  0.488411  0.453654  0.750000  1
  Pr  Pr3  1  0.988411  0.046346  0.250000  1
  Ga  Ga4  1  0.500000  0.000000  0.500000  1
  Ga  Ga5  1  0.000000  0.500000  0.500000  1
  Ga  Ga6  1  0.000000  0.500000  0.000000  1
  Ga  Ga7  1  0.500000  0.000000  0.000000  1
  O  O8  1  0.711956  0.289446  0.455629  1
  O  O9  1  0.211956  0.210554  0.544371  1
  O  O10  1  0.788044  0.789446  0.044371  1
  O  O11  1  0.288044  0.710554  0.955629  1
  O  O12  1  0.288044  0.710554  0.544371  1
  O  O13  1  0.788044  0.789446  0.455629  1
  O  O14  1  0.211956  0.210554  0.955629  1
  O  O15  1  0.711956  0.289446  0.044371  1
  O  O16  1  0.082431  0.480477  0.250000  1
  O  O17  1  0.582431  0.019523  0.750000  1
  O  O18  1  0.417569  0.980477  0.250000  1
  O  O19  1  0.917569  0.519523  0.750000  1
