# generated using pymatgen
data_AgAsF7
_symmetry_space_group_name_H-M   'P 1'
_cell_length_a   7.22035947
_cell_length_b   7.85344719
_cell_length_c   10.01202803
_cell_angle_alpha   90.00000000
_cell_angle_beta   90.00000000
_cell_angle_gamma   90.00000000
_symmetry_Int_Tables_number   1
_chemical_formula_structural   AgAsF7
_chemical_formula_sum   'Ag4 As4 F28'
_cell_volume   567.72916388
_cell_formula_units_Z   4
loop_
 _symmetry_equiv_pos_site_id
 _symmetry_equiv_pos_as_xyz
  1  'x, y, z'
loop_
 _atom_site_type_symbol
 _atom_site_label
 _atom_site_symmetry_multiplicity
 _atom_site_fract_x
 _atom_site_fract_y
 _atom_site_fract_z
 _atom_site_occupancy
  Ag  Ag0  1  0.250000  0.636127  0.742789  1
  Ag  Ag1  1  0.750000  0.363873  0.257211  1
  Ag  Ag2  1  0.250000  0.136127  0.757211  1
  Ag  Ag3  1  0.750000  0.863873  0.242789  1
  As  As4  1  0.250000  0.800326  0.059942  1
  As  As5  1  0.750000  0.199674  0.940058  1
  As  As6  1  0.250000  0.300326  0.440058  1
  As  As7  1  0.750000  0.699674  0.559942  1
  F  F8  1  0.924737  0.125649  0.829336  1
  F  F9  1  0.424737  0.874351  0.170664  1
  F  F10  1  0.575263  0.625649  0.670664  1
  F  F11  1  0.075263  0.374351  0.329336  1
  F  F12  1  0.075263  0.874351  0.170664  1
  F  F13  1  0.575263  0.125649  0.829336  1
  F  F14  1  0.424737  0.374351  0.329336  1
  F  F15  1  0.924737  0.625649  0.670664  1
  F  F16  1  0.750000  0.610974  0.193805  1
  F  F17  1  0.250000  0.389026  0.806195  1
  F  F18  1  0.750000  0.110974  0.306195  1
  F  F19  1  0.250000  0.889026  0.693805  1
  F  F20  1  0.750000  0.493577  0.482598  1
  F  F21  1  0.250000  0.506423  0.517402  1
  F  F22  1  0.750000  0.993577  0.017402  1
  F  F23  1  0.250000  0.006423  0.982598  1
  F  F24  1  0.750000  0.899220  0.634685  1
  F  F25  1  0.250000  0.100780  0.365315  1
  F  F26  1  0.750000  0.399220  0.865315  1
  F  F27  1  0.250000  0.600780  0.134685  1
  F  F28  1  0.922164  0.767169  0.441984  1
  F  F29  1  0.422164  0.232831  0.558016  1
  F  F30  1  0.577836  0.267169  0.058016  1
  F  F31  1  0.077836  0.732831  0.941984  1
  F  F32  1  0.077836  0.232831  0.558016  1
  F  F33  1  0.577836  0.767169  0.441984  1
  F  F34  1  0.422164  0.732831  0.941984  1
  F  F35  1  0.922164  0.267169  0.058016  1
