# generated using pymatgen
data_CePO4
_symmetry_space_group_name_H-M   'P 1'
_cell_length_a   6.50780047
_cell_length_b   7.09086044
_cell_length_c   8.26150111
_cell_angle_alpha   90.00000000
_cell_angle_beta   125.89092944
_cell_angle_gamma   90.00000000
_symmetry_Int_Tables_number   1
_chemical_formula_structural   CePO4
_chemical_formula_sum   'Ce4 P4 O16'
_cell_volume   308.85116103
_cell_formula_units_Z   4
loop_
 _symmetry_equiv_pos_site_id
 _symmetry_equiv_pos_as_xyz
  1  'x, y, z'
loop_
 _atom_site_type_symbol
 _atom_site_label
 _atom_site_symmetry_multiplicity
 _atom_site_fract_x
 _atom_site_fract_y
 _atom_site_fract_z
 _atom_site_occupancy
  Ce  Ce0  1  0.187390  0.658016  0.786768  1
  Ce  Ce1  1  0.812610  0.158016  0.713232  1
  Ce  Ce2  1  0.812610  0.341984  0.213232  1
  Ce  Ce3  1  0.187390  0.841984  0.286768  1
  P  P4  1  0.693574  0.661731  0.804614  1
  P  P5  1  0.306426  0.161731  0.695386  1
  P  P6  1  0.306426  0.338269  0.195386  1
  P  P7  1  0.693574  0.838269  0.304614  1
  O  O8  1  0.419145  0.711984  0.627958  1
  O  O9  1  0.580855  0.211984  0.872042  1
  O  O10  1  0.580855  0.288016  0.372042  1
  O  O11  1  0.419145  0.788016  0.127958  1
  O  O12  1  0.665004  0.602637  0.971687  1
  O  O13  1  0.334996  0.102637  0.528313  1
  O  O14  1  0.334996  0.397363  0.028313  1
  O  O15  1  0.665004  0.897363  0.471687  1
  O  O16  1  0.810584  0.994541  0.250479  1
  O  O17  1  0.189416  0.494541  0.249521  1
  O  O18  1  0.189416  0.005459  0.749521  1
  O  O19  1  0.810584  0.505459  0.750479  1
  O  O20  1  0.883859  0.669627  0.382390  1
  O  O21  1  0.116141  0.169627  0.117610  1
  O  O22  1  0.116141  0.330373  0.617610  1
  O  O23  1  0.883859  0.830373  0.882390  1
