# generated using pymatgen
data_CaSnF6
_symmetry_space_group_name_H-M   'P 1'
_cell_length_a   5.98941649
_cell_length_b   5.98941649
_cell_length_c   5.98941649
_cell_angle_alpha   58.64147120
_cell_angle_beta   58.64147120
_cell_angle_gamma   58.64147120
_symmetry_Int_Tables_number   1
_chemical_formula_structural   CaSnF6
_chemical_formula_sum   'Ca1 Sn1 F6'
_cell_volume   147.21046958
_cell_formula_units_Z   1
loop_
 _symmetry_equiv_pos_site_id
 _symmetry_equiv_pos_as_xyz
  1  'x, y, z'
loop_
 _atom_site_type_symbol
 _atom_site_label
 _atom_site_symmetry_multiplicity
 _atom_site_fract_x
 _atom_site_fract_y
 _atom_site_fract_z
 _atom_site_occupancy
  Ca  Ca0  1  0.000000  0.000000  0.000000  1
  Sn  Sn1  1  0.500000  0.500000  0.500000  1
  F  F2  1  0.267335  0.661896  0.804757  1
  F  F3  1  0.661896  0.804757  0.267335  1
  F  F4  1  0.195243  0.732665  0.338104  1
  F  F5  1  0.338104  0.195243  0.732665  1
  F  F6  1  0.732665  0.338104  0.195243  1
  F  F7  1  0.804757  0.267335  0.661896  1
