# generated using pymatgen
data_V4GaS8
_symmetry_space_group_name_H-M   'P 1'
_cell_length_a   6.87983518
_cell_length_b   6.87983518
_cell_length_c   6.87983518
_cell_angle_alpha   60.00000000
_cell_angle_beta   60.00000000
_cell_angle_gamma   60.00000000
_symmetry_Int_Tables_number   1
_chemical_formula_structural   V4GaS8
_chemical_formula_sum   'V4 Ga1 S8'
_cell_volume   230.26032006
_cell_formula_units_Z   1
loop_
 _symmetry_equiv_pos_site_id
 _symmetry_equiv_pos_as_xyz
  1  'x, y, z'
loop_
 _atom_site_type_symbol
 _atom_site_label
 _atom_site_symmetry_multiplicity
 _atom_site_fract_x
 _atom_site_fract_y
 _atom_site_fract_z
 _atom_site_occupancy
  V  V0  1  0.817756  0.394081  0.394081  1
  V  V1  1  0.394081  0.394081  0.817756  1
  V  V2  1  0.394081  0.394081  0.394081  1
  V  V3  1  0.394081  0.817756  0.394081  1
  Ga  Ga4  1  0.000000  0.000000  0.000000  1
  S  S5  1  0.590056  0.136648  0.136648  1
  S  S6  1  0.136648  0.136648  0.590056  1
  S  S7  1  0.136648  0.136648  0.136648  1
  S  S8  1  0.136648  0.590056  0.136648  1
  S  S9  1  0.113367  0.628878  0.628878  1
  S  S10  1  0.628878  0.113367  0.628878  1
  S  S11  1  0.628878  0.628878  0.628878  1
  S  S12  1  0.628878  0.628878  0.113367  1
