# generated using pymatgen
data_NaPO3
_symmetry_space_group_name_H-M   'P 1'
_cell_length_a   7.08625961
_cell_length_b   6.25645467
_cell_length_c   14.03222934
_cell_angle_alpha   90.00000000
_cell_angle_beta   118.66907799
_cell_angle_gamma   90.00000000
_symmetry_Int_Tables_number   1
_chemical_formula_structural   NaPO3
_chemical_formula_sum   'Na8 P8 O24'
_cell_volume   545.84865405
_cell_formula_units_Z   8
loop_
 _symmetry_equiv_pos_site_id
 _symmetry_equiv_pos_as_xyz
  1  'x, y, z'
loop_
 _atom_site_type_symbol
 _atom_site_label
 _atom_site_symmetry_multiplicity
 _atom_site_fract_x
 _atom_site_fract_y
 _atom_site_fract_z
 _atom_site_occupancy
  Na  Na0  1  0.504004  0.126215  0.131816  1
  Na  Na1  1  0.495996  0.626215  0.368184  1
  Na  Na2  1  0.495996  0.873785  0.868184  1
  Na  Na3  1  0.504004  0.373785  0.631816  1
  Na  Na4  1  0.241287  0.621015  0.004657  1
  Na  Na5  1  0.758713  0.121015  0.495343  1
  Na  Na6  1  0.758713  0.378985  0.995343  1
  Na  Na7  1  0.241287  0.878985  0.504657  1
  P  P8  1  0.723637  0.633278  0.214630  1
  P  P9  1  0.276363  0.133278  0.285370  1
  P  P10  1  0.276363  0.366722  0.785370  1
  P  P11  1  0.723637  0.866722  0.714630  1
  P  P12  1  0.927477  0.871124  0.110112  1
  P  P13  1  0.072523  0.371124  0.389888  1
  P  P14  1  0.072523  0.128876  0.889888  1
  P  P15  1  0.927477  0.628876  0.610112  1
  O  O16  1  0.739325  0.478733  0.555206  1
  O  O17  1  0.260675  0.978733  0.944794  1
  O  O18  1  0.260675  0.521267  0.444794  1
  O  O19  1  0.739325  0.021267  0.055206  1
  O  O20  1  0.957505  0.796024  0.542285  1
  O  O21  1  0.042495  0.296024  0.957715  1
  O  O22  1  0.042495  0.203976  0.457715  1
  O  O23  1  0.957505  0.703976  0.042285  1
  O  O24  1  0.149515  0.495083  0.671655  1
  O  O25  1  0.850485  0.995083  0.828345  1
  O  O26  1  0.850485  0.504917  0.328345  1
  O  O27  1  0.149515  0.004917  0.171655  1
  O  O28  1  0.625876  0.019507  0.620372  1
  O  O29  1  0.374124  0.519507  0.879628  1
  O  O30  1  0.374124  0.980493  0.379628  1
  O  O31  1  0.625876  0.480493  0.120372  1
  O  O32  1  0.577057  0.788135  0.228525  1
  O  O33  1  0.422943  0.288135  0.271475  1
  O  O34  1  0.422943  0.211865  0.771475  1
  O  O35  1  0.577057  0.711865  0.728525  1
  O  O36  1  0.924516  0.760460  0.214700  1
  O  O37  1  0.075484  0.260460  0.285300  1
  O  O38  1  0.075484  0.239540  0.785300  1
  O  O39  1  0.924516  0.739540  0.714700  1
