# generated using pymatgen
data_K(CoSe)2
_symmetry_space_group_name_H-M   'P 1'
_cell_length_a   7.21721458
_cell_length_b   7.21721458
_cell_length_c   7.21721458
_cell_angle_alpha   148.66886169
_cell_angle_beta   148.66886169
_cell_angle_gamma   44.89895386
_symmetry_Int_Tables_number   1
_chemical_formula_structural   K(CoSe)2
_chemical_formula_sum   'K1 Co2 Se2'
_cell_volume   101.33058515
_cell_formula_units_Z   1
loop_
 _symmetry_equiv_pos_site_id
 _symmetry_equiv_pos_as_xyz
  1  'x, y, z'
loop_
 _atom_site_type_symbol
 _atom_site_label
 _atom_site_symmetry_multiplicity
 _atom_site_fract_x
 _atom_site_fract_y
 _atom_site_fract_z
 _atom_site_occupancy
  K  K0  1  0.000000  0.000000  0.000000  1
  Co  Co1  1  0.250000  0.750000  0.500000  1
  Co  Co2  1  0.750000  0.250000  0.500000  1
  Se  Se3  1  0.349074  0.349074  0.000000  1
  Se  Se4  1  0.650926  0.650926  0.000000  1
