# generated using pymatgen
data_Th(CuGe)2
_symmetry_space_group_name_H-M   'P 1'
_cell_length_a   5.86713218
_cell_length_b   5.86713218
_cell_length_c   5.86713218
_cell_angle_alpha   138.09287085
_cell_angle_beta   138.09287085
_cell_angle_gamma   60.76079234
_symmetry_Int_Tables_number   1
_chemical_formula_structural   Th(CuGe)2
_chemical_formula_sum   'Th1 Cu2 Ge2'
_cell_volume   89.12775984
_cell_formula_units_Z   1
loop_
 _symmetry_equiv_pos_site_id
 _symmetry_equiv_pos_as_xyz
  1  'x, y, z'
loop_
 _atom_site_type_symbol
 _atom_site_label
 _atom_site_symmetry_multiplicity
 _atom_site_fract_x
 _atom_site_fract_y
 _atom_site_fract_z
 _atom_site_occupancy
  Th  Th0  1  0.000000  0.000000  0.000000  1
  Cu  Cu1  1  0.250000  0.750000  0.500000  1
  Cu  Cu2  1  0.750000  0.250000  0.500000  1
  Ge  Ge3  1  0.623992  0.623992  0.000000  1
  Ge  Ge4  1  0.376008  0.376008  0.000000  1
