# generated using pymatgen
data_TlNO2
_symmetry_space_group_name_H-M   'P 1'
_cell_length_a   5.70338461
_cell_length_b   5.70338461
_cell_length_c   7.57327373
_cell_angle_alpha   90.00000000
_cell_angle_beta   90.00000000
_cell_angle_gamma   120.00000000
_symmetry_Int_Tables_number   1
_chemical_formula_structural   TlNO2
_chemical_formula_sum   'Tl3 N3 O6'
_cell_volume   213.34359286
_cell_formula_units_Z   3
loop_
 _symmetry_equiv_pos_site_id
 _symmetry_equiv_pos_as_xyz
  1  'x, y, z'
loop_
 _atom_site_type_symbol
 _atom_site_label
 _atom_site_symmetry_multiplicity
 _atom_site_fract_x
 _atom_site_fract_y
 _atom_site_fract_z
 _atom_site_occupancy
  Tl  Tl0  1  0.000000  0.701921  0.666667  1
  Tl  Tl1  1  0.701921  0.000000  0.333333  1
  Tl  Tl2  1  0.298079  0.298079  0.000000  1
  N  N3  1  0.694508  0.000000  0.833333  1
  N  N4  1  0.000000  0.694508  0.166667  1
  N  N5  1  0.305492  0.305492  0.500000  1
  O  O6  1  0.882112  0.515851  0.047959  1
  O  O7  1  0.484149  0.366261  0.381293  1
  O  O8  1  0.633739  0.117888  0.714626  1
  O  O9  1  0.366261  0.484149  0.618707  1
  O  O10  1  0.515851  0.882112  0.952041  1
  O  O11  1  0.117888  0.633739  0.285374  1
