# generated using pymatgen
data_LaSiRu
_symmetry_space_group_name_H-M   'P 1'
_cell_length_a   4.26037771
_cell_length_b   4.26037771
_cell_length_c   7.16706618
_cell_angle_alpha   90.00000000
_cell_angle_beta   90.00000000
_cell_angle_gamma   90.00000000
_symmetry_Int_Tables_number   1
_chemical_formula_structural   LaSiRu
_chemical_formula_sum   'La2 Si2 Ru2'
_cell_volume   130.08811549
_cell_formula_units_Z   2
loop_
 _symmetry_equiv_pos_site_id
 _symmetry_equiv_pos_as_xyz
  1  'x, y, z'
loop_
 _atom_site_type_symbol
 _atom_site_label
 _atom_site_symmetry_multiplicity
 _atom_site_fract_x
 _atom_site_fract_y
 _atom_site_fract_z
 _atom_site_occupancy
  La  La0  1  0.000000  0.500000  0.315663  1
  La  La1  1  0.500000  0.000000  0.684337  1
  Si  Si2  1  0.000000  0.500000  0.833414  1
  Si  Si3  1  0.500000  0.000000  0.166586  1
  Ru  Ru4  1  0.000000  0.000000  0.000000  1
  Ru  Ru5  1  0.500000  0.500000  0.000000  1
