# generated using pymatgen
data_Ca(NiAs)2
_symmetry_space_group_name_H-M   'P 1'
_cell_length_a   5.77878084
_cell_length_b   5.77878084
_cell_length_c   5.77878084
_cell_angle_alpha   138.59523785
_cell_angle_beta   138.59523785
_cell_angle_gamma   59.99257637
_symmetry_Int_Tables_number   1
_chemical_formula_structural   Ca(NiAs)2
_chemical_formula_sum   'Ca1 Ni2 As2'
_cell_volume   83.54646541
_cell_formula_units_Z   1
loop_
 _symmetry_equiv_pos_site_id
 _symmetry_equiv_pos_as_xyz
  1  'x, y, z'
loop_
 _atom_site_type_symbol
 _atom_site_label
 _atom_site_symmetry_multiplicity
 _atom_site_fract_x
 _atom_site_fract_y
 _atom_site_fract_z
 _atom_site_occupancy
  Ca  Ca0  1  0.000000  0.000000  0.000000  1
  Ni  Ni1  1  0.750000  0.250000  0.500000  1
  Ni  Ni2  1  0.250000  0.750000  0.500000  1
  As  As3  1  0.368890  0.368890  0.000000  1
  As  As4  1  0.631110  0.631110  0.000000  1
