# generated using pymatgen
data_Nd2Co14B
_symmetry_space_group_name_H-M   'P 1'
_cell_length_a   8.60497344
_cell_length_b   8.60497344
_cell_length_c   11.83154164
_cell_angle_alpha   90.00000000
_cell_angle_beta   90.00000000
_cell_angle_gamma   90.00000000
_symmetry_Int_Tables_number   1
_chemical_formula_structural   Nd2Co14B
_chemical_formula_sum   'Nd8 Co56 B4'
_cell_volume   876.07321990
_cell_formula_units_Z   4
loop_
 _symmetry_equiv_pos_site_id
 _symmetry_equiv_pos_as_xyz
  1  'x, y, z'
loop_
 _atom_site_type_symbol
 _atom_site_label
 _atom_site_symmetry_multiplicity
 _atom_site_fract_x
 _atom_site_fract_y
 _atom_site_fract_z
 _atom_site_occupancy
  Nd  Nd0  1  0.275727  0.275727  0.000000  1
  Nd  Nd1  1  0.224273  0.775727  0.500000  1
  Nd  Nd2  1  0.775727  0.224273  0.500000  1
  Nd  Nd3  1  0.724273  0.724273  0.000000  1
  Nd  Nd4  1  0.145353  0.854647  0.000000  1
  Nd  Nd5  1  0.645353  0.645353  0.500000  1
  Nd  Nd6  1  0.354647  0.354647  0.500000  1
  Nd  Nd7  1  0.854647  0.145353  0.000000  1
  Co  Co8  1  0.000000  0.500000  0.000000  1
  Co  Co9  1  0.000000  0.500000  0.500000  1
  Co  Co10  1  0.500000  0.000000  0.500000  1
  Co  Co11  1  0.500000  0.000000  0.000000  1
  Co  Co12  1  0.000000  0.000000  0.616491  1
  Co  Co13  1  0.500000  0.500000  0.116491  1
  Co  Co14  1  0.500000  0.500000  0.883509  1
  Co  Co15  1  0.000000  0.000000  0.383509  1
  Co  Co16  1  0.317946  0.317946  0.247201  1
  Co  Co17  1  0.182054  0.817946  0.747201  1
  Co  Co18  1  0.817946  0.182054  0.747201  1
  Co  Co19  1  0.817946  0.182054  0.252799  1
  Co  Co20  1  0.182054  0.817946  0.252799  1
  Co  Co21  1  0.682054  0.682054  0.247201  1
  Co  Co22  1  0.317946  0.317946  0.752799  1
  Co  Co23  1  0.682054  0.682054  0.752799  1
  Co  Co24  1  0.098693  0.098693  0.206174  1
  Co  Co25  1  0.401307  0.598693  0.706174  1
  Co  Co26  1  0.598693  0.401307  0.706174  1
  Co  Co27  1  0.598693  0.401307  0.293826  1
  Co  Co28  1  0.401307  0.598693  0.293826  1
  Co  Co29  1  0.901307  0.901307  0.206174  1
  Co  Co30  1  0.098693  0.098693  0.793826  1
  Co  Co31  1  0.901307  0.901307  0.793826  1
  Co  Co32  1  0.036032  0.360492  0.178935  1
  Co  Co33  1  0.139508  0.536032  0.678935  1
  Co  Co34  1  0.860492  0.463968  0.678935  1
  Co  Co35  1  0.536032  0.139508  0.321065  1
  Co  Co36  1  0.463968  0.860492  0.321065  1
  Co  Co37  1  0.963968  0.639508  0.178935  1
  Co  Co38  1  0.360492  0.036032  0.821065  1
  Co  Co39  1  0.639508  0.963968  0.821065  1
  Co  Co40  1  0.963968  0.639508  0.821065  1
  Co  Co41  1  0.860492  0.463968  0.321065  1
  Co  Co42  1  0.139508  0.536032  0.321065  1
  Co  Co43  1  0.463968  0.860492  0.678935  1
  Co  Co44  1  0.536032  0.139508  0.678935  1
  Co  Co45  1  0.036032  0.360492  0.821065  1
  Co  Co46  1  0.639508  0.963968  0.178935  1
  Co  Co47  1  0.360492  0.036032  0.178935  1
  Co  Co48  1  0.224623  0.569502  0.127415  1
  Co  Co49  1  0.930498  0.724623  0.627415  1
  Co  Co50  1  0.069502  0.275377  0.627415  1
  Co  Co51  1  0.724623  0.930498  0.372585  1
  Co  Co52  1  0.275377  0.069502  0.372585  1
  Co  Co53  1  0.775377  0.430498  0.127415  1
  Co  Co54  1  0.569502  0.224623  0.872585  1
  Co  Co55  1  0.430498  0.775377  0.872585  1
  Co  Co56  1  0.775377  0.430498  0.872585  1
  Co  Co57  1  0.069502  0.275377  0.372585  1
  Co  Co58  1  0.930498  0.724623  0.372585  1
  Co  Co59  1  0.275377  0.069502  0.627415  1
  Co  Co60  1  0.724623  0.930498  0.627415  1
  Co  Co61  1  0.224623  0.569502  0.872585  1
  Co  Co62  1  0.430498  0.775377  0.127415  1
  Co  Co63  1  0.569502  0.224623  0.127415  1
  B  B64  1  0.378258  0.621742  0.000000  1
  B  B65  1  0.878258  0.878258  0.500000  1
  B  B66  1  0.121742  0.121742  0.500000  1
  B  B67  1  0.621742  0.378258  0.000000  1
