# generated using pymatgen
data_DyAl
_symmetry_space_group_name_H-M   'P 1'
_cell_length_a   5.63214104
_cell_length_b   5.85248138
_cell_length_c   11.43920257
_cell_angle_alpha   90.00000000
_cell_angle_beta   90.00000000
_cell_angle_gamma   90.00000000
_symmetry_Int_Tables_number   1
_chemical_formula_structural   DyAl
_chemical_formula_sum   'Dy8 Al8'
_cell_volume   377.05900159
_cell_formula_units_Z   8
loop_
 _symmetry_equiv_pos_site_id
 _symmetry_equiv_pos_as_xyz
  1  'x, y, z'
loop_
 _atom_site_type_symbol
 _atom_site_label
 _atom_site_symmetry_multiplicity
 _atom_site_fract_x
 _atom_site_fract_y
 _atom_site_fract_z
 _atom_site_occupancy
  Dy  Dy0  1  0.750000  0.163679  0.482441  1
  Dy  Dy1  1  0.250000  0.836321  0.517559  1
  Dy  Dy2  1  0.250000  0.163679  0.017559  1
  Dy  Dy3  1  0.750000  0.836321  0.982441  1
  Dy  Dy4  1  0.750000  0.400742  0.168322  1
  Dy  Dy5  1  0.250000  0.599258  0.831678  1
  Dy  Dy6  1  0.250000  0.400742  0.331678  1
  Dy  Dy7  1  0.750000  0.599258  0.668322  1
  Al  Al8  1  0.750000  0.662963  0.401378  1
  Al  Al9  1  0.250000  0.337037  0.598622  1
  Al  Al10  1  0.250000  0.662963  0.098622  1
  Al  Al11  1  0.750000  0.337037  0.901378  1
  Al  Al12  1  0.500000  0.931654  0.250000  1
  Al  Al13  1  0.000000  0.068346  0.750000  1
  Al  Al14  1  0.500000  0.068346  0.750000  1
  Al  Al15  1  0.000000  0.931654  0.250000  1
