# generated using pymatgen
data_CaNbO3
_symmetry_space_group_name_H-M   'P 1'
_cell_length_a   5.55886586
_cell_length_b   5.71631657
_cell_length_c   7.98312060
_cell_angle_alpha   90.00000000
_cell_angle_beta   90.00000000
_cell_angle_gamma   90.00000000
_symmetry_Int_Tables_number   1
_chemical_formula_structural   CaNbO3
_chemical_formula_sum   'Ca4 Nb4 O12'
_cell_volume   253.67353239
_cell_formula_units_Z   4
loop_
 _symmetry_equiv_pos_site_id
 _symmetry_equiv_pos_as_xyz
  1  'x, y, z'
loop_
 _atom_site_type_symbol
 _atom_site_label
 _atom_site_symmetry_multiplicity
 _atom_site_fract_x
 _atom_site_fract_y
 _atom_site_fract_z
 _atom_site_occupancy
  Ca  Ca0  1  0.008718  0.051948  0.250000  1
  Ca  Ca1  1  0.508718  0.448052  0.750000  1
  Ca  Ca2  1  0.491282  0.551948  0.250000  1
  Ca  Ca3  1  0.991282  0.948052  0.750000  1
  Nb  Nb4  1  0.500000  0.000000  0.000000  1
  Nb  Nb5  1  0.000000  0.500000  0.000000  1
  Nb  Nb6  1  0.000000  0.500000  0.500000  1
  Nb  Nb7  1  0.500000  0.000000  0.500000  1
  O  O8  1  0.800952  0.203297  0.545536  1
  O  O9  1  0.300952  0.296703  0.454464  1
  O  O10  1  0.699048  0.703297  0.954464  1
  O  O11  1  0.199048  0.796703  0.045536  1
  O  O12  1  0.199048  0.796703  0.454464  1
  O  O13  1  0.699048  0.703297  0.545536  1
  O  O14  1  0.300952  0.296703  0.045536  1
  O  O15  1  0.800952  0.203297  0.954464  1
  O  O16  1  0.587599  0.972276  0.250000  1
  O  O17  1  0.087599  0.527724  0.750000  1
  O  O18  1  0.912401  0.472276  0.250000  1
  O  O19  1  0.412401  0.027724  0.750000  1
