# generated using pymatgen
data_NaSr3LaTi5O15
_symmetry_space_group_name_H-M   'P 1'
_cell_length_a   20.10614246
_cell_length_b   20.10614246
_cell_length_c   20.10614246
_cell_angle_alpha   164.17414299
_cell_angle_beta   164.17414299
_cell_angle_gamma   22.45346540
_symmetry_Int_Tables_number   1
_chemical_formula_structural   NaSr3LaTi5O15
_chemical_formula_sum   'Na2 Sr6 La2 Ti10 O30'
_cell_volume   604.39593828
_cell_formula_units_Z   2
loop_
 _symmetry_equiv_pos_site_id
 _symmetry_equiv_pos_as_xyz
  1  'x, y, z'
loop_
 _atom_site_type_symbol
 _atom_site_label
 _atom_site_symmetry_multiplicity
 _atom_site_fract_x
 _atom_site_fract_y
 _atom_site_fract_z
 _atom_site_occupancy
  Na  Na0  1  0.200355  0.200355  0.000000  1
  Na  Na1  1  0.799645  0.799645  0.000000  1
  Sr  Sr2  1  0.399707  0.399707  0.000000  1
  Sr  Sr3  1  0.000000  0.000000  0.000000  1
  Sr  Sr4  1  0.899230  0.899230  0.000000  1
  Sr  Sr5  1  0.600293  0.600293  0.000000  1
  Sr  Sr6  1  0.500000  0.500000  0.000000  1
  Sr  Sr7  1  0.100770  0.100770  0.000000  1
  La  La8  1  0.700390  0.700390  0.000000  1
  La  La9  1  0.299610  0.299610  0.000000  1
  Ti  Ti10  1  0.750000  0.250000  0.500000  1
  Ti  Ti11  1  0.250000  0.750000  0.500000  1
  Ti  Ti12  1  0.949656  0.449656  0.500000  1
  Ti  Ti13  1  0.848914  0.348914  0.500000  1
  Ti  Ti14  1  0.550344  0.050344  0.500000  1
  Ti  Ti15  1  0.449656  0.949656  0.500000  1
  Ti  Ti16  1  0.348914  0.848914  0.500000  1
  Ti  Ti17  1  0.151086  0.651086  0.500000  1
  Ti  Ti18  1  0.050344  0.550344  0.500000  1
  Ti  Ti19  1  0.651086  0.151086  0.500000  1
  O  O20  1  0.700587  0.200587  0.500000  1
  O  O21  1  0.454687  0.047223  1.000000  1
  O  O22  1  0.952777  0.952777  0.407464  1
  O  O23  1  0.299413  0.799413  0.500000  1
  O  O24  1  0.200587  0.700587  0.500000  1
  O  O25  1  0.073043  0.625463  0.000000  1
  O  O26  1  0.545313  0.545313  0.592536  1
  O  O27  1  0.560970  0.560970  0.425553  1
  O  O28  1  0.047223  0.454687  1.000000  1
  O  O29  1  0.899248  0.399248  0.500000  1
  O  O30  1  0.799413  0.299413  0.500000  1
  O  O31  1  0.679906  0.219655  1.000000  1
  O  O32  1  0.135417  0.135417  0.574447  1
  O  O33  1  0.179396  0.179396  0.459842  1
  O  O34  1  0.625463  0.073043  0.000000  1
  O  O35  1  0.500000  0.000000  0.500000  1
  O  O36  1  0.399248  0.899248  0.500000  1
  O  O37  1  0.280446  0.820604  0.000000  1
  O  O38  1  0.719554  0.719554  0.540158  1
  O  O39  1  0.780345  0.780345  0.460251  1
  O  O40  1  0.219655  0.679906  0.000000  1
  O  O41  1  0.100752  0.600752  0.500000  1
  O  O42  1  0.000000  0.500000  0.500000  1
  O  O43  1  0.864583  0.439030  0.000000  1
  O  O44  1  0.320094  0.320094  0.539749  1
  O  O45  1  0.374537  0.374537  0.447580  1
  O  O46  1  0.820604  0.280446  1.000000  1
  O  O47  1  0.600752  0.100752  0.500000  1
  O  O48  1  0.926957  0.926957  0.552420  1
  O  O49  1  0.439030  0.864583  0.000000  1
