# generated using pymatgen
data_Na2PtC2
_symmetry_space_group_name_H-M   'P 1'
_cell_length_a   4.55703465
_cell_length_b   4.55703465
_cell_length_c   5.22593365
_cell_angle_alpha   90.00000000
_cell_angle_beta   90.00000000
_cell_angle_gamma   120.00000000
_symmetry_Int_Tables_number   1
_chemical_formula_structural   Na2PtC2
_chemical_formula_sum   'Na2 Pt1 C2'
_cell_volume   93.98513830
_cell_formula_units_Z   1
loop_
 _symmetry_equiv_pos_site_id
 _symmetry_equiv_pos_as_xyz
  1  'x, y, z'
loop_
 _atom_site_type_symbol
 _atom_site_label
 _atom_site_symmetry_multiplicity
 _atom_site_fract_x
 _atom_site_fract_y
 _atom_site_fract_z
 _atom_site_occupancy
  Na  Na0  1  0.666667  0.333333  0.729843  1
  Na  Na1  1  0.333333  0.666667  0.270157  1
  Pt  Pt2  1  0.000000  0.000000  0.000000  1
  C  C3  1  0.000000  0.000000  0.621795  1
  C  C4  1  0.000000  0.000000  0.378205  1
