# generated using pymatgen
data_Ba3Na2Ti3Nb2O15
_symmetry_space_group_name_H-M   'P 1'
_cell_length_a   14.51822762
_cell_length_b   14.51822762
_cell_length_c   4.02806574
_cell_angle_alpha   90.00000000
_cell_angle_beta   90.00000000
_cell_angle_gamma   157.41446731
_symmetry_Int_Tables_number   1
_chemical_formula_structural   Ba3Na2Ti3Nb2O15
_chemical_formula_sum   'Ba3 Na2 Ti3 Nb2 O15'
_cell_volume   326.08086537
_cell_formula_units_Z   1
loop_
 _symmetry_equiv_pos_site_id
 _symmetry_equiv_pos_as_xyz
  1  'x, y, z'
loop_
 _atom_site_type_symbol
 _atom_site_label
 _atom_site_symmetry_multiplicity
 _atom_site_fract_x
 _atom_site_fract_y
 _atom_site_fract_z
 _atom_site_occupancy
  Ba  Ba0  1  0.599091  0.400909  1.000000  1
  Ba  Ba1  1  0.000000  0.000000  0.000000  1
  Ba  Ba2  1  0.400909  0.599091  1.000000  1
  Na  Na3  1  0.801327  0.198673  1.000000  1
  Na  Na4  1  0.198673  0.801327  0.000000  1
  Ti  Ti5  1  0.500000  0.500000  0.500000  1
  Ti  Ti6  1  0.898957  0.101043  0.500000  1
  Ti  Ti7  1  0.101043  0.898957  0.500000  1
  Nb  Nb8  1  0.299382  0.700618  0.500000  1
  Nb  Nb9  1  0.700618  0.299382  0.500000  1
  O  O10  1  0.300755  0.200326  0.500000  1
  O  O11  1  0.699245  0.799674  0.500000  1
  O  O12  1  0.799674  0.699245  0.500000  1
  O  O13  1  0.100198  0.400260  0.500000  1
  O  O14  1  0.500000  1.000000  0.500000  1
  O  O15  1  0.200326  0.300755  0.500000  1
  O  O16  1  0.599740  0.899802  0.500000  1
  O  O17  1  0.899802  0.599740  0.500000  1
  O  O18  1  0.000000  0.500000  0.500000  1
  O  O19  1  0.400260  0.100198  0.500000  1
  O  O20  1  0.500000  0.500000  1.000000  1
  O  O21  1  0.899340  0.100660  0.000000  1
  O  O22  1  0.299407  0.700593  1.000000  1
  O  O23  1  0.700593  0.299407  1.000000  1
  O  O24  1  0.100660  0.899340  1.000000  1
