# generated using pymatgen
data_Nb3Co4B7
_symmetry_space_group_name_H-M   'P 1'
_cell_length_a   9.34047268
_cell_length_b   9.34047268
_cell_length_c   8.89271778
_cell_angle_alpha   90.00000000
_cell_angle_beta   90.00000000
_cell_angle_gamma   160.23250837
_symmetry_Int_Tables_number   1
_chemical_formula_structural   Nb3Co4B7
_chemical_formula_sum   'Nb6 Co8 B14'
_cell_volume   262.39224647
_cell_formula_units_Z   2
loop_
 _symmetry_equiv_pos_site_id
 _symmetry_equiv_pos_as_xyz
  1  'x, y, z'
loop_
 _atom_site_type_symbol
 _atom_site_label
 _atom_site_symmetry_multiplicity
 _atom_site_fract_x
 _atom_site_fract_y
 _atom_site_fract_z
 _atom_site_occupancy
  Nb  Nb0  1  0.302027  0.697973  0.750000  1
  Nb  Nb1  1  0.697973  0.302027  0.250000  1
  Nb  Nb2  1  0.419155  0.580845  0.444947  1
  Nb  Nb3  1  0.580845  0.419155  0.555053  1
  Nb  Nb4  1  0.580845  0.419155  0.944947  1
  Nb  Nb5  1  0.419155  0.580845  0.055053  1
  Co  Co6  1  0.457838  0.542162  0.750000  1
  Co  Co7  1  0.542162  0.457838  0.250000  1
  Co  Co8  1  0.156249  0.843751  0.750000  1
  Co  Co9  1  0.843751  0.156249  0.250000  1
  Co  Co10  1  0.199021  0.800979  0.494882  1
  Co  Co11  1  0.800979  0.199021  0.505118  1
  Co  Co12  1  0.800979  0.199021  0.994882  1
  Co  Co13  1  0.199021  0.800979  0.005118  1
  B  B14  1  0.044601  0.955399  0.750000  1
  B  B15  1  0.955399  0.044601  0.250000  1
  B  B16  1  0.109749  0.890251  0.352267  1
  B  B17  1  0.890251  0.109749  0.647733  1
  B  B18  1  0.890251  0.109749  0.852267  1
  B  B19  1  0.109749  0.890251  0.147733  1
  B  B20  1  0.289862  0.710138  0.355237  1
  B  B21  1  0.710138  0.289862  0.644763  1
  B  B22  1  0.710138  0.289862  0.855237  1
  B  B23  1  0.289862  0.710138  0.144763  1
  B  B24  1  0.015412  0.984588  0.406639  1
  B  B25  1  0.984588  0.015412  0.593361  1
  B  B26  1  0.984588  0.015412  0.906639  1
  B  B27  1  0.015412  0.984588  0.093361  1
