# generated using pymatgen
data_BaLaCuRuO6
_symmetry_space_group_name_H-M   'P 1'
_cell_length_a   5.80606194
_cell_length_b   5.80606194
_cell_length_c   5.80606194
_cell_angle_alpha   123.29561465
_cell_angle_beta   123.29561465
_cell_angle_gamma   84.38072566
_symmetry_Int_Tables_number   1
_chemical_formula_structural   BaLaCuRuO6
_chemical_formula_sum   'Ba1 La1 Cu1 Ru1 O6'
_cell_volume   130.81605648
_cell_formula_units_Z   1
loop_
 _symmetry_equiv_pos_site_id
 _symmetry_equiv_pos_as_xyz
  1  'x, y, z'
loop_
 _atom_site_type_symbol
 _atom_site_label
 _atom_site_symmetry_multiplicity
 _atom_site_fract_x
 _atom_site_fract_y
 _atom_site_fract_z
 _atom_site_occupancy
  Ba  Ba0  1  0.000000  0.000000  0.000000  1
  La  La1  1  0.500000  0.500000  0.000000  1
  Cu  Cu2  1  0.750000  0.250000  0.500000  1
  Ru  Ru3  1  0.250000  0.750000  0.500000  1
  O  O4  1  0.482105  0.982105  0.500000  1
  O  O5  1  0.471990  0.478065  0.396929  1
  O  O6  1  0.521935  0.918864  0.993926  1
  O  O7  1  0.017895  0.517895  0.500000  1
  O  O8  1  0.924939  0.528010  0.006074  1
  O  O9  1  0.081136  0.075061  0.603071  1
