# generated using pymatgen
data_Cd(GaS2)2
_symmetry_space_group_name_H-M   'P 1'
_cell_length_a   6.54336136
_cell_length_b   6.54336136
_cell_length_c   6.54336136
_cell_angle_alpha   128.88538926
_cell_angle_beta   128.88538926
_cell_angle_gamma   75.19505727
_symmetry_Int_Tables_number   1
_chemical_formula_structural   Cd(GaS2)2
_chemical_formula_sum   'Cd1 Ga2 S4'
_cell_volume   165.25279335
_cell_formula_units_Z   1
loop_
 _symmetry_equiv_pos_site_id
 _symmetry_equiv_pos_as_xyz
  1  'x, y, z'
loop_
 _atom_site_type_symbol
 _atom_site_label
 _atom_site_symmetry_multiplicity
 _atom_site_fract_x
 _atom_site_fract_y
 _atom_site_fract_z
 _atom_site_occupancy
  Cd  Cd0  1  0.000000  0.000000  0.000000  1
  Ga  Ga1  1  0.250000  0.750000  0.500000  1
  Ga  Ga2  1  0.500000  0.500000  0.000000  1
  S  S3  1  0.868521  0.407943  0.005827  1
  S  S4  1  0.592057  0.597884  0.460579  1
  S  S5  1  0.137305  0.131479  0.539421  1
  S  S6  1  0.402116  0.862695  0.994173  1
