# generated using pymatgen
data_NaSi2Pd3
_symmetry_space_group_name_H-M   'P 1'
_cell_length_a   6.74065334
_cell_length_b   6.74065334
_cell_length_c   6.74065334
_cell_angle_alpha   129.32672020
_cell_angle_beta   116.68558321
_cell_angle_gamma   85.24840889
_symmetry_Int_Tables_number   1
_chemical_formula_structural   NaSi2Pd3
_chemical_formula_sum   'Na2 Si4 Pd6'
_cell_volume   202.45789348
_cell_formula_units_Z   2
loop_
 _symmetry_equiv_pos_site_id
 _symmetry_equiv_pos_as_xyz
  1  'x, y, z'
loop_
 _atom_site_type_symbol
 _atom_site_label
 _atom_site_symmetry_multiplicity
 _atom_site_fract_x
 _atom_site_fract_y
 _atom_site_fract_z
 _atom_site_occupancy
  Na  Na0  1  0.000000  0.955663  0.955663  1
  Na  Na1  1  0.500000  0.019021  0.519021  1
  Si  Si2  1  0.310900  0.382514  0.071614  1
  Si  Si3  1  0.842667  0.281577  0.438910  1
  Si  Si4  1  0.689100  0.760714  0.071614  1
  Si  Si5  1  0.157333  0.596243  0.438910  1
  Pd  Pd6  1  0.950156  0.495628  0.947380  1
  Pd  Pd7  1  0.548247  0.495628  0.545472  1
  Pd  Pd8  1  0.049844  0.997224  0.545472  1
  Pd  Pd9  1  0.718490  0.501783  0.220273  1
  Pd  Pd10  1  0.281510  0.501783  0.783292  1
  Pd  Pd11  1  0.451753  0.997224  0.947380  1
