# generated using pymatgen
data_Na8BeAl4Si7(BrO12)2
_symmetry_space_group_name_H-M   'P 1'
_cell_length_a   9.04334366
_cell_length_b   9.04334366
_cell_length_c   9.09371811
_cell_angle_alpha   90.00000000
_cell_angle_beta   90.00000000
_cell_angle_gamma   90.00000000
_symmetry_Int_Tables_number   1
_chemical_formula_structural   Na8BeAl4Si7(BrO12)2
_chemical_formula_sum   'Na8 Be1 Al4 Si7 Br2 O24'
_cell_volume   743.70304171
_cell_formula_units_Z   1
loop_
 _symmetry_equiv_pos_site_id
 _symmetry_equiv_pos_as_xyz
  1  'x, y, z'
loop_
 _atom_site_type_symbol
 _atom_site_label
 _atom_site_symmetry_multiplicity
 _atom_site_fract_x
 _atom_site_fract_y
 _atom_site_fract_z
 _atom_site_occupancy
  Na  Na0  1  0.194210  0.314922  0.058921  1
  Na  Na1  1  0.685078  0.194210  0.941079  1
  Na  Na2  1  0.314922  0.805790  0.941079  1
  Na  Na3  1  0.805790  0.685078  0.058921  1
  Na  Na4  1  0.709042  0.813816  0.554810  1
  Na  Na5  1  0.186184  0.709042  0.445190  1
  Na  Na6  1  0.813816  0.290958  0.445190  1
  Na  Na7  1  0.290958  0.186184  0.554810  1
  Be  Be8  1  0.000000  0.000000  0.500000  1
  Al  Al9  1  0.752167  0.499499  0.750143  1
  Al  Al10  1  0.500501  0.752167  0.249857  1
  Al  Al11  1  0.499499  0.247833  0.249857  1
  Al  Al12  1  0.247833  0.500501  0.750143  1
  Si  Si13  1  0.000000  0.000000  0.000000  1
  Si  Si14  1  0.500000  0.500000  0.000000  1
  Si  Si15  1  0.758861  0.996695  0.254652  1
  Si  Si16  1  0.241139  0.003305  0.254652  1
  Si  Si17  1  0.500000  0.500000  0.500000  1
  Si  Si18  1  0.996695  0.241139  0.745348  1
  Si  Si19  1  0.003305  0.758861  0.745348  1
  Br  Br20  1  0.500000  0.000000  0.752612  1
  Br  Br21  1  0.000000  0.500000  0.247388  1
  O  O22  1  0.354147  0.456918  0.904299  1
  O  O23  1  0.854251  0.340432  0.795043  1
  O  O24  1  0.145749  0.659568  0.795043  1
  O  O25  1  0.961526  0.855773  0.899021  1
  O  O26  1  0.645853  0.543082  0.904299  1
  O  O27  1  0.543082  0.354147  0.095701  1
  O  O28  1  0.144227  0.961526  0.100979  1
  O  O29  1  0.038474  0.144227  0.899021  1
  O  O30  1  0.855773  0.038474  0.100979  1
  O  O31  1  0.456918  0.645853  0.095701  1
  O  O32  1  0.659568  0.854251  0.204957  1
  O  O33  1  0.856744  0.960035  0.396450  1
  O  O34  1  0.340841  0.856028  0.283772  1
  O  O35  1  0.659159  0.143972  0.283772  1
  O  O36  1  0.340432  0.145749  0.204957  1
  O  O37  1  0.456637  0.352963  0.404767  1
  O  O38  1  0.143256  0.039965  0.396450  1
  O  O39  1  0.039965  0.856744  0.603550  1
  O  O40  1  0.647037  0.456637  0.595233  1
  O  O41  1  0.543363  0.647037  0.404767  1
  O  O42  1  0.960035  0.143256  0.603550  1
  O  O43  1  0.352963  0.543363  0.595233  1
  O  O44  1  0.143972  0.340841  0.716228  1
  O  O45  1  0.856028  0.659159  0.716228  1
