# generated using pymatgen
data_Cs4U5O17
_symmetry_space_group_name_H-M   'P 1'
_cell_length_a   7.11951114
_cell_length_b   15.39805658
_cell_length_c   19.03863241
_cell_angle_alpha   90.00000000
_cell_angle_beta   90.00000000
_cell_angle_gamma   90.00000000
_symmetry_Int_Tables_number   1
_chemical_formula_structural   Cs4U5O17
_chemical_formula_sum   'Cs16 U20 O68'
_cell_volume   2087.14121288
_cell_formula_units_Z   4
loop_
 _symmetry_equiv_pos_site_id
 _symmetry_equiv_pos_as_xyz
  1  'x, y, z'
loop_
 _atom_site_type_symbol
 _atom_site_label
 _atom_site_symmetry_multiplicity
 _atom_site_fract_x
 _atom_site_fract_y
 _atom_site_fract_z
 _atom_site_occupancy
  Cs  Cs0  1  0.299489  0.950269  0.308468  1
  Cs  Cs1  1  0.299489  0.549731  0.691532  1
  Cs  Cs2  1  0.200511  0.450269  0.191532  1
  Cs  Cs3  1  0.200511  0.049731  0.808468  1
  Cs  Cs4  1  0.700511  0.049731  0.691532  1
  Cs  Cs5  1  0.700511  0.450269  0.308468  1
  Cs  Cs6  1  0.799489  0.549731  0.808468  1
  Cs  Cs7  1  0.799489  0.950269  0.191532  1
  Cs  Cs8  1  0.270156  0.975439  0.057014  1
  Cs  Cs9  1  0.270156  0.524561  0.942986  1
  Cs  Cs10  1  0.229844  0.475439  0.442986  1
  Cs  Cs11  1  0.229844  0.024561  0.557014  1
  Cs  Cs12  1  0.729844  0.024561  0.942986  1
  Cs  Cs13  1  0.729844  0.475439  0.057014  1
  Cs  Cs14  1  0.770156  0.524561  0.557014  1
  Cs  Cs15  1  0.770156  0.975439  0.442986  1
  U  U16  1  0.626443  0.750000  0.000000  1
  U  U17  1  0.873557  0.250000  0.500000  1
  U  U18  1  0.373557  0.250000  0.000000  1
  U  U19  1  0.126443  0.750000  0.500000  1
  U  U20  1  0.075409  0.712404  0.102819  1
  U  U21  1  0.075409  0.787596  0.897181  1
  U  U22  1  0.424591  0.212404  0.397181  1
  U  U23  1  0.424591  0.287596  0.602819  1
  U  U24  1  0.924591  0.287596  0.897181  1
  U  U25  1  0.924591  0.212404  0.102819  1
  U  U26  1  0.575409  0.787596  0.602819  1
  U  U27  1  0.575409  0.712404  0.397181  1
  U  U28  1  0.025737  0.693724  0.311466  1
  U  U29  1  0.025737  0.806276  0.688534  1
  U  U30  1  0.474263  0.193724  0.188534  1
  U  U31  1  0.474263  0.306276  0.811466  1
  U  U32  1  0.974263  0.306276  0.688534  1
  U  U33  1  0.974263  0.193724  0.311466  1
  U  U34  1  0.525737  0.806276  0.811466  1
  U  U35  1  0.525737  0.693724  0.188534  1
  O  O36  1  0.890514  0.716142  0.419230  1
  O  O37  1  0.890514  0.783858  0.580770  1
  O  O38  1  0.609486  0.216142  0.080770  1
  O  O39  1  0.609486  0.283858  0.919230  1
  O  O40  1  0.109486  0.283858  0.580770  1
  O  O41  1  0.109486  0.216142  0.419230  1
  O  O42  1  0.390514  0.783858  0.919230  1
  O  O43  1  0.390514  0.716142  0.080770  1
  O  O44  1  0.507159  0.811600  0.206979  1
  O  O45  1  0.507159  0.688400  0.793021  1
  O  O46  1  0.992841  0.311600  0.293021  1
  O  O47  1  0.992841  0.188400  0.706979  1
  O  O48  1  0.492841  0.188400  0.793021  1
  O  O49  1  0.492841  0.311600  0.206979  1
  O  O50  1  0.007159  0.688400  0.706979  1
  O  O51  1  0.007159  0.811600  0.293021  1
  O  O52  1  0.540485  0.572693  0.178933  1
  O  O53  1  0.540485  0.927307  0.821067  1
  O  O54  1  0.959515  0.072693  0.321067  1
  O  O55  1  0.959515  0.427307  0.678933  1
  O  O56  1  0.459515  0.427307  0.821067  1
  O  O57  1  0.459515  0.072693  0.178933  1
  O  O58  1  0.040485  0.927307  0.678933  1
  O  O59  1  0.040485  0.572693  0.321067  1
  O  O60  1  0.627623  0.864617  0.029338  1
  O  O61  1  0.238577  0.289874  0.884312  1
  O  O62  1  0.627623  0.635383  0.970662  1
  O  O63  1  0.872377  0.135383  0.529338  1
  O  O64  1  0.372377  0.135383  0.970662  1
  O  O65  1  0.372377  0.364617  0.029338  1
  O  O66  1  0.127623  0.635383  0.529338  1
  O  O67  1  0.127623  0.864617  0.470662  1
  O  O68  1  0.761423  0.710126  0.115688  1
  O  O69  1  0.761423  0.789874  0.884312  1
  O  O70  1  0.738577  0.210126  0.384312  1
  O  O71  1  0.738577  0.289874  0.615688  1
  O  O72  1  0.960520  0.750000  0.000000  1
  O  O73  1  0.539480  0.250000  0.500000  1
  O  O74  1  0.039480  0.250000  0.000000  1
  O  O75  1  0.460520  0.750000  0.500000  1
  O  O76  1  0.072773  0.593608  0.080270  1
  O  O77  1  0.072773  0.906392  0.919730  1
  O  O78  1  0.427227  0.093608  0.419730  1
  O  O79  1  0.427227  0.406392  0.580270  1
  O  O80  1  0.927227  0.406392  0.919730  1
  O  O81  1  0.927227  0.093608  0.080270  1
  O  O82  1  0.572773  0.906392  0.580270  1
  O  O83  1  0.572773  0.593608  0.419730  1
  O  O84  1  0.080562  0.829501  0.127080  1
  O  O85  1  0.080562  0.670499  0.872920  1
  O  O86  1  0.419438  0.329501  0.372920  1
  O  O87  1  0.419438  0.170499  0.627080  1
  O  O88  1  0.919438  0.170499  0.872920  1
  O  O89  1  0.919438  0.329501  0.127080  1
  O  O90  1  0.580562  0.670499  0.627080  1
  O  O91  1  0.580562  0.829501  0.372920  1
  O  O92  1  0.203727  0.679965  0.210015  1
  O  O93  1  0.203727  0.820035  0.789985  1
  O  O94  1  0.296273  0.179965  0.289985  1
  O  O95  1  0.296273  0.320035  0.710015  1
  O  O96  1  0.796273  0.320035  0.789985  1
  O  O97  1  0.796273  0.179965  0.210015  1
  O  O98  1  0.703727  0.820035  0.710015  1
  O  O99  1  0.703727  0.679965  0.289985  1
  O  O100  1  0.261423  0.710126  0.384312  1
  O  O101  1  0.261423  0.789874  0.615688  1
  O  O102  1  0.238577  0.210126  0.115688  1
  O  O103  1  0.872377  0.364617  0.470662  1
