# generated using pymatgen
data_Yb(AlGe)2
_symmetry_space_group_name_H-M   'P 1'
_cell_length_a   4.18607771
_cell_length_b   4.18607771
_cell_length_c   7.07103227
_cell_angle_alpha   90.00000000
_cell_angle_beta   90.00000000
_cell_angle_gamma   120.00000000
_symmetry_Int_Tables_number   1
_chemical_formula_structural   Yb(AlGe)2
_chemical_formula_sum   'Yb1 Al2 Ge2'
_cell_volume   107.30699257
_cell_formula_units_Z   1
loop_
 _symmetry_equiv_pos_site_id
 _symmetry_equiv_pos_as_xyz
  1  'x, y, z'
loop_
 _atom_site_type_symbol
 _atom_site_label
 _atom_site_symmetry_multiplicity
 _atom_site_fract_x
 _atom_site_fract_y
 _atom_site_fract_z
 _atom_site_occupancy
  Yb  Yb0  1  0.000000  0.000000  0.000000  1
  Al  Al1  1  0.666667  0.333333  0.370329  1
  Al  Al2  1  0.333333  0.666667  0.629671  1
  Ge  Ge3  1  0.666667  0.333333  0.746027  1
  Ge  Ge4  1  0.333333  0.666667  0.253973  1
