# generated using pymatgen
data_CoH22N7(ClO2)4
_symmetry_space_group_name_H-M   'P 1'
_cell_length_a   6.88469639
_cell_length_b   7.15881118
_cell_length_c   10.18161216
_cell_angle_alpha   71.34065889
_cell_angle_beta   71.62291797
_cell_angle_gamma   62.59131678
_symmetry_Int_Tables_number   1
_chemical_formula_structural   CoH22N7(ClO2)4
_chemical_formula_sum   'Co1 H22 N7 Cl4 O8'
_cell_volume   413.56273859
_cell_formula_units_Z   1
loop_
 _symmetry_equiv_pos_site_id
 _symmetry_equiv_pos_as_xyz
  1  'x, y, z'
loop_
 _atom_site_type_symbol
 _atom_site_label
 _atom_site_symmetry_multiplicity
 _atom_site_fract_x
 _atom_site_fract_y
 _atom_site_fract_z
 _atom_site_occupancy
  Co  Co0  1  0.000000  0.000000  0.000000  1
  H  H1  1  0.190793  0.573835  0.069189  1
  H  H2  1  0.563271  0.166471  0.068540  1
  H  H3  1  0.171141  0.189426  0.064987  1
  H  H4  1  0.346131  0.752858  0.838621  1
  H  H5  1  0.871809  0.342542  0.782961  1
  H  H6  1  0.749695  0.062238  0.843024  1
  H  H7  1  0.998624  0.881509  0.789636  1
  H  H8  1  0.066709  0.349500  0.840110  1
  H  H9  1  0.345558  0.996379  0.784817  1
  H  H10  1  0.567034  0.576141  0.540180  1
  H  H11  1  0.334010  0.596555  0.540272  1
  H  H12  1  0.665990  0.403445  0.459728  1
  H  H13  1  0.432966  0.423859  0.459820  1
  H  H14  1  0.654442  0.003621  0.215183  1
  H  H15  1  0.933291  0.650500  0.159890  1
  H  H16  1  0.001376  0.118491  0.210364  1
  H  H17  1  0.250305  0.937762  0.156976  1
  H  H18  1  0.128191  0.657458  0.217039  1
  H  H19  1  0.653869  0.247142  0.161379  1
  H  H20  1  0.828859  0.810574  0.935013  1
  H  H21  1  0.436729  0.833529  0.931460  1
  H  H22  1  0.809207  0.426165  0.930811  1
  N  N23  1  0.683442  0.114043  0.127286  1
  N  N24  1  0.072224  0.686110  0.127713  1
  N  N25  1  0.115706  0.069147  0.122574  1
  N  N26  1  0.500000  0.500000  0.500000  1
  N  N27  1  0.884294  0.930853  0.877426  1
  N  N28  1  0.927776  0.313890  0.872287  1
  N  N29  1  0.316558  0.885957  0.872714  1
  Cl  Cl30  1  0.184226  0.194738  0.438406  1
  Cl  Cl31  1  0.370773  0.371715  0.889149  1
  Cl  Cl32  1  0.629227  0.628285  0.110851  1
  Cl  Cl33  1  0.815774  0.805262  0.561594  1
  O  O34  1  0.134088  0.143269  0.592240  1
  O  O35  1  0.700012  0.656525  0.612172  1
  O  O36  1  0.024309  0.695439  0.616496  1
  O  O37  1  0.675548  0.997800  0.617974  1
  O  O38  1  0.324452  0.002200  0.382026  1
  O  O39  1  0.975691  0.304561  0.383504  1
  O  O40  1  0.299988  0.343475  0.387828  1
  O  O41  1  0.865912  0.856731  0.407760  1
