# generated using pymatgen
data_Er2Si3Rh
_symmetry_space_group_name_H-M   'P 1'
_cell_length_a   8.13761565
_cell_length_b   8.13761565
_cell_length_c   7.82255411
_cell_angle_alpha   90.00000000
_cell_angle_beta   90.00000000
_cell_angle_gamma   120.00000000
_symmetry_Int_Tables_number   1
_chemical_formula_structural   Er2Si3Rh
_chemical_formula_sum   'Er8 Si12 Rh4'
_cell_volume   448.61475613
_cell_formula_units_Z   4
loop_
 _symmetry_equiv_pos_site_id
 _symmetry_equiv_pos_as_xyz
  1  'x, y, z'
loop_
 _atom_site_type_symbol
 _atom_site_label
 _atom_site_symmetry_multiplicity
 _atom_site_fract_x
 _atom_site_fract_y
 _atom_site_fract_z
 _atom_site_occupancy
  Er  Er0  1  0.982005  0.491003  0.250000  1
  Er  Er1  1  0.508997  0.491003  0.250000  1
  Er  Er2  1  0.491003  0.982005  0.750000  1
  Er  Er3  1  0.017995  0.508997  0.750000  1
  Er  Er4  1  0.491003  0.508997  0.750000  1
  Er  Er5  1  0.508997  0.017995  0.250000  1
  Er  Er6  1  0.000000  0.000000  0.750000  1
  Er  Er7  1  0.000000  0.000000  0.250000  1
  Si  Si8  1  0.166784  0.833216  0.499580  1
  Si  Si9  1  0.166784  0.333567  0.499580  1
  Si  Si10  1  0.666433  0.833216  0.499580  1
  Si  Si11  1  0.333567  0.166784  0.999580  1
  Si  Si12  1  0.833216  0.666433  0.500420  1
  Si  Si13  1  0.833216  0.166784  0.999580  1
  Si  Si14  1  0.833216  0.666433  0.999580  1
  Si  Si15  1  0.166784  0.333567  0.000420  1
  Si  Si16  1  0.666433  0.833216  0.000420  1
  Si  Si17  1  0.333567  0.166784  0.500420  1
  Si  Si18  1  0.833216  0.166784  0.500420  1
  Si  Si19  1  0.166784  0.833216  0.000420  1
  Rh  Rh20  1  0.333333  0.666667  0.033301  1
  Rh  Rh21  1  0.666667  0.333333  0.966699  1
  Rh  Rh22  1  0.666667  0.333333  0.533301  1
  Rh  Rh23  1  0.333333  0.666667  0.466699  1
