# generated using pymatgen
data_EuTaO4
_symmetry_space_group_name_H-M   'P 1'
_cell_length_a   6.67424311
_cell_length_b   6.67424311
_cell_length_c   5.14867665
_cell_angle_alpha   69.93372725
_cell_angle_beta   110.06627275
_cell_angle_gamma   64.90182064
_symmetry_Int_Tables_number   1
_chemical_formula_structural   EuTaO4
_chemical_formula_sum   'Eu2 Ta2 O8'
_cell_volume   159.68558916
_cell_formula_units_Z   2
loop_
 _symmetry_equiv_pos_site_id
 _symmetry_equiv_pos_as_xyz
  1  'x, y, z'
loop_
 _atom_site_type_symbol
 _atom_site_label
 _atom_site_symmetry_multiplicity
 _atom_site_fract_x
 _atom_site_fract_y
 _atom_site_fract_z
 _atom_site_occupancy
  Eu  Eu0  1  0.633354  0.633354  0.750000  1
  Eu  Eu1  1  0.366646  0.366646  0.250000  1
  Ta  Ta2  1  0.097456  0.097456  0.750000  1
  Ta  Ta3  1  0.902544  0.902544  0.250000  1
  O  O4  1  0.264406  0.796064  0.205760  1
  O  O5  1  0.796064  0.264406  0.294240  1
  O  O6  1  0.735594  0.203936  0.794240  1
  O  O7  1  0.203936  0.735594  0.705760  1
  O  O8  1  0.055605  0.359184  0.837744  1
  O  O9  1  0.359184  0.055605  0.662256  1
  O  O10  1  0.944395  0.640816  0.162256  1
  O  O11  1  0.640816  0.944395  0.337744  1
