# generated using pymatgen
data_Rb2Sb4S7
_symmetry_space_group_name_H-M   'P 1'
_cell_length_a   7.28532912
_cell_length_b   12.55568311
_cell_length_c   11.10990567
_cell_angle_alpha   90.00000000
_cell_angle_beta   128.35496003
_cell_angle_gamma   90.00000000
_symmetry_Int_Tables_number   1
_chemical_formula_structural   Rb2Sb4S7
_chemical_formula_sum   'Rb4 Sb8 S14'
_cell_volume   796.92322545
_cell_formula_units_Z   2
loop_
 _symmetry_equiv_pos_site_id
 _symmetry_equiv_pos_as_xyz
  1  'x, y, z'
loop_
 _atom_site_type_symbol
 _atom_site_label
 _atom_site_symmetry_multiplicity
 _atom_site_fract_x
 _atom_site_fract_y
 _atom_site_fract_z
 _atom_site_occupancy
  Rb  Rb0  1  0.641380  0.439565  0.848428  1
  Rb  Rb1  1  0.641380  0.060435  0.348428  1
  Rb  Rb2  1  0.358620  0.560435  0.151572  1
  Rb  Rb3  1  0.358620  0.939565  0.651572  1
  Sb  Sb4  1  0.832690  0.345647  0.561327  1
  Sb  Sb5  1  0.167310  0.845647  0.938673  1
  Sb  Sb6  1  0.167310  0.654353  0.438673  1
  Sb  Sb7  1  0.832690  0.154353  0.061327  1
  Sb  Sb8  1  0.098529  0.137242  0.850258  1
  Sb  Sb9  1  0.901471  0.637242  0.649742  1
  Sb  Sb10  1  0.901471  0.862758  0.149742  1
  Sb  Sb11  1  0.098529  0.362758  0.350258  1
  S  S12  1  0.688233  0.267400  0.165151  1
  S  S13  1  0.115738  0.032574  0.279833  1
  S  S14  1  0.884262  0.532574  0.220167  1
  S  S15  1  0.884262  0.967426  0.720167  1
  S  S16  1  0.500000  0.000000  0.000000  1
  S  S17  1  0.500000  0.500000  0.500000  1
  S  S18  1  0.177233  0.202563  0.678632  1
  S  S19  1  0.822767  0.702563  0.821368  1
  S  S20  1  0.822767  0.797437  0.321368  1
  S  S21  1  0.177233  0.297437  0.178632  1
  S  S22  1  0.688233  0.232600  0.665151  1
  S  S23  1  0.311767  0.732600  0.834849  1
  S  S24  1  0.311767  0.767400  0.334849  1
  S  S25  1  0.115738  0.467426  0.779833  1
