# generated using pymatgen
data_Ho(NiGe)2
_symmetry_space_group_name_H-M   'P 1'
_cell_length_a   5.67327269
_cell_length_b   5.67327269
_cell_length_c   5.67327269
_cell_angle_alpha   138.13483359
_cell_angle_beta   138.13483359
_cell_angle_gamma   60.69655737
_symmetry_Int_Tables_number   1
_chemical_formula_structural   Ho(NiGe)2
_chemical_formula_sum   'Ho1 Ni2 Ge2'
_cell_volume   80.45404830
_cell_formula_units_Z   1
loop_
 _symmetry_equiv_pos_site_id
 _symmetry_equiv_pos_as_xyz
  1  'x, y, z'
loop_
 _atom_site_type_symbol
 _atom_site_label
 _atom_site_symmetry_multiplicity
 _atom_site_fract_x
 _atom_site_fract_y
 _atom_site_fract_z
 _atom_site_occupancy
  Ho  Ho0  1  0.000000  0.000000  0.000000  1
  Ni  Ni1  1  0.250000  0.750000  0.500000  1
  Ni  Ni2  1  0.750000  0.250000  0.500000  1
  Ge  Ge3  1  0.627997  0.627997  0.000000  1
  Ge  Ge4  1  0.372003  0.372003  0.000000  1
