# generated using pymatgen
data_Zr(SO4)2
_symmetry_space_group_name_H-M   'P 1'
_cell_length_a   5.54780116
_cell_length_b   8.74441772
_cell_length_c   11.16453579
_cell_angle_alpha   90.00000000
_cell_angle_beta   90.00000000
_cell_angle_gamma   90.00000000
_symmetry_Int_Tables_number   1
_chemical_formula_structural   Zr(SO4)2
_chemical_formula_sum   'Zr4 S8 O32'
_cell_volume   541.61720656
_cell_formula_units_Z   4
loop_
 _symmetry_equiv_pos_site_id
 _symmetry_equiv_pos_as_xyz
  1  'x, y, z'
loop_
 _atom_site_type_symbol
 _atom_site_label
 _atom_site_symmetry_multiplicity
 _atom_site_fract_x
 _atom_site_fract_y
 _atom_site_fract_z
 _atom_site_occupancy
  Zr  Zr0  1  0.250000  0.755600  0.600252  1
  Zr  Zr1  1  0.750000  0.244400  0.399748  1
  Zr  Zr2  1  0.250000  0.255600  0.899748  1
  Zr  Zr3  1  0.750000  0.744400  0.100252  1
  S  S4  1  0.750000  0.995991  0.653624  1
  S  S5  1  0.250000  0.004009  0.346376  1
  S  S6  1  0.750000  0.495991  0.846376  1
  S  S7  1  0.250000  0.504009  0.153624  1
  S  S8  1  0.250000  0.854230  0.906054  1
  S  S9  1  0.750000  0.145770  0.093946  1
  S  S10  1  0.250000  0.354230  0.593946  1
  S  S11  1  0.750000  0.645770  0.406054  1
  O  O12  1  0.250000  0.931231  0.466911  1
  O  O13  1  0.750000  0.068769  0.533089  1
  O  O14  1  0.250000  0.431231  0.033089  1
  O  O15  1  0.750000  0.568769  0.966911  1
  O  O16  1  0.250000  0.897989  0.248597  1
  O  O17  1  0.750000  0.102011  0.751403  1
  O  O18  1  0.250000  0.397989  0.251403  1
  O  O19  1  0.750000  0.602011  0.748597  1
  O  O20  1  0.968765  0.167421  0.020007  1
  O  O21  1  0.468765  0.832579  0.979993  1
  O  O22  1  0.531235  0.667421  0.479993  1
  O  O23  1  0.031235  0.332579  0.520007  1
  O  O24  1  0.464810  0.607796  0.158860  1
  O  O25  1  0.964810  0.392204  0.841140  1
  O  O26  1  0.035190  0.107796  0.341140  1
  O  O27  1  0.535190  0.892204  0.658860  1
  O  O28  1  0.535190  0.392204  0.841140  1
  O  O29  1  0.035190  0.607796  0.158860  1
  O  O30  1  0.964810  0.892204  0.658860  1
  O  O31  1  0.464810  0.107796  0.341140  1
  O  O32  1  0.750000  0.756219  0.305802  1
  O  O33  1  0.250000  0.243781  0.694198  1
  O  O34  1  0.750000  0.256219  0.194198  1
  O  O35  1  0.250000  0.743781  0.805802  1
  O  O36  1  0.750000  0.985973  0.141203  1
  O  O37  1  0.250000  0.014027  0.858797  1
  O  O38  1  0.750000  0.485973  0.358797  1
  O  O39  1  0.250000  0.514027  0.641203  1
  O  O40  1  0.968765  0.667421  0.479993  1
  O  O41  1  0.468765  0.332579  0.520007  1
  O  O42  1  0.531235  0.167421  0.020007  1
  O  O43  1  0.031235  0.832579  0.979993  1
