# generated using pymatgen
data_CaSiO3
_symmetry_space_group_name_H-M   'P 1'
_cell_length_a   7.15107932
_cell_length_b   7.39278433
_cell_length_c   8.02477391
_cell_angle_alpha   103.45248333
_cell_angle_beta   95.51996534
_cell_angle_gamma   90.08050931
_symmetry_Int_Tables_number   1
_chemical_formula_structural   CaSiO3
_chemical_formula_sum   'Ca6 Si6 O18'
_cell_volume   410.56368732
_cell_formula_units_Z   6
loop_
 _symmetry_equiv_pos_site_id
 _symmetry_equiv_pos_as_xyz
  1  'x, y, z'
loop_
 _atom_site_type_symbol
 _atom_site_label
 _atom_site_symmetry_multiplicity
 _atom_site_fract_x
 _atom_site_fract_y
 _atom_site_fract_z
 _atom_site_occupancy
  Ca  Ca0  1  0.529734  0.750519  0.504284  1
  Ca  Ca1  1  0.470266  0.249481  0.495716  1
  Ca  Ca2  1  0.763076  0.929777  0.204712  1
  Ca  Ca3  1  0.236924  0.070223  0.795288  1
  Ca  Ca4  1  0.759601  0.423967  0.197501  1
  Ca  Ca5  1  0.240399  0.576033  0.802499  1
  Si  Si6  1  0.057999  0.723093  0.394829  1
  Si  Si7  1  0.942001  0.276907  0.605171  1
  Si  Si8  1  0.270165  0.953874  0.184084  1
  Si  Si9  1  0.729835  0.046126  0.815916  1
  Si  Si10  1  0.270562  0.387426  0.184808  1
  Si  Si11  1  0.729438  0.612574  0.815192  1
  O  O12  1  0.093273  0.511572  0.270453  1
  O  O13  1  0.906727  0.488428  0.729547  1
  O  O14  1  0.093797  0.870562  0.268603  1
  O  O15  1  0.906203  0.129438  0.731397  1
  O  O16  1  0.228759  0.179538  0.221355  1
  O  O17  1  0.771241  0.820462  0.778645  1
  O  O18  1  0.831252  0.725512  0.399267  1
  O  O19  1  0.168748  0.274488  0.600733  1
  O  O20  1  0.263095  0.868127  0.979591  1
  O  O21  1  0.736905  0.131873  0.020409  1
  O  O22  1  0.267180  0.371903  0.981936  1
  O  O23  1  0.732820  0.628097  0.018064  1
  O  O24  1  0.534276  0.536343  0.696250  1
  O  O25  1  0.465724  0.463657  0.303750  1
  O  O26  1  0.534186  0.063847  0.698932  1
  O  O27  1  0.465814  0.936153  0.301068  1
  O  O28  1  0.798356  0.231253  0.431063  1
  O  O29  1  0.201644  0.768747  0.568937  1
