# generated using pymatgen
data_HfSiO4
_symmetry_space_group_name_H-M   'P 1'
_cell_length_a   5.56457926
_cell_length_b   5.56457926
_cell_length_c   5.56457926
_cell_angle_alpha   106.93889085
_cell_angle_beta   106.93889085
_cell_angle_gamma   114.66404216
_symmetry_Int_Tables_number   1
_chemical_formula_structural   HfSiO4
_chemical_formula_sum   'Hf2 Si2 O8'
_cell_volume   131.81550742
_cell_formula_units_Z   2
loop_
 _symmetry_equiv_pos_site_id
 _symmetry_equiv_pos_as_xyz
  1  'x, y, z'
loop_
 _atom_site_type_symbol
 _atom_site_label
 _atom_site_symmetry_multiplicity
 _atom_site_fract_x
 _atom_site_fract_y
 _atom_site_fract_z
 _atom_site_occupancy
  Hf  Hf0  1  1.000000  1.000000  0.000000  1
  Hf  Hf1  1  0.250000  0.750000  0.500000  1
  Si  Si2  1  0.750000  0.250000  0.500000  1
  Si  Si3  1  0.500000  0.500000  0.000000  1
  O  O4  1  0.496976  0.681591  0.815384  1
  O  O5  1  0.931591  0.616207  0.684616  1
  O  O6  1  0.931591  0.246976  0.315384  1
  O  O7  1  0.866207  0.681591  0.184616  1
  O  O8  1  0.318409  0.133793  0.815384  1
  O  O9  1  0.753024  0.068409  0.684616  1
  O  O10  1  0.383793  0.068409  0.315384  1
  O  O11  1  0.318409  0.503024  0.184616  1
