# generated using pymatgen
data_CaLaMnFeO6
_symmetry_space_group_name_H-M   'P 1'
_cell_length_a   5.48726491
_cell_length_b   5.50280178
_cell_length_c   9.47742330
_cell_angle_alpha   90.00000000
_cell_angle_beta   125.25341407
_cell_angle_gamma   90.00000000
_symmetry_Int_Tables_number   1
_chemical_formula_structural   CaLaMnFeO6
_chemical_formula_sum   'Ca2 La2 Mn2 Fe2 O12'
_cell_volume   233.69168522
_cell_formula_units_Z   2
loop_
 _symmetry_equiv_pos_site_id
 _symmetry_equiv_pos_as_xyz
  1  'x, y, z'
loop_
 _atom_site_type_symbol
 _atom_site_label
 _atom_site_symmetry_multiplicity
 _atom_site_fract_x
 _atom_site_fract_y
 _atom_site_fract_z
 _atom_site_occupancy
  Ca  Ca0  1  0.260051  0.714308  0.750152  1
  Ca  Ca1  1  0.260051  0.285692  0.250152  1
  La  La2  1  0.743504  0.223911  0.749946  1
  La  La3  1  0.743504  0.776089  0.249946  1
  Mn  Mn4  1  0.500057  0.749910  0.500348  1
  Mn  Mn5  1  0.500057  0.250090  0.000348  1
  Fe  Fe6  1  0.999284  0.749924  0.999374  1
  Fe  Fe7  1  0.999284  0.250076  0.499374  1
  O  O8  1  0.824134  0.237109  0.245547  1
  O  O9  1  0.264440  0.034986  0.041427  1
  O  O10  1  0.671789  0.027122  0.458293  1
  O  O11  1  0.671789  0.972878  0.958293  1
  O  O12  1  0.264440  0.965014  0.541427  1
  O  O13  1  0.824134  0.762891  0.745547  1
  O  O14  1  0.183792  0.733690  0.254353  1
  O  O15  1  0.733404  0.530281  0.461801  1
  O  O16  1  0.319543  0.522919  0.038759  1
  O  O17  1  0.319543  0.477081  0.538759  1
  O  O18  1  0.733404  0.469719  0.961801  1
  O  O19  1  0.183792  0.266310  0.754353  1
