# generated using pymatgen
data_KTeF5
_symmetry_space_group_name_H-M   'P 1'
_cell_length_a   4.91708110
_cell_length_b   9.43240576
_cell_length_c   11.50189243
_cell_angle_alpha   90.00000000
_cell_angle_beta   90.00000000
_cell_angle_gamma   90.00000000
_symmetry_Int_Tables_number   1
_chemical_formula_structural   KTeF5
_chemical_formula_sum   'K4 Te4 F20'
_cell_volume   533.45666776
_cell_formula_units_Z   4
loop_
 _symmetry_equiv_pos_site_id
 _symmetry_equiv_pos_as_xyz
  1  'x, y, z'
loop_
 _atom_site_type_symbol
 _atom_site_label
 _atom_site_symmetry_multiplicity
 _atom_site_fract_x
 _atom_site_fract_y
 _atom_site_fract_z
 _atom_site_occupancy
  K  K0  1  0.510532  0.250000  0.000000  1
  K  K1  1  0.489468  0.750000  0.500000  1
  K  K2  1  0.489468  0.750000  0.000000  1
  K  K3  1  0.510532  0.250000  0.500000  1
  Te  Te4  1  0.125143  0.061260  0.250000  1
  Te  Te5  1  0.125143  0.438740  0.750000  1
  Te  Te6  1  0.874857  0.561260  0.250000  1
  Te  Te7  1  0.874857  0.938740  0.750000  1
  F  F8  1  0.607669  0.790099  0.750000  1
  F  F9  1  0.607669  0.709901  0.250000  1
  F  F10  1  0.392331  0.290099  0.750000  1
  F  F11  1  0.392331  0.209901  0.250000  1
  F  F12  1  0.972516  0.187718  0.373858  1
  F  F13  1  0.972516  0.312282  0.626142  1
  F  F14  1  0.027484  0.687718  0.126142  1
  F  F15  1  0.027484  0.812282  0.873858  1
  F  F16  1  0.378225  0.988579  0.126722  1
  F  F17  1  0.378225  0.511421  0.873278  1
  F  F18  1  0.621775  0.488579  0.373278  1
  F  F19  1  0.621775  0.011421  0.626722  1
  F  F20  1  0.621775  0.011421  0.873278  1
  F  F21  1  0.621775  0.488579  0.126722  1
  F  F22  1  0.378225  0.511421  0.626722  1
  F  F23  1  0.378225  0.988579  0.373278  1
  F  F24  1  0.972516  0.187718  0.126142  1
  F  F25  1  0.972516  0.312282  0.873858  1
  F  F26  1  0.027484  0.687718  0.373858  1
  F  F27  1  0.027484  0.812282  0.626142  1
