# generated using pymatgen
data_BaLa2TiCr2O9
_symmetry_space_group_name_H-M   'P 1'
_cell_length_a   25.27657632
_cell_length_b   25.27657632
_cell_length_c   3.96824902
_cell_angle_alpha   90.00000000
_cell_angle_beta   90.00000000
_cell_angle_gamma   167.22251833
_symmetry_Int_Tables_number   1
_chemical_formula_structural   BaLa2TiCr2O9
_chemical_formula_sum   'Ba3 La6 Ti3 Cr6 O27'
_cell_volume   560.72802641
_cell_formula_units_Z   3
loop_
 _symmetry_equiv_pos_site_id
 _symmetry_equiv_pos_as_xyz
  1  'x, y, z'
loop_
 _atom_site_type_symbol
 _atom_site_label
 _atom_site_symmetry_multiplicity
 _atom_site_fract_x
 _atom_site_fract_y
 _atom_site_fract_z
 _atom_site_occupancy
  Ba  Ba0  1  0.942918  0.057082  0.500000  1
  Ba  Ba1  1  0.500000  0.500000  0.500000  1
  Ba  Ba2  1  0.057082  0.942918  0.500000  1
  La  La3  1  0.613409  0.386591  0.500000  1
  La  La4  1  0.166649  0.833351  0.500000  1
  La  La5  1  0.722642  0.277358  0.500000  1
  La  La6  1  0.277358  0.722642  0.500000  1
  La  La7  1  0.833351  0.166649  0.500000  1
  La  La8  1  0.386591  0.613409  0.500000  1
  Ti  Ti9  1  0.442780  0.557220  0.000000  1
  Ti  Ti10  1  0.000000  0.000000  0.000000  1
  Ti  Ti11  1  0.557220  0.442780  0.000000  1
  Cr  Cr12  1  0.112246  0.887754  0.000000  1
  Cr  Cr13  1  0.667493  0.332507  0.000000  1
  Cr  Cr14  1  0.222436  0.777564  0.000000  1
  Cr  Cr15  1  0.777564  0.222436  0.000000  1
  Cr  Cr16  1  0.332507  0.667493  0.000000  1
  Cr  Cr17  1  0.887754  0.112246  0.000000  1
  O  O18  1  0.885011  0.114989  0.500000  1
  O  O19  1  0.721853  0.778884  1.000000  1
  O  O20  1  0.278147  0.221116  0.000000  1
  O  O21  1  0.821387  0.650315  0.000000  1
  O  O22  1  0.944123  0.554271  0.000000  1
  O  O23  1  0.389851  0.110254  0.000000  1
  O  O24  1  0.500000  0.000000  0.000000  1
  O  O25  1  0.055877  0.445729  0.000000  1
  O  O26  1  0.610149  0.889746  0.000000  1
  O  O27  1  0.178613  0.349685  1.000000  1
  O  O28  1  0.221116  0.278147  1.000000  1
  O  O29  1  0.778884  0.721853  0.000000  1
  O  O30  1  0.349685  0.178613  0.000000  1
  O  O31  1  0.889746  0.610149  0.000000  1
  O  O32  1  0.445729  0.055877  0.000000  1
  O  O33  1  0.554271  0.944123  0.000000  1
  O  O34  1  0.000000  0.500000  0.000000  1
  O  O35  1  0.650315  0.821387  0.000000  1
  O  O36  1  0.110254  0.389851  0.000000  1
  O  O37  1  0.441548  0.558452  0.500000  1
  O  O38  1  0.000000  0.000000  0.500000  1
  O  O39  1  0.558452  0.441548  0.500000  1
  O  O40  1  0.114989  0.885011  0.500000  1
  O  O41  1  0.666691  0.333309  0.500000  1
  O  O42  1  0.222840  0.777160  0.500000  1
  O  O43  1  0.777160  0.222840  0.500000  1
  O  O44  1  0.333309  0.666691  0.500000  1
