# generated using pymatgen
data_BaGa4S7
_symmetry_space_group_name_H-M   'P 1'
_cell_length_a   6.03044815
_cell_length_b   6.33466261
_cell_length_c   15.02941960
_cell_angle_alpha   90.00000000
_cell_angle_beta   90.00000000
_cell_angle_gamma   90.00000000
_symmetry_Int_Tables_number   1
_chemical_formula_structural   BaGa4S7
_chemical_formula_sum   'Ba2 Ga8 S14'
_cell_volume   574.13667012
_cell_formula_units_Z   2
loop_
 _symmetry_equiv_pos_site_id
 _symmetry_equiv_pos_as_xyz
  1  'x, y, z'
loop_
 _atom_site_type_symbol
 _atom_site_label
 _atom_site_symmetry_multiplicity
 _atom_site_fract_x
 _atom_site_fract_y
 _atom_site_fract_z
 _atom_site_occupancy
  Ba  Ba0  1  0.459295  0.650489  0.500000  1
  Ba  Ba1  1  0.959295  0.349511  0.000000  1
  Ga  Ga2  1  0.339579  0.829477  0.880103  1
  Ga  Ga3  1  0.839579  0.170523  0.619897  1
  Ga  Ga4  1  0.839579  0.170523  0.380103  1
  Ga  Ga5  1  0.339579  0.829477  0.119897  1
  Ga  Ga6  1  0.356932  0.314911  0.752221  1
  Ga  Ga7  1  0.856932  0.685089  0.747779  1
  Ga  Ga8  1  0.856932  0.685089  0.252221  1
  Ga  Ga9  1  0.356932  0.314911  0.247779  1
  S  S10  1  0.964887  0.328849  0.751818  1
  S  S11  1  0.464887  0.671151  0.748182  1
  S  S12  1  0.464887  0.671151  0.251818  1
  S  S13  1  0.964887  0.328849  0.248182  1
  S  S14  1  0.960053  0.802238  0.883161  1
  S  S15  1  0.460053  0.197762  0.616839  1
  S  S16  1  0.460053  0.197762  0.383161  1
  S  S17  1  0.960053  0.802238  0.116839  1
  S  S18  1  0.441567  0.175836  0.886323  1
  S  S19  1  0.941567  0.824164  0.613677  1
  S  S20  1  0.455077  0.638362  0.000000  1
  S  S21  1  0.955077  0.361638  0.500000  1
  S  S22  1  0.441567  0.175836  0.113677  1
  S  S23  1  0.941567  0.824164  0.386323  1
