# generated using pymatgen
data_NaSm3Ti2(SbO7)2
_symmetry_space_group_name_H-M   'P 1'
_cell_length_a   7.38686509
_cell_length_b   7.34788995
_cell_length_c   12.72961597
_cell_angle_alpha   90.00000000
_cell_angle_beta   125.10574158
_cell_angle_gamma   90.00000000
_symmetry_Int_Tables_number   1
_chemical_formula_structural   NaSm3Ti2(SbO7)2
_chemical_formula_sum   'Na2 Sm6 Ti4 Sb4 O28'
_cell_volume   565.24965697
_cell_formula_units_Z   2
loop_
 _symmetry_equiv_pos_site_id
 _symmetry_equiv_pos_as_xyz
  1  'x, y, z'
loop_
 _atom_site_type_symbol
 _atom_site_label
 _atom_site_symmetry_multiplicity
 _atom_site_fract_x
 _atom_site_fract_y
 _atom_site_fract_z
 _atom_site_occupancy
  Na  Na0  1  0.000000  0.000000  0.500000  1
  Na  Na1  1  0.000000  0.000000  0.000000  1
  Sm  Sm2  1  0.500000  0.227785  0.250000  1
  Sm  Sm3  1  0.000000  0.243034  0.250000  1
  Sm  Sm4  1  0.500000  0.772215  0.750000  1
  Sm  Sm5  1  0.000000  0.500000  0.000000  1
  Sm  Sm6  1  0.000000  0.756966  0.750000  1
  Sm  Sm7  1  0.000000  0.500000  0.500000  1
  Ti  Ti8  1  0.500000  0.262861  0.750000  1
  Ti  Ti9  1  0.500000  0.500000  0.500000  1
  Ti  Ti10  1  0.500000  0.737139  0.250000  1
  Ti  Ti11  1  0.500000  0.500000  0.000000  1
  Sb  Sb12  1  0.500000  0.000000  0.000000  1
  Sb  Sb13  1  0.000000  0.744925  0.250000  1
  Sb  Sb14  1  0.500000  0.000000  0.500000  1
  Sb  Sb15  1  0.000000  0.255075  0.750000  1
  O  O16  1  0.443298  0.052914  0.631653  1
  O  O17  1  0.869251  0.744286  0.870950  1
  O  O18  1  0.820481  0.268971  0.820888  1
  O  O19  1  0.828579  0.046872  0.628313  1
  O  O20  1  0.171421  0.046872  0.871687  1
  O  O21  1  0.443298  0.947086  0.131653  1
  O  O22  1  0.426716  0.552954  0.121985  1
  O  O23  1  0.423301  0.749833  0.923079  1
  O  O24  1  0.869251  0.255714  0.370950  1
  O  O25  1  0.576699  0.250167  0.076921  1
  O  O26  1  0.820481  0.731029  0.320888  1
  O  O27  1  0.828579  0.953128  0.128313  1
  O  O28  1  0.556702  0.052914  0.868347  1
  O  O29  1  0.823234  0.544948  0.122741  1
  O  O30  1  0.176766  0.544948  0.377259  1
  O  O31  1  0.171421  0.953128  0.371687  1
  O  O32  1  0.426716  0.447046  0.621985  1
  O  O33  1  0.179519  0.731029  0.179112  1
  O  O34  1  0.130749  0.255714  0.129050  1
  O  O35  1  0.576699  0.749833  0.576921  1
  O  O36  1  0.423301  0.250167  0.423079  1
  O  O37  1  0.556702  0.947086  0.368347  1
  O  O38  1  0.573284  0.552954  0.378015  1
  O  O39  1  0.823234  0.455052  0.622741  1
  O  O40  1  0.176766  0.455052  0.877259  1
  O  O41  1  0.179519  0.268971  0.679112  1
  O  O42  1  0.130749  0.744286  0.629050  1
  O  O43  1  0.573284  0.447046  0.878015  1
