# generated using pymatgen
data_TlGaS2
_symmetry_space_group_name_H-M   'P 1'
_cell_length_a   7.40909820
_cell_length_b   7.40909820
_cell_length_c   15.42691223
_cell_angle_alpha   83.04223488
_cell_angle_beta   96.95776512
_cell_angle_gamma   90.00531932
_symmetry_Int_Tables_number   1
_chemical_formula_structural   TlGaS2
_chemical_formula_sum   'Tl8 Ga8 S16'
_cell_volume   834.33785009
_cell_formula_units_Z   8
loop_
 _symmetry_equiv_pos_site_id
 _symmetry_equiv_pos_as_xyz
  1  'x, y, z'
loop_
 _atom_site_type_symbol
 _atom_site_label
 _atom_site_symmetry_multiplicity
 _atom_site_fract_x
 _atom_site_fract_y
 _atom_site_fract_z
 _atom_site_occupancy
  Tl  Tl0  1  0.277338  0.845156  0.115939  1
  Tl  Tl1  1  0.845156  0.277338  0.384061  1
  Tl  Tl2  1  0.722662  0.154844  0.884061  1
  Tl  Tl3  1  0.154844  0.722662  0.615939  1
  Tl  Tl4  1  0.651915  0.724706  0.609718  1
  Tl  Tl5  1  0.724706  0.651915  0.890282  1
  Tl  Tl6  1  0.348085  0.275294  0.390282  1
  Tl  Tl7  1  0.275294  0.348085  0.109718  1
  Ga  Ga8  1  0.208993  0.413633  0.835752  1
  Ga  Ga9  1  0.919294  0.209252  0.663038  1
  Ga  Ga10  1  0.790748  0.080706  0.163038  1
  Ga  Ga11  1  0.080706  0.790748  0.336962  1
  Ga  Ga12  1  0.586367  0.791007  0.335752  1
  Ga  Ga13  1  0.791007  0.586367  0.164248  1
  Ga  Ga14  1  0.413633  0.208993  0.664248  1
  Ga  Ga15  1  0.209252  0.919294  0.836962  1
  S  S16  1  0.769309  0.855660  0.071912  1
  S  S17  1  0.855660  0.769309  0.428088  1
  S  S18  1  0.230691  0.144340  0.928088  1
  S  S19  1  0.144340  0.230691  0.571912  1
  S  S20  1  0.444508  0.931847  0.751333  1
  S  S21  1  0.931847  0.444508  0.748667  1
  S  S22  1  0.555492  0.068153  0.248667  1
  S  S23  1  0.068153  0.555492  0.251333  1
  S  S24  1  0.643152  0.229713  0.575027  1
  S  S25  1  0.229713  0.643152  0.924973  1
  S  S26  1  0.356848  0.770287  0.424973  1
  S  S27  1  0.068007  0.068007  0.250000  1
  S  S28  1  0.444114  0.444114  0.750000  1
  S  S29  1  0.555886  0.555886  0.250000  1
  S  S30  1  0.931993  0.931993  0.750000  1
  S  S31  1  0.770287  0.356848  0.075027  1
