# generated using pymatgen
data_ScCrC2
_symmetry_space_group_name_H-M   'P 1'
_cell_length_a   3.25844416
_cell_length_b   3.25844416
_cell_length_c   9.02811477
_cell_angle_alpha   90.00000000
_cell_angle_beta   90.00000000
_cell_angle_gamma   120.00000000
_symmetry_Int_Tables_number   1
_chemical_formula_structural   ScCrC2
_chemical_formula_sum   'Sc2 Cr2 C4'
_cell_volume   83.01341285
_cell_formula_units_Z   2
loop_
 _symmetry_equiv_pos_site_id
 _symmetry_equiv_pos_as_xyz
  1  'x, y, z'
loop_
 _atom_site_type_symbol
 _atom_site_label
 _atom_site_symmetry_multiplicity
 _atom_site_fract_x
 _atom_site_fract_y
 _atom_site_fract_z
 _atom_site_occupancy
  Sc  Sc0  1  0.000000  0.000000  0.500000  1
  Sc  Sc1  1  0.000000  0.000000  0.000000  1
  Cr  Cr2  1  0.333333  0.666667  0.250000  1
  Cr  Cr3  1  0.666667  0.333333  0.750000  1
  C  C4  1  0.333333  0.666667  0.834583  1
  C  C5  1  0.666667  0.333333  0.334583  1
  C  C6  1  0.333333  0.666667  0.665417  1
  C  C7  1  0.666667  0.333333  0.165417  1
