# generated using pymatgen
data_ZnSnSb2
_symmetry_space_group_name_H-M   'P 1'
_cell_length_a   7.84705327
_cell_length_b   7.84705327
_cell_length_c   7.84705327
_cell_angle_alpha   131.93377104
_cell_angle_beta   131.93377104
_cell_angle_gamma   70.33364846
_symmetry_Int_Tables_number   1
_chemical_formula_structural   ZnSnSb2
_chemical_formula_sum   'Zn2 Sn2 Sb4'
_cell_volume   262.06522687
_cell_formula_units_Z   2
loop_
 _symmetry_equiv_pos_site_id
 _symmetry_equiv_pos_as_xyz
  1  'x, y, z'
loop_
 _atom_site_type_symbol
 _atom_site_label
 _atom_site_symmetry_multiplicity
 _atom_site_fract_x
 _atom_site_fract_y
 _atom_site_fract_z
 _atom_site_occupancy
  Zn  Zn0  1  0.000000  0.000000  0.000000  1
  Zn  Zn1  1  0.750000  0.250000  0.500000  1
  Sn  Sn2  1  0.500000  0.500000  0.000000  1
  Sn  Sn3  1  0.250000  0.750000  0.500000  1
  Sb  Sb4  1  0.651018  0.625000  0.526018  1
  Sb  Sb5  1  0.375000  0.901018  0.026018  1
  Sb  Sb6  1  0.875000  0.348982  0.973982  1
  Sb  Sb7  1  0.098982  0.125000  0.473982  1
