# generated using pymatgen
data_ZrTe3O8
_symmetry_space_group_name_H-M   'P 1'
_cell_length_a   10.04141845
_cell_length_b   10.04141845
_cell_length_c   10.04141845
_cell_angle_alpha   109.47122063
_cell_angle_beta   109.47122063
_cell_angle_gamma   109.47122063
_symmetry_Int_Tables_number   1
_chemical_formula_structural   ZrTe3O8
_chemical_formula_sum   'Zr4 Te12 O32'
_cell_volume   779.40521263
_cell_formula_units_Z   4
loop_
 _symmetry_equiv_pos_site_id
 _symmetry_equiv_pos_as_xyz
  1  'x, y, z'
loop_
 _atom_site_type_symbol
 _atom_site_label
 _atom_site_symmetry_multiplicity
 _atom_site_fract_x
 _atom_site_fract_y
 _atom_site_fract_z
 _atom_site_occupancy
  Zr  Zr0  1  0.000000  0.500000  1.000000  1
  Zr  Zr1  1  0.500000  0.000000  1.000000  1
  Zr  Zr2  1  0.000000  0.000000  0.500000  1
  Zr  Zr3  1  0.500000  0.500000  0.500000  1
  Te  Te4  1  0.801550  0.551550  0.250000  1
  Te  Te5  1  0.750000  0.698450  0.948450  1
  Te  Te6  1  0.551550  0.250000  0.801550  1
  Te  Te7  1  0.250000  0.801550  0.551550  1
  Te  Te8  1  0.948450  0.750000  0.698450  1
  Te  Te9  1  0.698450  0.948450  0.750000  1
  Te  Te10  1  0.198450  0.448450  0.750000  1
  Te  Te11  1  0.250000  0.301550  0.051550  1
  Te  Te12  1  0.448450  0.750000  0.198450  1
  Te  Te13  1  0.750000  0.198450  0.448450  1
  Te  Te14  1  0.051550  0.250000  0.301550  1
  Te  Te15  1  0.301550  0.051550  0.250000  1
  O  O16  1  0.969037  0.545421  0.205332  1
  O  O17  1  0.840089  0.763705  0.294668  1
  O  O18  1  0.659911  0.954579  0.923616  1
  O  O19  1  0.736295  0.576384  0.530963  1
  O  O20  1  0.576384  0.530963  0.736295  1
  O  O21  1  0.205332  0.969037  0.545421  1
  O  O22  1  0.763705  0.294668  0.840089  1
  O  O23  1  0.923616  0.659911  0.954579  1
  O  O24  1  0.545421  0.205332  0.969037  1
  O  O25  1  0.294668  0.840089  0.763705  1
  O  O26  1  0.954579  0.923616  0.659911  1
  O  O27  1  0.530963  0.736295  0.576384  1
  O  O28  1  0.030963  0.454579  0.794668  1
  O  O29  1  0.159911  0.236295  0.705332  1
  O  O30  1  0.340089  0.045421  0.076384  1
  O  O31  1  0.263705  0.423616  0.469037  1
  O  O32  1  0.168961  0.168961  0.168961  1
  O  O33  1  0.000000  0.331039  0.500000  1
  O  O34  1  0.500000  0.000000  0.331039  1
  O  O35  1  0.331039  0.500000  1.000000  1
  O  O36  1  0.831039  0.831039  0.831039  1
  O  O37  1  0.000000  0.668961  0.500000  1
  O  O38  1  0.500000  1.000000  0.668961  1
  O  O39  1  0.668961  0.500000  1.000000  1
  O  O40  1  0.469037  0.263705  0.423616  1
  O  O41  1  0.045421  0.076384  0.340089  1
  O  O42  1  0.705332  0.159911  0.236295  1
  O  O43  1  0.454579  0.794668  0.030963  1
  O  O44  1  0.076384  0.340089  0.045421  1
  O  O45  1  0.236295  0.705332  0.159911  1
  O  O46  1  0.794668  0.030963  0.454579  1
  O  O47  1  0.423616  0.469037  0.263705  1
