# generated using pymatgen
data_CeAlO3
_symmetry_space_group_name_H-M   'P 1'
_cell_length_a   5.37765616
_cell_length_b   5.37765616
_cell_length_c   5.37765616
_cell_angle_alpha   120.46459835
_cell_angle_beta   120.46459835
_cell_angle_gamma   89.19715824
_symmetry_Int_Tables_number   1
_chemical_formula_structural   CeAlO3
_chemical_formula_sum   'Ce2 Al2 O6'
_cell_volume   109.18357784
_cell_formula_units_Z   2
loop_
 _symmetry_equiv_pos_site_id
 _symmetry_equiv_pos_as_xyz
  1  'x, y, z'
loop_
 _atom_site_type_symbol
 _atom_site_label
 _atom_site_symmetry_multiplicity
 _atom_site_fract_x
 _atom_site_fract_y
 _atom_site_fract_z
 _atom_site_occupancy
  Ce  Ce0  1  0.250000  0.750000  0.500000  1
  Ce  Ce1  1  0.750000  0.250000  0.500000  1
  Al  Al2  1  0.500000  0.500000  0.000000  1
  Al  Al3  1  0.000000  0.000000  0.000000  1
  O  O4  1  0.288143  0.788143  0.076286  1
  O  O5  1  0.788143  0.711857  0.500000  1
  O  O6  1  0.211857  0.288143  0.500000  1
  O  O7  1  0.711857  0.211857  0.923714  1
  O  O8  1  0.250000  0.250000  0.000000  1
  O  O9  1  0.750000  0.750000  0.000000  1
