# generated using pymatgen
data_SrAl3P2(HO2)7
_symmetry_space_group_name_H-M   'P 1'
_cell_length_a   6.84120074
_cell_length_b   6.84120074
_cell_length_c   6.84120074
_cell_angle_alpha   63.26834960
_cell_angle_beta   63.26834960
_cell_angle_gamma   63.26834960
_symmetry_Int_Tables_number   1
_chemical_formula_structural   SrAl3P2(HO2)7
_chemical_formula_sum   'Sr1 Al3 P2 H7 O14'
_cell_volume   242.79609539
_cell_formula_units_Z   1
loop_
 _symmetry_equiv_pos_site_id
 _symmetry_equiv_pos_as_xyz
  1  'x, y, z'
loop_
 _atom_site_type_symbol
 _atom_site_label
 _atom_site_symmetry_multiplicity
 _atom_site_fract_x
 _atom_site_fract_y
 _atom_site_fract_z
 _atom_site_occupancy
  Sr  Sr0  1  0.000306  0.000306  0.000306  1
  Al  Al1  1  0.997943  0.504021  0.997943  1
  Al  Al2  1  0.997943  0.997943  0.504021  1
  Al  Al3  1  0.504021  0.997943  0.997943  1
  P  P4  1  0.690090  0.690090  0.690090  1
  P  P5  1  0.305397  0.305397  0.305397  1
  H  H6  1  0.695111  0.286510  0.695111  1
  H  H7  1  0.695111  0.695111  0.286510  1
  H  H8  1  0.729308  0.292923  0.292923  1
  H  H9  1  0.286510  0.695111  0.695111  1
  H  H10  1  0.462637  0.462637  0.462637  1
  H  H11  1  0.292923  0.729308  0.292923  1
  H  H12  1  0.292923  0.292923  0.729308  1
  O  O13  1  0.841015  0.487399  0.841015  1
  O  O14  1  0.841015  0.841015  0.487399  1
  O  O15  1  0.487399  0.841015  0.841015  1
  O  O16  1  0.595534  0.595534  0.595534  1
  O  O17  1  0.740412  0.740412  0.115645  1
  O  O18  1  0.740412  0.115645  0.740412  1
  O  O19  1  0.893489  0.259047  0.259047  1
  O  O20  1  0.115645  0.740412  0.740412  1
  O  O21  1  0.259047  0.893489  0.259047  1
  O  O22  1  0.259047  0.259047  0.893489  1
  O  O23  1  0.402864  0.402864  0.402864  1
  O  O24  1  0.515267  0.160818  0.160818  1
  O  O25  1  0.160818  0.515267  0.160818  1
  O  O26  1  0.160818  0.160818  0.515267  1
