# generated using pymatgen
data_CdGeAs2
_symmetry_space_group_name_H-M   'P 1'
_cell_length_a   7.16345012
_cell_length_b   7.16345012
_cell_length_c   7.16345012
_cell_angle_alpha   129.88332953
_cell_angle_beta   129.88332953
_cell_angle_gamma   73.59335053
_symmetry_Int_Tables_number   1
_chemical_formula_structural   CdGeAs2
_chemical_formula_sum   'Cd2 Ge2 As4'
_cell_volume   211.21409636
_cell_formula_units_Z   2
loop_
 _symmetry_equiv_pos_site_id
 _symmetry_equiv_pos_as_xyz
  1  'x, y, z'
loop_
 _atom_site_type_symbol
 _atom_site_label
 _atom_site_symmetry_multiplicity
 _atom_site_fract_x
 _atom_site_fract_y
 _atom_site_fract_z
 _atom_site_occupancy
  Cd  Cd0  1  0.000000  0.000000  0.000000  1
  Cd  Cd1  1  0.750000  0.250000  0.500000  1
  Ge  Ge2  1  0.500000  0.500000  0.000000  1
  Ge  Ge3  1  0.250000  0.750000  0.500000  1
  As  As4  1  0.375000  0.847495  0.972495  1
  As  As5  1  0.597495  0.625000  0.472495  1
  As  As6  1  0.875000  0.402505  0.027505  1
  As  As7  1  0.152505  0.125000  0.527505  1
