# generated using pymatgen
data_SiNiH12(OF)6
_symmetry_space_group_name_H-M   'P 1'
_cell_length_a   6.38817750
_cell_length_b   6.38817750
_cell_length_c   6.38817750
_cell_angle_alpha   96.39312533
_cell_angle_beta   96.39312533
_cell_angle_gamma   96.39312533
_symmetry_Int_Tables_number   1
_chemical_formula_structural   SiNiH12(OF)6
_chemical_formula_sum   'Si1 Ni1 H12 O6 F6'
_cell_volume   255.43250549
_cell_formula_units_Z   1
loop_
 _symmetry_equiv_pos_site_id
 _symmetry_equiv_pos_as_xyz
  1  'x, y, z'
loop_
 _atom_site_type_symbol
 _atom_site_label
 _atom_site_symmetry_multiplicity
 _atom_site_fract_x
 _atom_site_fract_y
 _atom_site_fract_z
 _atom_site_occupancy
  Si  Si0  1  0.500000  0.500000  0.500000  1
  Ni  Ni1  1  0.000000  0.000000  0.000000  1
  H  H2  1  0.199915  0.398658  0.059563  1
  H  H3  1  0.802313  0.689343  0.183277  1
  H  H4  1  0.310657  0.816723  0.197687  1
  H  H5  1  0.398658  0.059563  0.199915  1
  H  H6  1  0.816723  0.197687  0.310657  1
  H  H7  1  0.059563  0.199915  0.398658  1
  H  H8  1  0.940437  0.800085  0.601342  1
  H  H9  1  0.183277  0.802313  0.689343  1
  H  H10  1  0.601342  0.940437  0.800085  1
  H  H11  1  0.689343  0.183277  0.802313  1
  H  H12  1  0.197687  0.310657  0.816723  1
  H  H13  1  0.800085  0.601342  0.940437  1
  O  O14  1  0.878636  0.700943  0.058935  1
  O  O15  1  0.299057  0.941065  0.121364  1
  O  O16  1  0.941065  0.121364  0.299057  1
  O  O17  1  0.058935  0.878636  0.700943  1
  O  O18  1  0.700943  0.058935  0.878636  1
  O  O19  1  0.121364  0.299057  0.941065  1
  F  F20  1  0.356127  0.562366  0.276383  1
  F  F21  1  0.562366  0.276383  0.356127  1
  F  F22  1  0.723617  0.643873  0.437634  1
  F  F23  1  0.276383  0.356127  0.562366  1
  F  F24  1  0.437634  0.723617  0.643873  1
  F  F25  1  0.643873  0.437634  0.723617  1
