# generated using pymatgen
data_YAl3Ni
_symmetry_space_group_name_H-M   'P 1'
_cell_length_a   4.05138822
_cell_length_b   8.15661888
_cell_length_c   10.64669839
_cell_angle_alpha   90.00000000
_cell_angle_beta   90.00000000
_cell_angle_gamma   90.00000000
_symmetry_Int_Tables_number   1
_chemical_formula_structural   YAl3Ni
_chemical_formula_sum   'Y4 Al12 Ni4'
_cell_volume   351.82685194
_cell_formula_units_Z   4
loop_
 _symmetry_equiv_pos_site_id
 _symmetry_equiv_pos_as_xyz
  1  'x, y, z'
loop_
 _atom_site_type_symbol
 _atom_site_label
 _atom_site_symmetry_multiplicity
 _atom_site_fract_x
 _atom_site_fract_y
 _atom_site_fract_z
 _atom_site_occupancy
  Y  Y0  1  0.250000  0.685468  0.508944  1
  Y  Y1  1  0.750000  0.814532  0.008944  1
  Y  Y2  1  0.250000  0.185468  0.991056  1
  Y  Y3  1  0.750000  0.314532  0.491056  1
  Al  Al4  1  0.750000  0.944587  0.583441  1
  Al  Al5  1  0.250000  0.055413  0.416559  1
  Al  Al6  1  0.750000  0.444587  0.916559  1
  Al  Al7  1  0.250000  0.555413  0.083441  1
  Al  Al8  1  0.750000  0.114816  0.213963  1
  Al  Al9  1  0.250000  0.385184  0.713963  1
  Al  Al10  1  0.750000  0.614815  0.286037  1
  Al  Al11  1  0.250000  0.855899  0.222031  1
  Al  Al12  1  0.750000  0.144101  0.777969  1
  Al  Al13  1  0.250000  0.355899  0.277969  1
  Al  Al14  1  0.250000  0.885185  0.786037  1
  Al  Al15  1  0.750000  0.644101  0.722031  1
  Ni  Ni16  1  0.750000  0.394061  0.143164  1
  Ni  Ni17  1  0.750000  0.894061  0.356836  1
  Ni  Ni18  1  0.250000  0.105939  0.643164  1
  Ni  Ni19  1  0.250000  0.605939  0.856836  1
