# generated using pymatgen
data_Ca2SiO4
_symmetry_space_group_name_H-M   'P 1'
_cell_length_a   5.12388663
_cell_length_b   6.80933762
_cell_length_c   11.34379516
_cell_angle_alpha   90.00000000
_cell_angle_beta   90.00000000
_cell_angle_gamma   90.00000000
_symmetry_Int_Tables_number   1
_chemical_formula_structural   Ca2SiO4
_chemical_formula_sum   'Ca8 Si4 O16'
_cell_volume   395.78812122
_cell_formula_units_Z   4
loop_
 _symmetry_equiv_pos_site_id
 _symmetry_equiv_pos_as_xyz
  1  'x, y, z'
loop_
 _atom_site_type_symbol
 _atom_site_label
 _atom_site_symmetry_multiplicity
 _atom_site_fract_x
 _atom_site_fract_y
 _atom_site_fract_z
 _atom_site_occupancy
  Ca  Ca0  1  0.491737  0.750000  0.280697  1
  Ca  Ca1  1  0.991737  0.250000  0.219303  1
  Ca  Ca2  1  0.508263  0.250000  0.719303  1
  Ca  Ca3  1  0.008263  0.750000  0.780697  1
  Ca  Ca4  1  0.500000  0.500000  0.000000  1
  Ca  Ca5  1  0.000000  0.500000  0.500000  1
  Ca  Ca6  1  0.500000  0.000000  0.000000  1
  Ca  Ca7  1  0.000000  0.000000  0.500000  1
  Si  Si8  1  0.926846  0.750000  0.096081  1
  Si  Si9  1  0.426846  0.250000  0.403919  1
  Si  Si10  1  0.073154  0.250000  0.903919  1
  Si  Si11  1  0.573154  0.750000  0.596081  1
  O  O12  1  0.203710  0.444741  0.838068  1
  O  O13  1  0.703710  0.555259  0.661932  1
  O  O14  1  0.796290  0.944741  0.161932  1
  O  O15  1  0.296290  0.055259  0.338068  1
  O  O16  1  0.796290  0.555259  0.161932  1
  O  O17  1  0.296290  0.444741  0.338068  1
  O  O18  1  0.203710  0.055259  0.838068  1
  O  O19  1  0.703710  0.944741  0.661932  1
  O  O20  1  0.796620  0.750000  0.960757  1
  O  O21  1  0.296620  0.250000  0.539243  1
  O  O22  1  0.203380  0.250000  0.039243  1
  O  O23  1  0.703380  0.750000  0.460757  1
  O  O24  1  0.252700  0.750000  0.592883  1
  O  O25  1  0.752700  0.250000  0.907117  1
  O  O26  1  0.747300  0.250000  0.407117  1
  O  O27  1  0.247300  0.750000  0.092883  1
