# generated using pymatgen
data_CeBe13
_symmetry_space_group_name_H-M   'P 1'
_cell_length_a   7.25902075
_cell_length_b   7.25902075
_cell_length_c   7.25902075
_cell_angle_alpha   60.00000000
_cell_angle_beta   60.00000000
_cell_angle_gamma   60.00000000
_symmetry_Int_Tables_number   1
_chemical_formula_structural   CeBe13
_chemical_formula_sum   'Ce2 Be26'
_cell_volume   270.47000915
_cell_formula_units_Z   2
loop_
 _symmetry_equiv_pos_site_id
 _symmetry_equiv_pos_as_xyz
  1  'x, y, z'
loop_
 _atom_site_type_symbol
 _atom_site_label
 _atom_site_symmetry_multiplicity
 _atom_site_fract_x
 _atom_site_fract_y
 _atom_site_fract_z
 _atom_site_occupancy
  Ce  Ce0  1  0.250000  0.250000  0.250000  1
  Ce  Ce1  1  0.750000  0.750000  0.750000  1
  Be  Be2  1  0.710381  0.938381  0.061619  1
  Be  Be3  1  0.938381  0.710381  0.289619  1
  Be  Be4  1  0.000000  0.000000  0.000000  1
  Be  Be5  1  0.500000  0.500000  0.500000  1
  Be  Be6  1  0.061619  0.289619  0.710381  1
  Be  Be7  1  0.561619  0.789619  0.438381  1
  Be  Be8  1  0.789619  0.561619  0.210381  1
  Be  Be9  1  0.210381  0.561619  0.438381  1
  Be  Be10  1  0.789619  0.438381  0.561619  1
  Be  Be11  1  0.210381  0.789619  0.561619  1
  Be  Be12  1  0.561619  0.438381  0.210381  1
  Be  Be13  1  0.710381  0.289619  0.938381  1
  Be  Be14  1  0.938381  0.289619  0.061619  1
  Be  Be15  1  0.710381  0.061619  0.289619  1
  Be  Be16  1  0.289619  0.710381  0.061619  1
  Be  Be17  1  0.061619  0.938381  0.289619  1
  Be  Be18  1  0.061619  0.710381  0.938381  1
  Be  Be19  1  0.938381  0.061619  0.710381  1
  Be  Be20  1  0.289619  0.938381  0.710381  1
  Be  Be21  1  0.438381  0.789619  0.210381  1
  Be  Be22  1  0.210381  0.438381  0.789619  1
  Be  Be23  1  0.438381  0.561619  0.789619  1
  Be  Be24  1  0.789619  0.210381  0.438381  1
  Be  Be25  1  0.438381  0.210381  0.561619  1
  Be  Be26  1  0.561619  0.210381  0.789619  1
  Be  Be27  1  0.289619  0.061619  0.938381  1
