# generated using pymatgen
data_Li4TeO5
_symmetry_space_group_name_H-M   'P 1'
_cell_length_a   5.18559266
_cell_length_b   5.25848522
_cell_length_c   7.86604639
_cell_angle_alpha   107.54004090
_cell_angle_beta   102.04751018
_cell_angle_gamma   101.86486237
_symmetry_Int_Tables_number   1
_chemical_formula_structural   Li4TeO5
_chemical_formula_sum   'Li8 Te2 O10'
_cell_volume   191.54587750
_cell_formula_units_Z   2
loop_
 _symmetry_equiv_pos_site_id
 _symmetry_equiv_pos_as_xyz
  1  'x, y, z'
loop_
 _atom_site_type_symbol
 _atom_site_label
 _atom_site_symmetry_multiplicity
 _atom_site_fract_x
 _atom_site_fract_y
 _atom_site_fract_z
 _atom_site_occupancy
  Li  Li0  1  0.105673  0.484160  0.317350  1
  Li  Li1  1  0.894327  0.515840  0.682650  1
  Li  Li2  1  0.500000  0.500000  0.500000  1
  Li  Li3  1  0.500000  0.000000  0.000000  1
  Li  Li4  1  0.337829  0.505351  0.887926  1
  Li  Li5  1  0.662171  0.494649  0.112074  1
  Li  Li6  1  0.691400  0.010494  0.604097  1
  Li  Li7  1  0.308600  0.989506  0.395903  1
  Te  Te8  1  0.102757  0.001918  0.788435  1
  Te  Te9  1  0.897243  0.998082  0.211565  1
  O  O10  1  0.729388  0.763202  0.846829  1
  O  O11  1  0.270612  0.236798  0.153171  1
  O  O12  1  0.721584  0.229182  0.329375  1
  O  O13  1  0.278416  0.770818  0.670625  1
  O  O14  1  0.087812  0.787417  0.044257  1
  O  O15  1  0.912188  0.212583  0.955743  1
  O  O16  1  0.467527  0.240078  0.750575  1
  O  O17  1  0.532473  0.759922  0.249425  1
  O  O18  1  0.909289  0.754403  0.426514  1
  O  O19  1  0.090711  0.245597  0.573486  1
