# generated using pymatgen
data_Li2SeO4
_symmetry_space_group_name_H-M   'P 1'
_cell_length_a   8.81410914
_cell_length_b   8.81410914
_cell_length_c   8.81410914
_cell_angle_alpha   107.82991863
_cell_angle_beta   107.82991863
_cell_angle_gamma   107.82991863
_symmetry_Int_Tables_number   1
_chemical_formula_structural   Li2SeO4
_chemical_formula_sum   'Li12 Se6 O24'
_cell_volume   556.85585294
_cell_formula_units_Z   6
loop_
 _symmetry_equiv_pos_site_id
 _symmetry_equiv_pos_as_xyz
  1  'x, y, z'
loop_
 _atom_site_type_symbol
 _atom_site_label
 _atom_site_symmetry_multiplicity
 _atom_site_fract_x
 _atom_site_fract_y
 _atom_site_fract_z
 _atom_site_occupancy
  Li  Li0  1  0.891548  0.295991  0.064145  1
  Li  Li1  1  0.295991  0.064145  0.891548  1
  Li  Li2  1  0.064145  0.891548  0.295991  1
  Li  Li3  1  0.108452  0.704009  0.935855  1
  Li  Li4  1  0.704009  0.935855  0.108452  1
  Li  Li5  1  0.935855  0.108452  0.704009  1
  Li  Li6  1  0.221845  0.621956  0.400151  1
  Li  Li7  1  0.621956  0.400151  0.221845  1
  Li  Li8  1  0.400151  0.221845  0.621956  1
  Li  Li9  1  0.778155  0.378044  0.599849  1
  Li  Li10  1  0.378044  0.599849  0.778155  1
  Li  Li11  1  0.599849  0.778155  0.378044  1
  Se  Se12  1  0.551790  0.960336  0.735970  1
  Se  Se13  1  0.264030  0.448210  0.039664  1
  Se  Se14  1  0.039664  0.264030  0.448210  1
  Se  Se15  1  0.448210  0.039664  0.264030  1
  Se  Se16  1  0.735970  0.551790  0.960336  1
  Se  Se17  1  0.960336  0.735970  0.551790  1
  O  O18  1  0.809825  0.526677  0.472960  1
  O  O19  1  0.473323  0.527040  0.190175  1
  O  O20  1  0.190175  0.473323  0.527040  1
  O  O21  1  0.527040  0.190175  0.473323  1
  O  O22  1  0.526677  0.472960  0.809825  1
  O  O23  1  0.465931  0.146765  0.138351  1
  O  O24  1  0.534069  0.853235  0.861649  1
  O  O25  1  0.853235  0.861649  0.534069  1
  O  O26  1  0.861649  0.534069  0.853235  1
  O  O27  1  0.567902  0.925564  0.252204  1
  O  O28  1  0.146765  0.138351  0.465931  1
  O  O29  1  0.138351  0.465931  0.146765  1
  O  O30  1  0.432098  0.074436  0.747796  1
  O  O31  1  0.074436  0.747796  0.432098  1
  O  O32  1  0.747796  0.432098  0.074436  1
  O  O33  1  0.186377  0.234514  0.899823  1
  O  O34  1  0.925564  0.252204  0.567902  1
  O  O35  1  0.252204  0.567902  0.925564  1
  O  O36  1  0.765486  0.100177  0.813623  1
  O  O37  1  0.100177  0.813623  0.765486  1
  O  O38  1  0.813623  0.765486  0.100177  1
  O  O39  1  0.234514  0.899823  0.186377  1
  O  O40  1  0.899823  0.186377  0.234514  1
  O  O41  1  0.472960  0.809825  0.526677  1
