# generated using pymatgen
data_Sr2SnO4
_symmetry_space_group_name_H-M   'P 1'
_cell_length_a   5.87724269
_cell_length_b   5.87724269
_cell_length_c   12.52429623
_cell_angle_alpha   90.00000000
_cell_angle_beta   90.00000000
_cell_angle_gamma   90.00000000
_symmetry_Int_Tables_number   1
_chemical_formula_structural   Sr2SnO4
_chemical_formula_sum   'Sr8 Sn4 O16'
_cell_volume   432.61401113
_cell_formula_units_Z   4
loop_
 _symmetry_equiv_pos_site_id
 _symmetry_equiv_pos_as_xyz
  1  'x, y, z'
loop_
 _atom_site_type_symbol
 _atom_site_label
 _atom_site_symmetry_multiplicity
 _atom_site_fract_x
 _atom_site_fract_y
 _atom_site_fract_z
 _atom_site_occupancy
  Sr  Sr0  1  0.764737  0.264737  0.396879  1
  Sr  Sr1  1  0.264737  0.235263  0.603121  1
  Sr  Sr2  1  0.735263  0.764737  0.603121  1
  Sr  Sr3  1  0.235263  0.735263  0.396879  1
  Sr  Sr4  1  0.735263  0.235263  0.103121  1
  Sr  Sr5  1  0.235263  0.264737  0.896879  1
  Sr  Sr6  1  0.764737  0.735263  0.896879  1
  Sr  Sr7  1  0.264737  0.764737  0.103121  1
  Sn  Sn8  1  0.750000  0.250000  0.750000  1
  Sn  Sn9  1  0.250000  0.250000  0.250000  1
  Sn  Sn10  1  0.750000  0.750000  0.250000  1
  Sn  Sn11  1  0.250000  0.750000  0.750000  1
  O  O12  1  0.706078  0.206078  0.586656  1
  O  O13  1  0.206078  0.293922  0.413344  1
  O  O14  1  0.793922  0.706078  0.413344  1
  O  O15  1  0.293922  0.793922  0.586656  1
  O  O16  1  0.793922  0.293922  0.913344  1
  O  O17  1  0.293922  0.206078  0.086656  1
  O  O18  1  0.706078  0.793922  0.086656  1
  O  O19  1  0.206078  0.706078  0.913344  1
  O  O20  1  0.000000  0.000000  0.250000  1
  O  O21  1  0.500000  0.500000  0.750000  1
  O  O22  1  0.500000  0.500000  0.250000  1
  O  O23  1  0.000000  0.000000  0.750000  1
  O  O24  1  0.500000  0.000000  0.780830  1
  O  O25  1  0.000000  0.500000  0.219170  1
  O  O26  1  0.000000  0.500000  0.719170  1
  O  O27  1  0.500000  0.000000  0.280830  1
