# generated using pymatgen
data_RbTiZnOF5
_symmetry_space_group_name_H-M   'P 1'
_cell_length_a   7.42560176
_cell_length_b   7.42560176
_cell_length_c   7.42560176
_cell_angle_alpha   121.18814382
_cell_angle_beta   120.90100044
_cell_angle_gamma   88.20025946
_symmetry_Int_Tables_number   1
_chemical_formula_structural   RbTiZnOF5
_chemical_formula_sum   'Rb2 Ti2 Zn2 O2 F10'
_cell_volume   284.79492293
_cell_formula_units_Z   2
loop_
 _symmetry_equiv_pos_site_id
 _symmetry_equiv_pos_as_xyz
  1  'x, y, z'
loop_
 _atom_site_type_symbol
 _atom_site_label
 _atom_site_symmetry_multiplicity
 _atom_site_fract_x
 _atom_site_fract_y
 _atom_site_fract_z
 _atom_site_occupancy
  Rb  Rb0  1  0.374597  0.124597  0.250000  1
  Rb  Rb1  1  0.625403  0.875403  0.750000  1
  Ti  Ti2  1  0.000000  0.000000  0.500000  1
  Ti  Ti3  1  0.000000  0.500000  0.000000  1
  Zn  Zn4  1  0.500000  0.500000  0.000000  1
  Zn  Zn5  1  0.000000  0.500000  0.500000  1
  O  O6  1  0.965701  0.215701  0.750000  1
  O  O7  1  0.034299  0.784299  0.250000  1
  F  F8  1  0.682325  0.839816  0.275142  1
  F  F9  1  0.674945  0.424945  0.250000  1
  F  F10  1  0.064674  0.839816  0.657491  1
  F  F11  1  0.682325  0.407183  0.842509  1
  F  F12  1  0.935326  0.592817  0.775142  1
  F  F13  1  0.064674  0.407183  0.224858  1
  F  F14  1  0.317675  0.592817  0.157491  1
  F  F15  1  0.935326  0.160184  0.342509  1
  F  F16  1  0.317675  0.160184  0.724858  1
  F  F17  1  0.325055  0.575055  0.750000  1
