# generated using pymatgen
data_TbNiGe2
_symmetry_space_group_name_H-M   'P 1'
_cell_length_a   8.55282058
_cell_length_b   8.55282058
_cell_length_c   4.19220192
_cell_angle_alpha   90.00000000
_cell_angle_beta   90.00000000
_cell_angle_gamma   151.97170201
_symmetry_Int_Tables_number   1
_chemical_formula_structural   TbNiGe2
_chemical_formula_sum   'Tb2 Ni2 Ge4'
_cell_volume   144.10311626
_cell_formula_units_Z   2
loop_
 _symmetry_equiv_pos_site_id
 _symmetry_equiv_pos_as_xyz
  1  'x, y, z'
loop_
 _atom_site_type_symbol
 _atom_site_label
 _atom_site_symmetry_multiplicity
 _atom_site_fract_x
 _atom_site_fract_y
 _atom_site_fract_z
 _atom_site_occupancy
  Tb  Tb0  1  0.107977  0.892023  0.750000  1
  Tb  Tb1  1  0.892023  0.107977  0.250000  1
  Ni  Ni2  1  0.319726  0.680274  0.750000  1
  Ni  Ni3  1  0.680274  0.319726  0.250000  1
  Ge  Ge4  1  0.458126  0.541874  0.750000  1
  Ge  Ge5  1  0.541874  0.458126  0.250000  1
  Ge  Ge6  1  0.748874  0.251126  0.750000  1
  Ge  Ge7  1  0.251126  0.748874  0.250000  1
