# generated using pymatgen
data_U
_symmetry_space_group_name_H-M   'P 1'
_cell_length_a   10.41849635
_cell_length_b   10.41849635
_cell_length_c   5.70574821
_cell_angle_alpha   90.00000000
_cell_angle_beta   90.00000000
_cell_angle_gamma   90.00000000
_symmetry_Int_Tables_number   1
_chemical_formula_structural   U
_chemical_formula_sum   U30
_cell_volume   619.33081715
_cell_formula_units_Z   30
loop_
 _symmetry_equiv_pos_site_id
 _symmetry_equiv_pos_as_xyz
  1  'x, y, z'
loop_
 _atom_site_type_symbol
 _atom_site_label
 _atom_site_symmetry_multiplicity
 _atom_site_fract_x
 _atom_site_fract_y
 _atom_site_fract_z
 _atom_site_occupancy
  U  U0  1  0.000000  0.000000  0.731135  1
  U  U1  1  0.500000  0.500000  0.231135  1
  U  U2  1  0.109704  0.109704  0.267422  1
  U  U3  1  0.609704  0.390296  0.767422  1
  U  U4  1  0.390296  0.609704  0.767422  1
  U  U5  1  0.890296  0.890296  0.267422  1
  U  U6  1  0.322935  0.322935  0.947577  1
  U  U7  1  0.822935  0.177065  0.447577  1
  U  U8  1  0.177065  0.822935  0.447577  1
  U  U9  1  0.677065  0.677065  0.947577  1
  U  U10  1  0.676856  0.676856  0.498668  1
  U  U11  1  0.176856  0.823144  0.998668  1
  U  U12  1  0.823144  0.176856  0.998668  1
  U  U13  1  0.323144  0.323144  0.498668  1
  U  U14  1  0.228846  0.555697  0.249766  1
  U  U15  1  0.055697  0.271154  0.749766  1
  U  U16  1  0.944303  0.728846  0.749766  1
  U  U17  1  0.771154  0.444303  0.249766  1
  U  U18  1  0.728846  0.944303  0.749766  1
  U  U19  1  0.271154  0.055697  0.749766  1
  U  U20  1  0.444303  0.771154  0.249766  1
  U  U21  1  0.555697  0.228846  0.249766  1
  U  U22  1  0.049696  0.358722  0.190617  1
  U  U23  1  0.858722  0.450304  0.690617  1
  U  U24  1  0.141278  0.549696  0.690617  1
  U  U25  1  0.950304  0.641278  0.190617  1
  U  U26  1  0.549696  0.141278  0.690617  1
  U  U27  1  0.450304  0.858722  0.690617  1
  U  U28  1  0.641278  0.950304  0.190617  1
  U  U29  1  0.358722  0.049696  0.190617  1
