# generated using pymatgen
data_NaGd3Ti2(SbO7)2
_symmetry_space_group_name_H-M   'P 1'
_cell_length_a   7.35683763
_cell_length_b   7.32399665
_cell_length_c   12.67799048
_cell_angle_alpha   90.00000000
_cell_angle_beta   125.05414208
_cell_angle_gamma   90.00000000
_symmetry_Int_Tables_number   1
_chemical_formula_structural   NaGd3Ti2(SbO7)2
_chemical_formula_sum   'Na2 Gd6 Ti4 Sb4 O28'
_cell_volume   559.19927724
_cell_formula_units_Z   2
loop_
 _symmetry_equiv_pos_site_id
 _symmetry_equiv_pos_as_xyz
  1  'x, y, z'
loop_
 _atom_site_type_symbol
 _atom_site_label
 _atom_site_symmetry_multiplicity
 _atom_site_fract_x
 _atom_site_fract_y
 _atom_site_fract_z
 _atom_site_occupancy
  Na  Na0  1  0.500000  0.500000  0.000000  1
  Na  Na1  1  0.500000  0.500000  0.500000  1
  Gd  Gd2  1  0.000000  0.267016  0.250000  1
  Gd  Gd3  1  0.000000  0.732984  0.750000  1
  Gd  Gd4  1  0.500000  0.254735  0.250000  1
  Gd  Gd5  1  0.500000  0.745265  0.750000  1
  Gd  Gd6  1  0.500000  0.000000  0.500000  1
  Gd  Gd7  1  0.500000  0.000000  0.000000  1
  Ti  Ti8  1  0.000000  0.000000  0.500000  1
  Ti  Ti9  1  0.000000  0.000000  0.000000  1
  Ti  Ti10  1  0.000000  0.239182  0.750000  1
  Ti  Ti11  1  0.000000  0.760818  0.250000  1
  Sb  Sb12  1  0.500000  0.245898  0.750000  1
  Sb  Sb13  1  0.000000  0.500000  0.000000  1
  Sb  Sb14  1  0.500000  0.754102  0.250000  1
  Sb  Sb15  1  0.000000  0.500000  0.500000  1
  O  O16  1  0.367316  0.239811  0.368813  1
  O  O17  1  0.926712  0.053481  0.622315  1
  O  O18  1  0.321697  0.232288  0.822299  1
  O  O19  1  0.367316  0.760189  0.868813  1
  O  O20  1  0.923373  0.249285  0.423088  1
  O  O21  1  0.323819  0.045497  0.622635  1
  O  O22  1  0.942772  0.550282  0.132166  1
  O  O23  1  0.676181  0.045497  0.877365  1
  O  O24  1  0.926712  0.946519  0.122315  1
  O  O25  1  0.076627  0.249285  0.076912  1
  O  O26  1  0.923373  0.750715  0.923088  1
  O  O27  1  0.321697  0.767712  0.322299  1
  O  O28  1  0.073288  0.053481  0.877685  1
  O  O29  1  0.323819  0.954503  0.122635  1
  O  O30  1  0.329437  0.544833  0.128590  1
  O  O31  1  0.676181  0.954503  0.377365  1
  O  O32  1  0.670563  0.544833  0.371410  1
  O  O33  1  0.942772  0.449718  0.632166  1
  O  O34  1  0.678303  0.767712  0.177701  1
  O  O35  1  0.076627  0.750715  0.576912  1
  O  O36  1  0.073288  0.946519  0.377685  1
  O  O37  1  0.329437  0.455167  0.628590  1
  O  O38  1  0.057228  0.550282  0.367834  1
  O  O39  1  0.670563  0.455167  0.871410  1
  O  O40  1  0.632684  0.760189  0.631187  1
  O  O41  1  0.678303  0.232288  0.677701  1
  O  O42  1  0.057228  0.449718  0.867834  1
  O  O43  1  0.632684  0.239811  0.131187  1
