# generated using pymatgen
data_GaAgTe2
_symmetry_space_group_name_H-M   'P 1'
_cell_length_a   7.65941086
_cell_length_b   7.65941086
_cell_length_c   7.65941086
_cell_angle_alpha   130.49821901
_cell_angle_beta   130.49821901
_cell_angle_gamma   72.61152612
_symmetry_Int_Tables_number   1
_chemical_formula_structural   GaAgTe2
_chemical_formula_sum   'Ga2 Ag2 Te4'
_cell_volume   253.89963182
_cell_formula_units_Z   2
loop_
 _symmetry_equiv_pos_site_id
 _symmetry_equiv_pos_as_xyz
  1  'x, y, z'
loop_
 _atom_site_type_symbol
 _atom_site_label
 _atom_site_symmetry_multiplicity
 _atom_site_fract_x
 _atom_site_fract_y
 _atom_site_fract_z
 _atom_site_occupancy
  Ga  Ga0  1  0.500000  0.500000  0.000000  1
  Ga  Ga1  1  0.250000  0.750000  0.500000  1
  Ag  Ag2  1  1.000000  0.000000  0.000000  1
  Ag  Ag3  1  0.750000  0.250000  0.500000  1
  Te  Te4  1  0.141806  0.125000  0.516806  1
  Te  Te5  1  0.875000  0.391806  0.016806  1
  Te  Te6  1  0.375000  0.858194  0.983194  1
  Te  Te7  1  0.608194  0.625000  0.483194  1
