# generated using pymatgen
data_NaNO3
_symmetry_space_group_name_H-M   'P 1'
_cell_length_a   6.54322750
_cell_length_b   6.54322750
_cell_length_c   6.54322750
_cell_angle_alpha   46.13967152
_cell_angle_beta   46.13967152
_cell_angle_gamma   46.13967152
_symmetry_Int_Tables_number   1
_chemical_formula_structural   NaNO3
_chemical_formula_sum   'Na2 N2 O6'
_cell_volume   132.88302374
_cell_formula_units_Z   2
loop_
 _symmetry_equiv_pos_site_id
 _symmetry_equiv_pos_as_xyz
  1  'x, y, z'
loop_
 _atom_site_type_symbol
 _atom_site_label
 _atom_site_symmetry_multiplicity
 _atom_site_fract_x
 _atom_site_fract_y
 _atom_site_fract_z
 _atom_site_occupancy
  Na  Na0  1  0.500000  0.500000  0.500000  1
  Na  Na1  1  0.000000  0.000000  0.000000  1
  N  N2  1  0.250000  0.250000  0.250000  1
  N  N3  1  0.750000  0.750000  0.750000  1
  O  O4  1  0.002963  0.497037  0.250000  1
  O  O5  1  0.250000  0.002963  0.497037  1
  O  O6  1  0.497037  0.250000  0.002963  1
  O  O7  1  0.750000  0.997037  0.502963  1
  O  O8  1  0.502963  0.750000  0.997037  1
  O  O9  1  0.997037  0.502963  0.750000  1
