# generated using pymatgen
data_Li8SnO6
_symmetry_space_group_name_H-M   'P 1'
_cell_length_a   6.06687705
_cell_length_b   6.06687705
_cell_length_c   6.06687705
_cell_angle_alpha   54.24312349
_cell_angle_beta   54.24312349
_cell_angle_gamma   54.24312349
_symmetry_Int_Tables_number   1
_chemical_formula_structural   Li8SnO6
_chemical_formula_sum   'Li8 Sn1 O6'
_cell_volume   136.68648794
_cell_formula_units_Z   1
loop_
 _symmetry_equiv_pos_site_id
 _symmetry_equiv_pos_as_xyz
  1  'x, y, z'
loop_
 _atom_site_type_symbol
 _atom_site_label
 _atom_site_symmetry_multiplicity
 _atom_site_fract_x
 _atom_site_fract_y
 _atom_site_fract_z
 _atom_site_occupancy
  Li  Li0  1  0.899555  0.234589  0.505112  1
  Li  Li1  1  0.505112  0.899555  0.234589  1
  Li  Li2  1  0.234589  0.505112  0.899555  1
  Li  Li3  1  0.100445  0.765411  0.494888  1
  Li  Li4  1  0.494888  0.100445  0.765411  1
  Li  Li5  1  0.765411  0.494888  0.100445  1
  Li  Li6  1  0.655336  0.655336  0.655336  1
  Li  Li7  1  0.344664  0.344664  0.344664  1
  Sn  Sn8  1  0.000000  0.000000  0.000000  1
  O  O9  1  0.093782  0.384616  0.764900  1
  O  O10  1  0.235100  0.906218  0.615384  1
  O  O11  1  0.615384  0.235100  0.906218  1
  O  O12  1  0.906218  0.615384  0.235100  1
  O  O13  1  0.764900  0.093782  0.384616  1
  O  O14  1  0.384616  0.764900  0.093782  1
