# generated using pymatgen
data_SrTl2O4
_symmetry_space_group_name_H-M   'P 1'
_cell_length_a   3.47501257
_cell_length_b   10.21677767
_cell_length_c   11.93750904
_cell_angle_alpha   90.00000000
_cell_angle_beta   90.00000000
_cell_angle_gamma   90.00000000
_symmetry_Int_Tables_number   1
_chemical_formula_structural   SrTl2O4
_chemical_formula_sum   'Sr4 Tl8 O16'
_cell_volume   423.82252646
_cell_formula_units_Z   4
loop_
 _symmetry_equiv_pos_site_id
 _symmetry_equiv_pos_as_xyz
  1  'x, y, z'
loop_
 _atom_site_type_symbol
 _atom_site_label
 _atom_site_symmetry_multiplicity
 _atom_site_fract_x
 _atom_site_fract_y
 _atom_site_fract_z
 _atom_site_occupancy
  Sr  Sr0  1  0.250000  0.745462  0.151710  1
  Sr  Sr1  1  0.750000  0.254538  0.848290  1
  Sr  Sr2  1  0.250000  0.245462  0.348290  1
  Sr  Sr3  1  0.750000  0.754538  0.651710  1
  Tl  Tl4  1  0.250000  0.079901  0.607600  1
  Tl  Tl5  1  0.750000  0.920099  0.392400  1
  Tl  Tl6  1  0.250000  0.579901  0.892400  1
  Tl  Tl7  1  0.750000  0.420099  0.107600  1
  Tl  Tl8  1  0.250000  0.075195  0.109756  1
  Tl  Tl9  1  0.750000  0.924805  0.890244  1
  Tl  Tl10  1  0.250000  0.575195  0.390244  1
  Tl  Tl11  1  0.750000  0.424805  0.609756  1
  O  O12  1  0.250000  0.087788  0.925867  1
  O  O13  1  0.750000  0.912212  0.074133  1
  O  O14  1  0.250000  0.587788  0.574133  1
  O  O15  1  0.750000  0.412212  0.425867  1
  O  O16  1  0.250000  0.978757  0.279570  1
  O  O17  1  0.750000  0.021243  0.720430  1
  O  O18  1  0.250000  0.478757  0.220430  1
  O  O19  1  0.750000  0.521243  0.779570  1
  O  O20  1  0.250000  0.375108  0.974877  1
  O  O21  1  0.750000  0.624892  0.025123  1
  O  O22  1  0.250000  0.875108  0.525123  1
  O  O23  1  0.750000  0.124892  0.474877  1
  O  O24  1  0.750000  0.210698  0.179415  1
  O  O25  1  0.250000  0.789302  0.820585  1
  O  O26  1  0.750000  0.710698  0.320585  1
  O  O27  1  0.250000  0.289302  0.679415  1
