# generated using pymatgen
data_Al2SiO5
_symmetry_space_group_name_H-M   'P 1'
_cell_length_a   5.61389800
_cell_length_b   7.87578500
_cell_length_c   7.97942000
_cell_angle_alpha   90.00000000
_cell_angle_beta   90.00000000
_cell_angle_gamma   90.00000000
_symmetry_Int_Tables_number   1
_chemical_formula_structural   Al2SiO5
_chemical_formula_sum   'Al8 Si4 O20'
_cell_volume   352.80090817
_cell_formula_units_Z   4
loop_
 _symmetry_equiv_pos_site_id
 _symmetry_equiv_pos_as_xyz
  1  'x, y, z'
loop_
 _atom_site_type_symbol
 _atom_site_label
 _atom_site_symmetry_multiplicity
 _atom_site_fract_x
 _atom_site_fract_y
 _atom_site_fract_z
 _atom_site_occupancy
  Al  Al0  1  0.241764  0.000000  0.000000  1
  Al  Al1  1  0.258236  0.500000  0.500000  1
  Al  Al2  1  0.758236  0.000000  0.000000  1
  Al  Al3  1  0.741764  0.500000  0.500000  1
  Al  Al4  1  0.000000  0.129429  0.639181  1
  Al  Al5  1  0.000000  0.870571  0.360819  1
  Al  Al6  1  0.500000  0.629429  0.860819  1
  Al  Al7  1  0.500000  0.370571  0.139181  1
  Si  Si8  1  0.000000  0.245752  0.252241  1
  Si  Si9  1  0.000000  0.754248  0.747759  1
  Si  Si10  1  0.500000  0.745752  0.247759  1
  Si  Si11  1  0.500000  0.254248  0.752241  1
  O  O12  1  0.739716  0.730754  0.365771  1
  O  O13  1  0.739716  0.269246  0.634229  1
  O  O14  1  0.760284  0.230754  0.134229  1
  O  O15  1  0.760284  0.769246  0.865771  1
  O  O16  1  0.260284  0.269246  0.634229  1
  O  O17  1  0.260284  0.730754  0.365771  1
  O  O18  1  0.239716  0.769246  0.865771  1
  O  O19  1  0.239716  0.230754  0.134229  1
  O  O20  1  0.500000  0.397468  0.900662  1
  O  O21  1  0.500000  0.602532  0.099338  1
  O  O22  1  0.000000  0.897468  0.599338  1
  O  O23  1  0.000000  0.102532  0.400662  1
  O  O24  1  0.500000  0.424031  0.362861  1
  O  O25  1  0.500000  0.575969  0.637139  1
  O  O26  1  0.000000  0.924031  0.137139  1
  O  O27  1  0.000000  0.075969  0.862861  1
  O  O28  1  0.000000  0.424122  0.363592  1
  O  O29  1  0.000000  0.575878  0.636408  1
  O  O30  1  0.500000  0.924122  0.136408  1
  O  O31  1  0.500000  0.075878  0.863592  1
