# generated using pymatgen
data_TbPS4
_symmetry_space_group_name_H-M   'P 1'
_cell_length_a   12.25727988
_cell_length_b   12.25727988
_cell_length_c   12.25727988
_cell_angle_alpha   127.55789556
_cell_angle_beta   127.55789556
_cell_angle_gamma   77.34232230
_symmetry_Int_Tables_number   1
_chemical_formula_structural   TbPS4
_chemical_formula_sum   'Tb8 P8 S32'
_cell_volume   1122.72330779
_cell_formula_units_Z   8
loop_
 _symmetry_equiv_pos_site_id
 _symmetry_equiv_pos_as_xyz
  1  'x, y, z'
loop_
 _atom_site_type_symbol
 _atom_site_label
 _atom_site_symmetry_multiplicity
 _atom_site_fract_x
 _atom_site_fract_y
 _atom_site_fract_z
 _atom_site_occupancy
  Tb  Tb0  1  0.000000  0.000000  0.000000  1
  Tb  Tb1  1  0.750000  0.250000  0.500000  1
  Tb  Tb2  1  0.250000  0.750000  0.500000  1
  Tb  Tb3  1  0.500000  0.500000  0.000000  1
  Tb  Tb4  1  0.750000  0.750000  0.000000  1
  Tb  Tb5  1  0.500000  0.000000  0.500000  1
  Tb  Tb6  1  0.000000  0.500000  0.500000  1
  Tb  Tb7  1  0.250000  0.250000  0.000000  1
  P  P8  1  0.125000  0.413093  0.788093  1
  P  P9  1  0.125000  0.913093  0.288093  1
  P  P10  1  0.663093  0.875000  0.288093  1
  P  P11  1  0.586907  0.375000  0.711907  1
  P  P12  1  0.625000  0.836907  0.711907  1
  P  P13  1  0.625000  0.336907  0.211907  1
  P  P14  1  0.086907  0.375000  0.211907  1
  P  P15  1  0.163093  0.875000  0.788093  1
  S  S16  1  0.486429  0.210397  0.451967  1
  S  S17  1  0.758430  0.034463  0.548033  1
  S  S18  1  0.784463  0.736429  0.776033  1
  S  S19  1  0.960397  0.008430  0.223967  1
  S  S20  1  0.491570  0.539603  0.776033  1
  S  S21  1  0.763571  0.715537  0.223967  1
  S  S22  1  0.289603  0.013571  0.548033  1
  S  S23  1  0.465537  0.741570  0.451967  1
  S  S24  1  0.279157  0.467919  0.317741  1
  S  S25  1  0.217919  0.400178  0.688762  1
  S  S26  1  0.711416  0.529157  0.311238  1
  S  S27  1  0.970843  0.788584  0.688762  1
  S  S28  1  0.099822  0.282081  0.311238  1
  S  S29  1  0.538584  0.349822  0.317741  1
  S  S30  1  0.032081  0.220843  0.682259  1
  S  S31  1  0.150178  0.961416  0.682259  1
  S  S32  1  0.470843  0.782081  0.182259  1
  S  S33  1  0.532081  0.849822  0.811238  1
  S  S34  1  0.038584  0.720843  0.188762  1
  S  S35  1  0.779157  0.461416  0.811238  1
  S  S36  1  0.650178  0.967919  0.188762  1
  S  S37  1  0.211416  0.900178  0.182259  1
  S  S38  1  0.717919  0.029157  0.817741  1
  S  S39  1  0.599822  0.288584  0.817741  1
  S  S40  1  0.991570  0.215537  0.951967  1
  S  S41  1  0.965537  0.513571  0.723967  1
  S  S42  1  0.789603  0.241570  0.276033  1
  S  S43  1  0.258430  0.710397  0.723967  1
  S  S44  1  0.986429  0.534463  0.276033  1
  S  S45  1  0.460397  0.236429  0.951967  1
  S  S46  1  0.284463  0.508430  0.048033  1
  S  S47  1  0.263571  0.039603  0.048033  1
