# generated using pymatgen
data_Na4BeAlSi4ClO12
_symmetry_space_group_name_H-M   'P 1'
_cell_length_a   7.71393628
_cell_length_b   7.71393628
_cell_length_c   12.61334267
_cell_angle_alpha   89.95046736
_cell_angle_beta   90.04953264
_cell_angle_gamma   70.11908889
_symmetry_Int_Tables_number   1
_chemical_formula_structural   Na4BeAlSi4ClO12
_chemical_formula_sum   'Na8 Be2 Al2 Si8 Cl2 O24'
_cell_volume   705.82185175
_cell_formula_units_Z   2
loop_
 _symmetry_equiv_pos_site_id
 _symmetry_equiv_pos_as_xyz
  1  'x, y, z'
loop_
 _atom_site_type_symbol
 _atom_site_label
 _atom_site_symmetry_multiplicity
 _atom_site_fract_x
 _atom_site_fract_y
 _atom_site_fract_z
 _atom_site_occupancy
  Na  Na0  1  0.189017  0.292735  0.178433  1
  Na  Na1  1  0.136381  0.976417  0.510514  1
  Na  Na2  1  0.662650  0.821172  0.309480  1
  Na  Na3  1  0.707265  0.810983  0.678433  1
  Na  Na4  1  0.178828  0.337350  0.809480  1
  Na  Na5  1  0.482944  0.375416  0.503250  1
  Na  Na6  1  0.023583  0.863619  0.010514  1
  Na  Na7  1  0.624584  0.517056  0.003250  1
  Be  Be8  1  0.371185  0.875604  0.121174  1
  Be  Be9  1  0.124396  0.628815  0.621174  1
  Al  Al10  1  0.877484  0.368462  0.377667  1
  Al  Al11  1  0.631538  0.122516  0.877667  1
  Si  Si12  1  0.004904  0.991475  0.250751  1
  Si  Si13  1  0.615448  0.124252  0.129410  1
  Si  Si14  1  0.489425  0.503248  0.745170  1
  Si  Si15  1  0.125041  0.620742  0.375362  1
  Si  Si16  1  0.875748  0.384552  0.629410  1
  Si  Si17  1  0.496752  0.510575  0.245170  1
  Si  Si18  1  0.008525  0.995096  0.750751  1
  Si  Si19  1  0.379258  0.874959  0.875362  1
  Cl  Cl20  1  0.499336  0.000220  0.499745  1
  Cl  Cl21  1  0.999780  0.500664  0.999745  1
  O  O22  1  0.502679  0.303945  0.204528  1
  O  O23  1  0.836205  0.049349  0.162000  1
  O  O24  1  0.530185  0.965443  0.150912  1
  O  O25  1  0.003976  0.789540  0.295297  1
  O  O26  1  0.011846  0.812441  0.690260  1
  O  O27  1  0.187559  0.988154  0.190260  1
  O  O28  1  0.103935  0.688387  0.495704  1
  O  O29  1  0.345580  0.553038  0.649216  1
  O  O30  1  0.034557  0.469815  0.650912  1
  O  O31  1  0.446962  0.654420  0.149216  1
  O  O32  1  0.500484  0.308439  0.799521  1
  O  O33  1  0.060628  0.445802  0.347425  1
  O  O34  1  0.696055  0.497321  0.704528  1
  O  O35  1  0.605118  0.201964  0.008785  1
  O  O36  1  0.691561  0.499516  0.299521  1
  O  O37  1  0.346366  0.558615  0.343703  1
  O  O38  1  0.798036  0.394882  0.508785  1
  O  O39  1  0.869075  0.043186  0.851694  1
  O  O40  1  0.956814  0.130925  0.351694  1
  O  O41  1  0.554198  0.939372  0.847425  1
  O  O42  1  0.950651  0.163795  0.662000  1
  O  O43  1  0.210460  0.996024  0.795297  1
  O  O44  1  0.311613  0.896065  0.995704  1
  O  O45  1  0.441385  0.653634  0.843703  1
