# generated using pymatgen
data_ZrSnRh
_symmetry_space_group_name_H-M   'P 1'
_cell_length_a   7.42338995
_cell_length_b   7.42338995
_cell_length_c   7.31129890
_cell_angle_alpha   90.00000000
_cell_angle_beta   90.00000000
_cell_angle_gamma   120.00000000
_symmetry_Int_Tables_number   1
_chemical_formula_structural   ZrSnRh
_chemical_formula_sum   'Zr6 Sn6 Rh6'
_cell_volume   348.92309828
_cell_formula_units_Z   6
loop_
 _symmetry_equiv_pos_site_id
 _symmetry_equiv_pos_as_xyz
  1  'x, y, z'
loop_
 _atom_site_type_symbol
 _atom_site_label
 _atom_site_symmetry_multiplicity
 _atom_site_fract_x
 _atom_site_fract_y
 _atom_site_fract_z
 _atom_site_occupancy
  Zr  Zr0  1  0.593822  0.982166  0.750000  1
  Zr  Zr1  1  0.388344  0.406178  0.750000  1
  Zr  Zr2  1  0.017834  0.611656  0.750000  1
  Zr  Zr3  1  0.611656  0.017834  0.250000  1
  Zr  Zr4  1  0.406178  0.388344  0.250000  1
  Zr  Zr5  1  0.982166  0.593822  0.250000  1
  Sn  Sn6  1  0.270183  0.000000  0.000000  1
  Sn  Sn7  1  0.729817  0.729817  0.500000  1
  Sn  Sn8  1  0.000000  0.270183  0.500000  1
  Sn  Sn9  1  0.000000  0.270183  0.000000  1
  Sn  Sn10  1  0.729817  0.729817  0.000000  1
  Sn  Sn11  1  0.270183  0.000000  0.500000  1
  Rh  Rh12  1  0.666667  0.333333  0.964317  1
  Rh  Rh13  1  0.666667  0.333333  0.535683  1
  Rh  Rh14  1  0.333333  0.666667  0.035683  1
  Rh  Rh15  1  0.333333  0.666667  0.464317  1
  Rh  Rh16  1  0.000000  0.000000  0.750000  1
  Rh  Rh17  1  0.000000  0.000000  0.250000  1
