# generated using pymatgen
data_ZnSiH12(OF)6
_symmetry_space_group_name_H-M   'P 1'
_cell_length_a   6.42232214
_cell_length_b   6.42232214
_cell_length_c   6.42232214
_cell_angle_alpha   96.23886320
_cell_angle_beta   96.23886320
_cell_angle_gamma   96.23886320
_symmetry_Int_Tables_number   1
_chemical_formula_structural   ZnSiH12(OF)6
_chemical_formula_sum   'Zn1 Si1 H12 O6 F6'
_cell_volume   259.81518269
_cell_formula_units_Z   1
loop_
 _symmetry_equiv_pos_site_id
 _symmetry_equiv_pos_as_xyz
  1  'x, y, z'
loop_
 _atom_site_type_symbol
 _atom_site_label
 _atom_site_symmetry_multiplicity
 _atom_site_fract_x
 _atom_site_fract_y
 _atom_site_fract_z
 _atom_site_occupancy
  Zn  Zn0  1  0.000000  0.000000  0.000000  1
  Si  Si1  1  0.500000  0.500000  0.500000  1
  H  H2  1  0.207348  0.399388  0.055228  1
  H  H3  1  0.803996  0.682862  0.188371  1
  H  H4  1  0.317138  0.811629  0.196004  1
  H  H5  1  0.399388  0.055228  0.207348  1
  H  H6  1  0.811629  0.196004  0.317138  1
  H  H7  1  0.055228  0.207348  0.399388  1
  H  H8  1  0.944772  0.792652  0.600612  1
  H  H9  1  0.188371  0.803996  0.682862  1
  H  H10  1  0.600612  0.944772  0.792652  1
  H  H11  1  0.682862  0.188371  0.803996  1
  H  H12  1  0.196004  0.317138  0.811629  1
  H  H13  1  0.792652  0.600612  0.944772  1
  O  O14  1  0.874032  0.697987  0.061105  1
  O  O15  1  0.302013  0.938895  0.125968  1
  O  O16  1  0.938895  0.125968  0.302013  1
  O  O17  1  0.061105  0.874032  0.697987  1
  O  O18  1  0.697987  0.061105  0.874032  1
  O  O19  1  0.125968  0.302013  0.938895  1
  F  F20  1  0.365562  0.559930  0.271928  1
  F  F21  1  0.559930  0.271928  0.365562  1
  F  F22  1  0.728072  0.634438  0.440070  1
  F  F23  1  0.271928  0.365562  0.559930  1
  F  F24  1  0.440070  0.728072  0.634438  1
  F  F25  1  0.634438  0.440070  0.728072  1
