# generated using pymatgen
data_ErAgSe2
_symmetry_space_group_name_H-M   'P 1'
_cell_length_a   4.24621119
_cell_length_b   6.82197458
_cell_length_c   13.74417994
_cell_angle_alpha   90.00000000
_cell_angle_beta   90.00000000
_cell_angle_gamma   90.00000000
_symmetry_Int_Tables_number   1
_chemical_formula_structural   ErAgSe2
_chemical_formula_sum   'Er4 Ag4 Se8'
_cell_volume   398.13514814
_cell_formula_units_Z   4
loop_
 _symmetry_equiv_pos_site_id
 _symmetry_equiv_pos_as_xyz
  1  'x, y, z'
loop_
 _atom_site_type_symbol
 _atom_site_label
 _atom_site_symmetry_multiplicity
 _atom_site_fract_x
 _atom_site_fract_y
 _atom_site_fract_z
 _atom_site_occupancy
  Er  Er0  1  0.221520  0.292801  0.127686  1
  Er  Er1  1  0.721520  0.207199  0.872314  1
  Er  Er2  1  0.778480  0.792801  0.372314  1
  Er  Er3  1  0.278480  0.707199  0.627686  1
  Ag  Ag4  1  0.507056  0.705697  0.873584  1
  Ag  Ag5  1  0.492944  0.205697  0.626416  1
  Ag  Ag6  1  0.007056  0.794303  0.126416  1
  Ag  Ag7  1  0.992944  0.294303  0.373584  1
  Se  Se8  1  0.770855  0.512318  0.527084  1
  Se  Se9  1  0.270855  0.987682  0.472916  1
  Se  Se10  1  0.229145  0.012318  0.972916  1
  Se  Se11  1  0.729145  0.487682  0.027084  1
  Se  Se12  1  0.777179  0.911440  0.726064  1
  Se  Se13  1  0.722821  0.088560  0.226064  1
  Se  Se14  1  0.222821  0.411440  0.773936  1
  Se  Se15  1  0.277179  0.588560  0.273936  1
