# generated using pymatgen
data_Pr(CuGe)2
_symmetry_space_group_name_H-M   'P 1'
_cell_length_a   5.94658056
_cell_length_b   5.94658056
_cell_length_c   5.94658056
_cell_angle_alpha   138.93686214
_cell_angle_beta   138.93686214
_cell_angle_gamma   59.47113767
_symmetry_Int_Tables_number   1
_chemical_formula_structural   Pr(CuGe)2
_chemical_formula_sum   'Pr1 Cu2 Ge2'
_cell_volume   89.84070060
_cell_formula_units_Z   1
loop_
 _symmetry_equiv_pos_site_id
 _symmetry_equiv_pos_as_xyz
  1  'x, y, z'
loop_
 _atom_site_type_symbol
 _atom_site_label
 _atom_site_symmetry_multiplicity
 _atom_site_fract_x
 _atom_site_fract_y
 _atom_site_fract_z
 _atom_site_occupancy
  Pr  Pr0  1  0.000000  0.000000  0.000000  1
  Cu  Cu1  1  0.250000  0.750000  0.500000  1
  Cu  Cu2  1  0.750000  0.250000  0.500000  1
  Ge  Ge3  1  0.622958  0.622958  0.000000  1
  Ge  Ge4  1  0.377042  0.377042  0.000000  1
