# generated using pymatgen
data_Y2B5Pd14
_symmetry_space_group_name_H-M   'P 1'
_cell_length_a   10.41905098
_cell_length_b   10.41905098
_cell_length_c   10.41905098
_cell_angle_alpha   133.03590251
_cell_angle_beta   133.03590251
_cell_angle_gamma   68.59777073
_symmetry_Int_Tables_number   1
_chemical_formula_structural   Y2B5Pd14
_chemical_formula_sum   'Y4 B10 Pd28'
_cell_volume   593.41045568
_cell_formula_units_Z   2
loop_
 _symmetry_equiv_pos_site_id
 _symmetry_equiv_pos_as_xyz
  1  'x, y, z'
loop_
 _atom_site_type_symbol
 _atom_site_label
 _atom_site_symmetry_multiplicity
 _atom_site_fract_x
 _atom_site_fract_y
 _atom_site_fract_z
 _atom_site_occupancy
  Y  Y0  1  0.783943  0.783943  0.000000  1
  Y  Y1  1  0.533943  0.033943  0.500000  1
  Y  Y2  1  0.966057  0.466057  0.500000  1
  Y  Y3  1  0.216057  0.216057  0.000000  1
  B  B4  1  0.250000  0.750000  0.500000  1
  B  B5  1  0.500000  0.500000  0.000000  1
  B  B6  1  0.375000  0.335805  0.460805  1
  B  B7  1  0.085805  0.125000  0.460805  1
  B  B8  1  0.664195  0.625000  0.539195  1
  B  B9  1  0.875000  0.914195  0.539195  1
  B  B10  1  0.375000  0.914195  0.039195  1
  B  B11  1  0.664195  0.125000  0.039195  1
  B  B12  1  0.085805  0.625000  0.960805  1
  B  B13  1  0.875000  0.335805  0.960805  1
  Pd  Pd14  1  0.807570  0.476277  0.668707  1
  Pd  Pd15  1  0.861137  0.192430  0.668707  1
  Pd  Pd16  1  0.312788  0.312788  0.625577  1
  Pd  Pd17  1  0.062788  0.937212  0.500000  1
  Pd  Pd18  1  0.437212  0.562788  0.500000  1
  Pd  Pd19  1  0.687212  0.687212  0.374423  1
  Pd  Pd20  1  0.437212  0.937212  0.874423  1
  Pd  Pd21  1  0.687212  0.312788  0.000000  1
  Pd  Pd22  1  0.312788  0.687212  1.000000  1
  Pd  Pd23  1  0.062788  0.562788  0.125577  1
  Pd  Pd24  1  0.375000  0.625000  0.750000  1
  Pd  Pd25  1  0.375000  0.125000  0.750000  1
  Pd  Pd26  1  0.375000  0.625000  0.250000  1
  Pd  Pd27  1  0.875000  0.625000  0.250000  1
  Pd  Pd28  1  0.807570  0.138863  0.331293  1
  Pd  Pd29  1  0.888863  0.057570  0.831293  1
  Pd  Pd30  1  0.226277  0.057570  0.168707  1
  Pd  Pd31  1  0.942430  0.773723  0.831293  1
  Pd  Pd32  1  0.942430  0.111137  0.168707  1
  Pd  Pd33  1  0.523723  0.192430  0.331293  1
  Pd  Pd34  1  0.569512  0.355689  0.213823  1
  Pd  Pd35  1  0.644311  0.858134  0.213823  1
  Pd  Pd36  1  0.644311  0.430488  0.786177  1
  Pd  Pd37  1  0.180488  0.894311  0.286177  1
  Pd  Pd38  1  0.608134  0.894311  0.713823  1
  Pd  Pd39  1  0.105689  0.391866  0.286177  1
  Pd  Pd40  1  0.105689  0.819512  0.713823  1
  Pd  Pd41  1  0.141866  0.355689  0.786177  1
