# generated using pymatgen
data_Ce2Fe14B
_symmetry_space_group_name_H-M   'P 1'
_cell_length_a   8.75092897
_cell_length_b   8.75092897
_cell_length_c   11.94779471
_cell_angle_alpha   90.00000000
_cell_angle_beta   90.00000000
_cell_angle_gamma   90.00000000
_symmetry_Int_Tables_number   1
_chemical_formula_structural   Ce2Fe14B
_chemical_formula_sum   'Ce8 Fe56 B4'
_cell_volume   914.94727780
_cell_formula_units_Z   4
loop_
 _symmetry_equiv_pos_site_id
 _symmetry_equiv_pos_as_xyz
  1  'x, y, z'
loop_
 _atom_site_type_symbol
 _atom_site_label
 _atom_site_symmetry_multiplicity
 _atom_site_fract_x
 _atom_site_fract_y
 _atom_site_fract_z
 _atom_site_occupancy
  Ce  Ce0  1  0.856516  0.143484  0.000000  1
  Ce  Ce1  1  0.356516  0.356516  0.500000  1
  Ce  Ce2  1  0.643484  0.643484  0.500000  1
  Ce  Ce3  1  0.143484  0.856516  0.000000  1
  Ce  Ce4  1  0.731470  0.731470  0.000000  1
  Ce  Ce5  1  0.768530  0.231470  0.500000  1
  Ce  Ce6  1  0.231470  0.768530  0.500000  1
  Ce  Ce7  1  0.268530  0.268530  0.000000  1
  Fe  Fe8  1  0.359156  0.038223  0.175394  1
  Fe  Fe9  1  0.640844  0.961777  0.175394  1
  Fe  Fe10  1  0.038223  0.359156  0.824606  1
  Fe  Fe11  1  0.538223  0.140844  0.675394  1
  Fe  Fe12  1  0.461777  0.859156  0.675394  1
  Fe  Fe13  1  0.140844  0.538223  0.324606  1
  Fe  Fe14  1  0.859156  0.461777  0.324606  1
  Fe  Fe15  1  0.961777  0.640844  0.824606  1
  Fe  Fe16  1  0.640844  0.961777  0.824606  1
  Fe  Fe17  1  0.359156  0.038223  0.824606  1
  Fe  Fe18  1  0.961777  0.640844  0.175394  1
  Fe  Fe19  1  0.461777  0.859156  0.324606  1
  Fe  Fe20  1  0.538223  0.140844  0.324606  1
  Fe  Fe21  1  0.859156  0.461777  0.675394  1
  Fe  Fe22  1  0.140844  0.538223  0.675394  1
  Fe  Fe23  1  0.038223  0.359156  0.175394  1
  Fe  Fe24  1  0.566130  0.223603  0.126071  1
  Fe  Fe25  1  0.433870  0.776397  0.126071  1
  Fe  Fe26  1  0.223603  0.566130  0.873929  1
  Fe  Fe27  1  0.723603  0.933870  0.626071  1
  Fe  Fe28  1  0.276397  0.066130  0.626071  1
  Fe  Fe29  1  0.933870  0.723603  0.373929  1
  Fe  Fe30  1  0.066130  0.276397  0.373929  1
  Fe  Fe31  1  0.776397  0.433870  0.873929  1
  Fe  Fe32  1  0.433870  0.776397  0.873929  1
  Fe  Fe33  1  0.566130  0.223603  0.873929  1
  Fe  Fe34  1  0.776397  0.433870  0.126071  1
  Fe  Fe35  1  0.276397  0.066130  0.373929  1
  Fe  Fe36  1  0.723603  0.933870  0.373929  1
  Fe  Fe37  1  0.066130  0.276397  0.626071  1
  Fe  Fe38  1  0.933870  0.723603  0.626071  1
  Fe  Fe39  1  0.223603  0.566130  0.126071  1
  Fe  Fe40  1  0.682362  0.682362  0.753857  1
  Fe  Fe41  1  0.317638  0.317638  0.753857  1
  Fe  Fe42  1  0.682362  0.682362  0.246143  1
  Fe  Fe43  1  0.182362  0.817638  0.253857  1
  Fe  Fe44  1  0.817638  0.182362  0.253857  1
  Fe  Fe45  1  0.817638  0.182362  0.746143  1
  Fe  Fe46  1  0.182362  0.817638  0.746143  1
  Fe  Fe47  1  0.317638  0.317638  0.246143  1
  Fe  Fe48  1  0.902107  0.902107  0.797930  1
  Fe  Fe49  1  0.097893  0.097893  0.797930  1
  Fe  Fe50  1  0.902107  0.902107  0.202070  1
  Fe  Fe51  1  0.402107  0.597893  0.297930  1
  Fe  Fe52  1  0.597893  0.402107  0.297930  1
  Fe  Fe53  1  0.597893  0.402107  0.702070  1
  Fe  Fe54  1  0.402107  0.597893  0.702070  1
  Fe  Fe55  1  0.097893  0.097893  0.202070  1
  Fe  Fe56  1  0.000000  0.000000  0.383940  1
  Fe  Fe57  1  0.500000  0.500000  0.883940  1
  Fe  Fe58  1  0.500000  0.500000  0.116060  1
  Fe  Fe59  1  0.000000  0.000000  0.616060  1
  Fe  Fe60  1  0.500000  0.000000  0.000000  1
  Fe  Fe61  1  0.500000  0.000000  0.500000  1
  Fe  Fe62  1  0.000000  0.500000  0.500000  1
  Fe  Fe63  1  0.000000  0.500000  0.000000  1
  B  B64  1  0.622395  0.377605  0.000000  1
  B  B65  1  0.122395  0.122395  0.500000  1
  B  B66  1  0.877605  0.877605  0.500000  1
  B  B67  1  0.377605  0.622395  0.000000  1
