# generated using pymatgen
data_DySi2Ni
_symmetry_space_group_name_H-M   'P 1'
_cell_length_a   8.46859938
_cell_length_b   8.46859938
_cell_length_c   3.95562153
_cell_angle_alpha   90.00000000
_cell_angle_beta   90.00000000
_cell_angle_gamma   152.73194312
_symmetry_Int_Tables_number   1
_chemical_formula_structural   DySi2Ni
_chemical_formula_sum   'Dy2 Si4 Ni2'
_cell_volume   129.97189639
_cell_formula_units_Z   2
loop_
 _symmetry_equiv_pos_site_id
 _symmetry_equiv_pos_as_xyz
  1  'x, y, z'
loop_
 _atom_site_type_symbol
 _atom_site_label
 _atom_site_symmetry_multiplicity
 _atom_site_fract_x
 _atom_site_fract_y
 _atom_site_fract_z
 _atom_site_occupancy
  Dy  Dy0  1  0.105825  0.894175  0.250000  1
  Dy  Dy1  1  0.894175  0.105825  0.750000  1
  Si  Si2  1  0.749378  0.250622  0.250000  1
  Si  Si3  1  0.250622  0.749378  0.750000  1
  Si  Si4  1  0.540036  0.459964  0.750000  1
  Si  Si5  1  0.459964  0.540036  0.250000  1
  Ni  Ni6  1  0.677291  0.322709  0.750000  1
  Ni  Ni7  1  0.322709  0.677291  0.250000  1
