# generated using pymatgen
data_TbSi2Ni
_symmetry_space_group_name_H-M   'P 1'
_cell_length_a   8.46663500
_cell_length_b   8.46663500
_cell_length_c   3.98165699
_cell_angle_alpha   90.00000000
_cell_angle_beta   90.00000000
_cell_angle_gamma   152.60253510
_symmetry_Int_Tables_number   1
_chemical_formula_structural   TbSi2Ni
_chemical_formula_sum   'Tb2 Si4 Ni2'
_cell_volume   131.33934852
_cell_formula_units_Z   2
loop_
 _symmetry_equiv_pos_site_id
 _symmetry_equiv_pos_as_xyz
  1  'x, y, z'
loop_
 _atom_site_type_symbol
 _atom_site_label
 _atom_site_symmetry_multiplicity
 _atom_site_fract_x
 _atom_site_fract_y
 _atom_site_fract_z
 _atom_site_occupancy
  Tb  Tb0  1  0.106035  0.893965  0.250000  1
  Tb  Tb1  1  0.893965  0.106035  0.750000  1
  Si  Si2  1  0.749508  0.250492  0.250000  1
  Si  Si3  1  0.250492  0.749508  0.750000  1
  Si  Si4  1  0.459984  0.540016  0.250000  1
  Si  Si5  1  0.540016  0.459984  0.750000  1
  Ni  Ni6  1  0.322063  0.677937  0.250000  1
  Ni  Ni7  1  0.677937  0.322063  0.750000  1
