# generated using pymatgen
data_SmSnAu
_symmetry_space_group_name_H-M   'P 1'
_cell_length_a   4.76219770
_cell_length_b   4.76219770
_cell_length_c   7.58948998
_cell_angle_alpha   90.00000000
_cell_angle_beta   90.00000000
_cell_angle_gamma   120.00000000
_symmetry_Int_Tables_number   1
_chemical_formula_structural   SmSnAu
_chemical_formula_sum   'Sm2 Sn2 Au2'
_cell_volume   149.05895280
_cell_formula_units_Z   2
loop_
 _symmetry_equiv_pos_site_id
 _symmetry_equiv_pos_as_xyz
  1  'x, y, z'
loop_
 _atom_site_type_symbol
 _atom_site_label
 _atom_site_symmetry_multiplicity
 _atom_site_fract_x
 _atom_site_fract_y
 _atom_site_fract_z
 _atom_site_occupancy
  Sm  Sm0  1  0.000000  0.000000  0.474334  1
  Sm  Sm1  1  0.000000  0.000000  0.974334  1
  Sn  Sn2  1  0.333333  0.666667  0.699716  1
  Sn  Sn3  1  0.666667  0.333333  0.199716  1
  Au  Au4  1  0.666667  0.333333  0.795950  1
  Au  Au5  1  0.333333  0.666667  0.295950  1
