# generated using pymatgen
data_Sr2RuO4
_symmetry_space_group_name_H-M   'P 1'
_cell_length_a   7.01667238
_cell_length_b   7.01667238
_cell_length_c   7.01667238
_cell_angle_alpha   147.69936073
_cell_angle_beta   147.69936073
_cell_angle_gamma   46.32936863
_symmetry_Int_Tables_number   1
_chemical_formula_structural   Sr2RuO4
_chemical_formula_sum   'Sr2 Ru1 O4'
_cell_volume   98.29510059
_cell_formula_units_Z   1
loop_
 _symmetry_equiv_pos_site_id
 _symmetry_equiv_pos_as_xyz
  1  'x, y, z'
loop_
 _atom_site_type_symbol
 _atom_site_label
 _atom_site_symmetry_multiplicity
 _atom_site_fract_x
 _atom_site_fract_y
 _atom_site_fract_z
 _atom_site_occupancy
  Sr  Sr0  1  0.352579  0.352579  0.000000  1
  Sr  Sr1  1  0.647421  0.647421  0.000000  1
  Ru  Ru2  1  0.000000  0.000000  0.000000  1
  O  O3  1  0.837101  0.837101  0.000000  1
  O  O4  1  0.162899  0.162899  0.000000  1
  O  O5  1  0.500000  0.000000  0.500000  1
  O  O6  1  0.000000  0.500000  0.500000  1
