# generated using pymatgen
data_Tl3SbSe3
_symmetry_space_group_name_H-M   'P 1'
_cell_length_a   9.70668404
_cell_length_b   9.70668404
_cell_length_c   9.70668404
_cell_angle_alpha   90.00000000
_cell_angle_beta   90.00000000
_cell_angle_gamma   90.00000000
_symmetry_Int_Tables_number   1
_chemical_formula_structural   Tl3SbSe3
_chemical_formula_sum   'Tl12 Sb4 Se12'
_cell_volume   914.56100435
_cell_formula_units_Z   4
loop_
 _symmetry_equiv_pos_site_id
 _symmetry_equiv_pos_as_xyz
  1  'x, y, z'
loop_
 _atom_site_type_symbol
 _atom_site_label
 _atom_site_symmetry_multiplicity
 _atom_site_fract_x
 _atom_site_fract_y
 _atom_site_fract_z
 _atom_site_occupancy
  Tl  Tl0  1  0.687415  0.812585  0.187415  1
  Tl  Tl1  1  0.812585  0.187415  0.687415  1
  Tl  Tl2  1  0.187415  0.687415  0.812585  1
  Tl  Tl3  1  0.312585  0.312585  0.312585  1
  Tl  Tl4  1  0.450167  0.049833  0.950167  1
  Tl  Tl5  1  0.049833  0.950167  0.450167  1
  Tl  Tl6  1  0.950167  0.450167  0.049833  1
  Tl  Tl7  1  0.549833  0.549833  0.549833  1
  Tl  Tl8  1  0.913928  0.586072  0.413928  1
  Tl  Tl9  1  0.586072  0.413928  0.913928  1
  Tl  Tl10  1  0.413928  0.913928  0.586072  1
  Tl  Tl11  1  0.086072  0.086072  0.086072  1
  Sb  Sb12  1  0.799068  0.799068  0.799068  1
  Sb  Sb13  1  0.700932  0.200932  0.299068  1
  Sb  Sb14  1  0.299068  0.700932  0.200932  1
  Sb  Sb15  1  0.200932  0.299068  0.700932  1
  Se  Se16  1  0.890929  0.551859  0.741065  1
  Se  Se17  1  0.390929  0.948141  0.258935  1
  Se  Se18  1  0.109071  0.051859  0.758935  1
  Se  Se19  1  0.948141  0.258935  0.390929  1
  Se  Se20  1  0.758935  0.109071  0.051859  1
  Se  Se21  1  0.258935  0.390929  0.948141  1
  Se  Se22  1  0.551859  0.741065  0.890929  1
  Se  Se23  1  0.741065  0.890929  0.551859  1
  Se  Se24  1  0.051859  0.758935  0.109071  1
  Se  Se25  1  0.448141  0.241065  0.609071  1
  Se  Se26  1  0.241065  0.609071  0.448141  1
  Se  Se27  1  0.609071  0.448141  0.241065  1
