# generated using pymatgen
data_TlAsS2
_symmetry_space_group_name_H-M   'P 1'
_cell_length_a   6.31962924
_cell_length_b   11.64452460
_cell_length_c   13.03522130
_cell_angle_alpha   90.00000000
_cell_angle_beta   105.55284998
_cell_angle_gamma   90.00000000
_symmetry_Int_Tables_number   1
_chemical_formula_structural   TlAsS2
_chemical_formula_sum   'Tl8 As8 S16'
_cell_volume   924.12558444
_cell_formula_units_Z   8
loop_
 _symmetry_equiv_pos_site_id
 _symmetry_equiv_pos_as_xyz
  1  'x, y, z'
loop_
 _atom_site_type_symbol
 _atom_site_label
 _atom_site_symmetry_multiplicity
 _atom_site_fract_x
 _atom_site_fract_y
 _atom_site_fract_z
 _atom_site_occupancy
  Tl  Tl0  1  0.849447  0.322361  0.940495  1
  Tl  Tl1  1  0.150553  0.822361  0.559505  1
  Tl  Tl2  1  0.150553  0.677639  0.059505  1
  Tl  Tl3  1  0.849447  0.177639  0.440495  1
  Tl  Tl4  1  0.268512  0.057356  0.888618  1
  Tl  Tl5  1  0.731488  0.557356  0.611382  1
  Tl  Tl6  1  0.731488  0.942644  0.111382  1
  Tl  Tl7  1  0.268512  0.442644  0.388618  1
  As  As8  1  0.235825  0.331668  0.701913  1
  As  As9  1  0.462962  0.910207  0.356665  1
  As  As10  1  0.537038  0.410207  0.143335  1
  As  As11  1  0.537038  0.089793  0.643335  1
  As  As12  1  0.462962  0.589793  0.856665  1
  As  As13  1  0.764175  0.668332  0.298087  1
  As  As14  1  0.235825  0.168332  0.201913  1
  As  As15  1  0.764175  0.831668  0.798087  1
  S  S16  1  0.419632  0.786139  0.823194  1
  S  S17  1  0.727962  0.467742  0.316438  1
  S  S18  1  0.272038  0.967742  0.183562  1
  S  S19  1  0.272038  0.532258  0.683562  1
  S  S20  1  0.727962  0.032258  0.816438  1
  S  S21  1  0.419632  0.713861  0.323194  1
  S  S22  1  0.580368  0.213861  0.176806  1
  S  S23  1  0.580368  0.286139  0.676806  1
  S  S24  1  0.293281  0.314150  0.875889  1
  S  S25  1  0.706719  0.814150  0.624111  1
  S  S26  1  0.706719  0.685850  0.124111  1
  S  S27  1  0.807851  0.937363  0.349679  1
  S  S28  1  0.807851  0.562637  0.849679  1
  S  S29  1  0.192149  0.062637  0.650321  1
  S  S30  1  0.192149  0.437363  0.150321  1
  S  S31  1  0.293281  0.185850  0.375889  1
