# generated using pymatgen
data_NaYTiNbO6F
_symmetry_space_group_name_H-M   'P 1'
_cell_length_a   7.33521964
_cell_length_b   7.33521964
_cell_length_c   10.36882506
_cell_angle_alpha   90.00000000
_cell_angle_beta   90.00000000
_cell_angle_gamma   90.00000000
_symmetry_Int_Tables_number   1
_chemical_formula_structural   NaYTiNbO6F
_chemical_formula_sum   'Na4 Y4 Ti4 Nb4 O24 F4'
_cell_volume   557.89926955
_cell_formula_units_Z   4
loop_
 _symmetry_equiv_pos_site_id
 _symmetry_equiv_pos_as_xyz
  1  'x, y, z'
loop_
 _atom_site_type_symbol
 _atom_site_label
 _atom_site_symmetry_multiplicity
 _atom_site_fract_x
 _atom_site_fract_y
 _atom_site_fract_z
 _atom_site_occupancy
  Na  Na0  1  0.500000  0.733990  0.000000  1
  Na  Na1  1  0.500000  0.266010  0.500000  1
  Na  Na2  1  0.733990  0.500000  0.750000  1
  Na  Na3  1  0.266010  0.500000  0.250000  1
  Y  Y4  1  0.000000  0.716312  0.000000  1
  Y  Y5  1  0.000000  0.283688  0.500000  1
  Y  Y6  1  0.283688  0.000000  0.250000  1
  Y  Y7  1  0.716312  0.000000  0.750000  1
  Ti  Ti8  1  0.766767  0.000000  0.250000  1
  Ti  Ti9  1  0.000000  0.766767  0.500000  1
  Ti  Ti10  1  0.233233  0.000000  0.750000  1
  Ti  Ti11  1  0.000000  0.233233  0.000000  1
  Nb  Nb12  1  0.239134  0.500000  0.750000  1
  Nb  Nb13  1  0.500000  0.760866  0.500000  1
  Nb  Nb14  1  0.500000  0.239134  0.000000  1
  Nb  Nb15  1  0.760866  0.500000  0.250000  1
  O  O16  1  0.550898  0.953912  0.366725  1
  O  O17  1  0.750975  0.778244  0.575635  1
  O  O18  1  0.953949  0.953949  0.375000  1
  O  O19  1  0.046088  0.449102  0.883275  1
  O  O20  1  0.046051  0.953949  0.625000  1
  O  O21  1  0.046051  0.046051  0.875000  1
  O  O22  1  0.221756  0.249025  0.674365  1
  O  O23  1  0.221756  0.750975  0.825635  1
  O  O24  1  0.249025  0.221756  0.075635  1
  O  O25  1  0.449102  0.046088  0.866725  1
  O  O26  1  0.449102  0.953912  0.633275  1
  O  O27  1  0.435586  0.435586  0.875000  1
  O  O28  1  0.550898  0.046088  0.133275  1
  O  O29  1  0.564414  0.435586  0.125000  1
  O  O30  1  0.564414  0.564414  0.375000  1
  O  O31  1  0.778244  0.750975  0.174365  1
  O  O32  1  0.750975  0.221756  0.924365  1
  O  O33  1  0.778244  0.249025  0.325635  1
  O  O34  1  0.953912  0.550898  0.383275  1
  O  O35  1  0.953949  0.046051  0.125000  1
  O  O36  1  0.953912  0.449102  0.116725  1
  O  O37  1  0.046088  0.550898  0.616725  1
  O  O38  1  0.249025  0.778244  0.424365  1
  O  O39  1  0.435586  0.564414  0.625000  1
  F  F40  1  0.247263  0.752737  0.125000  1
  F  F41  1  0.752737  0.247263  0.625000  1
  F  F42  1  0.752737  0.752737  0.875000  1
  F  F43  1  0.247263  0.247263  0.375000  1
