# generated using pymatgen
data_Ba4Nb14O23
_symmetry_space_group_name_H-M   'P 1'
_cell_length_a   12.27569404
_cell_length_b   12.27569404
_cell_length_c   4.20490877
_cell_angle_alpha   90.00000000
_cell_angle_beta   90.00000000
_cell_angle_gamma   118.20071415
_symmetry_Int_Tables_number   1
_chemical_formula_structural   Ba4Nb14O23
_chemical_formula_sum   'Ba4 Nb14 O23'
_cell_volume   558.43323518
_cell_formula_units_Z   1
loop_
 _symmetry_equiv_pos_site_id
 _symmetry_equiv_pos_as_xyz
  1  'x, y, z'
loop_
 _atom_site_type_symbol
 _atom_site_label
 _atom_site_symmetry_multiplicity
 _atom_site_fract_x
 _atom_site_fract_y
 _atom_site_fract_z
 _atom_site_occupancy
  Ba  Ba0  1  0.568060  0.771209  1.000000  1
  Ba  Ba1  1  0.431940  0.228791  1.000000  1
  Ba  Ba2  1  0.771209  0.568060  0.000000  1
  Ba  Ba3  1  0.228791  0.431940  0.000000  1
  Nb  Nb4  1  0.500000  0.500000  0.500000  1
  Nb  Nb5  1  0.638298  0.040158  0.500000  1
  Nb  Nb6  1  0.361702  0.959842  0.500000  1
  Nb  Nb7  1  0.040158  0.638298  0.500000  1
  Nb  Nb8  1  0.959842  0.361702  0.500000  1
  Nb  Nb9  1  0.837137  0.837137  0.500000  1
  Nb  Nb10  1  0.162863  0.162863  0.500000  1
  Nb  Nb11  1  0.297937  0.702063  0.500000  1
  Nb  Nb12  1  0.702063  0.297937  0.500000  1
  Nb  Nb13  1  0.203693  0.796307  1.000000  1
  Nb  Nb14  1  0.796307  0.203693  0.000000  1
  Nb  Nb15  1  0.099668  0.900332  0.500000  1
  Nb  Nb16  1  0.900332  0.099668  0.500000  1
  Nb  Nb17  1  0.000000  0.000000  0.000000  1
  O  O18  1  0.337973  0.337973  0.500000  1
  O  O19  1  0.662027  0.662027  0.500000  1
  O  O20  1  0.500000  0.500000  1.000000  1
  O  O21  1  0.404009  0.595991  0.500000  1
  O  O22  1  0.595991  0.404009  0.500000  1
  O  O23  1  0.532049  0.136016  0.500000  1
  O  O24  1  0.467951  0.863984  0.500000  1
  O  O25  1  0.136016  0.532049  0.500000  1
  O  O26  1  0.863984  0.467951  0.500000  1
  O  O27  1  0.636313  0.030139  1.000000  1
  O  O28  1  0.363687  0.969861  1.000000  1
  O  O29  1  0.030139  0.636313  1.000000  1
  O  O30  1  0.969861  0.363687  1.000000  1
  O  O31  1  0.730524  0.930216  0.500000  1
  O  O32  1  0.269476  0.069784  0.500000  1
  O  O33  1  0.930216  0.730524  0.500000  1
  O  O34  1  0.069784  0.269476  0.500000  1
  O  O35  1  0.829789  0.829788  1.000000  1
  O  O36  1  0.899592  0.100408  0.000000  1
  O  O37  1  0.100408  0.899592  1.000000  1
  O  O38  1  0.696098  0.303902  1.000000  1
  O  O39  1  0.303902  0.696098  1.000000  1
  O  O40  1  0.170212  0.170212  1.000000  1
