# generated using pymatgen
data_CsTiCoOF5
_symmetry_space_group_name_H-M   'P 1'
_cell_length_a   7.48329648
_cell_length_b   7.48329648
_cell_length_c   7.48329648
_cell_angle_alpha   121.63800518
_cell_angle_beta   120.38491076
_cell_angle_gamma   88.26038458
_symmetry_Int_Tables_number   1
_chemical_formula_structural   CsTiCoOF5
_chemical_formula_sum   'Cs2 Ti2 Co2 O2 F10'
_cell_volume   291.60055255
_cell_formula_units_Z   2
loop_
 _symmetry_equiv_pos_site_id
 _symmetry_equiv_pos_as_xyz
  1  'x, y, z'
loop_
 _atom_site_type_symbol
 _atom_site_label
 _atom_site_symmetry_multiplicity
 _atom_site_fract_x
 _atom_site_fract_y
 _atom_site_fract_z
 _atom_site_occupancy
  Cs  Cs0  1  0.627763  0.377763  0.250000  1
  Cs  Cs1  1  0.372237  0.622237  0.750000  1
  Ti  Ti2  1  1.000000  1.000000  0.500000  1
  Ti  Ti3  1  1.000000  0.500000  0.000000  1
  Co  Co4  1  0.000000  0.000000  0.000000  1
  Co  Co5  1  0.500000  1.000000  0.500000  1
  O  O6  1  0.039896  0.289896  0.750000  1
  O  O7  1  0.960104  0.710104  0.250000  1
  F  F8  1  0.937463  0.083918  0.271073  1
  F  F9  1  0.321429  0.071429  0.250000  1
  F  F10  1  0.937463  0.666390  0.853546  1
  F  F11  1  0.312845  0.083918  0.646454  1
  F  F12  1  0.687155  0.333610  0.771073  1
  F  F13  1  0.312845  0.666390  0.228927  1
  F  F14  1  0.687155  0.916082  0.353546  1
  F  F15  1  0.062537  0.333610  0.146454  1
  F  F16  1  0.678571  0.928571  0.750000  1
  F  F17  1  0.062537  0.916082  0.728927  1
