# generated using pymatgen
data_Ho2Ga8Co
_symmetry_space_group_name_H-M   'P 1'
_cell_length_a   4.23125843
_cell_length_b   4.23125843
_cell_length_c   11.10143598
_cell_angle_alpha   90.00000000
_cell_angle_beta   90.00000000
_cell_angle_gamma   90.00000000
_symmetry_Int_Tables_number   1
_chemical_formula_structural   Ho2Ga8Co
_chemical_formula_sum   'Ho2 Ga8 Co1'
_cell_volume   198.75509084
_cell_formula_units_Z   1
loop_
 _symmetry_equiv_pos_site_id
 _symmetry_equiv_pos_as_xyz
  1  'x, y, z'
loop_
 _atom_site_type_symbol
 _atom_site_label
 _atom_site_symmetry_multiplicity
 _atom_site_fract_x
 _atom_site_fract_y
 _atom_site_fract_z
 _atom_site_occupancy
  Ho  Ho0  1  0.000000  0.000000  0.694265  1
  Ho  Ho1  1  0.000000  0.000000  0.305735  1
  Ga  Ga2  1  0.500000  0.000000  0.500000  1
  Ga  Ga3  1  0.500000  0.000000  0.883380  1
  Ga  Ga4  1  0.000000  0.500000  0.500000  1
  Ga  Ga5  1  0.000000  0.500000  0.883380  1
  Ga  Ga6  1  0.500000  0.500000  0.303939  1
  Ga  Ga7  1  0.500000  0.500000  0.696061  1
  Ga  Ga8  1  0.000000  0.500000  0.116620  1
  Ga  Ga9  1  0.500000  0.000000  0.116620  1
  Co  Co10  1  0.000000  0.000000  0.000000  1
