# generated using pymatgen
data_SrSi2
_symmetry_space_group_name_H-M   'P 1'
_cell_length_a   6.56379900
_cell_length_b   6.56379900
_cell_length_c   6.56379900
_cell_angle_alpha   90.00000000
_cell_angle_beta   90.00000000
_cell_angle_gamma   90.00000000
_symmetry_Int_Tables_number   1
_chemical_formula_structural   SrSi2
_chemical_formula_sum   'Sr4 Si8'
_cell_volume   282.79115402
_cell_formula_units_Z   4
loop_
 _symmetry_equiv_pos_site_id
 _symmetry_equiv_pos_as_xyz
  1  'x, y, z'
loop_
 _atom_site_type_symbol
 _atom_site_label
 _atom_site_symmetry_multiplicity
 _atom_site_fract_x
 _atom_site_fract_y
 _atom_site_fract_z
 _atom_site_occupancy
  Sr  Sr0  1  0.625000  0.375000  0.875000  1
  Sr  Sr1  1  0.375000  0.875000  0.625000  1
  Sr  Sr2  1  0.875000  0.625000  0.375000  1
  Sr  Sr3  1  0.125000  0.125000  0.125000  1
  Si  Si4  1  0.827907  0.827907  0.827907  1
  Si  Si5  1  0.577907  0.922093  0.077907  1
  Si  Si6  1  0.922093  0.077907  0.577907  1
  Si  Si7  1  0.077907  0.577907  0.922093  1
  Si  Si8  1  0.422093  0.422093  0.422093  1
  Si  Si9  1  0.172093  0.327907  0.672093  1
  Si  Si10  1  0.672093  0.172093  0.327907  1
  Si  Si11  1  0.327907  0.672093  0.172093  1
