# generated using pymatgen
data_ZrNbP
_symmetry_space_group_name_H-M   'P 1'
_cell_length_a   3.59613798
_cell_length_b   6.91241883
_cell_length_c   8.33733597
_cell_angle_alpha   90.00000000
_cell_angle_beta   90.00000000
_cell_angle_gamma   90.00000000
_symmetry_Int_Tables_number   1
_chemical_formula_structural   ZrNbP
_chemical_formula_sum   'Zr4 Nb4 P4'
_cell_volume   207.24959666
_cell_formula_units_Z   4
loop_
 _symmetry_equiv_pos_site_id
 _symmetry_equiv_pos_as_xyz
  1  'x, y, z'
loop_
 _atom_site_type_symbol
 _atom_site_label
 _atom_site_symmetry_multiplicity
 _atom_site_fract_x
 _atom_site_fract_y
 _atom_site_fract_z
 _atom_site_occupancy
  Zr  Zr0  1  0.250000  0.034165  0.668780  1
  Zr  Zr1  1  0.750000  0.465835  0.168780  1
  Zr  Zr2  1  0.250000  0.534165  0.831220  1
  Zr  Zr3  1  0.750000  0.965835  0.331220  1
  Nb  Nb4  1  0.250000  0.639230  0.440362  1
  Nb  Nb5  1  0.750000  0.360770  0.559638  1
  Nb  Nb6  1  0.250000  0.139230  0.059638  1
  Nb  Nb7  1  0.750000  0.860770  0.940362  1
  P  P8  1  0.750000  0.238812  0.857575  1
  P  P9  1  0.250000  0.261188  0.357575  1
  P  P10  1  0.750000  0.738812  0.642425  1
  P  P11  1  0.250000  0.761188  0.142425  1
