# generated using pymatgen
data_SiB2Mo5
_symmetry_space_group_name_H-M   'P 1'
_cell_length_a   7.03238895
_cell_length_b   7.03238895
_cell_length_c   7.03238895
_cell_angle_alpha   129.01608411
_cell_angle_beta   129.01608411
_cell_angle_gamma   74.98469512
_symmetry_Int_Tables_number   1
_chemical_formula_structural   SiB2Mo5
_chemical_formula_sum   'Si2 B4 Mo10'
_cell_volume   204.45270005
_cell_formula_units_Z   2
loop_
 _symmetry_equiv_pos_site_id
 _symmetry_equiv_pos_as_xyz
  1  'x, y, z'
loop_
 _atom_site_type_symbol
 _atom_site_label
 _atom_site_symmetry_multiplicity
 _atom_site_fract_x
 _atom_site_fract_y
 _atom_site_fract_z
 _atom_site_occupancy
  Si  Si0  1  0.250000  0.250000  0.000000  1
  Si  Si1  1  0.750000  0.750000  0.000000  1
  B  B2  1  0.879048  0.379048  0.258097  1
  B  B3  1  0.379048  0.120952  0.500000  1
  B  B4  1  0.120952  0.620952  0.741903  1
  B  B5  1  0.620952  0.879048  0.500000  1
  Mo  Mo6  1  0.500000  0.500000  0.000000  1
  Mo  Mo7  1  0.303716  0.475617  0.500000  1
  Mo  Mo8  1  0.803716  0.303716  0.828099  1
  Mo  Mo9  1  0.696284  0.524384  0.500000  1
  Mo  Mo10  1  0.024384  0.196284  0.500000  1
  Mo  Mo11  1  0.524384  0.024384  0.828099  1
  Mo  Mo12  1  0.196284  0.696284  0.171901  1
  Mo  Mo13  1  0.475617  0.975617  0.171901  1
  Mo  Mo14  1  0.000000  0.000000  0.000000  1
  Mo  Mo15  1  0.975617  0.803716  0.500000  1
