# generated using pymatgen
data_USiO4
_symmetry_space_group_name_H-M   'P 1'
_cell_length_a   5.87726296
_cell_length_b   5.87726296
_cell_length_c   5.87726296
_cell_angle_alpha   106.72902911
_cell_angle_beta   106.72902911
_cell_angle_gamma   115.10689939
_symmetry_Int_Tables_number   1
_chemical_formula_structural   USiO4
_chemical_formula_sum   'U2 Si2 O8'
_cell_volume   155.13484131
_cell_formula_units_Z   2
loop_
 _symmetry_equiv_pos_site_id
 _symmetry_equiv_pos_as_xyz
  1  'x, y, z'
loop_
 _atom_site_type_symbol
 _atom_site_label
 _atom_site_symmetry_multiplicity
 _atom_site_fract_x
 _atom_site_fract_y
 _atom_site_fract_z
 _atom_site_occupancy
  U  U0  1  0.500000  0.500000  0.000000  1
  U  U1  1  0.750000  0.250000  0.500000  1
  Si  Si2  1  1.000000  1.000000  0.000000  1
  Si  Si3  1  0.250000  0.750000  0.500000  1
  O  O4  1  0.832269  0.012716  0.180447  1
  O  O5  1  0.901822  0.582269  0.319553  1
  O  O6  1  0.262716  0.582269  0.680447  1
  O  O7  1  0.832269  0.651822  0.819553  1
  O  O8  1  0.987284  0.167731  0.819553  1
  O  O9  1  0.417731  0.098178  0.680447  1
  O  O10  1  0.417731  0.737284  0.319553  1
  O  O11  1  0.348178  0.167731  0.180447  1
