# generated using pymatgen
data_K4Gd2C3O9F4
_symmetry_space_group_name_H-M   'P 1'
_cell_length_a   7.00350917
_cell_length_b   9.15609495
_cell_length_c   10.65804609
_cell_angle_alpha   90.00000000
_cell_angle_beta   100.87615910
_cell_angle_gamma   90.00000000
_symmetry_Int_Tables_number   1
_chemical_formula_structural   K4Gd2C3O9F4
_chemical_formula_sum   'K8 Gd4 C6 O18 F8'
_cell_volume   671.16850987
_cell_formula_units_Z   2
loop_
 _symmetry_equiv_pos_site_id
 _symmetry_equiv_pos_as_xyz
  1  'x, y, z'
loop_
 _atom_site_type_symbol
 _atom_site_label
 _atom_site_symmetry_multiplicity
 _atom_site_fract_x
 _atom_site_fract_y
 _atom_site_fract_z
 _atom_site_occupancy
  K  K0  1  0.999451  0.999677  0.250024  1
  K  K1  1  0.000549  0.499677  0.749976  1
  K  K2  1  0.880425  0.311457  0.437633  1
  K  K3  1  0.864128  0.817164  0.936372  1
  K  K4  1  0.501647  0.378214  0.751551  1
  K  K5  1  0.498353  0.878214  0.248449  1
  K  K6  1  0.135872  0.317164  0.063628  1
  K  K7  1  0.119575  0.811457  0.562367  1
  Gd  Gd8  1  0.644181  0.493754  0.105163  1
  Gd  Gd9  1  0.643971  0.003413  0.608088  1
  Gd  Gd10  1  0.355819  0.993754  0.894837  1
  Gd  Gd11  1  0.356029  0.503413  0.391912  1
  C  C12  1  0.010531  0.142478  0.743014  1
  C  C13  1  0.989469  0.642478  0.256986  1
  C  C14  1  0.646880  0.177585  0.071308  1
  C  C15  1  0.352027  0.175807  0.437939  1
  C  C16  1  0.647973  0.675807  0.562061  1
  C  C17  1  0.353120  0.677585  0.928692  1
  O  O18  1  0.997863  0.000026  0.749523  1
  O  O19  1  0.873175  0.213936  0.671606  1
  O  O20  1  0.002137  0.500026  0.250477  1
  O  O21  1  0.837140  0.706487  0.191013  1
  O  O22  1  0.798872  0.245850  0.130419  1
  O  O23  1  0.487354  0.242449  0.518201  1
  O  O24  1  0.640099  0.035980  0.063375  1
  O  O25  1  0.772539  0.751005  0.641892  1
  O  O26  1  0.347305  0.033803  0.441227  1
  O  O27  1  0.495526  0.253901  0.018301  1
  O  O28  1  0.504474  0.753901  0.981699  1
  O  O29  1  0.652695  0.533803  0.558773  1
  O  O30  1  0.359901  0.535980  0.936625  1
  O  O31  1  0.512646  0.742449  0.481799  1
  O  O32  1  0.162860  0.206487  0.808987  1
  O  O33  1  0.227461  0.251005  0.358108  1
  O  O34  1  0.126825  0.713936  0.328394  1
  O  O35  1  0.201128  0.745850  0.869581  1
  F  F36  1  0.807940  0.500010  0.943608  1
  F  F37  1  0.802986  0.002982  0.443923  1
  F  F38  1  0.590774  0.107430  0.797685  1
  F  F39  1  0.572169  0.381693  0.287526  1
  F  F40  1  0.409226  0.607430  0.202315  1
  F  F41  1  0.427831  0.881693  0.712474  1
  F  F42  1  0.192060  0.000010  0.056392  1
  F  F43  1  0.197014  0.502982  0.556077  1
