# generated using pymatgen
data_ZrNi3
_symmetry_space_group_name_H-M   'P 1'
_cell_length_a   5.31563710
_cell_length_b   5.31563710
_cell_length_c   4.30518580
_cell_angle_alpha   90.00000000
_cell_angle_beta   90.00000000
_cell_angle_gamma   120.00000000
_symmetry_Int_Tables_number   1
_chemical_formula_structural   ZrNi3
_chemical_formula_sum   'Zr2 Ni6'
_cell_volume   105.34966967
_cell_formula_units_Z   2
loop_
 _symmetry_equiv_pos_site_id
 _symmetry_equiv_pos_as_xyz
  1  'x, y, z'
loop_
 _atom_site_type_symbol
 _atom_site_label
 _atom_site_symmetry_multiplicity
 _atom_site_fract_x
 _atom_site_fract_y
 _atom_site_fract_z
 _atom_site_occupancy
  Zr  Zr0  1  0.666667  0.333333  0.750000  1
  Zr  Zr1  1  0.333333  0.666667  0.250000  1
  Ni  Ni2  1  0.155709  0.311419  0.750000  1
  Ni  Ni3  1  0.844291  0.155709  0.250000  1
  Ni  Ni4  1  0.844291  0.688581  0.250000  1
  Ni  Ni5  1  0.155709  0.844291  0.750000  1
  Ni  Ni6  1  0.688581  0.844291  0.750000  1
  Ni  Ni7  1  0.311419  0.155709  0.250000  1
