# generated using pymatgen
data_ScPO4
_symmetry_space_group_name_H-M   'P 1'
_cell_length_a   5.54336258
_cell_length_b   5.54336258
_cell_length_c   5.54336258
_cell_angle_alpha   106.05220006
_cell_angle_beta   106.05220006
_cell_angle_gamma   116.54970260
_symmetry_Int_Tables_number   1
_chemical_formula_structural   ScPO4
_chemical_formula_sum   'Sc2 P2 O8'
_cell_volume   129.60995664
_cell_formula_units_Z   2
loop_
 _symmetry_equiv_pos_site_id
 _symmetry_equiv_pos_as_xyz
  1  'x, y, z'
loop_
 _atom_site_type_symbol
 _atom_site_label
 _atom_site_symmetry_multiplicity
 _atom_site_fract_x
 _atom_site_fract_y
 _atom_site_fract_z
 _atom_site_occupancy
  Sc  Sc0  1  0.000000  0.000000  0.000000  1
  Sc  Sc1  1  0.250000  0.750000  0.500000  1
  P  P2  1  0.750000  0.250000  0.500000  1
  P  P3  1  0.500000  0.500000  0.000000  1
  O  O4  1  0.848711  0.669367  0.179343  1
  O  O5  1  0.919367  0.240024  0.320657  1
  O  O6  1  0.919367  0.598711  0.679343  1
  O  O7  1  0.490024  0.669367  0.820657  1
  O  O8  1  0.330633  0.509976  0.179343  1
  O  O9  1  0.401289  0.080633  0.320657  1
  O  O10  1  0.759976  0.080633  0.679343  1
  O  O11  1  0.330633  0.151289  0.820657  1
