# generated using pymatgen
data_Sc3Fe2Si3
_symmetry_space_group_name_H-M   'P 1'
_cell_length_a   5.34184401
_cell_length_b   5.34184401
_cell_length_c   12.89573845
_cell_angle_alpha   90.00000000
_cell_angle_beta   90.00000000
_cell_angle_gamma   136.63571117
_symmetry_Int_Tables_number   1
_chemical_formula_structural   Sc3Fe2Si3
_chemical_formula_sum   'Sc6 Fe4 Si6'
_cell_volume   252.67033350
_cell_formula_units_Z   2
loop_
 _symmetry_equiv_pos_site_id
 _symmetry_equiv_pos_as_xyz
  1  'x, y, z'
loop_
 _atom_site_type_symbol
 _atom_site_label
 _atom_site_symmetry_multiplicity
 _atom_site_fract_x
 _atom_site_fract_y
 _atom_site_fract_z
 _atom_site_occupancy
  Sc  Sc0  1  0.638876  0.361124  0.750000  1
  Sc  Sc1  1  0.919489  0.080511  0.612690  1
  Sc  Sc2  1  0.919489  0.080511  0.887310  1
  Sc  Sc3  1  0.080511  0.919489  0.112690  1
  Sc  Sc4  1  0.361124  0.638876  0.250000  1
  Sc  Sc5  1  0.080511  0.919489  0.387310  1
  Fe  Fe6  1  0.785697  0.214303  0.082142  1
  Fe  Fe7  1  0.214303  0.785697  0.582142  1
  Fe  Fe8  1  0.785697  0.214303  0.417858  1
  Fe  Fe9  1  0.214303  0.785697  0.917858  1
  Si  Si10  1  0.671418  0.328582  0.250000  1
  Si  Si11  1  0.383131  0.616869  0.459401  1
  Si  Si12  1  0.383131  0.616869  0.040599  1
  Si  Si13  1  0.616869  0.383131  0.540599  1
  Si  Si14  1  0.328582  0.671418  0.750000  1
  Si  Si15  1  0.616869  0.383131  0.959401  1
