# generated using pymatgen
data_Ba2La2Zn(WO6)2
_symmetry_space_group_name_H-M   'P 1'
_cell_length_a   9.69692391
_cell_length_b   9.69692391
_cell_length_c   9.69692391
_cell_angle_alpha   34.09601588
_cell_angle_beta   34.09601588
_cell_angle_gamma   34.09601588
_symmetry_Int_Tables_number   1
_chemical_formula_structural   Ba2La2Zn(WO6)2
_chemical_formula_sum   'Ba2 La2 Zn1 W2 O12'
_cell_volume   255.45231282
_cell_formula_units_Z   1
loop_
 _symmetry_equiv_pos_site_id
 _symmetry_equiv_pos_as_xyz
  1  'x, y, z'
loop_
 _atom_site_type_symbol
 _atom_site_label
 _atom_site_symmetry_multiplicity
 _atom_site_fract_x
 _atom_site_fract_y
 _atom_site_fract_z
 _atom_site_occupancy
  Ba  Ba0  1  0.709691  0.709691  0.709691  1
  Ba  Ba1  1  0.290309  0.290309  0.290309  1
  La  La2  1  0.865004  0.865004  0.865004  1
  La  La3  1  0.134996  0.134996  0.134996  1
  Zn  Zn4  1  0.000000  0.000000  0.000000  1
  W  W5  1  0.577019  0.577019  0.577019  1
  W  W6  1  0.422981  0.422981  0.422981  1
  O  O7  1  0.291367  0.782110  0.782110  1
  O  O8  1  0.782110  0.291367  0.782110  1
  O  O9  1  0.782110  0.782110  0.291367  1
  O  O10  1  0.372424  0.372424  0.873716  1
  O  O11  1  0.873716  0.372424  0.372424  1
  O  O12  1  0.372424  0.873716  0.372424  1
  O  O13  1  0.627576  0.126284  0.627576  1
  O  O14  1  0.126284  0.627576  0.627576  1
  O  O15  1  0.627576  0.627576  0.126284  1
  O  O16  1  0.217890  0.217890  0.708633  1
  O  O17  1  0.217890  0.708633  0.217890  1
  O  O18  1  0.708633  0.217890  0.217890  1
