# generated using pymatgen
data_NaZnSb
_symmetry_space_group_name_H-M   'P 1'
_cell_length_a   4.46133399
_cell_length_b   4.46133399
_cell_length_c   7.55522737
_cell_angle_alpha   90.00000000
_cell_angle_beta   90.00000000
_cell_angle_gamma   90.00000000
_symmetry_Int_Tables_number   1
_chemical_formula_structural   NaZnSb
_chemical_formula_sum   'Na2 Zn2 Sb2'
_cell_volume   150.37547529
_cell_formula_units_Z   2
loop_
 _symmetry_equiv_pos_site_id
 _symmetry_equiv_pos_as_xyz
  1  'x, y, z'
loop_
 _atom_site_type_symbol
 _atom_site_label
 _atom_site_symmetry_multiplicity
 _atom_site_fract_x
 _atom_site_fract_y
 _atom_site_fract_z
 _atom_site_occupancy
  Na  Na0  1  0.000000  0.500000  0.344884  1
  Na  Na1  1  0.500000  0.000000  0.655116  1
  Zn  Zn2  1  0.500000  0.500000  0.000000  1
  Zn  Zn3  1  0.000000  0.000000  0.000000  1
  Sb  Sb4  1  0.500000  0.000000  0.223225  1
  Sb  Sb5  1  0.000000  0.500000  0.776775  1
