# generated using pymatgen
data_HoInPd
_symmetry_space_group_name_H-M   'P 1'
_cell_length_a   7.76001789
_cell_length_b   7.76001789
_cell_length_c   3.78531567
_cell_angle_alpha   90.00000000
_cell_angle_beta   90.00000000
_cell_angle_gamma   120.00000000
_symmetry_Int_Tables_number   1
_chemical_formula_structural   HoInPd
_chemical_formula_sum   'Ho3 In3 Pd3'
_cell_volume   197.40501410
_cell_formula_units_Z   3
loop_
 _symmetry_equiv_pos_site_id
 _symmetry_equiv_pos_as_xyz
  1  'x, y, z'
loop_
 _atom_site_type_symbol
 _atom_site_label
 _atom_site_symmetry_multiplicity
 _atom_site_fract_x
 _atom_site_fract_y
 _atom_site_fract_z
 _atom_site_occupancy
  Ho  Ho0  1  0.000000  0.595174  0.000000  1
  Ho  Ho1  1  0.404826  0.404826  0.000000  1
  Ho  Ho2  1  0.595174  0.000000  0.000000  1
  In  In3  1  0.737795  0.737795  0.500000  1
  In  In4  1  0.000000  0.262205  0.500000  1
  In  In5  1  0.262205  0.000000  0.500000  1
  Pd  Pd6  1  0.333333  0.666667  0.500000  1
  Pd  Pd7  1  0.000000  0.000000  0.000000  1
  Pd  Pd8  1  0.666667  0.333333  0.500000  1
