# generated using pymatgen
data_Na8Al6Si6SO28
_symmetry_space_group_name_H-M   'P 1'
_cell_length_a   9.16741201
_cell_length_b   9.16741201
_cell_length_c   9.16741201
_cell_angle_alpha   90.00000000
_cell_angle_beta   90.00000000
_cell_angle_gamma   90.00000000
_symmetry_Int_Tables_number   1
_chemical_formula_structural   Na8Al6Si6SO28
_chemical_formula_sum   'Na8 Al6 Si6 S1 O28'
_cell_volume   770.44253354
_cell_formula_units_Z   1
loop_
 _symmetry_equiv_pos_site_id
 _symmetry_equiv_pos_as_xyz
  1  'x, y, z'
loop_
 _atom_site_type_symbol
 _atom_site_label
 _atom_site_symmetry_multiplicity
 _atom_site_fract_x
 _atom_site_fract_y
 _atom_site_fract_z
 _atom_site_occupancy
  Na  Na0  1  0.193065  0.193065  0.193065  1
  Na  Na1  1  0.193065  0.806935  0.806935  1
  Na  Na2  1  0.241403  0.241403  0.758597  1
  Na  Na3  1  0.241403  0.758597  0.241403  1
  Na  Na4  1  0.758597  0.241403  0.241403  1
  Na  Na5  1  0.758597  0.758597  0.758597  1
  Na  Na6  1  0.806935  0.193065  0.806935  1
  Na  Na7  1  0.806935  0.806935  0.193065  1
  Al  Al8  1  0.000000  0.250492  0.500000  1
  Al  Al9  1  0.000000  0.749508  0.500000  1
  Al  Al10  1  0.250492  0.500000  0.000000  1
  Al  Al11  1  0.500000  0.000000  0.749508  1
  Al  Al12  1  0.500000  0.000000  0.250492  1
  Al  Al13  1  0.749508  0.500000  0.000000  1
  Si  Si14  1  0.000000  0.500000  0.249627  1
  Si  Si15  1  0.000000  0.500000  0.750373  1
  Si  Si16  1  0.249627  0.000000  0.500000  1
  Si  Si17  1  0.500000  0.750373  0.000000  1
  Si  Si18  1  0.500000  0.249627  0.000000  1
  Si  Si19  1  0.750373  0.000000  0.500000  1
  S  S20  1  0.000000  0.000000  0.000000  1
  O  O21  1  0.044702  0.357552  0.652281  1
  O  O22  1  0.044702  0.642448  0.347719  1
  O  O23  1  0.094028  0.094028  0.905972  1
  O  O24  1  0.094028  0.905972  0.094028  1
  O  O25  1  0.151717  0.142383  0.453648  1
  O  O26  1  0.142383  0.453648  0.151717  1
  O  O27  1  0.142383  0.546352  0.848283  1
  O  O28  1  0.151717  0.857617  0.546352  1
  O  O29  1  0.347719  0.044702  0.642448  1
  O  O30  1  0.357552  0.347719  0.955298  1
  O  O31  1  0.357552  0.652281  0.044702  1
  O  O32  1  0.347719  0.955298  0.357552  1
  O  O33  1  0.453648  0.151717  0.142383  1
  O  O34  1  0.453648  0.848283  0.857617  1
  O  O35  1  0.546352  0.151717  0.857617  1
  O  O36  1  0.546352  0.848283  0.142383  1
  O  O37  1  0.652281  0.044702  0.357552  1
  O  O38  1  0.642448  0.347719  0.044702  1
  O  O39  1  0.642448  0.652281  0.955298  1
  O  O40  1  0.652281  0.955298  0.642448  1
  O  O41  1  0.848283  0.142383  0.546352  1
  O  O42  1  0.857617  0.453648  0.848283  1
  O  O43  1  0.857617  0.546352  0.151717  1
  O  O44  1  0.848283  0.857617  0.453648  1
  O  O45  1  0.905972  0.094028  0.094028  1
  O  O46  1  0.905972  0.905972  0.905972  1
  O  O47  1  0.955298  0.357552  0.347719  1
  O  O48  1  0.955298  0.642448  0.652281  1
