# generated using pymatgen
data_NdRhO3
_symmetry_space_group_name_H-M   'P 1'
_cell_length_a   5.40954820
_cell_length_b   5.90936374
_cell_length_c   7.84659213
_cell_angle_alpha   90.00000000
_cell_angle_beta   90.00000000
_cell_angle_gamma   90.00000000
_symmetry_Int_Tables_number   1
_chemical_formula_structural   NdRhO3
_chemical_formula_sum   'Nd4 Rh4 O12'
_cell_volume   250.83191633
_cell_formula_units_Z   4
loop_
 _symmetry_equiv_pos_site_id
 _symmetry_equiv_pos_as_xyz
  1  'x, y, z'
loop_
 _atom_site_type_symbol
 _atom_site_label
 _atom_site_symmetry_multiplicity
 _atom_site_fract_x
 _atom_site_fract_y
 _atom_site_fract_z
 _atom_site_occupancy
  Nd  Nd0  1  0.473343  0.579032  0.750000  1
  Nd  Nd1  1  0.973343  0.920968  0.250000  1
  Nd  Nd2  1  0.026657  0.079032  0.750000  1
  Nd  Nd3  1  0.526657  0.420968  0.250000  1
  Rh  Rh4  1  0.500000  0.000000  0.500000  1
  Rh  Rh5  1  0.000000  0.500000  0.500000  1
  Rh  Rh6  1  0.000000  0.500000  0.000000  1
  Rh  Rh7  1  0.500000  0.000000  0.000000  1
  O  O8  1  0.816924  0.195055  0.444690  1
  O  O9  1  0.316924  0.304945  0.555310  1
  O  O10  1  0.683076  0.695055  0.055310  1
  O  O11  1  0.183076  0.804945  0.944690  1
  O  O12  1  0.183076  0.804945  0.555310  1
  O  O13  1  0.683076  0.695055  0.444690  1
  O  O14  1  0.316924  0.304945  0.944690  1
  O  O15  1  0.816924  0.195055  0.055310  1
  O  O16  1  0.384146  0.038329  0.250000  1
  O  O17  1  0.884146  0.461671  0.750000  1
  O  O18  1  0.115854  0.538329  0.250000  1
  O  O19  1  0.615854  0.961671  0.750000  1
