# generated using pymatgen
data_CaTiO3
_symmetry_space_group_name_H-M   'P 1'
_cell_length_a   5.40776031
_cell_length_b   5.50742867
_cell_length_c   7.69401223
_cell_angle_alpha   90.00000000
_cell_angle_beta   90.00000000
_cell_angle_gamma   90.00000000
_symmetry_Int_Tables_number   1
_chemical_formula_structural   CaTiO3
_chemical_formula_sum   'Ca4 Ti4 O12'
_cell_volume   229.14964437
_cell_formula_units_Z   4
loop_
 _symmetry_equiv_pos_site_id
 _symmetry_equiv_pos_as_xyz
  1  'x, y, z'
loop_
 _atom_site_type_symbol
 _atom_site_label
 _atom_site_symmetry_multiplicity
 _atom_site_fract_x
 _atom_site_fract_y
 _atom_site_fract_z
 _atom_site_occupancy
  Ca  Ca0  1  0.009094  0.957125  0.250000  1
  Ca  Ca1  1  0.990906  0.042875  0.750000  1
  Ca  Ca2  1  0.490906  0.457125  0.250000  1
  Ca  Ca3  1  0.509094  0.542875  0.750000  1
  Ti  Ti4  1  0.500000  0.000000  0.500000  1
  Ti  Ti5  1  0.500000  0.000000  0.000000  1
  Ti  Ti6  1  0.000000  0.500000  0.500000  1
  Ti  Ti7  1  0.000000  0.500000  0.000000  1
  O  O8  1  0.578086  0.019806  0.250000  1
  O  O9  1  0.421914  0.980194  0.750000  1
  O  O10  1  0.921914  0.519806  0.250000  1
  O  O11  1  0.078086  0.480194  0.750000  1
  O  O12  1  0.290623  0.709962  0.041029  1
  O  O13  1  0.709377  0.290038  0.541029  1
  O  O14  1  0.709377  0.290038  0.958971  1
  O  O15  1  0.290623  0.709962  0.458971  1
  O  O16  1  0.209377  0.209962  0.041029  1
  O  O17  1  0.790623  0.790038  0.541029  1
  O  O18  1  0.790623  0.790038  0.958971  1
  O  O19  1  0.209377  0.209962  0.458971  1
