# generated using pymatgen
data_Yb(Al2Mo)2
_symmetry_space_group_name_H-M   'P 1'
_cell_length_a   5.48189960
_cell_length_b   5.48189960
_cell_length_c   5.48189960
_cell_angle_alpha   103.72974393
_cell_angle_beta   103.72974393
_cell_angle_gamma   121.68945483
_symmetry_Int_Tables_number   1
_chemical_formula_structural   Yb(Al2Mo)2
_chemical_formula_sum   'Yb1 Al4 Mo2'
_cell_volume   122.41665838
_cell_formula_units_Z   1
loop_
 _symmetry_equiv_pos_site_id
 _symmetry_equiv_pos_as_xyz
  1  'x, y, z'
loop_
 _atom_site_type_symbol
 _atom_site_label
 _atom_site_symmetry_multiplicity
 _atom_site_fract_x
 _atom_site_fract_y
 _atom_site_fract_z
 _atom_site_occupancy
  Yb  Yb0  1  0.000000  0.000000  0.000000  1
  Al  Al1  1  0.695568  0.304432  0.000000  1
  Al  Al2  1  0.695568  0.695568  0.391137  1
  Al  Al3  1  0.304432  0.304432  0.608863  1
  Al  Al4  1  0.304432  0.695568  1.000000  1
  Mo  Mo5  1  0.750000  0.250000  0.500000  1
  Mo  Mo6  1  0.250000  0.750000  0.500000  1
