# generated using pymatgen
data_Nd(GePd)2
_symmetry_space_group_name_H-M   'P 1'
_cell_length_a   5.96925262
_cell_length_b   5.96925262
_cell_length_c   5.96925262
_cell_angle_alpha   137.32341805
_cell_angle_beta   137.32341805
_cell_angle_gamma   61.94081164
_symmetry_Int_Tables_number   1
_chemical_formula_structural   Nd(GePd)2
_chemical_formula_sum   'Nd1 Ge2 Pd2'
_cell_volume   96.58768252
_cell_formula_units_Z   1
loop_
 _symmetry_equiv_pos_site_id
 _symmetry_equiv_pos_as_xyz
  1  'x, y, z'
loop_
 _atom_site_type_symbol
 _atom_site_label
 _atom_site_symmetry_multiplicity
 _atom_site_fract_x
 _atom_site_fract_y
 _atom_site_fract_z
 _atom_site_occupancy
  Nd  Nd0  1  0.000000  0.000000  0.000000  1
  Ge  Ge1  1  0.378134  0.378134  0.000000  1
  Ge  Ge2  1  0.621866  0.621866  0.000000  1
  Pd  Pd3  1  0.250000  0.750000  0.500000  1
  Pd  Pd4  1  0.750000  0.250000  0.500000  1
