# generated using pymatgen
data_LaGaS3
_symmetry_space_group_name_H-M   'P 1'
_cell_length_a   10.43698939
_cell_length_b   10.61392782
_cell_length_c   12.94293640
_cell_angle_alpha   90.00000000
_cell_angle_beta   98.84422627
_cell_angle_gamma   90.00000000
_symmetry_Int_Tables_number   1
_chemical_formula_structural   LaGaS3
_chemical_formula_sum   'La12 Ga12 S36'
_cell_volume   1416.73780474
_cell_formula_units_Z   12
loop_
 _symmetry_equiv_pos_site_id
 _symmetry_equiv_pos_as_xyz
  1  'x, y, z'
loop_
 _atom_site_type_symbol
 _atom_site_label
 _atom_site_symmetry_multiplicity
 _atom_site_fract_x
 _atom_site_fract_y
 _atom_site_fract_z
 _atom_site_occupancy
  La  La0  1  0.057245  0.030641  0.327773  1
  La  La1  1  0.942755  0.530641  0.172227  1
  La  La2  1  0.942755  0.969359  0.672227  1
  La  La3  1  0.057245  0.469359  0.827773  1
  La  La4  1  0.484512  0.052806  0.324892  1
  La  La5  1  0.515488  0.552806  0.175108  1
  La  La6  1  0.515488  0.947194  0.675108  1
  La  La7  1  0.484512  0.447194  0.824892  1
  La  La8  1  0.813938  0.143952  0.941541  1
  La  La9  1  0.186062  0.643952  0.558459  1
  La  La10  1  0.186062  0.856048  0.058459  1
  La  La11  1  0.813938  0.356048  0.441541  1
  Ga  Ga12  1  0.251943  0.081400  0.854025  1
  Ga  Ga13  1  0.748057  0.581400  0.645975  1
  Ga  Ga14  1  0.748057  0.918600  0.145975  1
  Ga  Ga15  1  0.251943  0.418600  0.354025  1
  Ga  Ga16  1  0.198591  0.229167  0.576367  1
  Ga  Ga17  1  0.801409  0.729167  0.923633  1
  Ga  Ga18  1  0.801409  0.770833  0.423633  1
  Ga  Ga19  1  0.198591  0.270833  0.076367  1
  Ga  Ga20  1  0.686690  0.253321  0.168859  1
  Ga  Ga21  1  0.313310  0.753321  0.331141  1
  Ga  Ga22  1  0.313310  0.746679  0.831141  1
  Ga  Ga23  1  0.686690  0.246679  0.668859  1
  S  S24  1  0.894918  0.233310  0.750639  1
  S  S25  1  0.105082  0.733310  0.749361  1
  S  S26  1  0.105082  0.766690  0.249361  1
  S  S27  1  0.894918  0.266690  0.250639  1
  S  S28  1  0.293291  0.278182  0.923804  1
  S  S29  1  0.706709  0.778182  0.576196  1
  S  S30  1  0.706709  0.721818  0.076196  1
  S  S31  1  0.293291  0.221818  0.423804  1
  S  S32  1  0.564511  0.310052  0.294321  1
  S  S33  1  0.435489  0.810052  0.205679  1
  S  S34  1  0.435489  0.689948  0.705679  1
  S  S35  1  0.564511  0.189948  0.794321  1
  S  S36  1  0.993872  0.337771  0.013945  1
  S  S37  1  0.006128  0.837771  0.486055  1
  S  S38  1  0.249197  0.451016  0.177136  1
  S  S39  1  0.006128  0.662229  0.986055  1
  S  S40  1  0.668209  0.411934  0.045089  1
  S  S41  1  0.331791  0.911934  0.454911  1
  S  S42  1  0.331791  0.588066  0.954911  1
  S  S43  1  0.668209  0.088066  0.545089  1
  S  S44  1  0.247417  0.406580  0.674088  1
  S  S45  1  0.752583  0.906580  0.825912  1
  S  S46  1  0.752583  0.593420  0.325912  1
  S  S47  1  0.247417  0.093420  0.174088  1
  S  S48  1  0.058859  0.013704  0.891650  1
  S  S49  1  0.941141  0.513704  0.608350  1
  S  S50  1  0.941141  0.986296  0.108350  1
  S  S51  1  0.058859  0.486296  0.391650  1
  S  S52  1  0.604613  0.076325  0.082339  1
  S  S53  1  0.395387  0.576325  0.417661  1
  S  S54  1  0.395387  0.923675  0.917661  1
  S  S55  1  0.604613  0.423675  0.582339  1
  S  S56  1  0.249197  0.048984  0.677136  1
  S  S57  1  0.750803  0.548984  0.822864  1
  S  S58  1  0.750803  0.951016  0.322864  1
  S  S59  1  0.993872  0.162229  0.513945  1
