# generated using pymatgen
data_ErPO4
_symmetry_space_group_name_H-M   'P 1'
_cell_length_a   5.73965416
_cell_length_b   5.73965416
_cell_length_c   5.73965416
_cell_angle_alpha   105.95687344
_cell_angle_beta   105.95687344
_cell_angle_gamma   116.75475376
_symmetry_Int_Tables_number   1
_chemical_formula_structural   ErPO4
_chemical_formula_sum   'Er2 P2 O8'
_cell_volume   143.77224988
_cell_formula_units_Z   2
loop_
 _symmetry_equiv_pos_site_id
 _symmetry_equiv_pos_as_xyz
  1  'x, y, z'
loop_
 _atom_site_type_symbol
 _atom_site_label
 _atom_site_symmetry_multiplicity
 _atom_site_fract_x
 _atom_site_fract_y
 _atom_site_fract_z
 _atom_site_occupancy
  Er  Er0  1  0.000000  1.000000  0.000000  1
  Er  Er1  1  0.250000  0.750000  0.500000  1
  P  P2  1  0.750000  0.250000  0.500000  1
  P  P3  1  0.500000  0.500000  0.000000  1
  O  O4  1  0.486454  0.661722  0.824732  1
  O  O5  1  0.911722  0.586990  0.675268  1
  O  O6  1  0.911722  0.236454  0.324732  1
  O  O7  1  0.836990  0.661722  0.175268  1
  O  O8  1  0.338278  0.163010  0.824732  1
  O  O9  1  0.763546  0.088278  0.675268  1
  O  O10  1  0.413010  0.088278  0.324732  1
  O  O11  1  0.338278  0.513546  0.175268  1
