# generated using pymatgen
data_Ca3Er3Ge2BO13
_symmetry_space_group_name_H-M   'P 1'
_cell_length_a   7.40752143
_cell_length_b   7.40769710
_cell_length_c   10.49008065
_cell_angle_alpha   90.00000000
_cell_angle_beta   90.00000000
_cell_angle_gamma   90.00000000
_symmetry_Int_Tables_number   1
_chemical_formula_structural   Ca3Er3Ge2BO13
_chemical_formula_sum   'Ca6 Er6 Ge4 B2 O26'
_cell_volume   575.61878622
_cell_formula_units_Z   2
loop_
 _symmetry_equiv_pos_site_id
 _symmetry_equiv_pos_as_xyz
  1  'x, y, z'
loop_
 _atom_site_type_symbol
 _atom_site_label
 _atom_site_symmetry_multiplicity
 _atom_site_fract_x
 _atom_site_fract_y
 _atom_site_fract_z
 _atom_site_occupancy
  Ca  Ca0  1  0.770725  0.730296  0.502108  1
  Ca  Ca1  1  0.500000  0.000000  0.231432  1
  Ca  Ca2  1  0.729275  0.230296  0.002108  1
  Ca  Ca3  1  0.000000  0.500000  0.731432  1
  Ca  Ca4  1  0.270725  0.769704  0.002108  1
  Ca  Ca5  1  0.229275  0.269704  0.502108  1
  Er  Er6  1  0.272376  0.227960  0.001896  1
  Er  Er7  1  0.772376  0.272040  0.501896  1
  Er  Er8  1  0.000000  0.500000  0.274170  1
  Er  Er9  1  0.227624  0.727960  0.501896  1
  Er  Er10  1  0.727624  0.772040  0.001896  1
  Er  Er11  1  0.500000  0.000000  0.774170  1
  Ge  Ge12  1  0.000000  0.000000  0.246956  1
  Ge  Ge13  1  0.500000  0.500000  0.746956  1
  Ge  Ge14  1  0.000000  0.000000  0.746010  1
  Ge  Ge15  1  0.500000  0.500000  0.246010  1
  B  B16  1  0.000000  0.500000  0.003783  1
  B  B17  1  0.500000  0.000000  0.503783  1
  O  O18  1  0.500000  0.000000  0.991368  1
  O  O19  1  0.491097  0.300328  0.846296  1
  O  O20  1  0.000000  0.500000  0.491368  1
  O  O21  1  0.696338  0.490789  0.647745  1
  O  O22  1  0.508903  0.699672  0.846296  1
  O  O23  1  0.008903  0.800328  0.346296  1
  O  O24  1  0.664853  0.006816  0.424628  1
  O  O25  1  0.196338  0.009211  0.147745  1
  O  O26  1  0.803662  0.990789  0.147745  1
  O  O27  1  0.991097  0.199672  0.346296  1
  O  O28  1  0.005533  0.337134  0.088713  1
  O  O29  1  0.835147  0.506816  0.924628  1
  O  O30  1  0.164853  0.493184  0.924628  1
  O  O31  1  0.303662  0.509211  0.647745  1
  O  O32  1  0.696755  0.486535  0.343439  1
  O  O33  1  0.994467  0.662866  0.088713  1
  O  O34  1  0.014239  0.806470  0.648345  1
  O  O35  1  0.494467  0.837134  0.588713  1
  O  O36  1  0.803245  0.986535  0.843439  1
  O  O37  1  0.335147  0.993184  0.424628  1
  O  O38  1  0.196755  0.013465  0.843439  1
  O  O39  1  0.505533  0.162866  0.588713  1
  O  O40  1  0.985761  0.193530  0.648345  1
  O  O41  1  0.485761  0.306470  0.148345  1
  O  O42  1  0.303245  0.513465  0.343439  1
  O  O43  1  0.514239  0.693530  0.148345  1
