# generated using pymatgen
data_TaNO
_symmetry_space_group_name_H-M   'P 1'
_cell_length_a   5.01114338
_cell_length_b   5.06896328
_cell_length_c   5.22874943
_cell_angle_alpha   90.00000000
_cell_angle_beta   99.70592836
_cell_angle_gamma   90.00000000
_symmetry_Int_Tables_number   1
_chemical_formula_structural   TaNO
_chemical_formula_sum   'Ta4 N4 O4'
_cell_volume   130.91590317
_cell_formula_units_Z   4
loop_
 _symmetry_equiv_pos_site_id
 _symmetry_equiv_pos_as_xyz
  1  'x, y, z'
loop_
 _atom_site_type_symbol
 _atom_site_label
 _atom_site_symmetry_multiplicity
 _atom_site_fract_x
 _atom_site_fract_y
 _atom_site_fract_z
 _atom_site_occupancy
  Ta  Ta0  1  0.706355  0.545675  0.283847  1
  Ta  Ta1  1  0.293645  0.045675  0.216153  1
  Ta  Ta2  1  0.293645  0.454325  0.716153  1
  Ta  Ta3  1  0.706355  0.954325  0.783847  1
  N  N4  1  0.556339  0.255943  0.020815  1
  N  N5  1  0.443661  0.755943  0.479185  1
  N  N6  1  0.443661  0.744057  0.979185  1
  N  N7  1  0.556339  0.244057  0.520815  1
  O  O8  1  0.937767  0.674623  0.652653  1
  O  O9  1  0.062233  0.174623  0.847347  1
  O  O10  1  0.062233  0.325377  0.347347  1
  O  O11  1  0.937767  0.825377  0.152653  1
