# generated using pymatgen
data_CeZrO4
_symmetry_space_group_name_H-M   'P 1'
_cell_length_a   10.63808204
_cell_length_b   10.63808204
_cell_length_c   10.63808204
_cell_angle_alpha   90.00000000
_cell_angle_beta   90.00000000
_cell_angle_gamma   90.00000000
_symmetry_Int_Tables_number   1
_chemical_formula_structural   CeZrO4
_chemical_formula_sum   'Ce16 Zr16 O64'
_cell_volume   1203.89886696
_cell_formula_units_Z   16
loop_
 _symmetry_equiv_pos_site_id
 _symmetry_equiv_pos_as_xyz
  1  'x, y, z'
loop_
 _atom_site_type_symbol
 _atom_site_label
 _atom_site_symmetry_multiplicity
 _atom_site_fract_x
 _atom_site_fract_y
 _atom_site_fract_z
 _atom_site_occupancy
  Ce  Ce0  1  0.373009  0.873543  0.876977  1
  Ce  Ce1  1  0.873009  0.626457  0.123023  1
  Ce  Ce2  1  0.626991  0.373543  0.623023  1
  Ce  Ce3  1  0.626457  0.123023  0.873009  1
  Ce  Ce4  1  0.623023  0.626991  0.373543  1
  Ce  Ce5  1  0.123023  0.873009  0.626457  1
  Ce  Ce6  1  0.873543  0.876977  0.373009  1
  Ce  Ce7  1  0.876977  0.373009  0.873543  1
  Ce  Ce8  1  0.373543  0.623023  0.626991  1
  Ce  Ce9  1  0.126457  0.376977  0.126991  1
  Ce  Ce10  1  0.376977  0.126991  0.126457  1
  Ce  Ce11  1  0.126991  0.126457  0.376977  1
  Ce  Ce12  1  0.623480  0.876520  0.123480  1
  Ce  Ce13  1  0.876520  0.123480  0.623480  1
  Ce  Ce14  1  0.123480  0.623480  0.876520  1
  Ce  Ce15  1  0.376520  0.376520  0.376520  1
  Zr  Zr16  1  0.370966  0.872227  0.374925  1
  Zr  Zr17  1  0.870966  0.627773  0.625075  1
  Zr  Zr18  1  0.629034  0.372227  0.125075  1
  Zr  Zr19  1  0.627773  0.625075  0.870966  1
  Zr  Zr20  1  0.125075  0.629034  0.372227  1
  Zr  Zr21  1  0.625075  0.870966  0.627773  1
  Zr  Zr22  1  0.872227  0.374925  0.370966  1
  Zr  Zr23  1  0.374925  0.370966  0.872227  1
  Zr  Zr24  1  0.372227  0.125075  0.629034  1
  Zr  Zr25  1  0.127773  0.874925  0.129034  1
  Zr  Zr26  1  0.874925  0.129034  0.127773  1
  Zr  Zr27  1  0.129034  0.127773  0.874925  1
  Zr  Zr28  1  0.113570  0.386430  0.613570  1
  Zr  Zr29  1  0.386430  0.613570  0.113570  1
  Zr  Zr30  1  0.613570  0.113570  0.386430  1
  Zr  Zr31  1  0.886430  0.886430  0.886430  1
  O  O32  1  0.251814  0.748022  0.501319  1
  O  O33  1  0.751814  0.751978  0.498681  1
  O  O34  1  0.748186  0.248022  0.998681  1
  O  O35  1  0.751978  0.498681  0.751814  1
  O  O36  1  0.998681  0.748186  0.248022  1
  O  O37  1  0.498681  0.751814  0.751978  1
  O  O38  1  0.748022  0.501319  0.251814  1
  O  O39  1  0.501319  0.251814  0.748022  1
  O  O40  1  0.248022  0.998681  0.748186  1
  O  O41  1  0.251978  0.001319  0.248186  1
  O  O42  1  0.001319  0.248186  0.251978  1
  O  O43  1  0.248186  0.251978  0.001319  1
  O  O44  1  0.256868  0.747997  0.020122  1
  O  O45  1  0.756868  0.752003  0.979878  1
  O  O46  1  0.743132  0.247997  0.479878  1
  O  O47  1  0.752003  0.979878  0.756868  1
  O  O48  1  0.479878  0.743132  0.247997  1
  O  O49  1  0.979878  0.756868  0.752003  1
  O  O50  1  0.747997  0.020122  0.256868  1
  O  O51  1  0.020122  0.256868  0.747997  1
  O  O52  1  0.247997  0.479878  0.743132  1
  O  O53  1  0.252003  0.520122  0.243132  1
  O  O54  1  0.520122  0.243132  0.252003  1
  O  O55  1  0.500486  0.759162  0.499860  1
  O  O56  1  0.243132  0.252003  0.520122  1
  O  O57  1  0.000140  0.499514  0.259162  1
  O  O58  1  0.499860  0.500486  0.759162  1
  O  O59  1  0.499514  0.259162  0.000140  1
  O  O60  1  0.759162  0.499860  0.500486  1
  O  O61  1  0.259162  0.000140  0.499514  1
  O  O62  1  0.000486  0.740838  0.500140  1
  O  O63  1  0.740838  0.500140  0.000486  1
  O  O64  1  0.255751  0.255751  0.255751  1
  O  O65  1  0.244249  0.744249  0.755751  1
  O  O66  1  0.755751  0.244249  0.744249  1
  O  O67  1  0.744249  0.755751  0.244249  1
  O  O68  1  0.500032  0.500032  0.500032  1
  O  O69  1  0.999968  0.499968  0.000032  1
  O  O70  1  0.000032  0.999968  0.499968  1
  O  O71  1  0.499968  0.000032  0.999968  1
  O  O72  1  0.730762  0.730762  0.730762  1
  O  O73  1  0.769238  0.269238  0.230762  1
  O  O74  1  0.230762  0.769238  0.269238  1
  O  O75  1  0.269238  0.230762  0.769238  1
  O  O76  1  0.000151  0.000151  0.000151  1
  O  O77  1  0.499849  0.999849  0.500151  1
  O  O78  1  0.500151  0.499849  0.999849  1
  O  O79  1  0.999849  0.500151  0.499849  1
  O  O80  1  0.001787  0.008139  0.759842  1
  O  O81  1  0.759842  0.001787  0.008139  1
  O  O82  1  0.008139  0.759842  0.001787  1
  O  O83  1  0.491861  0.240158  0.501787  1
  O  O84  1  0.259842  0.498213  0.991861  1
  O  O85  1  0.991861  0.259842  0.498213  1
  O  O86  1  0.740158  0.998213  0.508139  1
  O  O87  1  0.240158  0.501787  0.491861  1
  O  O88  1  0.508139  0.740158  0.998213  1
  O  O89  1  0.501787  0.491861  0.240158  1
  O  O90  1  0.998213  0.508139  0.740158  1
  O  O91  1  0.498213  0.991861  0.259842  1
  O  O92  1  0.999860  0.999514  0.240838  1
  O  O93  1  0.240838  0.999860  0.999514  1
  O  O94  1  0.999514  0.240838  0.999860  1
  O  O95  1  0.500140  0.000486  0.740838  1
