# generated using pymatgen
data_UAsS
_symmetry_space_group_name_H-M   'P 1'
_cell_length_a   3.85723850
_cell_length_b   3.85723850
_cell_length_c   8.12386340
_cell_angle_alpha   90.00000000
_cell_angle_beta   90.00000000
_cell_angle_gamma   90.00000000
_symmetry_Int_Tables_number   1
_chemical_formula_structural   UAsS
_chemical_formula_sum   'U2 As2 S2'
_cell_volume   120.86918621
_cell_formula_units_Z   2
loop_
 _symmetry_equiv_pos_site_id
 _symmetry_equiv_pos_as_xyz
  1  'x, y, z'
loop_
 _atom_site_type_symbol
 _atom_site_label
 _atom_site_symmetry_multiplicity
 _atom_site_fract_x
 _atom_site_fract_y
 _atom_site_fract_z
 _atom_site_occupancy
  U  U0  1  0.000000  0.500000  0.708046  1
  U  U1  1  0.500000  0.000000  0.291954  1
  As  As2  1  0.500000  0.500000  0.000000  1
  As  As3  1  0.000000  0.000000  0.000000  1
  S  S4  1  0.000000  0.500000  0.363789  1
  S  S5  1  0.500000  0.000000  0.636211  1
