# generated using pymatgen
data_SrRuO3
_symmetry_space_group_name_H-M   'P 1'
_cell_length_a   5.64823151
_cell_length_b   5.64823151
_cell_length_c   5.64823151
_cell_angle_alpha   120.83197483
_cell_angle_beta   120.83197483
_cell_angle_gamma   88.56491824
_symmetry_Int_Tables_number   1
_chemical_formula_structural   SrRuO3
_chemical_formula_sum   'Sr2 Ru2 O6'
_cell_volume   125.77046733
_cell_formula_units_Z   2
loop_
 _symmetry_equiv_pos_site_id
 _symmetry_equiv_pos_as_xyz
  1  'x, y, z'
loop_
 _atom_site_type_symbol
 _atom_site_label
 _atom_site_symmetry_multiplicity
 _atom_site_fract_x
 _atom_site_fract_y
 _atom_site_fract_z
 _atom_site_occupancy
  Sr  Sr0  1  0.750000  0.250000  0.500000  1
  Sr  Sr1  1  0.250000  0.750000  0.500000  1
  Ru  Ru2  1  0.000000  0.000000  0.000000  1
  Ru  Ru3  1  0.500000  0.500000  0.000000  1
  O  O4  1  0.299246  0.799246  0.098492  1
  O  O5  1  0.799246  0.700754  0.500000  1
  O  O6  1  0.200754  0.299246  0.500000  1
  O  O7  1  0.700754  0.200754  0.901508  1
  O  O8  1  0.250000  0.250000  0.000000  1
  O  O9  1  0.750000  0.750000  0.000000  1
