# generated using pymatgen
data_Pr(P3Ru)4
_symmetry_space_group_name_H-M   'P 1'
_cell_length_a   7.02018257
_cell_length_b   7.02018257
_cell_length_c   7.02018257
_cell_angle_alpha   109.47122063
_cell_angle_beta   109.47122063
_cell_angle_gamma   109.47122063
_symmetry_Int_Tables_number   1
_chemical_formula_structural   Pr(P3Ru)4
_chemical_formula_sum   'Pr1 P12 Ru4'
_cell_volume   266.33198685
_cell_formula_units_Z   1
loop_
 _symmetry_equiv_pos_site_id
 _symmetry_equiv_pos_as_xyz
  1  'x, y, z'
loop_
 _atom_site_type_symbol
 _atom_site_label
 _atom_site_symmetry_multiplicity
 _atom_site_fract_x
 _atom_site_fract_y
 _atom_site_fract_z
 _atom_site_occupancy
  Pr  Pr0  1  1.000000  1.000000  0.000000  1
  P  P1  1  0.642005  0.856291  0.498296  1
  P  P2  1  0.357995  0.143709  0.501704  1
  P  P3  1  0.642005  0.143709  0.785714  1
  P  P4  1  0.214286  0.357995  0.856291  1
  P  P5  1  0.856291  0.214286  0.357995  1
  P  P6  1  0.856291  0.498296  0.642005  1
  P  P7  1  0.785714  0.642005  0.143709  1
  P  P8  1  0.143709  0.501704  0.357995  1
  P  P9  1  0.498296  0.642005  0.856291  1
  P  P10  1  0.501704  0.357995  0.143709  1
  P  P11  1  0.357995  0.856291  0.214286  1
  P  P12  1  0.143709  0.785714  0.642005  1
  Ru  Ru13  1  1.000000  1.000000  0.500000  1
  Ru  Ru14  1  1.000000  0.500000  1.000000  1
  Ru  Ru15  1  0.500000  0.500000  0.500000  1
  Ru  Ru16  1  0.500000  1.000000  0.000000  1
