# generated using pymatgen
data_NaCoP2HO7
_symmetry_space_group_name_H-M   'P 1'
_cell_length_a   6.53100517
_cell_length_b   6.62197000
_cell_length_c   6.67983738
_cell_angle_alpha   96.00598319
_cell_angle_beta   112.41225070
_cell_angle_gamma   88.47152822
_symmetry_Int_Tables_number   1
_chemical_formula_structural   NaCoP2HO7
_chemical_formula_sum   'Na2 Co2 P4 H2 O14'
_cell_volume   265.57553458
_cell_formula_units_Z   2
loop_
 _symmetry_equiv_pos_site_id
 _symmetry_equiv_pos_as_xyz
  1  'x, y, z'
loop_
 _atom_site_type_symbol
 _atom_site_label
 _atom_site_symmetry_multiplicity
 _atom_site_fract_x
 _atom_site_fract_y
 _atom_site_fract_z
 _atom_site_occupancy
  Na  Na0  1  0.771803  0.882912  0.755152  1
  Na  Na1  1  0.228197  0.117088  0.244848  1
  Co  Co2  1  0.714021  0.358265  0.112994  1
  Co  Co3  1  0.285979  0.641735  0.887006  1
  P  P4  1  0.746450  0.855531  0.217381  1
  P  P5  1  0.830550  0.379247  0.636069  1
  P  P6  1  0.169450  0.620753  0.363931  1
  P  P7  1  0.253550  0.144469  0.782619  1
  H  H8  1  0.453487  0.805833  0.308562  1
  H  H9  1  0.546513  0.194167  0.691438  1
  O  O10  1  0.985573  0.787865  0.379664  1
  O  O11  1  0.783702  0.034826  0.109428  1
  O  O12  1  0.952150  0.576215  0.754400  1
  O  O13  1  0.636663  0.671385  0.051259  1
  O  O14  1  0.669067  0.386266  0.403815  1
  O  O15  1  0.616949  0.908662  0.368101  1
  O  O16  1  0.723028  0.285505  0.779061  1
  O  O17  1  0.276972  0.714495  0.220939  1
  O  O18  1  0.383051  0.091338  0.631899  1
  O  O19  1  0.330933  0.613734  0.596185  1
  O  O20  1  0.363337  0.328615  0.948741  1
  O  O21  1  0.047850  0.423785  0.245600  1
  O  O22  1  0.216298  0.965174  0.890572  1
  O  O23  1  0.014427  0.212135  0.620336  1
