# generated using pymatgen
data_TbAl4Ni
_symmetry_space_group_name_H-M   'P 1'
_cell_length_a   8.00065089
_cell_length_b   8.00065089
_cell_length_c   6.61164703
_cell_angle_alpha   90.00000000
_cell_angle_beta   90.00000000
_cell_angle_gamma   150.54809921
_symmetry_Int_Tables_number   1
_chemical_formula_structural   TbAl4Ni
_chemical_formula_sum   'Tb2 Al8 Ni2'
_cell_volume   208.09137988
_cell_formula_units_Z   2
loop_
 _symmetry_equiv_pos_site_id
 _symmetry_equiv_pos_as_xyz
  1  'x, y, z'
loop_
 _atom_site_type_symbol
 _atom_site_label
 _atom_site_symmetry_multiplicity
 _atom_site_fract_x
 _atom_site_fract_y
 _atom_site_fract_z
 _atom_site_occupancy
  Tb  Tb0  1  0.883295  0.116705  0.250000  1
  Tb  Tb1  1  0.116705  0.883295  0.750000  1
  Al  Al2  1  0.311040  0.688960  0.552790  1
  Al  Al3  1  0.688960  0.311040  0.447210  1
  Al  Al4  1  0.688960  0.311040  0.052790  1
  Al  Al5  1  0.311040  0.688960  0.947210  1
  Al  Al6  1  0.500000  0.500000  0.000000  1
  Al  Al7  1  0.500000  0.500000  0.500000  1
  Al  Al8  1  0.923192  0.076808  0.750000  1
  Al  Al9  1  0.076808  0.923192  0.250000  1
  Ni  Ni10  1  0.226339  0.773661  0.250000  1
  Ni  Ni11  1  0.773661  0.226339  0.750000  1
