# generated using pymatgen
data_YCoC2
_symmetry_space_group_name_H-M   'P 1'
_cell_length_a   3.75243646
_cell_length_b   3.75243646
_cell_length_c   3.58802629
_cell_angle_alpha   90.00000000
_cell_angle_beta   90.00000000
_cell_angle_gamma   106.04701426
_symmetry_Int_Tables_number   1
_chemical_formula_structural   YCoC2
_chemical_formula_sum   'Y1 Co1 C2'
_cell_volume   48.55361888
_cell_formula_units_Z   1
loop_
 _symmetry_equiv_pos_site_id
 _symmetry_equiv_pos_as_xyz
  1  'x, y, z'
loop_
 _atom_site_type_symbol
 _atom_site_label
 _atom_site_symmetry_multiplicity
 _atom_site_fract_x
 _atom_site_fract_y
 _atom_site_fract_z
 _atom_site_occupancy
  Y  Y0  1  0.002237  0.997763  0.000000  1
  Co  Co1  1  0.385341  0.614659  0.500000  1
  C  C2  1  0.543421  0.150999  0.500000  1
  C  C3  1  0.849001  0.456579  0.500000  1
