# generated using pymatgen
data_NdTe2Se
_symmetry_space_group_name_H-M   'P 1'
_cell_length_a   13.42134404
_cell_length_b   13.42134404
_cell_length_c   4.31138338
_cell_angle_alpha   90.00000000
_cell_angle_beta   90.00000000
_cell_angle_gamma   161.55954983
_symmetry_Int_Tables_number   1
_chemical_formula_structural   NdTe2Se
_chemical_formula_sum   'Nd2 Te4 Se2'
_cell_volume   245.65959982
_cell_formula_units_Z   2
loop_
 _symmetry_equiv_pos_site_id
 _symmetry_equiv_pos_as_xyz
  1  'x, y, z'
loop_
 _atom_site_type_symbol
 _atom_site_label
 _atom_site_symmetry_multiplicity
 _atom_site_fract_x
 _atom_site_fract_y
 _atom_site_fract_z
 _atom_site_occupancy
  Nd  Nd0  1  0.819771  0.180229  0.750000  1
  Nd  Nd1  1  0.180229  0.819771  0.250000  1
  Te  Te2  1  0.580027  0.419973  0.250000  1
  Te  Te3  1  0.419973  0.580027  0.750000  1
  Te  Te4  1  0.080027  0.919973  0.750000  1
  Te  Te5  1  0.919973  0.080027  0.250000  1
  Se  Se6  1  0.706152  0.293848  0.750000  1
  Se  Se7  1  0.293848  0.706152  0.250000  1
