# generated using pymatgen
data_La2(SeO3)3
_symmetry_space_group_name_H-M   'P 1'
_cell_length_a   7.16708939
_cell_length_b   8.57315653
_cell_length_c   14.45654518
_cell_angle_alpha   90.00000000
_cell_angle_beta   90.00000000
_cell_angle_gamma   90.00000000
_symmetry_Int_Tables_number   1
_chemical_formula_structural   La2(SeO3)3
_chemical_formula_sum   'La8 Se12 O36'
_cell_volume   888.27633534
_cell_formula_units_Z   4
loop_
 _symmetry_equiv_pos_site_id
 _symmetry_equiv_pos_as_xyz
  1  'x, y, z'
loop_
 _atom_site_type_symbol
 _atom_site_label
 _atom_site_symmetry_multiplicity
 _atom_site_fract_x
 _atom_site_fract_y
 _atom_site_fract_z
 _atom_site_occupancy
  La  La0  1  0.179129  0.300251  0.063888  1
  La  La1  1  0.679129  0.199749  0.936112  1
  La  La2  1  0.320871  0.800251  0.436112  1
  La  La3  1  0.820871  0.699749  0.563888  1
  La  La4  1  0.820871  0.699749  0.936112  1
  La  La5  1  0.320871  0.800251  0.063888  1
  La  La6  1  0.679129  0.199749  0.563888  1
  La  La7  1  0.179129  0.300251  0.436112  1
  Se  Se8  1  0.179426  0.047834  0.875445  1
  Se  Se9  1  0.679426  0.452166  0.124555  1
  Se  Se10  1  0.320574  0.547834  0.624555  1
  Se  Se11  1  0.820574  0.952166  0.375445  1
  Se  Se12  1  0.593678  0.956202  0.750000  1
  Se  Se13  1  0.093678  0.543798  0.250000  1
  Se  Se14  1  0.906322  0.456202  0.750000  1
  Se  Se15  1  0.406322  0.043798  0.250000  1
  Se  Se16  1  0.820574  0.952166  0.124555  1
  Se  Se17  1  0.320574  0.547834  0.875445  1
  Se  Se18  1  0.679426  0.452166  0.375445  1
  Se  Se19  1  0.179426  0.047834  0.624555  1
  O  O20  1  0.739425  0.942945  0.845642  1
  O  O21  1  0.239425  0.557055  0.154358  1
  O  O22  1  0.760575  0.442945  0.654358  1
  O  O23  1  0.260575  0.057055  0.345642  1
  O  O24  1  0.260575  0.057055  0.154358  1
  O  O25  1  0.760575  0.442945  0.845642  1
  O  O26  1  0.239425  0.557055  0.345642  1
  O  O27  1  0.739425  0.942945  0.654358  1
  O  O28  1  0.432390  0.844170  0.250000  1
  O  O29  1  0.932390  0.655830  0.750000  1
  O  O30  1  0.067610  0.344170  0.250000  1
  O  O31  1  0.567610  0.155830  0.750000  1
  O  O32  1  0.090971  0.880334  0.922684  1
  O  O33  1  0.590971  0.619666  0.077316  1
  O  O34  1  0.409029  0.380334  0.577316  1
  O  O35  1  0.909029  0.119666  0.422684  1
  O  O36  1  0.029433  0.198533  0.596129  1
  O  O37  1  0.529433  0.301467  0.403871  1
  O  O38  1  0.470567  0.698533  0.903871  1
  O  O39  1  0.970567  0.801467  0.096129  1
  O  O40  1  0.970567  0.801467  0.403871  1
  O  O41  1  0.470567  0.698533  0.596129  1
  O  O42  1  0.529433  0.301467  0.096129  1
  O  O43  1  0.029433  0.198533  0.903871  1
  O  O44  1  0.350070  0.074574  0.539150  1
  O  O45  1  0.850070  0.425426  0.460850  1
  O  O46  1  0.149930  0.574574  0.960850  1
  O  O47  1  0.649930  0.925426  0.039150  1
  O  O48  1  0.649930  0.925426  0.460850  1
  O  O49  1  0.149930  0.574574  0.539150  1
  O  O50  1  0.850070  0.425426  0.039150  1
  O  O51  1  0.350070  0.074574  0.960850  1
  O  O52  1  0.090971  0.880334  0.577316  1
  O  O53  1  0.590971  0.619666  0.422684  1
  O  O54  1  0.409029  0.380334  0.922684  1
  O  O55  1  0.909029  0.119666  0.077316  1
