# generated using pymatgen
data_Pr2SeO2
_symmetry_space_group_name_H-M   'P 1'
_cell_length_a   4.05497703
_cell_length_b   4.05497703
_cell_length_c   7.12747640
_cell_angle_alpha   90.00000000
_cell_angle_beta   90.00000000
_cell_angle_gamma   120.00000000
_symmetry_Int_Tables_number   1
_chemical_formula_structural   Pr2SeO2
_chemical_formula_sum   'Pr2 Se1 O2'
_cell_volume   101.49466556
_cell_formula_units_Z   1
loop_
 _symmetry_equiv_pos_site_id
 _symmetry_equiv_pos_as_xyz
  1  'x, y, z'
loop_
 _atom_site_type_symbol
 _atom_site_label
 _atom_site_symmetry_multiplicity
 _atom_site_fract_x
 _atom_site_fract_y
 _atom_site_fract_z
 _atom_site_occupancy
  Pr  Pr0  1  0.666667  0.333333  0.711768  1
  Pr  Pr1  1  0.333333  0.666667  0.288232  1
  Se  Se2  1  0.000000  0.000000  0.000000  1
  O  O3  1  0.333333  0.666667  0.625615  1
  O  O4  1  0.666667  0.333333  0.374385  1
