# generated using pymatgen
data_Nd(CuO2)2
_symmetry_space_group_name_H-M   'P 1'
_cell_length_a   6.39307010
_cell_length_b   6.39307010
_cell_length_c   6.39307010
_cell_angle_alpha   125.58912469
_cell_angle_beta   125.58912469
_cell_angle_gamma   80.56449725
_symmetry_Int_Tables_number   1
_chemical_formula_structural   Nd(CuO2)2
_chemical_formula_sum   'Nd2 Cu4 O8'
_cell_volume   166.65450577
_cell_formula_units_Z   2
loop_
 _symmetry_equiv_pos_site_id
 _symmetry_equiv_pos_as_xyz
  1  'x, y, z'
loop_
 _atom_site_type_symbol
 _atom_site_label
 _atom_site_symmetry_multiplicity
 _atom_site_fract_x
 _atom_site_fract_y
 _atom_site_fract_z
 _atom_site_occupancy
  Nd  Nd0  1  0.500000  0.500000  0.000000  1
  Nd  Nd1  1  0.250000  0.750000  0.500000  1
  Cu  Cu2  1  0.375000  0.125000  0.250000  1
  Cu  Cu3  1  0.875000  0.125000  0.750000  1
  Cu  Cu4  1  0.875000  0.625000  0.750000  1
  Cu  Cu5  1  0.875000  0.125000  0.250000  1
  O  O6  1  0.905439  0.332800  0.137029  1
  O  O7  1  0.195772  0.768410  0.862971  1
  O  O8  1  0.844561  0.917200  0.362971  1
  O  O9  1  0.554228  0.481590  0.637029  1
  O  O10  1  0.518410  0.155439  0.072638  1
  O  O11  1  0.082800  0.445772  0.927362  1
  O  O12  1  0.667200  0.804228  0.572638  1
  O  O13  1  0.231590  0.094561  0.427362  1
