# generated using pymatgen
data_Li(PrGe3)2
_symmetry_space_group_name_H-M   'P 1'
_cell_length_a   11.01981509
_cell_length_b   11.01981509
_cell_length_c   4.29788135
_cell_angle_alpha   90.00000000
_cell_angle_beta   90.00000000
_cell_angle_gamma   158.30210062
_symmetry_Int_Tables_number   1
_chemical_formula_structural   Li(PrGe3)2
_chemical_formula_sum   'Li1 Pr2 Ge6'
_cell_volume   192.96004716
_cell_formula_units_Z   1
loop_
 _symmetry_equiv_pos_site_id
 _symmetry_equiv_pos_as_xyz
  1  'x, y, z'
loop_
 _atom_site_type_symbol
 _atom_site_label
 _atom_site_symmetry_multiplicity
 _atom_site_fract_x
 _atom_site_fract_y
 _atom_site_fract_z
 _atom_site_occupancy
  Li  Li0  1  0.000000  0.000000  0.000000  1
  Pr  Pr1  1  0.166356  0.833644  0.000000  1
  Pr  Pr2  1  0.833644  0.166356  1.000000  1
  Ge  Ge3  1  0.712815  0.287185  0.500000  1
  Ge  Ge4  1  0.287185  0.712815  0.500000  1
  Ge  Ge5  1  0.561184  0.438816  1.000000  1
  Ge  Ge6  1  0.061296  0.938704  0.500000  1
  Ge  Ge7  1  0.938704  0.061296  0.500000  1
  Ge  Ge8  1  0.438816  0.561184  0.000000  1
