# generated using pymatgen
data_Nd7Al7Co6
_symmetry_space_group_name_H-M   'P 1'
_cell_length_a   13.85095856
_cell_length_b   13.85095856
_cell_length_c   4.17515436
_cell_angle_alpha   90.00000000
_cell_angle_beta   90.00000000
_cell_angle_gamma   90.00000000
_symmetry_Int_Tables_number   1
_chemical_formula_structural   Nd7Al7Co6
_chemical_formula_sum   'Nd14 Al14 Co12'
_cell_volume   800.99941022
_cell_formula_units_Z   2
loop_
 _symmetry_equiv_pos_site_id
 _symmetry_equiv_pos_as_xyz
  1  'x, y, z'
loop_
 _atom_site_type_symbol
 _atom_site_label
 _atom_site_symmetry_multiplicity
 _atom_site_fract_x
 _atom_site_fract_y
 _atom_site_fract_z
 _atom_site_occupancy
  Nd  Nd0  1  0.000000  0.000000  0.000000  1
  Nd  Nd1  1  0.500000  0.500000  0.000000  1
  Nd  Nd2  1  0.868493  0.368493  0.500000  1
  Nd  Nd3  1  0.368493  0.131507  0.500000  1
  Nd  Nd4  1  0.631507  0.868493  0.500000  1
  Nd  Nd5  1  0.131507  0.631507  0.500000  1
  Nd  Nd6  1  0.047686  0.261476  0.000000  1
  Nd  Nd7  1  0.261476  0.952314  0.000000  1
  Nd  Nd8  1  0.738524  0.047686  0.000000  1
  Nd  Nd9  1  0.952314  0.738524  0.000000  1
  Nd  Nd10  1  0.452314  0.761476  0.000000  1
  Nd  Nd11  1  0.547686  0.238524  0.000000  1
  Nd  Nd12  1  0.761476  0.547686  0.000000  1
  Nd  Nd13  1  0.238524  0.452314  0.000000  1
  Al  Al14  1  0.500000  0.000000  0.000000  1
  Al  Al15  1  0.000000  0.500000  0.000000  1
  Al  Al16  1  0.714435  0.214435  0.500000  1
  Al  Al17  1  0.214435  0.285565  0.500000  1
  Al  Al18  1  0.785565  0.714435  0.500000  1
  Al  Al19  1  0.285565  0.785565  0.500000  1
  Al  Al20  1  0.138929  0.098129  0.500000  1
  Al  Al21  1  0.098129  0.861071  0.500000  1
  Al  Al22  1  0.901871  0.138929  0.500000  1
  Al  Al23  1  0.861071  0.901871  0.500000  1
  Al  Al24  1  0.361071  0.598129  0.500000  1
  Al  Al25  1  0.638929  0.401871  0.500000  1
  Al  Al26  1  0.598129  0.638929  0.500000  1
  Al  Al27  1  0.401871  0.361071  0.500000  1
  Co  Co28  1  0.573432  0.073432  0.500000  1
  Co  Co29  1  0.073432  0.426568  0.500000  1
  Co  Co30  1  0.926568  0.573432  0.500000  1
  Co  Co31  1  0.426568  0.926568  0.500000  1
  Co  Co32  1  0.335343  0.288483  0.000000  1
  Co  Co33  1  0.288483  0.664657  0.000000  1
  Co  Co34  1  0.711517  0.335343  0.000000  1
  Co  Co35  1  0.664657  0.711517  0.000000  1
  Co  Co36  1  0.164657  0.788483  0.000000  1
  Co  Co37  1  0.835343  0.211517  0.000000  1
  Co  Co38  1  0.788483  0.835343  0.000000  1
  Co  Co39  1  0.211517  0.164657  0.000000  1
