# generated using pymatgen
data_Rb2CO3
_symmetry_space_group_name_H-M   'P 1'
_cell_length_a   5.97667949
_cell_length_b   10.18789235
_cell_length_c   7.65201331
_cell_angle_alpha   90.00000000
_cell_angle_beta   95.75614907
_cell_angle_gamma   90.00000000
_symmetry_Int_Tables_number   1
_chemical_formula_structural   Rb2CO3
_chemical_formula_sum   'Rb8 C4 O12'
_cell_volume   463.57998230
_cell_formula_units_Z   4
loop_
 _symmetry_equiv_pos_site_id
 _symmetry_equiv_pos_as_xyz
  1  'x, y, z'
loop_
 _atom_site_type_symbol
 _atom_site_label
 _atom_site_symmetry_multiplicity
 _atom_site_fract_x
 _atom_site_fract_y
 _atom_site_fract_z
 _atom_site_occupancy
  Rb  Rb0  1  0.257126  0.275417  0.022485  1
  Rb  Rb1  1  0.742874  0.775417  0.477515  1
  Rb  Rb2  1  0.742874  0.724583  0.977515  1
  Rb  Rb3  1  0.257126  0.224583  0.522485  1
  Rb  Rb4  1  0.242123  0.918308  0.181802  1
  Rb  Rb5  1  0.757877  0.418308  0.318198  1
  Rb  Rb6  1  0.757877  0.081692  0.818198  1
  Rb  Rb7  1  0.242123  0.581692  0.681802  1
  C  C8  1  0.251364  0.584326  0.261245  1
  C  C9  1  0.251364  0.915674  0.761245  1
  C  C10  1  0.748636  0.415674  0.738755  1
  C  C11  1  0.748636  0.084326  0.238755  1
  O  O12  1  0.068038  0.847610  0.773732  1
  O  O13  1  0.931962  0.347610  0.726268  1
  O  O14  1  0.931962  0.152390  0.226268  1
  O  O15  1  0.068038  0.652390  0.273732  1
  O  O16  1  0.426880  0.860924  0.703447  1
  O  O17  1  0.426880  0.639076  0.203447  1
  O  O18  1  0.573120  0.139076  0.296553  1
  O  O19  1  0.573120  0.360924  0.796553  1
  O  O20  1  0.258738  0.461115  0.310351  1
  O  O21  1  0.741262  0.961115  0.189649  1
  O  O22  1  0.741262  0.538885  0.689649  1
  O  O23  1  0.258738  0.038885  0.810351  1
