# generated using pymatgen
data_Cu(BO2)2
_symmetry_space_group_name_H-M   'P 1'
_cell_length_a   8.67244027
_cell_length_b   8.67244027
_cell_length_c   8.67244027
_cell_angle_alpha   96.14129584
_cell_angle_beta   96.14129584
_cell_angle_gamma   141.81683630
_symmetry_Int_Tables_number   1
_chemical_formula_structural   Cu(BO2)2
_chemical_formula_sum   'Cu6 B12 O24'
_cell_volume   381.03733168
_cell_formula_units_Z   6
loop_
 _symmetry_equiv_pos_site_id
 _symmetry_equiv_pos_as_xyz
  1  'x, y, z'
loop_
 _atom_site_type_symbol
 _atom_site_label
 _atom_site_symmetry_multiplicity
 _atom_site_fract_x
 _atom_site_fract_y
 _atom_site_fract_z
 _atom_site_occupancy
  Cu  Cu0  1  0.500000  0.500000  0.000000  1
  Cu  Cu1  1  0.750000  0.250000  0.500000  1
  Cu  Cu2  1  0.207113  0.875000  0.832113  1
  Cu  Cu3  1  0.042887  0.375000  0.167887  1
  Cu  Cu4  1  0.125000  0.957113  0.332113  1
  Cu  Cu5  1  0.625000  0.792887  0.667887  1
  B  B6  1  0.881964  0.549441  0.036800  1
  B  B7  1  0.737359  0.200559  0.832524  1
  B  B8  1  0.512641  0.845165  0.963201  1
  B  B9  1  0.368036  0.904835  0.167476  1
  B  B10  1  0.450559  0.487359  0.332524  1
  B  B11  1  0.095165  0.262641  0.463200  1
  B  B12  1  0.154835  0.118036  0.667476  1
  B  B13  1  0.799441  0.631964  0.536800  1
  B  B14  1  0.624187  0.375000  0.749187  1
  B  B15  1  0.625813  0.875000  0.250813  1
  B  B16  1  0.625000  0.374187  0.249187  1
  B  B17  1  0.125000  0.375813  0.750813  1
  O  O18  1  0.653346  0.423602  0.088779  1
  O  O19  1  0.915177  0.326398  0.729745  1
  O  O20  1  0.334823  0.564568  0.911221  1
  O  O21  1  0.596654  0.185432  0.270255  1
  O  O22  1  0.576398  0.665177  0.229745  1
  O  O23  1  0.814568  0.084823  0.411221  1
  O  O24  1  0.435432  0.346654  0.770255  1
  O  O25  1  0.673602  0.403346  0.588779  1
  O  O26  1  0.877085  0.375000  0.002085  1
  O  O27  1  0.372915  0.875000  0.997915  1
  O  O28  1  0.625000  0.627085  0.502085  1
  O  O29  1  0.125000  0.122915  0.497915  1
  O  O30  1  0.125000  0.790816  0.165816  1
  O  O31  1  0.625000  0.959184  0.834184  1
  O  O32  1  0.209184  0.375000  0.334184  1
  O  O33  1  0.040816  0.875000  0.665816  1
  O  O34  1  0.870102  0.609653  0.886044  1
  O  O35  1  0.526391  0.140347  0.760449  1
  O  O36  1  0.723609  0.984059  0.113956  1
  O  O37  1  0.379898  0.765941  0.239551  1
  O  O38  1  0.390347  0.276391  0.260449  1
  O  O39  1  0.234059  0.473609  0.613956  1
  O  O40  1  0.015941  0.129898  0.739551  1
  O  O41  1  0.859653  0.620102  0.386044  1
