# generated using pymatgen
data_Te3As2
_symmetry_space_group_name_H-M   'P 1'
_cell_length_a   7.77178539
_cell_length_b   7.77178539
_cell_length_c   10.14114160
_cell_angle_alpha   84.61163172
_cell_angle_beta   95.38836828
_cell_angle_gamma   149.64684088
_symmetry_Int_Tables_number   1
_chemical_formula_structural   Te3As2
_chemical_formula_sum   'Te6 As4'
_cell_volume   308.06093902
_cell_formula_units_Z   2
loop_
 _symmetry_equiv_pos_site_id
 _symmetry_equiv_pos_as_xyz
  1  'x, y, z'
loop_
 _atom_site_type_symbol
 _atom_site_label
 _atom_site_symmetry_multiplicity
 _atom_site_fract_x
 _atom_site_fract_y
 _atom_site_fract_z
 _atom_site_occupancy
  Te  Te0  1  0.957662  0.042338  0.712146  1
  Te  Te1  1  0.042338  0.957662  0.287854  1
  Te  Te2  1  0.217917  0.782083  0.664406  1
  Te  Te3  1  0.782083  0.217917  0.335594  1
  Te  Te4  1  0.630203  0.369797  0.969328  1
  Te  Te5  1  0.369797  0.630203  0.030672  1
  As  As6  1  0.374631  0.625369  0.560495  1
  As  As7  1  0.625369  0.374631  0.439505  1
  As  As8  1  0.794741  0.205259  0.859101  1
  As  As9  1  0.205259  0.794741  0.140899  1
