# generated using pymatgen
data_ThGeO4
_symmetry_space_group_name_H-M   'P 1'
_cell_length_a   6.13047111
_cell_length_b   6.13047111
_cell_length_c   6.13047111
_cell_angle_alpha   106.84823839
_cell_angle_beta   106.84823839
_cell_angle_gamma   114.85508511
_symmetry_Int_Tables_number   1
_chemical_formula_structural   ThGeO4
_chemical_formula_sum   'Th2 Ge2 O8'
_cell_volume   176.17593888
_cell_formula_units_Z   2
loop_
 _symmetry_equiv_pos_site_id
 _symmetry_equiv_pos_as_xyz
  1  'x, y, z'
loop_
 _atom_site_type_symbol
 _atom_site_label
 _atom_site_symmetry_multiplicity
 _atom_site_fract_x
 _atom_site_fract_y
 _atom_site_fract_z
 _atom_site_occupancy
  Th  Th0  1  0.000000  0.000000  0.000000  1
  Th  Th1  1  0.250000  0.750000  0.500000  1
  Ge  Ge2  1  0.750000  0.250000  0.500000  1
  Ge  Ge3  1  0.500000  0.500000  0.000000  1
  O  O4  1  0.860689  0.678671  0.182018  1
  O  O5  1  0.928671  0.246653  0.317982  1
  O  O6  1  0.928671  0.610689  0.682018  1
  O  O7  1  0.496653  0.678671  0.817982  1
  O  O8  1  0.321329  0.503347  0.182018  1
  O  O9  1  0.389311  0.071329  0.317982  1
  O  O10  1  0.753347  0.071329  0.682018  1
  O  O11  1  0.321329  0.139311  0.817982  1
