# generated using pymatgen
data_CaSiO3
_symmetry_space_group_name_H-M   'P 1'
_cell_length_a   6.74048139
_cell_length_b   6.78603885
_cell_length_c   9.41212981
_cell_angle_alpha   69.27390919
_cell_angle_beta   83.66219306
_cell_angle_gamma   75.81085080
_symmetry_Int_Tables_number   1
_chemical_formula_structural   CaSiO3
_chemical_formula_sum   'Ca6 Si6 O18'
_cell_volume   390.24259685
_cell_formula_units_Z   6
loop_
 _symmetry_equiv_pos_site_id
 _symmetry_equiv_pos_as_xyz
  1  'x, y, z'
loop_
 _atom_site_type_symbol
 _atom_site_label
 _atom_site_symmetry_multiplicity
 _atom_site_fract_x
 _atom_site_fract_y
 _atom_site_fract_z
 _atom_site_occupancy
  Ca  Ca0  1  0.922222  0.583986  0.662913  1
  Ca  Ca1  1  0.077778  0.416014  0.337087  1
  Ca  Ca2  1  0.588451  0.238256  0.650809  1
  Ca  Ca3  1  0.411549  0.761744  0.349191  1
  Ca  Ca4  1  0.763490  0.743150  0.000411  1
  Ca  Ca5  1  0.236510  0.256850  0.999589  1
  Si  Si6  1  0.038617  0.024015  0.700398  1
  Si  Si7  1  0.961383  0.975985  0.299602  1
  Si  Si8  1  0.270039  0.772079  0.984043  1
  Si  Si9  1  0.729961  0.227921  0.015957  1
  Si  Si10  1  0.387103  0.665129  0.705455  1
  Si  Si11  1  0.612897  0.334871  0.294545  1
  O  O12  1  0.237890  0.905499  0.613863  1
  O  O13  1  0.762110  0.094501  0.386137  1
  O  O14  1  0.953039  0.273159  0.598326  1
  O  O15  1  0.046961  0.726841  0.401674  1
  O  O16  1  0.855944  0.892575  0.737323  1
  O  O17  1  0.144056  0.107425  0.262677  1
  O  O18  1  0.134238  0.004282  0.863500  1
  O  O19  1  0.865762  0.995718  0.136500  1
  O  O20  1  0.612107  0.159437  0.907308  1
  O  O21  1  0.387893  0.840563  0.092692  1
  O  O22  1  0.871057  0.401683  0.938778  1
  O  O23  1  0.128943  0.598317  0.061222  1
  O  O24  1  0.736006  0.525900  0.257657  1
  O  O25  1  0.263994  0.474100  0.742343  1
  O  O26  1  0.418663  0.377810  0.406206  1
  O  O27  1  0.581337  0.622190  0.593794  1
  O  O28  1  0.549790  0.309916  0.136211  1
  O  O29  1  0.450210  0.690084  0.863789  1
