# generated using pymatgen
data_NdAgSn
_symmetry_space_group_name_H-M   'P 1'
_cell_length_a   4.82274313
_cell_length_b   4.82274313
_cell_length_c   7.67600462
_cell_angle_alpha   90.00000000
_cell_angle_beta   90.00000000
_cell_angle_gamma   120.00000000
_symmetry_Int_Tables_number   1
_chemical_formula_structural   NdAgSn
_chemical_formula_sum   'Nd2 Ag2 Sn2'
_cell_volume   154.61588896
_cell_formula_units_Z   2
loop_
 _symmetry_equiv_pos_site_id
 _symmetry_equiv_pos_as_xyz
  1  'x, y, z'
loop_
 _atom_site_type_symbol
 _atom_site_label
 _atom_site_symmetry_multiplicity
 _atom_site_fract_x
 _atom_site_fract_y
 _atom_site_fract_z
 _atom_site_occupancy
  Nd  Nd0  1  0.000000  0.000000  0.761196  1
  Nd  Nd1  1  0.000000  0.000000  0.261196  1
  Ag  Ag2  1  0.666667  0.333333  0.958036  1
  Ag  Ag3  1  0.333333  0.666667  0.458036  1
  Sn  Sn4  1  0.333333  0.666667  0.040768  1
  Sn  Sn5  1  0.666667  0.333333  0.540768  1
