# generated using pymatgen
data_Sr2Sb2O7
_symmetry_space_group_name_H-M   'P 1'
_cell_length_a   7.56575627
_cell_length_b   7.56575627
_cell_length_c   7.56575627
_cell_angle_alpha   119.93794174
_cell_angle_beta   117.94540460
_cell_angle_gamma   91.85145070
_symmetry_Int_Tables_number   1
_chemical_formula_structural   Sr2Sb2O7
_chemical_formula_sum   'Sr4 Sb4 O14'
_cell_volume   310.83590458
_cell_formula_units_Z   2
loop_
 _symmetry_equiv_pos_site_id
 _symmetry_equiv_pos_as_xyz
  1  'x, y, z'
loop_
 _atom_site_type_symbol
 _atom_site_label
 _atom_site_symmetry_multiplicity
 _atom_site_fract_x
 _atom_site_fract_y
 _atom_site_fract_z
 _atom_site_occupancy
  Sr  Sr0  1  0.000000  0.000000  0.000000  1
  Sr  Sr1  1  0.000000  0.500000  0.500000  1
  Sr  Sr2  1  0.000000  0.500000  1.000000  1
  Sr  Sr3  1  0.500000  0.000000  0.000000  1
  Sb  Sb4  1  0.500000  1.000000  0.500000  1
  Sb  Sb5  1  0.500000  0.500000  0.000000  1
  Sb  Sb6  1  0.500000  0.500000  0.500000  1
  Sb  Sb7  1  0.000000  0.000000  0.500000  1
  O  O8  1  0.449087  0.176512  0.363270  1
  O  O9  1  0.550913  0.414183  0.227425  1
  O  O10  1  0.186758  0.323488  0.772575  1
  O  O11  1  0.813242  0.085817  0.636730  1
  O  O12  1  0.550913  0.823488  0.636730  1
  O  O13  1  0.449087  0.585817  0.772575  1
  O  O14  1  0.813242  0.676512  0.227425  1
  O  O15  1  0.186758  0.914183  0.363270  1
  O  O16  1  0.598083  0.250000  0.848083  1
  O  O17  1  0.401917  0.750000  0.151917  1
  O  O18  1  0.189710  0.408415  0.281295  1
  O  O19  1  0.810290  0.591585  0.718705  1
  O  O20  1  0.872880  0.091585  0.281295  1
  O  O21  1  0.127120  0.908415  0.718705  1
