# generated using pymatgen
data_Cu2GeSe3
_symmetry_space_group_name_H-M   'P 1'
_cell_length_a   6.85460262
_cell_length_b   6.85460262
_cell_length_c   6.85460262
_cell_angle_alpha   145.70537235
_cell_angle_beta   131.98348186
_cell_angle_gamma   60.32580098
_symmetry_Int_Tables_number   1
_chemical_formula_structural   Cu2GeSe3
_chemical_formula_sum   'Cu2 Ge1 Se3'
_cell_volume   133.61248911
_cell_formula_units_Z   1
loop_
 _symmetry_equiv_pos_site_id
 _symmetry_equiv_pos_as_xyz
  1  'x, y, z'
loop_
 _atom_site_type_symbol
 _atom_site_label
 _atom_site_symmetry_multiplicity
 _atom_site_fract_x
 _atom_site_fract_y
 _atom_site_fract_z
 _atom_site_occupancy
  Cu  Cu0  1  0.095426  0.832731  0.262695  1
  Cu  Cu1  1  0.429965  0.167269  0.262695  1
  Ge  Ge2  1  0.733373  0.500000  0.233373  1
  Se  Se3  1  0.667880  0.670782  0.997098  1
  Se  Se4  1  0.326316  0.329218  0.997098  1
  Se  Se5  1  0.009041  0.000000  0.009041  1
