# generated using pymatgen
data_U2P2O9
_symmetry_space_group_name_H-M   'P 1'
_cell_length_a   5.77070914
_cell_length_b   5.77070914
_cell_length_c   12.77270746
_cell_angle_alpha   90.00000000
_cell_angle_beta   90.00000000
_cell_angle_gamma   103.64073770
_symmetry_Int_Tables_number   1
_chemical_formula_structural   U2P2O9
_chemical_formula_sum   'U4 P4 O18'
_cell_volume   413.34753814
_cell_formula_units_Z   2
loop_
 _symmetry_equiv_pos_site_id
 _symmetry_equiv_pos_as_xyz
  1  'x, y, z'
loop_
 _atom_site_type_symbol
 _atom_site_label
 _atom_site_symmetry_multiplicity
 _atom_site_fract_x
 _atom_site_fract_y
 _atom_site_fract_z
 _atom_site_occupancy
  U  U0  1  0.291389  0.708611  0.069059  1
  U  U1  1  0.208611  0.791389  0.569059  1
  U  U2  1  0.708611  0.291389  0.930941  1
  U  U3  1  0.791389  0.208611  0.430941  1
  P  P4  1  0.390735  0.609265  0.356347  1
  P  P5  1  0.109265  0.890735  0.856347  1
  P  P6  1  0.609265  0.390735  0.643653  1
  P  P7  1  0.890735  0.109265  0.143653  1
  O  O8  1  0.558503  0.441497  0.376297  1
  O  O9  1  0.941497  0.058503  0.876297  1
  O  O10  1  0.441497  0.558503  0.623703  1
  O  O11  1  0.058503  0.941497  0.123703  1
  O  O12  1  0.000000  0.000000  0.500000  1
  O  O13  1  0.500000  0.500000  0.000000  1
  O  O14  1  0.860247  0.139753  0.260955  1
  O  O15  1  0.639753  0.360247  0.760955  1
  O  O16  1  0.985806  0.353700  0.086494  1
  O  O17  1  0.514194  0.146300  0.586494  1
  O  O18  1  0.353700  0.985806  0.913506  1
  O  O19  1  0.146300  0.514194  0.413506  1
  O  O20  1  0.014194  0.646300  0.913506  1
  O  O21  1  0.485806  0.853700  0.413506  1
  O  O22  1  0.646300  0.014194  0.086494  1
  O  O23  1  0.853700  0.485806  0.586494  1
  O  O24  1  0.360247  0.639753  0.239045  1
  O  O25  1  0.139753  0.860247  0.739045  1
