# generated using pymatgen
data_CsNa2Si17
_symmetry_space_group_name_H-M   'P 1'
_cell_length_a   10.49269938
_cell_length_b   10.49269938
_cell_length_c   10.49269938
_cell_angle_alpha   60.00000000
_cell_angle_beta   60.00000000
_cell_angle_gamma   60.00000000
_symmetry_Int_Tables_number   1
_chemical_formula_structural   CsNa2Si17
_chemical_formula_sum   'Cs2 Na4 Si34'
_cell_volume   816.85823731
_cell_formula_units_Z   2
loop_
 _symmetry_equiv_pos_site_id
 _symmetry_equiv_pos_as_xyz
  1  'x, y, z'
loop_
 _atom_site_type_symbol
 _atom_site_label
 _atom_site_symmetry_multiplicity
 _atom_site_fract_x
 _atom_site_fract_y
 _atom_site_fract_z
 _atom_site_occupancy
  Cs  Cs0  1  0.000000  0.000000  1.000000  1
  Cs  Cs1  1  0.250000  0.250000  0.250000  1
  Na  Na2  1  0.125000  0.625000  0.625000  1
  Na  Na3  1  0.625000  0.625000  0.125000  1
  Na  Na4  1  0.625000  0.625000  0.625000  1
  Na  Na5  1  0.625000  0.125000  0.625000  1
  Si  Si6  1  0.390476  0.995024  0.995024  1
  Si  Si7  1  0.619476  0.390476  0.995024  1
  Si  Si8  1  0.995024  0.995024  0.390476  1
  Si  Si9  1  0.619476  0.995024  0.390476  1
  Si  Si10  1  0.390476  0.995024  0.619476  1
  Si  Si11  1  0.254976  0.630524  0.859524  1
  Si  Si12  1  0.859524  0.630524  0.254976  1
  Si  Si13  1  0.254976  0.254976  0.630524  1
  Si  Si14  1  0.630524  0.254976  0.254976  1
  Si  Si15  1  0.254976  0.859524  0.630524  1
  Si  Si16  1  0.254976  0.254976  0.859524  1
  Si  Si17  1  0.859524  0.254976  0.254976  1
  Si  Si18  1  0.630524  0.859524  0.254976  1
  Si  Si19  1  0.995024  0.995024  0.619476  1
  Si  Si20  1  0.995024  0.390476  0.619476  1
  Si  Si21  1  0.995024  0.390476  0.995024  1
  Si  Si22  1  0.995024  0.619476  0.995024  1
  Si  Si23  1  0.995024  0.619476  0.390476  1
  Si  Si24  1  0.390476  0.619476  0.995024  1
  Si  Si25  1  0.630524  0.254976  0.859524  1
  Si  Si26  1  0.859524  0.254976  0.630524  1
  Si  Si27  1  0.254976  0.859524  0.254976  1
  Si  Si28  1  0.407790  0.776630  0.407790  1
  Si  Si29  1  0.842210  0.842210  0.842210  1
  Si  Si30  1  0.842210  0.842210  0.473370  1
  Si  Si31  1  0.473370  0.842210  0.842210  1
  Si  Si32  1  0.407790  0.407790  0.776630  1
  Si  Si33  1  0.776630  0.407790  0.407790  1
  Si  Si34  1  0.407790  0.407790  0.407790  1
  Si  Si35  1  0.842210  0.473370  0.842210  1
  Si  Si36  1  0.500000  0.500000  0.500000  1
  Si  Si37  1  0.750000  0.750000  0.750000  1
  Si  Si38  1  0.619476  0.995024  0.995024  1
  Si  Si39  1  0.254976  0.630524  0.254976  1
