# generated using pymatgen
data_Sr2IrO4
_symmetry_space_group_name_H-M   'P 1'
_cell_length_a   13.68865317
_cell_length_b   13.68865317
_cell_length_c   13.68865317
_cell_angle_alpha   156.71797044
_cell_angle_beta   156.71797044
_cell_angle_gamma   33.16058533
_symmetry_Int_Tables_number   1
_chemical_formula_structural   Sr2IrO4
_chemical_formula_sum   'Sr8 Ir4 O16'
_cell_volume   400.36001680
_cell_formula_units_Z   4
loop_
 _symmetry_equiv_pos_site_id
 _symmetry_equiv_pos_as_xyz
  1  'x, y, z'
loop_
 _atom_site_type_symbol
 _atom_site_label
 _atom_site_symmetry_multiplicity
 _atom_site_fract_x
 _atom_site_fract_y
 _atom_site_fract_z
 _atom_site_occupancy
  Sr  Sr0  1  0.925191  0.425191  0.500000  1
  Sr  Sr1  1  0.175191  0.175191  0.000000  1
  Sr  Sr2  1  0.324809  0.324809  0.000000  1
  Sr  Sr3  1  0.074809  0.574809  0.500000  1
  Sr  Sr4  1  0.675191  0.675191  0.000000  1
  Sr  Sr5  1  0.425191  0.925191  0.500000  1
  Sr  Sr6  1  0.574809  0.074809  0.500000  1
  Sr  Sr7  1  0.824809  0.824809  0.000000  1
  Ir  Ir8  1  0.250000  0.750000  0.500000  1
  Ir  Ir9  1  0.500000  0.500000  0.000000  1
  Ir  Ir10  1  0.000000  0.000000  0.000000  1
  Ir  Ir11  1  0.750000  0.250000  0.500000  1
  O  O12  1  0.579709  0.579709  0.000000  1
  O  O13  1  0.329709  0.829709  0.500000  1
  O  O14  1  0.670291  0.170291  0.500000  1
  O  O15  1  0.920291  0.920291  0.000000  1
  O  O16  1  0.170291  0.670291  0.500000  1
  O  O17  1  0.420291  0.420291  0.000000  1
  O  O18  1  0.079709  0.079709  0.000000  1
  O  O19  1  0.829709  0.329709  0.500000  1
  O  O20  1  0.939457  0.560543  1.000000  1
  O  O21  1  0.310543  0.810543  0.121086  1
  O  O22  1  0.689457  0.189457  0.878914  1
  O  O23  1  0.560543  0.939457  0.000000  1
  O  O24  1  0.189457  0.310543  0.500000  1
  O  O25  1  0.060543  0.060543  0.621086  1
  O  O26  1  0.439457  0.439457  0.378914  1
  O  O27  1  0.810543  0.689457  0.500000  1
