# generated using pymatgen
data_Ca2AlH10ClO8
_symmetry_space_group_name_H-M   'P 1'
_cell_length_a   5.82106003
_cell_length_b   5.82106003
_cell_length_c   16.16035170
_cell_angle_alpha   80.66875328
_cell_angle_beta   99.33124672
_cell_angle_gamma   121.49824960
_symmetry_Int_Tables_number   1
_chemical_formula_structural   Ca2AlH10ClO8
_chemical_formula_sum   'Ca4 Al2 H20 Cl2 O16'
_cell_volume   458.77202988
_cell_formula_units_Z   2
loop_
 _symmetry_equiv_pos_site_id
 _symmetry_equiv_pos_as_xyz
  1  'x, y, z'
loop_
 _atom_site_type_symbol
 _atom_site_label
 _atom_site_symmetry_multiplicity
 _atom_site_fract_x
 _atom_site_fract_y
 _atom_site_fract_z
 _atom_site_occupancy
  Ca  Ca0  1  0.157503  0.345956  0.461740  1
  Ca  Ca1  1  0.345956  0.157503  0.038260  1
  Ca  Ca2  1  0.654044  0.842497  0.961740  1
  Ca  Ca3  1  0.842497  0.654044  0.538260  1
  Al  Al4  1  0.000000  0.500000  0.000000  1
  Al  Al5  1  0.500000  0.000000  0.500000  1
  H  H6  1  0.097368  0.332926  0.879683  1
  H  H7  1  0.182775  0.885556  0.881000  1
  H  H8  1  0.612124  0.388804  0.882310  1
  H  H9  1  0.216454  0.999253  0.222552  1
  H  H10  1  0.493554  0.278702  0.223443  1
  H  H11  1  0.278702  0.493554  0.276557  1
  H  H12  1  0.999253  0.216454  0.277448  1
  H  H13  1  0.114444  0.817225  0.381000  1
  H  H14  1  0.611196  0.387876  0.382310  1
  H  H15  1  0.667074  0.902632  0.379683  1
  H  H16  1  0.332926  0.097368  0.620317  1
  H  H17  1  0.388804  0.612124  0.617690  1
  H  H18  1  0.885556  0.182775  0.619000  1
  H  H19  1  0.000747  0.783546  0.722552  1
  H  H20  1  0.721298  0.506446  0.723443  1
  H  H21  1  0.506446  0.721298  0.776557  1
  H  H22  1  0.783546  0.000747  0.777448  1
  H  H23  1  0.387876  0.611196  0.117690  1
  H  H24  1  0.817225  0.114444  0.119000  1
  H  H25  1  0.902632  0.667074  0.120317  1
  Cl  Cl26  1  0.251598  0.251598  0.750000  1
  Cl  Cl27  1  0.748402  0.748402  0.250000  1
  O  O28  1  0.109387  0.387223  0.303929  1
  O  O29  1  0.037082  0.270408  0.936037  1
  O  O30  1  0.237929  0.831821  0.937261  1
  O  O31  1  0.673418  0.462764  0.936747  1
  O  O32  1  0.387223  0.109387  0.196071  1
  O  O33  1  0.168179  0.762071  0.437261  1
  O  O34  1  0.537236  0.326582  0.436747  1
  O  O35  1  0.729592  0.962918  0.436037  1
  O  O36  1  0.270408  0.037082  0.563963  1
  O  O37  1  0.462764  0.673418  0.563253  1
  O  O38  1  0.831821  0.237929  0.562739  1
  O  O39  1  0.612777  0.890613  0.803929  1
  O  O40  1  0.326582  0.537236  0.063253  1
  O  O41  1  0.762071  0.168179  0.062739  1
  O  O42  1  0.962918  0.729592  0.063963  1
  O  O43  1  0.890613  0.612777  0.696071  1
