# generated using pymatgen
data_CaGe2O5
_symmetry_space_group_name_H-M   'P 1'
_cell_length_a   5.80387950
_cell_length_b   7.44479690
_cell_length_c   8.38374919
_cell_angle_alpha   90.00000000
_cell_angle_beta   90.00000000
_cell_angle_gamma   90.00000000
_symmetry_Int_Tables_number   1
_chemical_formula_structural   CaGe2O5
_chemical_formula_sum   'Ca4 Ge8 O20'
_cell_volume   362.25093808
_cell_formula_units_Z   4
loop_
 _symmetry_equiv_pos_site_id
 _symmetry_equiv_pos_as_xyz
  1  'x, y, z'
loop_
 _atom_site_type_symbol
 _atom_site_label
 _atom_site_symmetry_multiplicity
 _atom_site_fract_x
 _atom_site_fract_y
 _atom_site_fract_z
 _atom_site_occupancy
  Ca  Ca0  1  0.000000  0.363395  0.166092  1
  Ca  Ca1  1  0.000000  0.636605  0.833908  1
  Ca  Ca2  1  0.000000  0.863395  0.333908  1
  Ca  Ca3  1  0.000000  0.136605  0.666092  1
  Ge  Ge4  1  0.500000  0.608723  0.145895  1
  Ge  Ge5  1  0.500000  0.391277  0.854105  1
  Ge  Ge6  1  0.500000  0.108723  0.354105  1
  Ge  Ge7  1  0.500000  0.891277  0.645895  1
  Ge  Ge8  1  0.753442  0.500000  0.500000  1
  Ge  Ge9  1  0.246558  0.000000  0.000000  1
  Ge  Ge10  1  0.246558  0.500000  0.500000  1
  Ge  Ge11  1  0.753442  0.000000  0.000000  1
  O  O12  1  0.500000  0.843572  0.073122  1
  O  O13  1  0.500000  0.156428  0.926878  1
  O  O14  1  0.500000  0.343572  0.426878  1
  O  O15  1  0.500000  0.656428  0.573122  1
  O  O16  1  0.000000  0.342925  0.444708  1
  O  O17  1  0.000000  0.657075  0.555292  1
  O  O18  1  0.000000  0.842925  0.055292  1
  O  O19  1  0.000000  0.157075  0.944708  1
  O  O20  1  0.708723  0.500000  0.000000  1
  O  O21  1  0.291277  0.000000  0.500000  1
  O  O22  1  0.291277  0.500000  0.000000  1
  O  O23  1  0.708723  0.000000  0.500000  1
  O  O24  1  0.741314  0.105597  0.208004  1
  O  O25  1  0.741314  0.894403  0.791996  1
  O  O26  1  0.258686  0.605597  0.291996  1
  O  O27  1  0.258686  0.394403  0.708004  1
  O  O28  1  0.258686  0.894403  0.791996  1
  O  O29  1  0.258686  0.105597  0.208004  1
  O  O30  1  0.741314  0.394403  0.708004  1
  O  O31  1  0.741314  0.605597  0.291996  1
