# generated using pymatgen
data_NaNbO3
_symmetry_space_group_name_H-M   'P 1'
_cell_length_a   5.62103339
_cell_length_b   5.69807972
_cell_length_c   7.84340435
_cell_angle_alpha   90.00000000
_cell_angle_beta   90.00000000
_cell_angle_gamma   90.00000000
_symmetry_Int_Tables_number   1
_chemical_formula_structural   NaNbO3
_chemical_formula_sum   'Na4 Nb4 O12'
_cell_volume   251.21715376
_cell_formula_units_Z   4
loop_
 _symmetry_equiv_pos_site_id
 _symmetry_equiv_pos_as_xyz
  1  'x, y, z'
loop_
 _atom_site_type_symbol
 _atom_site_label
 _atom_site_symmetry_multiplicity
 _atom_site_fract_x
 _atom_site_fract_y
 _atom_site_fract_z
 _atom_site_occupancy
  Na  Na0  1  0.759305  0.250653  0.000000  1
  Na  Na1  1  0.240695  0.750653  0.000000  1
  Na  Na2  1  0.765447  0.271365  0.500000  1
  Na  Na3  1  0.234553  0.771365  0.500000  1
  Nb  Nb4  1  0.743061  0.768693  0.750530  1
  Nb  Nb5  1  0.256939  0.268693  0.249470  1
  Nb  Nb6  1  0.256939  0.268693  0.750530  1
  Nb  Nb7  1  0.743061  0.768693  0.249470  1
  O  O8  1  0.959238  0.517327  0.217275  1
  O  O9  1  0.040762  0.017327  0.782725  1
  O  O10  1  0.040762  0.017327  0.217275  1
  O  O11  1  0.959238  0.517327  0.782725  1
  O  O12  1  0.538935  0.091941  0.280445  1
  O  O13  1  0.461065  0.591941  0.719555  1
  O  O14  1  0.461065  0.591941  0.280445  1
  O  O15  1  0.538935  0.091941  0.719555  1
  O  O16  1  0.188141  0.304088  0.500000  1
  O  O17  1  0.811859  0.804088  0.500000  1
  O  O18  1  0.312590  0.323971  0.000000  1
  O  O19  1  0.687410  0.823971  0.000000  1
