# generated using pymatgen
data_ZnSnP2
_symmetry_space_group_name_H-M   'P 1'
_cell_length_a   6.99923503
_cell_length_b   6.99923503
_cell_length_c   6.99923503
_cell_angle_alpha   131.88441071
_cell_angle_beta   131.88441071
_cell_angle_gamma   70.41164898
_symmetry_Int_Tables_number   1
_chemical_formula_structural   ZnSnP2
_chemical_formula_sum   'Zn2 Sn2 P4'
_cell_volume   186.23935145
_cell_formula_units_Z   2
loop_
 _symmetry_equiv_pos_site_id
 _symmetry_equiv_pos_as_xyz
  1  'x, y, z'
loop_
 _atom_site_type_symbol
 _atom_site_label
 _atom_site_symmetry_multiplicity
 _atom_site_fract_x
 _atom_site_fract_y
 _atom_site_fract_z
 _atom_site_occupancy
  Zn  Zn0  1  0.500000  0.500000  0.000000  1
  Zn  Zn1  1  0.250000  0.750000  0.500000  1
  Sn  Sn2  1  0.000000  0.000000  0.000000  1
  Sn  Sn3  1  0.750000  0.250000  0.500000  1
  P  P4  1  0.603448  0.625000  0.478448  1
  P  P5  1  0.375000  0.853448  0.978448  1
  P  P6  1  0.875000  0.396552  0.021552  1
  P  P7  1  0.146552  0.125000  0.521552  1
