# generated using pymatgen
data_Ga2CoS4
_symmetry_space_group_name_H-M   'P 1'
_cell_length_a   6.45268046
_cell_length_b   6.45268046
_cell_length_c   6.45268046
_cell_angle_alpha   131.58264612
_cell_angle_beta   131.58264612
_cell_angle_gamma   70.88899608
_symmetry_Int_Tables_number   1
_chemical_formula_structural   Ga2CoS4
_chemical_formula_sum   'Ga2 Co1 S4'
_cell_volume   147.21889370
_cell_formula_units_Z   1
loop_
 _symmetry_equiv_pos_site_id
 _symmetry_equiv_pos_as_xyz
  1  'x, y, z'
loop_
 _atom_site_type_symbol
 _atom_site_label
 _atom_site_symmetry_multiplicity
 _atom_site_fract_x
 _atom_site_fract_y
 _atom_site_fract_z
 _atom_site_occupancy
  Ga  Ga0  1  0.500000  0.500000  0.000000  1
  Ga  Ga1  1  0.250000  0.750000  0.500000  1
  Co  Co2  1  0.000000  0.000000  0.000000  1
  S  S3  1  0.874869  0.367192  0.988529  1
  S  S4  1  0.632808  0.621337  0.507677  1
  S  S5  1  0.113660  0.125131  0.492323  1
  S  S6  1  0.378663  0.886340  0.011471  1
