# generated using pymatgen
data_Ti2O3
_symmetry_space_group_name_H-M   'P 1'
_cell_length_a   5.51733366
_cell_length_b   5.51733366
_cell_length_c   5.51733366
_cell_angle_alpha   55.20556047
_cell_angle_beta   55.20556047
_cell_angle_gamma   55.20556047
_symmetry_Int_Tables_number   1
_chemical_formula_structural   Ti2O3
_chemical_formula_sum   'Ti4 O6'
_cell_volume   105.52394347
_cell_formula_units_Z   2
loop_
 _symmetry_equiv_pos_site_id
 _symmetry_equiv_pos_as_xyz
  1  'x, y, z'
loop_
 _atom_site_type_symbol
 _atom_site_label
 _atom_site_symmetry_multiplicity
 _atom_site_fract_x
 _atom_site_fract_y
 _atom_site_fract_z
 _atom_site_occupancy
  Ti  Ti0  1  0.845539  0.845539  0.845539  1
  Ti  Ti1  1  0.154461  0.154461  0.154461  1
  Ti  Ti2  1  0.345539  0.345539  0.345539  1
  Ti  Ti3  1  0.654461  0.654461  0.654461  1
  O  O4  1  0.750000  0.437722  0.062278  1
  O  O5  1  0.437722  0.062278  0.750000  1
  O  O6  1  0.062278  0.750000  0.437722  1
  O  O7  1  0.250000  0.562278  0.937722  1
  O  O8  1  0.562278  0.937722  0.250000  1
  O  O9  1  0.937722  0.250000  0.562278  1
