# generated using pymatgen
data_CaSc2O4
_symmetry_space_group_name_H-M   'P 1'
_cell_length_a   3.16290884
_cell_length_b   9.53553997
_cell_length_c   11.18674332
_cell_angle_alpha   90.00000000
_cell_angle_beta   90.00000000
_cell_angle_gamma   90.00000000
_symmetry_Int_Tables_number   1
_chemical_formula_structural   CaSc2O4
_chemical_formula_sum   'Ca4 Sc8 O16'
_cell_volume   337.39266700
_cell_formula_units_Z   4
loop_
 _symmetry_equiv_pos_site_id
 _symmetry_equiv_pos_as_xyz
  1  'x, y, z'
loop_
 _atom_site_type_symbol
 _atom_site_label
 _atom_site_symmetry_multiplicity
 _atom_site_fract_x
 _atom_site_fract_y
 _atom_site_fract_z
 _atom_site_occupancy
  Ca  Ca0  1  0.750000  0.755889  0.652190  1
  Ca  Ca1  1  0.250000  0.244111  0.347810  1
  Ca  Ca2  1  0.750000  0.255889  0.847810  1
  Ca  Ca3  1  0.250000  0.744111  0.152190  1
  Sc  Sc4  1  0.250000  0.080232  0.607133  1
  Sc  Sc5  1  0.750000  0.919768  0.392867  1
  Sc  Sc6  1  0.250000  0.580232  0.892867  1
  Sc  Sc7  1  0.750000  0.419768  0.107133  1
  Sc  Sc8  1  0.750000  0.430155  0.612425  1
  Sc  Sc9  1  0.250000  0.569845  0.387575  1
  Sc  Sc10  1  0.750000  0.930155  0.887575  1
  Sc  Sc11  1  0.250000  0.069845  0.112425  1
  O  O12  1  0.250000  0.080154  0.924640  1
  O  O13  1  0.750000  0.919846  0.075360  1
  O  O14  1  0.250000  0.580154  0.575360  1
  O  O15  1  0.750000  0.419846  0.424640  1
  O  O16  1  0.250000  0.977187  0.284004  1
  O  O17  1  0.750000  0.022813  0.715996  1
  O  O18  1  0.250000  0.477187  0.215996  1
  O  O19  1  0.750000  0.522813  0.784004  1
  O  O20  1  0.250000  0.376867  0.975606  1
  O  O21  1  0.750000  0.623133  0.024394  1
  O  O22  1  0.250000  0.876867  0.524394  1
  O  O23  1  0.750000  0.123133  0.475606  1
  O  O24  1  0.750000  0.207230  0.171513  1
  O  O25  1  0.250000  0.792770  0.828487  1
  O  O26  1  0.750000  0.707230  0.328487  1
  O  O27  1  0.250000  0.292770  0.671513  1
