# generated using pymatgen
data_Th3N4
_symmetry_space_group_name_H-M   'P 1'
_cell_length_a   9.43064259
_cell_length_b   9.43064259
_cell_length_c   9.43064259
_cell_angle_alpha   23.75335966
_cell_angle_beta   23.75335966
_cell_angle_gamma   23.75335966
_symmetry_Int_Tables_number   1
_chemical_formula_structural   Th3N4
_chemical_formula_sum   'Th3 N4'
_cell_volume   119.53824948
_cell_formula_units_Z   1
loop_
 _symmetry_equiv_pos_site_id
 _symmetry_equiv_pos_as_xyz
  1  'x, y, z'
loop_
 _atom_site_type_symbol
 _atom_site_label
 _atom_site_symmetry_multiplicity
 _atom_site_fract_x
 _atom_site_fract_y
 _atom_site_fract_z
 _atom_site_occupancy
  Th  Th0  1  0.000000  0.000000  0.000000  1
  Th  Th1  1  0.778088  0.778088  0.778088  1
  Th  Th2  1  0.221912  0.221912  0.221912  1
  N  N3  1  0.867462  0.867462  0.867462  1
  N  N4  1  0.132538  0.132538  0.132538  1
  N  N5  1  0.623055  0.623055  0.623055  1
  N  N6  1  0.376945  0.376945  0.376945  1
