# generated using pymatgen
data_Al2SiO5
_symmetry_space_group_name_H-M   'P 1'
_cell_length_a   5.81749400
_cell_length_b   7.57317100
_cell_length_c   7.77819300
_cell_angle_alpha   90.00000000
_cell_angle_beta   90.00000000
_cell_angle_gamma   90.00000000
_symmetry_Int_Tables_number   1
_chemical_formula_structural   Al2SiO5
_chemical_formula_sum   'Al8 Si4 O20'
_cell_volume   342.68289114
_cell_formula_units_Z   4
loop_
 _symmetry_equiv_pos_site_id
 _symmetry_equiv_pos_as_xyz
  1  'x, y, z'
loop_
 _atom_site_type_symbol
 _atom_site_label
 _atom_site_symmetry_multiplicity
 _atom_site_fract_x
 _atom_site_fract_y
 _atom_site_fract_z
 _atom_site_occupancy
  Al  Al0  1  0.000000  0.000000  0.000000  1
  Al  Al1  1  0.500000  0.000000  0.000000  1
  Al  Al2  1  0.000000  0.500000  0.500000  1
  Al  Al3  1  0.500000  0.500000  0.500000  1
  Al  Al4  1  0.250000  0.356951  0.846196  1
  Al  Al5  1  0.750000  0.643049  0.153804  1
  Al  Al6  1  0.750000  0.856951  0.653804  1
  Al  Al7  1  0.250000  0.143049  0.346196  1
  Si  Si8  1  0.750000  0.152668  0.341052  1
  Si  Si9  1  0.250000  0.847332  0.658948  1
  Si  Si10  1  0.250000  0.652668  0.158948  1
  Si  Si11  1  0.750000  0.347332  0.841052  1
  O  O12  1  0.013791  0.625465  0.276318  1
  O  O13  1  0.513791  0.374535  0.723682  1
  O  O14  1  0.986209  0.125465  0.223682  1
  O  O15  1  0.486209  0.874535  0.776318  1
  O  O16  1  0.986209  0.374535  0.723682  1
  O  O17  1  0.486209  0.625465  0.276318  1
  O  O18  1  0.013791  0.874535  0.776318  1
  O  O19  1  0.513791  0.125465  0.223682  1
  O  O20  1  0.750000  0.021663  0.501082  1
  O  O21  1  0.250000  0.978337  0.498918  1
  O  O22  1  0.250000  0.521663  0.998918  1
  O  O23  1  0.750000  0.478337  0.001082  1
  O  O24  1  0.750000  0.359285  0.410264  1
  O  O25  1  0.250000  0.640715  0.589736  1
  O  O26  1  0.250000  0.859285  0.089736  1
  O  O27  1  0.750000  0.140715  0.910264  1
  O  O28  1  0.250000  0.357447  0.434402  1
  O  O29  1  0.750000  0.642553  0.565598  1
  O  O30  1  0.750000  0.857447  0.065598  1
  O  O31  1  0.250000  0.142553  0.934402  1
