# generated using pymatgen
data_YSbPt
_symmetry_space_group_name_H-M   'P 1'
_cell_length_a   4.68520462
_cell_length_b   4.68520462
_cell_length_c   4.68520462
_cell_angle_alpha   60.00000000
_cell_angle_beta   60.00000000
_cell_angle_gamma   60.00000000
_symmetry_Int_Tables_number   1
_chemical_formula_structural   YSbPt
_chemical_formula_sum   'Y1 Sb1 Pt1'
_cell_volume   72.72281644
_cell_formula_units_Z   1
loop_
 _symmetry_equiv_pos_site_id
 _symmetry_equiv_pos_as_xyz
  1  'x, y, z'
loop_
 _atom_site_type_symbol
 _atom_site_label
 _atom_site_symmetry_multiplicity
 _atom_site_fract_x
 _atom_site_fract_y
 _atom_site_fract_z
 _atom_site_occupancy
  Y  Y0  1  0.500000  0.500000  0.500000  1
  Sb  Sb1  1  0.000000  0.000000  0.000000  1
  Pt  Pt2  1  0.750000  0.750000  0.750000  1
