# generated using pymatgen
data_Sr3(PO4)2
_symmetry_space_group_name_H-M   'P 1'
_cell_length_a   7.38666329
_cell_length_b   7.38666329
_cell_length_c   7.38666329
_cell_angle_alpha   43.38465427
_cell_angle_beta   43.38465427
_cell_angle_gamma   43.38465427
_symmetry_Int_Tables_number   1
_chemical_formula_structural   Sr3(PO4)2
_chemical_formula_sum   'Sr3 P2 O8'
_cell_volume   172.49871509
_cell_formula_units_Z   1
loop_
 _symmetry_equiv_pos_site_id
 _symmetry_equiv_pos_as_xyz
  1  'x, y, z'
loop_
 _atom_site_type_symbol
 _atom_site_label
 _atom_site_symmetry_multiplicity
 _atom_site_fract_x
 _atom_site_fract_y
 _atom_site_fract_z
 _atom_site_occupancy
  Sr  Sr0  1  0.000000  0.000000  0.000000  1
  Sr  Sr1  1  0.207822  0.207822  0.207822  1
  Sr  Sr2  1  0.792178  0.792178  0.792178  1
  P  P3  1  0.406323  0.406323  0.406323  1
  P  P4  1  0.593677  0.593677  0.593677  1
  O  O5  1  0.329199  0.329199  0.329199  1
  O  O6  1  0.670801  0.670801  0.670801  1
  O  O7  1  0.277033  0.744027  0.277033  1
  O  O8  1  0.277033  0.277033  0.744027  1
  O  O9  1  0.744027  0.277033  0.277033  1
  O  O10  1  0.722967  0.255973  0.722967  1
  O  O11  1  0.722967  0.722967  0.255973  1
  O  O12  1  0.255973  0.722967  0.722967  1
