# generated using pymatgen
data_Sr2GeS4
_symmetry_space_group_name_H-M   'P 1'
_cell_length_a   6.79484941
_cell_length_b   6.77126830
_cell_length_c   8.28602434
_cell_angle_alpha   90.00000000
_cell_angle_beta   107.97041486
_cell_angle_gamma   90.00000000
_symmetry_Int_Tables_number   1
_chemical_formula_structural   Sr2GeS4
_chemical_formula_sum   'Sr4 Ge2 S8'
_cell_volume   362.63956793
_cell_formula_units_Z   2
loop_
 _symmetry_equiv_pos_site_id
 _symmetry_equiv_pos_as_xyz
  1  'x, y, z'
loop_
 _atom_site_type_symbol
 _atom_site_label
 _atom_site_symmetry_multiplicity
 _atom_site_fract_x
 _atom_site_fract_y
 _atom_site_fract_z
 _atom_site_occupancy
  Sr  Sr0  1  0.761743  0.750000  0.565447  1
  Sr  Sr1  1  0.238257  0.250000  0.434553  1
  Sr  Sr2  1  0.722020  0.750000  0.053288  1
  Sr  Sr3  1  0.277980  0.250000  0.946712  1
  Ge  Ge4  1  0.269548  0.750000  0.198124  1
  Ge  Ge5  1  0.730452  0.250000  0.801876  1
  S  S6  1  0.509627  0.502721  0.741471  1
  S  S7  1  0.490373  0.002721  0.258529  1
  S  S8  1  0.490373  0.497279  0.258529  1
  S  S9  1  0.509627  0.997279  0.741471  1
  S  S10  1  0.077497  0.750000  0.373190  1
  S  S11  1  0.922503  0.250000  0.626810  1
  S  S12  1  0.904998  0.250000  0.076885  1
  S  S13  1  0.095002  0.750000  0.923115  1
