# generated using pymatgen
data_Li4GeO4
_symmetry_space_group_name_H-M   'P 1'
_cell_length_a   5.41595250
_cell_length_b   5.41595250
_cell_length_c   6.13836503
_cell_angle_alpha   90.00000000
_cell_angle_beta   90.00000000
_cell_angle_gamma   93.34429950
_symmetry_Int_Tables_number   1
_chemical_formula_structural   Li4GeO4
_chemical_formula_sum   'Li8 Ge2 O8'
_cell_volume   179.74721750
_cell_formula_units_Z   2
loop_
 _symmetry_equiv_pos_site_id
 _symmetry_equiv_pos_as_xyz
  1  'x, y, z'
loop_
 _atom_site_type_symbol
 _atom_site_label
 _atom_site_symmetry_multiplicity
 _atom_site_fract_x
 _atom_site_fract_y
 _atom_site_fract_z
 _atom_site_occupancy
  Li  Li0  1  0.421159  0.125382  0.750000  1
  Li  Li1  1  0.578841  0.874618  0.250000  1
  Li  Li2  1  0.838143  0.161857  0.000000  1
  Li  Li3  1  0.161857  0.838143  0.500000  1
  Li  Li4  1  0.161857  0.838143  0.000000  1
  Li  Li5  1  0.838143  0.161857  0.500000  1
  Li  Li6  1  0.874618  0.578841  0.250000  1
  Li  Li7  1  0.125382  0.421159  0.750000  1
  Ge  Ge8  1  0.661299  0.661299  0.750000  1
  Ge  Ge9  1  0.338701  0.338701  0.250000  1
  O  O10  1  0.655775  0.266826  0.250000  1
  O  O11  1  0.344225  0.733174  0.750000  1
  O  O12  1  0.203708  0.203708  0.007548  1
  O  O13  1  0.796292  0.796292  0.507548  1
  O  O14  1  0.203708  0.203708  0.492452  1
  O  O15  1  0.796292  0.796292  0.992452  1
  O  O16  1  0.266826  0.655775  0.250000  1
  O  O17  1  0.733174  0.344225  0.750000  1
