# generated using pymatgen
data_CoAs3
_symmetry_space_group_name_H-M   'P 1'
_cell_length_a   7.16242042
_cell_length_b   7.16242042
_cell_length_c   7.16242042
_cell_angle_alpha   109.47122063
_cell_angle_beta   109.47122063
_cell_angle_gamma   109.47122063
_symmetry_Int_Tables_number   1
_chemical_formula_structural   CoAs3
_chemical_formula_sum   'Co4 As12'
_cell_volume   282.85088232
_cell_formula_units_Z   4
loop_
 _symmetry_equiv_pos_site_id
 _symmetry_equiv_pos_as_xyz
  1  'x, y, z'
loop_
 _atom_site_type_symbol
 _atom_site_label
 _atom_site_symmetry_multiplicity
 _atom_site_fract_x
 _atom_site_fract_y
 _atom_site_fract_z
 _atom_site_occupancy
  Co  Co0  1  0.500000  0.000000  0.000000  1
  Co  Co1  1  0.000000  0.000000  0.500000  1
  Co  Co2  1  1.000000  0.500000  1.000000  1
  Co  Co3  1  0.500000  0.500000  0.500000  1
  As  As4  1  0.658793  0.810778  0.151985  1
  As  As5  1  0.848015  0.341207  0.189222  1
  As  As6  1  0.658793  0.506808  0.848015  1
  As  As7  1  0.341207  0.493192  0.151985  1
  As  As8  1  0.151985  0.341207  0.493192  1
  As  As9  1  0.810778  0.151985  0.658793  1
  As  As10  1  0.189222  0.848015  0.341207  1
  As  As11  1  0.506808  0.848015  0.658793  1
  As  As12  1  0.848015  0.658793  0.506808  1
  As  As13  1  0.341207  0.189222  0.848015  1
  As  As14  1  0.151985  0.658793  0.810778  1
  As  As15  1  0.493192  0.151985  0.341207  1
