# generated using pymatgen
data_Nd2CuO4
_symmetry_space_group_name_H-M   'P 1'
_cell_length_a   6.78296895
_cell_length_b   6.78296895
_cell_length_c   6.78296895
_cell_angle_alpha   145.93323333
_cell_angle_beta   145.93323333
_cell_angle_gamma   48.94594437
_symmetry_Int_Tables_number   1
_chemical_formula_structural   Nd2CuO4
_chemical_formula_sum   'Nd2 Cu1 O4'
_cell_volume   97.48997758
_cell_formula_units_Z   1
loop_
 _symmetry_equiv_pos_site_id
 _symmetry_equiv_pos_as_xyz
  1  'x, y, z'
loop_
 _atom_site_type_symbol
 _atom_site_label
 _atom_site_symmetry_multiplicity
 _atom_site_fract_x
 _atom_site_fract_y
 _atom_site_fract_z
 _atom_site_occupancy
  Nd  Nd0  1  0.649915  0.649915  0.000000  1
  Nd  Nd1  1  0.350085  0.350085  0.000000  1
  Cu  Cu2  1  0.000000  0.000000  0.000000  1
  O  O3  1  0.750000  0.250000  0.500000  1
  O  O4  1  0.250000  0.750000  0.500000  1
  O  O5  1  0.500000  0.000000  0.500000  1
  O  O6  1  0.000000  0.500000  0.500000  1
