# generated using pymatgen
data_Li2BeF4
_symmetry_space_group_name_H-M   'P 1'
_cell_length_a   8.37445720
_cell_length_b   8.37445720
_cell_length_c   8.37445720
_cell_angle_alpha   107.78321183
_cell_angle_beta   107.78321183
_cell_angle_gamma   107.78321183
_symmetry_Int_Tables_number   1
_chemical_formula_structural   Li2BeF4
_chemical_formula_sum   'Li12 Be6 F24'
_cell_volume   478.28554137
_cell_formula_units_Z   6
loop_
 _symmetry_equiv_pos_site_id
 _symmetry_equiv_pos_as_xyz
  1  'x, y, z'
loop_
 _atom_site_type_symbol
 _atom_site_label
 _atom_site_symmetry_multiplicity
 _atom_site_fract_x
 _atom_site_fract_y
 _atom_site_fract_z
 _atom_site_occupancy
  Li  Li0  1  0.877832  0.099743  0.277018  1
  Li  Li1  1  0.277018  0.877832  0.099743  1
  Li  Li2  1  0.099743  0.277018  0.877832  1
  Li  Li3  1  0.122168  0.900257  0.722982  1
  Li  Li4  1  0.722982  0.122168  0.900257  1
  Li  Li5  1  0.900257  0.722982  0.122168  1
  Li  Li6  1  0.204401  0.438955  0.612434  1
  Li  Li7  1  0.612434  0.204401  0.438955  1
  Li  Li8  1  0.438955  0.612434  0.204401  1
  Li  Li9  1  0.795599  0.561045  0.387566  1
  Li  Li10  1  0.387566  0.795599  0.561045  1
  Li  Li11  1  0.561045  0.387566  0.795599  1
  Be  Be12  1  0.540116  0.764895  0.946876  1
  Be  Be13  1  0.946876  0.540116  0.764895  1
  Be  Be14  1  0.764895  0.946876  0.540116  1
  Be  Be15  1  0.459884  0.235105  0.053124  1
  Be  Be16  1  0.053124  0.459884  0.235105  1
  Be  Be17  1  0.235105  0.053124  0.459884  1
  F  F18  1  0.311151  0.264098  0.599385  1
  F  F19  1  0.264098  0.599385  0.311151  1
  F  F20  1  0.599385  0.311151  0.264098  1
  F  F21  1  0.688849  0.735902  0.400615  1
  F  F22  1  0.735902  0.400615  0.688849  1
  F  F23  1  0.400615  0.688849  0.735902  1
  F  F24  1  0.692048  0.969152  0.024648  1
  F  F25  1  0.024648  0.692048  0.969152  1
  F  F26  1  0.969152  0.024648  0.692048  1
  F  F27  1  0.307952  0.030848  0.975352  1
  F  F28  1  0.975352  0.307952  0.030848  1
  F  F29  1  0.030848  0.975352  0.307952  1
  F  F30  1  0.428915  0.755826  0.066954  1
  F  F31  1  0.066954  0.428915  0.755826  1
  F  F32  1  0.755826  0.066954  0.428915  1
  F  F33  1  0.571085  0.244174  0.933046  1
  F  F34  1  0.933046  0.571085  0.244174  1
  F  F35  1  0.244174  0.933046  0.571085  1
  F  F36  1  0.643543  0.638043  0.964182  1
  F  F37  1  0.964182  0.643543  0.638043  1
  F  F38  1  0.638043  0.964182  0.643543  1
  F  F39  1  0.356457  0.361957  0.035818  1
  F  F40  1  0.035818  0.356457  0.361957  1
  F  F41  1  0.361957  0.035818  0.356457  1
