# generated using pymatgen
data_CaIrO3
_symmetry_space_group_name_H-M   'P 1'
_cell_length_a   5.18882074
_cell_length_b   5.18882074
_cell_length_c   7.38364031
_cell_angle_alpha   90.00000000
_cell_angle_beta   90.00000000
_cell_angle_gamma   143.89810026
_symmetry_Int_Tables_number   1
_chemical_formula_structural   CaIrO3
_chemical_formula_sum   'Ca2 Ir2 O6'
_cell_volume   117.13526530
_cell_formula_units_Z   2
loop_
 _symmetry_equiv_pos_site_id
 _symmetry_equiv_pos_as_xyz
  1  'x, y, z'
loop_
 _atom_site_type_symbol
 _atom_site_label
 _atom_site_symmetry_multiplicity
 _atom_site_fract_x
 _atom_site_fract_y
 _atom_site_fract_z
 _atom_site_occupancy
  Ca  Ca0  1  0.250377  0.749623  0.250000  1
  Ca  Ca1  1  0.749623  0.250377  0.750000  1
  Ir  Ir2  1  0.500000  0.500000  0.500000  1
  Ir  Ir3  1  0.500000  0.500000  0.000000  1
  O  O4  1  0.578264  0.421736  0.250000  1
  O  O5  1  0.421736  0.578264  0.750000  1
  O  O6  1  0.874550  0.125450  0.450315  1
  O  O7  1  0.125450  0.874550  0.549685  1
  O  O8  1  0.874550  0.125450  0.049685  1
  O  O9  1  0.125450  0.874550  0.950315  1
