# generated using pymatgen
data_CaAl4O7
_symmetry_space_group_name_H-M   'P 1'
_cell_length_a   7.88671026
_cell_length_b   7.88671026
_cell_length_c   5.49729110
_cell_angle_alpha   76.63767099
_cell_angle_beta   103.36232901
_cell_angle_gamma   110.71052712
_symmetry_Int_Tables_number   1
_chemical_formula_structural   CaAl4O7
_chemical_formula_sum   'Ca2 Al8 O14'
_cell_volume   306.95744959
_cell_formula_units_Z   2
loop_
 _symmetry_equiv_pos_site_id
 _symmetry_equiv_pos_as_xyz
  1  'x, y, z'
loop_
 _atom_site_type_symbol
 _atom_site_label
 _atom_site_symmetry_multiplicity
 _atom_site_fract_x
 _atom_site_fract_y
 _atom_site_fract_z
 _atom_site_occupancy
  Ca  Ca0  1  0.804812  0.804812  0.250000  1
  Ca  Ca1  1  0.195188  0.195188  0.750000  1
  Al  Al2  1  0.319349  0.560180  0.256109  1
  Al  Al3  1  0.560180  0.319348  0.243891  1
  Al  Al4  1  0.680651  0.439820  0.743891  1
  Al  Al5  1  0.439820  0.680651  0.756109  1
  Al  Al6  1  0.922440  0.248903  0.194278  1
  Al  Al7  1  0.248903  0.922440  0.305722  1
  Al  Al8  1  0.077560  0.751097  0.805722  1
  Al  Al9  1  0.751097  0.077560  0.694278  1
  O  O10  1  0.251557  0.637431  0.920185  1
  O  O11  1  0.637431  0.251557  0.579815  1
  O  O12  1  0.748443  0.362569  0.079815  1
  O  O13  1  0.362569  0.748443  0.420185  1
  O  O14  1  0.135693  0.372260  0.349918  1
  O  O15  1  0.372260  0.135693  0.150082  1
  O  O16  1  0.864307  0.627740  0.650082  1
  O  O17  1  0.627740  0.864307  0.849918  1
  O  O18  1  0.938638  0.169899  0.927603  1
  O  O19  1  0.169899  0.938638  0.572397  1
  O  O20  1  0.468613  0.468613  0.750000  1
  O  O21  1  0.531387  0.531387  0.250000  1
  O  O22  1  0.830101  0.061362  0.427603  1
  O  O23  1  0.061362  0.830101  0.072397  1
