# generated using pymatgen
data_Nb2CuO6
_symmetry_space_group_name_H-M   'P 1'
_cell_length_a   5.24710052
_cell_length_b   5.67929106
_cell_length_c   14.35922951
_cell_angle_alpha   90.00000000
_cell_angle_beta   90.00000000
_cell_angle_gamma   90.00000000
_symmetry_Int_Tables_number   1
_chemical_formula_structural   Nb2CuO6
_chemical_formula_sum   'Nb8 Cu4 O24'
_cell_volume   427.90232660
_cell_formula_units_Z   4
loop_
 _symmetry_equiv_pos_site_id
 _symmetry_equiv_pos_as_xyz
  1  'x, y, z'
loop_
 _atom_site_type_symbol
 _atom_site_label
 _atom_site_symmetry_multiplicity
 _atom_site_fract_x
 _atom_site_fract_y
 _atom_site_fract_z
 _atom_site_occupancy
  Nb  Nb0  1  0.201965  0.316337  0.839883  1
  Nb  Nb1  1  0.798035  0.183663  0.339883  1
  Nb  Nb2  1  0.798035  0.683663  0.160117  1
  Nb  Nb3  1  0.201965  0.816337  0.660117  1
  Nb  Nb4  1  0.298035  0.816337  0.339883  1
  Nb  Nb5  1  0.701965  0.683663  0.839883  1
  Nb  Nb6  1  0.701965  0.183663  0.660117  1
  Nb  Nb7  1  0.298035  0.316337  0.160117  1
  Cu  Cu8  1  0.750000  0.670946  0.500000  1
  Cu  Cu9  1  0.250000  0.829054  0.000000  1
  Cu  Cu10  1  0.250000  0.329054  0.500000  1
  Cu  Cu11  1  0.750000  0.170946  0.000000  1
  O  O12  1  0.528761  0.366241  0.759984  1
  O  O13  1  0.471239  0.133759  0.259984  1
  O  O14  1  0.471239  0.633759  0.240016  1
  O  O15  1  0.528761  0.866241  0.740016  1
  O  O16  1  0.673175  0.414079  0.414559  1
  O  O17  1  0.326825  0.085921  0.914559  1
  O  O18  1  0.326825  0.585921  0.585441  1
  O  O19  1  0.673175  0.914079  0.085441  1
  O  O20  1  0.615289  0.399606  0.092128  1
  O  O21  1  0.384711  0.100394  0.592128  1
  O  O22  1  0.384711  0.600394  0.907872  1
  O  O23  1  0.615289  0.899606  0.407872  1
  O  O24  1  0.884711  0.899606  0.592128  1
  O  O25  1  0.115289  0.600394  0.092128  1
  O  O26  1  0.115289  0.100394  0.407872  1
  O  O27  1  0.884711  0.399606  0.907872  1
  O  O28  1  0.826825  0.914079  0.914559  1
  O  O29  1  0.173175  0.585921  0.414559  1
  O  O30  1  0.173175  0.085921  0.085441  1
  O  O31  1  0.826825  0.414079  0.585441  1
  O  O32  1  0.971239  0.866241  0.259984  1
  O  O33  1  0.028761  0.633759  0.759984  1
  O  O34  1  0.028761  0.133759  0.740016  1
  O  O35  1  0.971239  0.366241  0.240016  1
