# generated using pymatgen
data_Nd3Co13B2
_symmetry_space_group_name_H-M   'P 1'
_cell_length_a   5.07253751
_cell_length_b   5.07253751
_cell_length_c   10.77609834
_cell_angle_alpha   90.00000000
_cell_angle_beta   90.00000000
_cell_angle_gamma   120.00000000
_symmetry_Int_Tables_number   1
_chemical_formula_structural   Nd3Co13B2
_chemical_formula_sum   'Nd3 Co13 B2'
_cell_volume   240.12794902
_cell_formula_units_Z   1
loop_
 _symmetry_equiv_pos_site_id
 _symmetry_equiv_pos_as_xyz
  1  'x, y, z'
loop_
 _atom_site_type_symbol
 _atom_site_label
 _atom_site_symmetry_multiplicity
 _atom_site_fract_x
 _atom_site_fract_y
 _atom_site_fract_z
 _atom_site_occupancy
  Nd  Nd0  1  0.000000  0.000000  0.677225  1
  Nd  Nd1  1  0.000000  0.000000  0.322775  1
  Nd  Nd2  1  0.000000  0.000000  0.000000  1
  Co  Co3  1  0.000000  0.500000  0.865485  1
  Co  Co4  1  0.500000  0.000000  0.500000  1
  Co  Co5  1  0.500000  0.500000  0.500000  1
  Co  Co6  1  0.000000  0.500000  0.500000  1
  Co  Co7  1  0.333333  0.666667  0.318193  1
  Co  Co8  1  0.666667  0.333333  0.318193  1
  Co  Co9  1  0.666667  0.333333  0.681807  1
  Co  Co10  1  0.333333  0.666667  0.681807  1
  Co  Co11  1  0.500000  0.000000  0.134515  1
  Co  Co12  1  0.500000  0.500000  0.134515  1
  Co  Co13  1  0.000000  0.500000  0.134515  1
  Co  Co14  1  0.500000  0.000000  0.865485  1
  Co  Co15  1  0.500000  0.500000  0.865485  1
  B  B16  1  0.666667  0.333333  0.000000  1
  B  B17  1  0.333333  0.666667  0.000000  1
