# generated using pymatgen
data_NaPrTiNbO6F
_symmetry_space_group_name_H-M   'P 1'
_cell_length_a   7.39259058
_cell_length_b   7.39259058
_cell_length_c   10.50183820
_cell_angle_alpha   90.00000000
_cell_angle_beta   90.00000000
_cell_angle_gamma   90.00000000
_symmetry_Int_Tables_number   1
_chemical_formula_structural   NaPrTiNbO6F
_chemical_formula_sum   'Na4 Pr4 Ti4 Nb4 O24 F4'
_cell_volume   573.92961089
_cell_formula_units_Z   4
loop_
 _symmetry_equiv_pos_site_id
 _symmetry_equiv_pos_as_xyz
  1  'x, y, z'
loop_
 _atom_site_type_symbol
 _atom_site_label
 _atom_site_symmetry_multiplicity
 _atom_site_fract_x
 _atom_site_fract_y
 _atom_site_fract_z
 _atom_site_occupancy
  Na  Na0  1  0.500000  0.274016  0.500000  1
  Na  Na1  1  0.500000  0.725984  0.000000  1
  Na  Na2  1  0.725984  0.500000  0.750000  1
  Na  Na3  1  0.274016  0.500000  0.250000  1
  Pr  Pr4  1  0.000000  0.726287  0.000000  1
  Pr  Pr5  1  0.273713  0.000000  0.250000  1
  Pr  Pr6  1  0.000000  0.273713  0.500000  1
  Pr  Pr7  1  0.726287  0.000000  0.750000  1
  Ti  Ti8  1  0.764851  0.000000  0.250000  1
  Ti  Ti9  1  0.000000  0.235149  0.000000  1
  Ti  Ti10  1  0.235149  0.000000  0.750000  1
  Ti  Ti11  1  0.000000  0.764851  0.500000  1
  Nb  Nb12  1  0.243230  0.500000  0.750000  1
  Nb  Nb13  1  0.500000  0.243230  0.000000  1
  Nb  Nb14  1  0.500000  0.756770  0.500000  1
  Nb  Nb15  1  0.756770  0.500000  0.250000  1
  O  O16  1  0.558105  0.947070  0.367989  1
  O  O17  1  0.751440  0.772314  0.571024  1
  O  O18  1  0.958183  0.958183  0.375000  1
  O  O19  1  0.052930  0.441895  0.882011  1
  O  O20  1  0.041817  0.958183  0.625000  1
  O  O21  1  0.041817  0.041817  0.875000  1
  O  O22  1  0.248560  0.227686  0.071024  1
  O  O23  1  0.227686  0.751440  0.821024  1
  O  O24  1  0.227686  0.248560  0.678976  1
  O  O25  1  0.248560  0.772314  0.428976  1
  O  O26  1  0.441895  0.052930  0.867989  1
  O  O27  1  0.437828  0.437828  0.875000  1
  O  O28  1  0.441895  0.947070  0.632011  1
  O  O29  1  0.562172  0.437828  0.125000  1
  O  O30  1  0.558105  0.052930  0.132011  1
  O  O31  1  0.562172  0.562172  0.375000  1
  O  O32  1  0.772314  0.751440  0.178976  1
  O  O33  1  0.751440  0.227686  0.928976  1
  O  O34  1  0.772314  0.248560  0.321024  1
  O  O35  1  0.947070  0.558105  0.382011  1
  O  O36  1  0.958183  0.041817  0.125000  1
  O  O37  1  0.947070  0.441895  0.117989  1
  O  O38  1  0.052930  0.558105  0.617989  1
  O  O39  1  0.437828  0.562172  0.625000  1
  F  F40  1  0.738975  0.261025  0.625000  1
  F  F41  1  0.261025  0.738975  0.125000  1
  F  F42  1  0.738975  0.738975  0.875000  1
  F  F43  1  0.261025  0.261025  0.375000  1
