# generated using pymatgen
data_RbAlF4
_symmetry_space_group_name_H-M   'P 1'
_cell_length_a   6.39693847
_cell_length_b   7.36952172
_cell_length_c   7.37942958
_cell_angle_alpha   90.00000000
_cell_angle_beta   90.00000000
_cell_angle_gamma   90.00000000
_symmetry_Int_Tables_number   1
_chemical_formula_structural   RbAlF4
_chemical_formula_sum   'Rb4 Al4 F16'
_cell_volume   347.88385128
_cell_formula_units_Z   4
loop_
 _symmetry_equiv_pos_site_id
 _symmetry_equiv_pos_as_xyz
  1  'x, y, z'
loop_
 _atom_site_type_symbol
 _atom_site_label
 _atom_site_symmetry_multiplicity
 _atom_site_fract_x
 _atom_site_fract_y
 _atom_site_fract_z
 _atom_site_occupancy
  Rb  Rb0  1  0.519434  0.500000  0.000000  1
  Rb  Rb1  1  0.480566  0.000000  0.500000  1
  Rb  Rb2  1  0.483866  0.000000  0.000000  1
  Rb  Rb3  1  0.516134  0.500000  0.500000  1
  Al  Al4  1  0.000000  0.750000  0.250000  1
  Al  Al5  1  0.000000  0.250000  0.750000  1
  Al  Al6  1  0.000000  0.250000  0.250000  1
  Al  Al7  1  0.000000  0.750000  0.750000  1
  F  F8  1  0.722005  0.767489  0.252791  1
  F  F9  1  0.722005  0.232511  0.747209  1
  F  F10  1  0.277995  0.267489  0.247209  1
  F  F11  1  0.277995  0.732511  0.752791  1
  F  F12  1  0.277995  0.732511  0.247209  1
  F  F13  1  0.277995  0.267489  0.752791  1
  F  F14  1  0.722005  0.232511  0.252791  1
  F  F15  1  0.722005  0.767489  0.747209  1
  F  F16  1  0.007316  0.782957  0.500000  1
  F  F17  1  0.007316  0.217043  0.500000  1
  F  F18  1  0.992684  0.282957  0.000000  1
  F  F19  1  0.992684  0.717043  0.000000  1
  F  F20  1  0.974743  0.500000  0.716976  1
  F  F21  1  0.974743  0.500000  0.283024  1
  F  F22  1  0.025257  0.000000  0.783024  1
  F  F23  1  0.025257  0.000000  0.216976  1
