# generated using pymatgen
data_La4Se3O4
_symmetry_space_group_name_H-M   'P 1'
_cell_length_a   6.96533772
_cell_length_b   6.96533772
_cell_length_c   8.55802033
_cell_angle_alpha   90.00000000
_cell_angle_beta   90.00000000
_cell_angle_gamma   145.61103624
_symmetry_Int_Tables_number   1
_chemical_formula_structural   La4Se3O4
_chemical_formula_sum   'La4 Se3 O4'
_cell_volume   234.50848293
_cell_formula_units_Z   1
loop_
 _symmetry_equiv_pos_site_id
 _symmetry_equiv_pos_as_xyz
  1  'x, y, z'
loop_
 _atom_site_type_symbol
 _atom_site_label
 _atom_site_symmetry_multiplicity
 _atom_site_fract_x
 _atom_site_fract_y
 _atom_site_fract_z
 _atom_site_occupancy
  La  La0  1  0.315145  0.684855  0.761786  1
  La  La1  1  0.315145  0.684855  0.238214  1
  La  La2  1  0.983553  0.016447  0.500000  1
  La  La3  1  0.998167  0.001833  0.000000  1
  Se  Se4  1  0.643031  0.356969  0.351094  1
  Se  Se5  1  0.643031  0.356969  0.648906  1
  Se  Se6  1  0.685785  0.314215  0.000000  1
  O  O7  1  0.386188  0.613812  0.500000  1
  O  O8  1  0.411630  0.588370  1.000000  1
  O  O9  1  0.909768  0.090232  0.755563  1
  O  O10  1  0.909768  0.090232  0.244437  1
