# generated using pymatgen
data_MgGeO3
_symmetry_space_group_name_H-M   'P 1'
_cell_length_a   5.42014571
_cell_length_b   9.07498663
_cell_length_c   19.07442383
_cell_angle_alpha   90.00000000
_cell_angle_beta   90.00000000
_cell_angle_gamma   90.00000000
_symmetry_Int_Tables_number   1
_chemical_formula_structural   MgGeO3
_chemical_formula_sum   'Mg16 Ge16 O48'
_cell_volume   938.22798790
_cell_formula_units_Z   16
loop_
 _symmetry_equiv_pos_site_id
 _symmetry_equiv_pos_as_xyz
  1  'x, y, z'
loop_
 _atom_site_type_symbol
 _atom_site_label
 _atom_site_symmetry_multiplicity
 _atom_site_fract_x
 _atom_site_fract_y
 _atom_site_fract_z
 _atom_site_occupancy
  Mg  Mg0  1  0.647363  0.655740  0.123465  1
  Mg  Mg1  1  0.147363  0.344260  0.376535  1
  Mg  Mg2  1  0.852637  0.155740  0.876535  1
  Mg  Mg3  1  0.352637  0.844260  0.623465  1
  Mg  Mg4  1  0.352637  0.344260  0.876535  1
  Mg  Mg5  1  0.852637  0.655740  0.623465  1
  Mg  Mg6  1  0.147363  0.844260  0.123465  1
  Mg  Mg7  1  0.647363  0.155740  0.376535  1
  Mg  Mg8  1  0.655237  0.511628  0.377712  1
  Mg  Mg9  1  0.155237  0.488372  0.122288  1
  Mg  Mg10  1  0.844763  0.011628  0.622288  1
  Mg  Mg11  1  0.344763  0.988372  0.877712  1
  Mg  Mg12  1  0.344763  0.488372  0.622288  1
  Mg  Mg13  1  0.844763  0.511628  0.877712  1
  Mg  Mg14  1  0.155237  0.988372  0.377712  1
  Mg  Mg15  1  0.655237  0.011628  0.122288  1
  Ge  Ge16  1  0.956852  0.654909  0.270737  1
  Ge  Ge17  1  0.456852  0.345091  0.229263  1
  Ge  Ge18  1  0.543148  0.154909  0.729263  1
  Ge  Ge19  1  0.043148  0.845091  0.770737  1
  Ge  Ge20  1  0.043148  0.345091  0.729263  1
  Ge  Ge21  1  0.543148  0.654909  0.770737  1
  Ge  Ge22  1  0.456852  0.845091  0.270737  1
  Ge  Ge23  1  0.956852  0.154909  0.229263  1
  Ge  Ge24  1  0.194828  0.660113  0.472637  1
  Ge  Ge25  1  0.694828  0.339887  0.027363  1
  Ge  Ge26  1  0.305172  0.160113  0.527363  1
  Ge  Ge27  1  0.805172  0.839887  0.972637  1
  Ge  Ge28  1  0.805172  0.339887  0.527363  1
  Ge  Ge29  1  0.305172  0.660113  0.972637  1
  Ge  Ge30  1  0.694828  0.839887  0.472637  1
  Ge  Ge31  1  0.194828  0.160113  0.027363  1
  O  O32  1  0.372531  0.321805  0.055144  1
  O  O33  1  0.872531  0.678195  0.444856  1
  O  O34  1  0.127469  0.821805  0.944856  1
  O  O35  1  0.627469  0.178195  0.555144  1
  O  O36  1  0.627469  0.678195  0.944856  1
  O  O37  1  0.127469  0.321805  0.555144  1
  O  O38  1  0.872531  0.178195  0.055144  1
  O  O39  1  0.372531  0.821805  0.444856  1
  O  O40  1  0.328415  0.012737  0.070006  1
  O  O41  1  0.828415  0.987263  0.429994  1
  O  O42  1  0.171585  0.512737  0.929994  1
  O  O43  1  0.671585  0.487263  0.570006  1
  O  O44  1  0.671585  0.987263  0.929994  1
  O  O45  1  0.171585  0.012737  0.570006  1
  O  O46  1  0.828415  0.487263  0.070006  1
  O  O47  1  0.328415  0.512737  0.429994  1
  O  O48  1  0.186769  0.161921  0.934891  1
  O  O49  1  0.686769  0.838079  0.565109  1
  O  O50  1  0.313231  0.661921  0.065109  1
  O  O51  1  0.961800  0.986684  0.186723  1
  O  O52  1  0.813231  0.338079  0.434891  1
  O  O53  1  0.313231  0.161921  0.434891  1
  O  O54  1  0.686769  0.338079  0.934891  1
  O  O55  1  0.186769  0.661921  0.565109  1
  O  O56  1  0.158630  0.291717  0.193289  1
  O  O57  1  0.658630  0.708283  0.306711  1
  O  O58  1  0.341370  0.791717  0.806711  1
  O  O59  1  0.841370  0.208283  0.693289  1
  O  O60  1  0.841370  0.708283  0.806711  1
  O  O61  1  0.341370  0.291717  0.693289  1
  O  O62  1  0.658630  0.208283  0.193289  1
  O  O63  1  0.158630  0.791717  0.306711  1
  O  O64  1  0.976901  0.659693  0.179029  1
  O  O65  1  0.476901  0.340307  0.320971  1
  O  O66  1  0.523099  0.159693  0.820971  1
  O  O67  1  0.023099  0.840307  0.679029  1
  O  O68  1  0.023099  0.340307  0.820971  1
  O  O69  1  0.523099  0.659693  0.679029  1
  O  O70  1  0.476901  0.840307  0.179029  1
  O  O71  1  0.976901  0.159693  0.320971  1
  O  O72  1  0.961800  0.486684  0.313277  1
  O  O73  1  0.461800  0.513316  0.186723  1
  O  O74  1  0.538200  0.986684  0.686723  1
  O  O75  1  0.038200  0.013316  0.813277  1
  O  O76  1  0.038200  0.513316  0.686723  1
  O  O77  1  0.538200  0.486684  0.813277  1
  O  O78  1  0.461800  0.013316  0.313277  1
  O  O79  1  0.813231  0.838079  0.065109  1
