# generated using pymatgen
data_Zr2AlN
_symmetry_space_group_name_H-M   'P 1'
_cell_length_a   3.26224137
_cell_length_b   3.26224137
_cell_length_c   14.42791019
_cell_angle_alpha   90.00000000
_cell_angle_beta   90.00000000
_cell_angle_gamma   120.00000000
_symmetry_Int_Tables_number   1
_chemical_formula_structural   Zr2AlN
_chemical_formula_sum   'Zr4 Al2 N2'
_cell_volume   132.97385033
_cell_formula_units_Z   2
loop_
 _symmetry_equiv_pos_site_id
 _symmetry_equiv_pos_as_xyz
  1  'x, y, z'
loop_
 _atom_site_type_symbol
 _atom_site_label
 _atom_site_symmetry_multiplicity
 _atom_site_fract_x
 _atom_site_fract_y
 _atom_site_fract_z
 _atom_site_occupancy
  Zr  Zr0  1  0.333333  0.666667  0.089077  1
  Zr  Zr1  1  0.666667  0.333333  0.589077  1
  Zr  Zr2  1  0.666667  0.333333  0.910923  1
  Zr  Zr3  1  0.333333  0.666667  0.410923  1
  Al  Al4  1  0.333333  0.666667  0.750000  1
  Al  Al5  1  0.666667  0.333333  0.250000  1
  N  N6  1  0.000000  0.000000  0.000000  1
  N  N7  1  0.000000  0.000000  0.500000  1
