# generated using pymatgen
data_Na8Be3Si9(ClO12)2
_symmetry_space_group_name_H-M   'P 1'
_cell_length_a   7.61489753
_cell_length_b   7.61542967
_cell_length_c   12.42015714
_cell_angle_alpha   90.07928717
_cell_angle_beta   90.13043338
_cell_angle_gamma   109.56661837
_symmetry_Int_Tables_number   1
_chemical_formula_structural   Na8Be3Si9(ClO12)2
_chemical_formula_sum   'Na8 Be3 Si9 Cl2 O24'
_cell_volume   678.65760463
_cell_formula_units_Z   1
loop_
 _symmetry_equiv_pos_site_id
 _symmetry_equiv_pos_as_xyz
  1  'x, y, z'
loop_
 _atom_site_type_symbol
 _atom_site_label
 _atom_site_symmetry_multiplicity
 _atom_site_fract_x
 _atom_site_fract_y
 _atom_site_fract_z
 _atom_site_occupancy
  Na  Na0  1  0.171796  0.195786  0.185621  1
  Na  Na1  1  0.673218  0.698429  0.314904  1
  Na  Na2  1  0.692178  0.662627  0.679694  1
  Na  Na3  1  0.531367  0.156625  0.479396  1
  Na  Na4  1  0.152828  0.195387  0.819648  1
  Na  Na5  1  0.123192  0.480891  0.503056  1
  Na  Na6  1  0.020577  0.633420  0.002258  1
  Na  Na7  1  0.634800  0.968898  0.010403  1
  Be  Be8  1  0.370799  0.626200  0.125623  1
  Be  Be9  1  0.872619  0.125731  0.373710  1
  Be  Be10  1  0.003638  0.499299  0.749117  1
  Si  Si11  1  0.619906  0.384007  0.129376  1
  Si  Si12  1  0.002557  0.494952  0.254804  1
  Si  Si13  1  0.122567  0.884512  0.372045  1
  Si  Si14  1  0.503798  0.998662  0.751243  1
  Si  Si15  1  0.122166  0.871187  0.626844  1
  Si  Si16  1  0.638876  0.378318  0.878062  1
  Si  Si17  1  0.873653  0.129114  0.619609  1
  Si  Si18  1  0.501599  0.996040  0.245470  1
  Si  Si19  1  0.368052  0.614574  0.875458  1
  Cl  Cl20  1  0.498157  0.500522  0.501108  1
  Cl  Cl21  1  0.000498  0.996954  0.997591  1
  O  O22  1  0.940031  0.350375  0.352856  1
  O  O23  1  0.844668  0.445187  0.154751  1
  O  O24  1  0.001006  0.701778  0.300770  1
  O  O25  1  0.548968  0.555224  0.149332  1
  O  O26  1  0.453756  0.844525  0.847230  1
  O  O27  1  0.196314  0.507100  0.200000  1
  O  O28  1  0.108003  0.810719  0.499028  1
  O  O29  1  0.349969  0.954062  0.653671  1
  O  O30  1  0.347258  0.947034  0.346401  1
  O  O31  1  0.436476  0.850153  0.148453  1
  O  O32  1  0.049180  0.053592  0.350966  1
  O  O33  1  0.509118  0.197800  0.804043  1
  O  O34  1  0.049157  0.049237  0.647335  1
  O  O35  1  0.702509  0.999954  0.701846  1
  O  O36  1  0.597622  0.303524  0.003099  1
  O  O37  1  0.698563  0.010147  0.297050  1
  O  O38  1  0.799684  0.085422  0.499049  1
  O  O39  1  0.855308  0.447110  0.851251  1
  O  O40  1  0.498456  0.203454  0.202070  1
  O  O41  1  0.940715  0.343853  0.653667  1
  O  O42  1  0.552171  0.545480  0.852370  1
  O  O43  1  0.207957  0.506707  0.792066  1
  O  O44  1  0.308150  0.595634  0.998669  1
  O  O45  1  0.006129  0.699803  0.698997  1
