# generated using pymatgen
data_V2NiS4
_symmetry_space_group_name_H-M   'P 1'
_cell_length_a   6.29195254
_cell_length_b   6.29195254
_cell_length_c   5.85472658
_cell_angle_alpha   65.15002093
_cell_angle_beta   114.84997907
_cell_angle_gamma   150.30834629
_symmetry_Int_Tables_number   1
_chemical_formula_structural   V2NiS4
_chemical_formula_sum   'V2 Ni1 S4'
_cell_volume   103.39055947
_cell_formula_units_Z   1
loop_
 _symmetry_equiv_pos_site_id
 _symmetry_equiv_pos_as_xyz
  1  'x, y, z'
loop_
 _atom_site_type_symbol
 _atom_site_label
 _atom_site_symmetry_multiplicity
 _atom_site_fract_x
 _atom_site_fract_y
 _atom_site_fract_z
 _atom_site_occupancy
  V  V0  1  0.741791  0.258209  0.690905  1
  V  V1  1  0.258209  0.741791  0.309095  1
  Ni  Ni2  1  0.000000  0.000000  0.000000  1
  S  S3  1  0.107292  0.892708  0.446586  1
  S  S4  1  0.361421  0.638579  0.019911  1
  S  S5  1  0.892708  0.107292  0.553414  1
  S  S6  1  0.638579  0.361421  0.980089  1
