# generated using pymatgen
data_Ca2Nd2Nb3FeO14
_symmetry_space_group_name_H-M   'P 1'
_cell_length_a   7.50017716
_cell_length_b   7.40522528
_cell_length_c   12.88358220
_cell_angle_alpha   90.00000000
_cell_angle_beta   125.01862269
_cell_angle_gamma   90.00000000
_symmetry_Int_Tables_number   1
_chemical_formula_structural   Ca2Nd2Nb3FeO14
_chemical_formula_sum   'Ca4 Nd4 Nb6 Fe2 O28'
_cell_volume   586.01951065
_cell_formula_units_Z   2
loop_
 _symmetry_equiv_pos_site_id
 _symmetry_equiv_pos_as_xyz
  1  'x, y, z'
loop_
 _atom_site_type_symbol
 _atom_site_label
 _atom_site_symmetry_multiplicity
 _atom_site_fract_x
 _atom_site_fract_y
 _atom_site_fract_z
 _atom_site_occupancy
  Ca  Ca0  1  0.500000  0.500000  0.500000  1
  Ca  Ca1  1  0.500000  0.742540  0.750000  1
  Ca  Ca2  1  0.500000  0.257460  0.250000  1
  Ca  Ca3  1  0.500000  0.500000  0.000000  1
  Nd  Nd4  1  0.000000  0.257578  0.250000  1
  Nd  Nd5  1  0.000000  0.742422  0.750000  1
  Nd  Nd6  1  0.500000  0.000000  0.500000  1
  Nd  Nd7  1  0.500000  0.000000  0.000000  1
  Nb  Nb8  1  0.000000  0.500000  0.000000  1
  Nb  Nb9  1  0.000000  0.500000  0.500000  1
  Nb  Nb10  1  0.500000  0.761866  0.250000  1
  Nb  Nb11  1  0.000000  0.762876  0.250000  1
  Nb  Nb12  1  0.500000  0.238134  0.750000  1
  Nb  Nb13  1  0.000000  0.237124  0.750000  1
  Fe  Fe14  1  0.000000  0.000000  0.000000  1
  Fe  Fe15  1  0.000000  0.000000  0.500000  1
  O  O16  1  0.321407  0.444575  0.627498  1
  O  O17  1  0.323564  0.755007  0.324489  1
  O  O18  1  0.625979  0.747062  0.626326  1
  O  O19  1  0.932890  0.748090  0.927302  1
  O  O20  1  0.923511  0.952940  0.126077  1
  O  O21  1  0.327463  0.948172  0.123688  1
  O  O22  1  0.076489  0.952940  0.373923  1
  O  O23  1  0.327463  0.051828  0.623688  1
  O  O24  1  0.323564  0.244993  0.824489  1
  O  O25  1  0.067110  0.251910  0.072698  1
  O  O26  1  0.625979  0.252938  0.126326  1
  O  O27  1  0.676436  0.244993  0.675511  1
  O  O28  1  0.932890  0.251910  0.427302  1
  O  O29  1  0.934204  0.446953  0.629495  1
  O  O30  1  0.678593  0.444575  0.872502  1
  O  O31  1  0.065796  0.446953  0.870505  1
  O  O32  1  0.065796  0.553047  0.370505  1
  O  O33  1  0.934204  0.553047  0.129495  1
  O  O34  1  0.321407  0.555425  0.127498  1
  O  O35  1  0.067110  0.748090  0.572698  1
  O  O36  1  0.676436  0.755007  0.175511  1
  O  O37  1  0.374021  0.747062  0.873674  1
  O  O38  1  0.672537  0.948172  0.376312  1
  O  O39  1  0.923511  0.047060  0.626077  1
  O  O40  1  0.672537  0.051828  0.876312  1
  O  O41  1  0.076489  0.047060  0.873923  1
  O  O42  1  0.374021  0.252938  0.373674  1
  O  O43  1  0.678593  0.555425  0.372502  1
