# generated using pymatgen
data_NaS
_symmetry_space_group_name_H-M   'P 1'
_cell_length_a   7.68499090
_cell_length_b   7.68499090
_cell_length_c   5.39098243
_cell_angle_alpha   90.00000000
_cell_angle_beta   90.00000000
_cell_angle_gamma   120.00000000
_symmetry_Int_Tables_number   1
_chemical_formula_structural   NaS
_chemical_formula_sum   'Na6 S6'
_cell_volume   275.73078889
_cell_formula_units_Z   6
loop_
 _symmetry_equiv_pos_site_id
 _symmetry_equiv_pos_as_xyz
  1  'x, y, z'
loop_
 _atom_site_type_symbol
 _atom_site_label
 _atom_site_symmetry_multiplicity
 _atom_site_fract_x
 _atom_site_fract_y
 _atom_site_fract_z
 _atom_site_occupancy
  Na  Na0  1  0.310468  0.000000  0.000000  1
  Na  Na1  1  0.689532  0.689532  0.000000  1
  Na  Na2  1  0.000000  0.310468  0.000000  1
  Na  Na3  1  0.644014  0.000000  0.500000  1
  Na  Na4  1  0.355986  0.355986  0.500000  1
  Na  Na5  1  0.000000  0.644014  0.500000  1
  S  S6  1  0.000000  0.000000  0.301771  1
  S  S7  1  0.000000  0.000000  0.698229  1
  S  S8  1  0.333333  0.666667  0.199757  1
  S  S9  1  0.333333  0.666667  0.800243  1
  S  S10  1  0.666667  0.333333  0.800243  1
  S  S11  1  0.666667  0.333333  0.199757  1
