# generated using pymatgen
data_YbPO4
_symmetry_space_group_name_H-M   'P 1'
_cell_length_a   5.82968760
_cell_length_b   5.82968760
_cell_length_c   5.82968760
_cell_angle_alpha   106.13227660
_cell_angle_beta   106.13227660
_cell_angle_gamma   116.37781368
_symmetry_Int_Tables_number   1
_chemical_formula_structural   YbPO4
_chemical_formula_sum   'Yb2 P2 O8'
_cell_volume   150.83409177
_cell_formula_units_Z   2
loop_
 _symmetry_equiv_pos_site_id
 _symmetry_equiv_pos_as_xyz
  1  'x, y, z'
loop_
 _atom_site_type_symbol
 _atom_site_label
 _atom_site_symmetry_multiplicity
 _atom_site_fract_x
 _atom_site_fract_y
 _atom_site_fract_z
 _atom_site_occupancy
  Yb  Yb0  1  1.000000  1.000000  0.000000  1
  Yb  Yb1  1  0.250000  0.750000  0.500000  1
  P  P2  1  0.750000  0.250000  0.500000  1
  P  P3  1  0.500000  0.500000  0.000000  1
  O  O4  1  0.772652  0.097206  0.675446  1
  O  O5  1  0.347206  0.171760  0.824554  1
  O  O6  1  0.347206  0.522652  0.175446  1
  O  O7  1  0.421760  0.097206  0.324554  1
  O  O8  1  0.902794  0.578240  0.675446  1
  O  O9  1  0.477348  0.652794  0.824554  1
  O  O10  1  0.828240  0.652794  0.175446  1
  O  O11  1  0.902794  0.227348  0.324554  1
