# generated using pymatgen
data_SbPdSe
_symmetry_space_group_name_H-M   'P 1'
_cell_length_a   6.42521397
_cell_length_b   6.42521397
_cell_length_c   6.42521397
_cell_angle_alpha   90.00000000
_cell_angle_beta   90.00000000
_cell_angle_gamma   90.00000000
_symmetry_Int_Tables_number   1
_chemical_formula_structural   SbPdSe
_chemical_formula_sum   'Sb4 Pd4 Se4'
_cell_volume   265.25451495
_cell_formula_units_Z   4
loop_
 _symmetry_equiv_pos_site_id
 _symmetry_equiv_pos_as_xyz
  1  'x, y, z'
loop_
 _atom_site_type_symbol
 _atom_site_label
 _atom_site_symmetry_multiplicity
 _atom_site_fract_x
 _atom_site_fract_y
 _atom_site_fract_z
 _atom_site_occupancy
  Sb  Sb0  1  0.873575  0.626425  0.373575  1
  Sb  Sb1  1  0.373575  0.873575  0.626425  1
  Sb  Sb2  1  0.126425  0.126425  0.126425  1
  Sb  Sb3  1  0.626425  0.373575  0.873575  1
  Pd  Pd4  1  0.746666  0.246666  0.253334  1
  Pd  Pd5  1  0.246666  0.253334  0.746666  1
  Pd  Pd6  1  0.253334  0.746666  0.246666  1
  Pd  Pd7  1  0.753334  0.753334  0.753334  1
  Se  Se8  1  0.367713  0.367713  0.367713  1
  Se  Se9  1  0.132287  0.632287  0.867713  1
  Se  Se10  1  0.867713  0.132287  0.632287  1
  Se  Se11  1  0.632287  0.867713  0.132287  1
