# generated using pymatgen
data_K2NbF7
_symmetry_space_group_name_H-M   'P 1'
_cell_length_a   5.95572570
_cell_length_b   12.91753938
_cell_length_c   8.72375547
_cell_angle_alpha   90.00000000
_cell_angle_beta   90.28844392
_cell_angle_gamma   90.00000000
_symmetry_Int_Tables_number   1
_chemical_formula_structural   K2NbF7
_chemical_formula_sum   'K8 Nb4 F28'
_cell_volume   671.13897807
_cell_formula_units_Z   4
loop_
 _symmetry_equiv_pos_site_id
 _symmetry_equiv_pos_as_xyz
  1  'x, y, z'
loop_
 _atom_site_type_symbol
 _atom_site_label
 _atom_site_symmetry_multiplicity
 _atom_site_fract_x
 _atom_site_fract_y
 _atom_site_fract_z
 _atom_site_occupancy
  K  K0  1  0.762280  0.784578  0.946480  1
  K  K1  1  0.237720  0.284578  0.553520  1
  K  K2  1  0.237720  0.215422  0.053520  1
  K  K3  1  0.762280  0.715422  0.446480  1
  K  K4  1  0.238163  0.941398  0.680907  1
  K  K5  1  0.761837  0.441398  0.819093  1
  K  K6  1  0.761837  0.058602  0.319093  1
  K  K7  1  0.238163  0.558602  0.180907  1
  Nb  Nb8  1  0.270001  0.629187  0.724315  1
  Nb  Nb9  1  0.729999  0.129187  0.775685  1
  Nb  Nb10  1  0.729999  0.370813  0.275685  1
  Nb  Nb11  1  0.270001  0.870813  0.224315  1
  F  F12  1  0.557399  0.578843  0.632868  1
  F  F13  1  0.442601  0.078843  0.867132  1
  F  F14  1  0.442601  0.421157  0.367132  1
  F  F15  1  0.557399  0.921157  0.132868  1
  F  F16  1  0.182025  0.621388  0.506549  1
  F  F17  1  0.817975  0.121388  0.993451  1
  F  F18  1  0.817975  0.378612  0.493451  1
  F  F19  1  0.182025  0.878612  0.006549  1
  F  F20  1  0.210364  0.478070  0.716672  1
  F  F21  1  0.789636  0.978070  0.783328  1
  F  F22  1  0.789636  0.521930  0.283328  1
  F  F23  1  0.210364  0.021930  0.216672  1
  F  F24  1  0.043303  0.755853  0.201254  1
  F  F25  1  0.956697  0.255853  0.298746  1
  F  F26  1  0.956697  0.244147  0.798746  1
  F  F27  1  0.043303  0.744147  0.701254  1
  F  F28  1  0.456797  0.741881  0.213228  1
  F  F29  1  0.543203  0.241881  0.286772  1
  F  F30  1  0.543203  0.258119  0.786772  1
  F  F31  1  0.456797  0.758119  0.713228  1
  F  F32  1  0.042935  0.892022  0.390808  1
  F  F33  1  0.957065  0.392022  0.109192  1
  F  F34  1  0.957065  0.107978  0.609192  1
  F  F35  1  0.042935  0.607978  0.890808  1
  F  F36  1  0.462220  0.890052  0.411205  1
  F  F37  1  0.537780  0.390052  0.088795  1
  F  F38  1  0.537780  0.109948  0.588795  1
  F  F39  1  0.462220  0.609948  0.911205  1
