# generated using pymatgen
data_Ce(TeO3)2
_symmetry_space_group_name_H-M   'P 1'
_cell_length_a   7.12645200
_cell_length_b   11.33018497
_cell_length_c   8.60851087
_cell_angle_alpha   90.00000000
_cell_angle_beta   124.69009763
_cell_angle_gamma   90.00000000
_symmetry_Int_Tables_number   1
_chemical_formula_structural   Ce(TeO3)2
_chemical_formula_sum   'Ce4 Te8 O24'
_cell_volume   571.52900185
_cell_formula_units_Z   4
loop_
 _symmetry_equiv_pos_site_id
 _symmetry_equiv_pos_as_xyz
  1  'x, y, z'
loop_
 _atom_site_type_symbol
 _atom_site_label
 _atom_site_symmetry_multiplicity
 _atom_site_fract_x
 _atom_site_fract_y
 _atom_site_fract_z
 _atom_site_occupancy
  Ce  Ce0  1  0.261395  0.408603  0.501487  1
  Ce  Ce1  1  0.738605  0.908603  0.998513  1
  Ce  Ce2  1  0.738605  0.591397  0.498513  1
  Ce  Ce3  1  0.261395  0.091397  0.001487  1
  Te  Te4  1  0.267747  0.081425  0.540721  1
  Te  Te5  1  0.732253  0.581425  0.959279  1
  Te  Te6  1  0.732253  0.918575  0.459279  1
  Te  Te7  1  0.267747  0.418575  0.040721  1
  Te  Te8  1  0.810924  0.223613  0.069112  1
  Te  Te9  1  0.189076  0.723613  0.430888  1
  Te  Te10  1  0.189076  0.776387  0.930888  1
  Te  Te11  1  0.810924  0.276387  0.569112  1
  O  O12  1  0.438497  0.224286  0.624186  1
  O  O13  1  0.561503  0.724286  0.875814  1
  O  O14  1  0.561503  0.775714  0.375814  1
  O  O15  1  0.438497  0.275714  0.124186  1
  O  O16  1  0.136157  0.402530  0.182468  1
  O  O17  1  0.863843  0.902530  0.317532  1
  O  O18  1  0.863843  0.597470  0.817532  1
  O  O19  1  0.136157  0.097470  0.682468  1
  O  O20  1  0.478425  0.477987  0.795927  1
  O  O21  1  0.521575  0.977987  0.704073  1
  O  O22  1  0.521575  0.522013  0.204073  1
  O  O23  1  0.478425  0.022013  0.295927  1
  O  O24  1  0.974297  0.253229  0.834981  1
  O  O25  1  0.025703  0.753229  0.665019  1
  O  O26  1  0.025703  0.746771  0.165019  1
  O  O27  1  0.974297  0.246771  0.334981  1
  O  O28  1  0.005974  0.401546  0.590469  1
  O  O29  1  0.994026  0.901546  0.909531  1
  O  O30  1  0.994026  0.598454  0.409531  1
  O  O31  1  0.005974  0.098454  0.090469  1
  O  O32  1  0.612003  0.402395  0.539808  1
  O  O33  1  0.387997  0.902395  0.960192  1
  O  O34  1  0.387997  0.597605  0.460192  1
  O  O35  1  0.612003  0.097605  0.039808  1
