# generated using pymatgen
data_ThTi2O6
_symmetry_space_group_name_H-M   'P 1'
_cell_length_a   6.95288403
_cell_length_b   6.95288403
_cell_length_c   5.23574566
_cell_angle_alpha   70.74364596
_cell_angle_beta   109.25635404
_cell_angle_gamma   103.11262428
_symmetry_Int_Tables_number   1
_chemical_formula_structural   ThTi2O6
_chemical_formula_sum   'Th2 Ti4 O12'
_cell_volume   223.59073382
_cell_formula_units_Z   2
loop_
 _symmetry_equiv_pos_site_id
 _symmetry_equiv_pos_as_xyz
  1  'x, y, z'
loop_
 _atom_site_type_symbol
 _atom_site_label
 _atom_site_symmetry_multiplicity
 _atom_site_fract_x
 _atom_site_fract_y
 _atom_site_fract_z
 _atom_site_occupancy
  Th  Th0  1  0.188621  0.188621  0.750000  1
  Th  Th1  1  0.811379  0.811379  0.250000  1
  Ti  Ti2  1  0.351365  0.811898  0.559651  1
  Ti  Ti3  1  0.811898  0.351365  0.940349  1
  Ti  Ti4  1  0.648635  0.188102  0.440349  1
  Ti  Ti5  1  0.188101  0.648635  0.059651  1
  O  O6  1  0.398430  0.117423  0.534334  1
  O  O7  1  0.117423  0.398430  0.965666  1
  O  O8  1  0.601570  0.882577  0.465666  1
  O  O9  1  0.882577  0.601570  0.034334  1
  O  O10  1  0.450229  0.729116  0.966773  1
  O  O11  1  0.729116  0.450229  0.533227  1
  O  O12  1  0.905757  0.177940  0.348900  1
  O  O13  1  0.177940  0.905757  0.151100  1
  O  O14  1  0.094243  0.822060  0.651100  1
  O  O15  1  0.822060  0.094243  0.848900  1
  O  O16  1  0.270884  0.549771  0.466773  1
  O  O17  1  0.549771  0.270884  0.033227  1
