# generated using pymatgen
data_ZnC2S2(OF)6
_symmetry_space_group_name_H-M   'P 1'
_cell_length_a   10.90774371
_cell_length_b   10.90774371
_cell_length_c   10.90774371
_cell_angle_alpha   26.92081014
_cell_angle_beta   26.92081014
_cell_angle_gamma   26.92081014
_symmetry_Int_Tables_number   1
_chemical_formula_structural   ZnC2S2(OF)6
_chemical_formula_sum   'Zn1 C2 S2 O6 F6'
_cell_volume   234.62734610
_cell_formula_units_Z   1
loop_
 _symmetry_equiv_pos_site_id
 _symmetry_equiv_pos_as_xyz
  1  'x, y, z'
loop_
 _atom_site_type_symbol
 _atom_site_label
 _atom_site_symmetry_multiplicity
 _atom_site_fract_x
 _atom_site_fract_y
 _atom_site_fract_z
 _atom_site_occupancy
  Zn  Zn0  1  0.000000  0.000000  0.000000  1
  C  C1  1  0.223068  0.223068  0.223068  1
  C  C2  1  0.776932  0.776932  0.776932  1
  S  S3  1  0.282586  0.282586  0.282586  1
  S  S4  1  0.717414  0.717414  0.717414  1
  O  O5  1  0.406880  0.750228  0.961824  1
  O  O6  1  0.961824  0.406880  0.750228  1
  O  O7  1  0.750228  0.961824  0.406880  1
  O  O8  1  0.249772  0.038176  0.593120  1
  O  O9  1  0.038176  0.593120  0.249772  1
  O  O10  1  0.593120  0.249772  0.038176  1
  F  F11  1  0.229703  0.447734  0.948729  1
  F  F12  1  0.948729  0.229703  0.447734  1
  F  F13  1  0.447734  0.948729  0.229703  1
  F  F14  1  0.552266  0.051271  0.770297  1
  F  F15  1  0.051271  0.770297  0.552266  1
  F  F16  1  0.770297  0.552266  0.051271  1
