# generated using pymatgen
data_NdTaO4
_symmetry_space_group_name_H-M   'P 1'
_cell_length_a   6.75122037
_cell_length_b   6.75122037
_cell_length_c   5.17513619
_cell_angle_alpha   69.82768532
_cell_angle_beta   110.17231468
_cell_angle_gamma   64.68993817
_symmetry_Int_Tables_number   1
_chemical_formula_structural   NdTaO4
_chemical_formula_sum   'Nd2 Ta2 O8'
_cell_volume   163.03124378
_cell_formula_units_Z   2
loop_
 _symmetry_equiv_pos_site_id
 _symmetry_equiv_pos_as_xyz
  1  'x, y, z'
loop_
 _atom_site_type_symbol
 _atom_site_label
 _atom_site_symmetry_multiplicity
 _atom_site_fract_x
 _atom_site_fract_y
 _atom_site_fract_z
 _atom_site_occupancy
  Nd  Nd0  1  0.631512  0.631512  0.250000  1
  Nd  Nd1  1  0.368488  0.368488  0.750000  1
  Ta  Ta2  1  0.099654  0.099654  0.250000  1
  Ta  Ta3  1  0.900346  0.900346  0.750000  1
  O  O4  1  0.269552  0.794216  0.700169  1
  O  O5  1  0.794216  0.269552  0.799831  1
  O  O6  1  0.730448  0.205784  0.299831  1
  O  O7  1  0.205784  0.730448  0.200169  1
  O  O8  1  0.055291  0.356003  0.340935  1
  O  O9  1  0.356003  0.055291  0.159065  1
  O  O10  1  0.944709  0.643997  0.659065  1
  O  O11  1  0.643997  0.944709  0.840935  1
