# generated using pymatgen
data_BMo2C
_symmetry_space_group_name_H-M   'P 1'
_cell_length_a   8.90755562
_cell_length_b   8.90755562
_cell_length_c   3.07699773
_cell_angle_alpha   90.00000000
_cell_angle_beta   90.00000000
_cell_angle_gamma   159.85748322
_symmetry_Int_Tables_number   1
_chemical_formula_structural   BMo2C
_chemical_formula_sum   'B2 Mo4 C2'
_cell_volume   84.07221673
_cell_formula_units_Z   2
loop_
 _symmetry_equiv_pos_site_id
 _symmetry_equiv_pos_as_xyz
  1  'x, y, z'
loop_
 _atom_site_type_symbol
 _atom_site_label
 _atom_site_symmetry_multiplicity
 _atom_site_fract_x
 _atom_site_fract_y
 _atom_site_fract_z
 _atom_site_occupancy
  B  B0  1  0.527947  0.472053  0.750000  1
  B  B1  1  0.472053  0.527947  0.250000  1
  Mo  Mo2  1  0.314540  0.685461  0.250000  1
  Mo  Mo3  1  0.685461  0.314539  0.750000  1
  Mo  Mo4  1  0.071888  0.928112  0.250000  1
  Mo  Mo5  1  0.928112  0.071888  0.750000  1
  C  C6  1  0.808778  0.191222  0.750000  1
  C  C7  1  0.191222  0.808778  0.250000  1
