# generated using pymatgen
data_BaCeO3
_symmetry_space_group_name_H-M   'P 1'
_cell_length_a   6.25848888
_cell_length_b   6.25848888
_cell_length_c   6.25848888
_cell_angle_alpha   60.59526641
_cell_angle_beta   60.59526641
_cell_angle_gamma   60.59526641
_symmetry_Int_Tables_number   1
_chemical_formula_structural   BaCeO3
_chemical_formula_sum   'Ba2 Ce2 O6'
_cell_volume   175.66832202
_cell_formula_units_Z   2
loop_
 _symmetry_equiv_pos_site_id
 _symmetry_equiv_pos_as_xyz
  1  'x, y, z'
loop_
 _atom_site_type_symbol
 _atom_site_label
 _atom_site_symmetry_multiplicity
 _atom_site_fract_x
 _atom_site_fract_y
 _atom_site_fract_z
 _atom_site_occupancy
  Ba  Ba0  1  0.750000  0.750000  0.750000  1
  Ba  Ba1  1  0.250000  0.250000  0.250000  1
  Ce  Ce2  1  0.000000  0.000000  0.000000  1
  Ce  Ce3  1  0.500000  0.500000  0.500000  1
  O  O4  1  0.318217  0.750000  0.181783  1
  O  O5  1  0.750000  0.181783  0.318217  1
  O  O6  1  0.181783  0.318217  0.750000  1
  O  O7  1  0.681783  0.250000  0.818217  1
  O  O8  1  0.818217  0.681783  0.250000  1
  O  O9  1  0.250000  0.818217  0.681783  1
