# generated using pymatgen
data_Sc(AlC)3
_symmetry_space_group_name_H-M   'P 1'
_cell_length_a   3.36162118
_cell_length_b   3.36162118
_cell_length_c   16.78963280
_cell_angle_alpha   90.00000000
_cell_angle_beta   90.00000000
_cell_angle_gamma   120.00000000
_symmetry_Int_Tables_number   1
_chemical_formula_structural   Sc(AlC)3
_chemical_formula_sum   'Sc2 Al6 C6'
_cell_volume   164.31203423
_cell_formula_units_Z   2
loop_
 _symmetry_equiv_pos_site_id
 _symmetry_equiv_pos_as_xyz
  1  'x, y, z'
loop_
 _atom_site_type_symbol
 _atom_site_label
 _atom_site_symmetry_multiplicity
 _atom_site_fract_x
 _atom_site_fract_y
 _atom_site_fract_z
 _atom_site_occupancy
  Sc  Sc0  1  0.000000  0.000000  0.000000  1
  Sc  Sc1  1  0.000000  0.000000  0.500000  1
  Al  Al2  1  0.333333  0.666667  0.129053  1
  Al  Al3  1  0.666667  0.333333  0.870947  1
  Al  Al4  1  0.333333  0.666667  0.750000  1
  Al  Al5  1  0.333333  0.666667  0.370947  1
  Al  Al6  1  0.666667  0.333333  0.629053  1
  Al  Al7  1  0.666667  0.333333  0.250000  1
  C  C8  1  0.666667  0.333333  0.086583  1
  C  C9  1  0.666667  0.333333  0.750000  1
  C  C10  1  0.333333  0.666667  0.250000  1
  C  C11  1  0.333333  0.666667  0.913417  1
  C  C12  1  0.666667  0.333333  0.413417  1
  C  C13  1  0.333333  0.666667  0.586583  1
