# generated using pymatgen
data_CuSe
_symmetry_space_group_name_H-M   'P 1'
_cell_length_a   4.02084906
_cell_length_b   4.02084906
_cell_length_c   17.48459232
_cell_angle_alpha   90.00000000
_cell_angle_beta   90.00000000
_cell_angle_gamma   120.00000000
_symmetry_Int_Tables_number   1
_chemical_formula_structural   CuSe
_chemical_formula_sum   'Cu6 Se6'
_cell_volume   244.80578856
_cell_formula_units_Z   6
loop_
 _symmetry_equiv_pos_site_id
 _symmetry_equiv_pos_as_xyz
  1  'x, y, z'
loop_
 _atom_site_type_symbol
 _atom_site_label
 _atom_site_symmetry_multiplicity
 _atom_site_fract_x
 _atom_site_fract_y
 _atom_site_fract_z
 _atom_site_occupancy
  Cu  Cu0  1  0.333333  0.666667  0.750000  1
  Cu  Cu1  1  0.666667  0.333333  0.250000  1
  Cu  Cu2  1  0.333333  0.666667  0.107737  1
  Cu  Cu3  1  0.666667  0.333333  0.607737  1
  Cu  Cu4  1  0.666667  0.333333  0.892263  1
  Cu  Cu5  1  0.333333  0.666667  0.392263  1
  Se  Se6  1  0.333333  0.666667  0.250000  1
  Se  Se7  1  0.666667  0.333333  0.750000  1
  Se  Se8  1  0.000000  0.000000  0.069457  1
  Se  Se9  1  0.000000  0.000000  0.569457  1
  Se  Se10  1  0.000000  0.000000  0.930543  1
  Se  Se11  1  0.000000  0.000000  0.430543  1
