# generated using pymatgen
data_Tl(NiSe)2
_symmetry_space_group_name_H-M   'P 1'
_cell_length_a   7.27059365
_cell_length_b   7.27059365
_cell_length_c   7.27059365
_cell_angle_alpha   148.95691936
_cell_angle_beta   148.95691936
_cell_angle_gamma   44.47472251
_symmetry_Int_Tables_number   1
_chemical_formula_structural   Tl(NiSe)2
_chemical_formula_sum   'Tl1 Ni2 Se2'
_cell_volume   101.90101129
_cell_formula_units_Z   1
loop_
 _symmetry_equiv_pos_site_id
 _symmetry_equiv_pos_as_xyz
  1  'x, y, z'
loop_
 _atom_site_type_symbol
 _atom_site_label
 _atom_site_symmetry_multiplicity
 _atom_site_fract_x
 _atom_site_fract_y
 _atom_site_fract_z
 _atom_site_occupancy
  Tl  Tl0  1  0.000000  0.000000  0.000000  1
  Ni  Ni1  1  0.750000  0.250000  0.500000  1
  Ni  Ni2  1  0.250000  0.750000  0.500000  1
  Se  Se3  1  0.649259  0.649259  0.000000  1
  Se  Se4  1  0.350741  0.350741  0.000000  1
