# generated using pymatgen
data_Yb2CdPd2
_symmetry_space_group_name_H-M   'P 1'
_cell_length_a   7.49467553
_cell_length_b   7.49467553
_cell_length_c   3.94656541
_cell_angle_alpha   90.00000000
_cell_angle_beta   90.00000000
_cell_angle_gamma   90.00000000
_symmetry_Int_Tables_number   1
_chemical_formula_structural   Yb2CdPd2
_chemical_formula_sum   'Yb4 Cd2 Pd4'
_cell_volume   221.67921566
_cell_formula_units_Z   2
loop_
 _symmetry_equiv_pos_site_id
 _symmetry_equiv_pos_as_xyz
  1  'x, y, z'
loop_
 _atom_site_type_symbol
 _atom_site_label
 _atom_site_symmetry_multiplicity
 _atom_site_fract_x
 _atom_site_fract_y
 _atom_site_fract_z
 _atom_site_occupancy
  Yb  Yb0  1  0.333822  0.833822  0.500000  1
  Yb  Yb1  1  0.833822  0.666178  0.500000  1
  Yb  Yb2  1  0.166178  0.333822  0.500000  1
  Yb  Yb3  1  0.666178  0.166178  0.500000  1
  Cd  Cd4  1  0.000000  0.000000  0.000000  1
  Cd  Cd5  1  0.500000  0.500000  0.000000  1
  Pd  Pd6  1  0.366068  0.133932  0.000000  1
  Pd  Pd7  1  0.866068  0.366068  0.000000  1
  Pd  Pd8  1  0.133932  0.633932  0.000000  1
  Pd  Pd9  1  0.633932  0.866068  0.000000  1
