# generated using pymatgen
data_LiSbO3
_symmetry_space_group_name_H-M   'P 1'
_cell_length_a   4.99198806
_cell_length_b   5.27028174
_cell_length_c   8.60878747
_cell_angle_alpha   90.00000000
_cell_angle_beta   90.00000000
_cell_angle_gamma   90.00000000
_symmetry_Int_Tables_number   1
_chemical_formula_structural   LiSbO3
_chemical_formula_sum   'Li4 Sb4 O12'
_cell_volume   226.49016942
_cell_formula_units_Z   4
loop_
 _symmetry_equiv_pos_site_id
 _symmetry_equiv_pos_as_xyz
  1  'x, y, z'
loop_
 _atom_site_type_symbol
 _atom_site_label
 _atom_site_symmetry_multiplicity
 _atom_site_fract_x
 _atom_site_fract_y
 _atom_site_fract_z
 _atom_site_occupancy
  Li  Li0  1  0.000000  0.750000  0.694219  1
  Li  Li1  1  0.500000  0.750000  0.805781  1
  Li  Li2  1  0.000000  0.250000  0.305781  1
  Li  Li3  1  0.500000  0.250000  0.194219  1
  Sb  Sb4  1  0.000000  0.750000  0.094665  1
  Sb  Sb5  1  0.500000  0.250000  0.594665  1
  Sb  Sb6  1  0.000000  0.250000  0.905335  1
  Sb  Sb7  1  0.500000  0.750000  0.405335  1
  O  O8  1  0.704965  0.575590  0.581726  1
  O  O9  1  0.795035  0.575590  0.918274  1
  O  O10  1  0.295035  0.924410  0.581726  1
  O  O11  1  0.250000  0.409153  0.750000  1
  O  O12  1  0.750000  0.590847  0.250000  1
  O  O13  1  0.250000  0.909153  0.250000  1
  O  O14  1  0.795035  0.075590  0.081726  1
  O  O15  1  0.750000  0.090847  0.750000  1
  O  O16  1  0.204965  0.424410  0.081726  1
  O  O17  1  0.295035  0.424410  0.418274  1
  O  O18  1  0.704965  0.075590  0.418274  1
  O  O19  1  0.204965  0.924410  0.918274  1
