# generated using pymatgen
data_Ba(NO3)2
_symmetry_space_group_name_H-M   'P 1'
_cell_length_a   8.29526906
_cell_length_b   8.29526906
_cell_length_c   8.29526906
_cell_angle_alpha   90.00000000
_cell_angle_beta   90.00000000
_cell_angle_gamma   90.00000000
_symmetry_Int_Tables_number   1
_chemical_formula_structural   Ba(NO3)2
_chemical_formula_sum   'Ba4 N8 O24'
_cell_volume   570.80981383
_cell_formula_units_Z   4
loop_
 _symmetry_equiv_pos_site_id
 _symmetry_equiv_pos_as_xyz
  1  'x, y, z'
loop_
 _atom_site_type_symbol
 _atom_site_label
 _atom_site_symmetry_multiplicity
 _atom_site_fract_x
 _atom_site_fract_y
 _atom_site_fract_z
 _atom_site_occupancy
  Ba  Ba0  1  0.000000  0.500000  0.500000  1
  Ba  Ba1  1  0.500000  0.500000  0.000000  1
  Ba  Ba2  1  0.500000  0.000000  0.500000  1
  Ba  Ba3  1  0.000000  0.000000  0.000000  1
  N  N4  1  0.344493  0.344493  0.344493  1
  N  N5  1  0.344493  0.155507  0.844493  1
  N  N6  1  0.155507  0.844493  0.344493  1
  N  N7  1  0.844493  0.344493  0.155507  1
  N  N8  1  0.655507  0.655507  0.655507  1
  N  N9  1  0.155507  0.655507  0.844493  1
  N  N10  1  0.844493  0.155507  0.655507  1
  N  N11  1  0.655507  0.844493  0.155507  1
  O  O12  1  0.779076  0.285070  0.030662  1
  O  O13  1  0.214930  0.969338  0.279076  1
  O  O14  1  0.220924  0.785070  0.469338  1
  O  O15  1  0.279076  0.214930  0.969338  1
  O  O16  1  0.279076  0.285070  0.469338  1
  O  O17  1  0.469338  0.279076  0.285070  1
  O  O18  1  0.285070  0.469338  0.279076  1
  O  O19  1  0.214930  0.530662  0.779076  1
  O  O20  1  0.969338  0.220924  0.714930  1
  O  O21  1  0.714930  0.969338  0.220924  1
  O  O22  1  0.030662  0.720924  0.785070  1
  O  O23  1  0.530662  0.779076  0.214930  1
  O  O24  1  0.785070  0.030662  0.720924  1
  O  O25  1  0.779076  0.214930  0.530662  1
  O  O26  1  0.720924  0.785070  0.030662  1
  O  O27  1  0.220924  0.714930  0.969338  1
  O  O28  1  0.720924  0.714930  0.530662  1
  O  O29  1  0.530662  0.720924  0.714930  1
  O  O30  1  0.714930  0.530662  0.720924  1
  O  O31  1  0.785070  0.469338  0.220924  1
  O  O32  1  0.030662  0.779076  0.285070  1
  O  O33  1  0.285070  0.030662  0.779076  1
  O  O34  1  0.969338  0.279076  0.214930  1
  O  O35  1  0.469338  0.220924  0.785070  1
