# generated using pymatgen
data_Pr(Sb3Os)4
_symmetry_space_group_name_H-M   'P 1'
_cell_length_a   8.16020773
_cell_length_b   8.16020773
_cell_length_c   8.16020773
_cell_angle_alpha   109.47122063
_cell_angle_beta   109.47122063
_cell_angle_gamma   109.47122063
_symmetry_Int_Tables_number   1
_chemical_formula_structural   Pr(Sb3Os)4
_chemical_formula_sum   'Pr1 Sb12 Os4'
_cell_volume   418.29411326
_cell_formula_units_Z   1
loop_
 _symmetry_equiv_pos_site_id
 _symmetry_equiv_pos_as_xyz
  1  'x, y, z'
loop_
 _atom_site_type_symbol
 _atom_site_label
 _atom_site_symmetry_multiplicity
 _atom_site_fract_x
 _atom_site_fract_y
 _atom_site_fract_z
 _atom_site_occupancy
  Pr  Pr0  1  0.000000  0.000000  0.000000  1
  Sb  Sb1  1  0.503233  0.842918  0.660315  1
  Sb  Sb2  1  0.182604  0.842918  0.339685  1
  Sb  Sb3  1  0.817396  0.157082  0.660315  1
  Sb  Sb4  1  0.157082  0.339685  0.496767  1
  Sb  Sb5  1  0.339685  0.496767  0.157082  1
  Sb  Sb6  1  0.496767  0.157082  0.339685  1
  Sb  Sb7  1  0.157082  0.660315  0.817396  1
  Sb  Sb8  1  0.339685  0.182604  0.842918  1
  Sb  Sb9  1  0.842918  0.660315  0.503233  1
  Sb  Sb10  1  0.660315  0.817396  0.157082  1
  Sb  Sb11  1  0.842918  0.339685  0.182604  1
  Sb  Sb12  1  0.660315  0.503233  0.842918  1
  Os  Os13  1  0.000000  0.000000  0.500000  1
  Os  Os14  1  0.000000  0.500000  0.000000  1
  Os  Os15  1  0.500000  0.500000  0.500000  1
  Os  Os16  1  0.500000  0.000000  0.000000  1
