# generated using pymatgen
data_Al7FeCu2
_symmetry_space_group_name_H-M   'P 1'
_cell_length_a   6.31984347
_cell_length_b   6.31984347
_cell_length_c   14.76900956
_cell_angle_alpha   90.00000000
_cell_angle_beta   90.00000000
_cell_angle_gamma   90.00000000
_symmetry_Int_Tables_number   1
_chemical_formula_structural   Al7FeCu2
_chemical_formula_sum   'Al28 Fe4 Cu8'
_cell_volume   589.88046675
_cell_formula_units_Z   4
loop_
 _symmetry_equiv_pos_site_id
 _symmetry_equiv_pos_as_xyz
  1  'x, y, z'
loop_
 _atom_site_type_symbol
 _atom_site_label
 _atom_site_symmetry_multiplicity
 _atom_site_fract_x
 _atom_site_fract_y
 _atom_site_fract_z
 _atom_site_occupancy
  Al  Al0  1  0.000000  0.000000  0.133727  1
  Al  Al1  1  0.500000  0.500000  0.366273  1
  Al  Al2  1  0.000000  0.000000  0.866273  1
  Al  Al3  1  0.500000  0.500000  0.633727  1
  Al  Al4  1  0.914516  0.706089  0.600595  1
  Al  Al5  1  0.085484  0.293911  0.600595  1
  Al  Al6  1  0.206089  0.414516  0.899405  1
  Al  Al7  1  0.706089  0.085484  0.600595  1
  Al  Al8  1  0.293911  0.914516  0.600595  1
  Al  Al9  1  0.585484  0.206089  0.899405  1
  Al  Al10  1  0.414516  0.793911  0.899405  1
  Al  Al11  1  0.793911  0.585484  0.899405  1
  Al  Al12  1  0.085484  0.293911  0.399405  1
  Al  Al13  1  0.914516  0.706089  0.399405  1
  Al  Al14  1  0.793911  0.585484  0.100595  1
  Al  Al15  1  0.293911  0.914516  0.399405  1
  Al  Al16  1  0.162083  0.662083  0.250000  1
  Al  Al17  1  0.337917  0.162083  0.250000  1
  Al  Al18  1  0.662083  0.837917  0.250000  1
  Al  Al19  1  0.837917  0.337917  0.250000  1
  Al  Al20  1  0.837917  0.337917  0.750000  1
  Al  Al21  1  0.662083  0.837917  0.750000  1
  Al  Al22  1  0.337917  0.162083  0.750000  1
  Al  Al23  1  0.162083  0.662083  0.750000  1
  Al  Al24  1  0.206089  0.414516  0.100595  1
  Al  Al25  1  0.585484  0.206089  0.100595  1
  Al  Al26  1  0.414516  0.793911  0.100595  1
  Al  Al27  1  0.706089  0.085484  0.399405  1
  Fe  Fe28  1  0.000000  0.000000  0.299353  1
  Fe  Fe29  1  0.500000  0.500000  0.200647  1
  Fe  Fe30  1  0.000000  0.000000  0.700647  1
  Fe  Fe31  1  0.500000  0.500000  0.799353  1
  Cu  Cu32  1  0.773062  0.415052  0.500000  1
  Cu  Cu33  1  0.084948  0.726938  0.000000  1
  Cu  Cu34  1  0.915052  0.273062  0.000000  1
  Cu  Cu35  1  0.273062  0.084948  0.000000  1
  Cu  Cu36  1  0.226938  0.584948  0.500000  1
  Cu  Cu37  1  0.726938  0.915052  0.000000  1
  Cu  Cu38  1  0.584948  0.773062  0.500000  1
  Cu  Cu39  1  0.415052  0.226938  0.500000  1
