# generated using pymatgen
data_Al2(SO4)3
_symmetry_space_group_name_H-M   'P 1'
_cell_length_a   8.61411676
_cell_length_b   8.61411676
_cell_length_c   8.61411676
_cell_angle_alpha   56.40408938
_cell_angle_beta   56.40408938
_cell_angle_gamma   56.40408938
_symmetry_Int_Tables_number   1
_chemical_formula_structural   Al2(SO4)3
_chemical_formula_sum   'Al4 S6 O24'
_cell_volume   414.39514894
_cell_formula_units_Z   2
loop_
 _symmetry_equiv_pos_site_id
 _symmetry_equiv_pos_as_xyz
  1  'x, y, z'
loop_
 _atom_site_type_symbol
 _atom_site_label
 _atom_site_symmetry_multiplicity
 _atom_site_fract_x
 _atom_site_fract_y
 _atom_site_fract_z
 _atom_site_occupancy
  Al  Al0  1  0.855809  0.855809  0.855809  1
  Al  Al1  1  0.144191  0.144191  0.144191  1
  Al  Al2  1  0.648337  0.648337  0.648337  1
  Al  Al3  1  0.351663  0.351663  0.351663  1
  S  S4  1  0.460737  0.751326  0.036679  1
  S  S5  1  0.751326  0.036679  0.460737  1
  S  S6  1  0.036679  0.460737  0.751326  1
  S  S7  1  0.248674  0.963321  0.539263  1
  S  S8  1  0.539263  0.248674  0.963321  1
  S  S9  1  0.963321  0.539263  0.248674  1
  O  O10  1  0.812274  0.529550  0.450749  1
  O  O11  1  0.529550  0.450749  0.812274  1
  O  O12  1  0.450749  0.812274  0.529550  1
  O  O13  1  0.187726  0.470450  0.549251  1
  O  O14  1  0.470450  0.549251  0.187726  1
  O  O15  1  0.549251  0.187726  0.470450  1
  O  O16  1  0.893106  0.733317  0.100658  1
  O  O17  1  0.733317  0.100658  0.893106  1
  O  O18  1  0.100658  0.893106  0.733317  1
  O  O19  1  0.106894  0.266683  0.899342  1
  O  O20  1  0.790460  0.008414  0.622862  1
  O  O21  1  0.622862  0.790460  0.008414  1
  O  O22  1  0.008414  0.622862  0.790460  1
  O  O23  1  0.209540  0.991586  0.377138  1
  O  O24  1  0.377138  0.209540  0.991586  1
  O  O25  1  0.991586  0.377138  0.209540  1
  O  O26  1  0.767691  0.846086  0.481059  1
  O  O27  1  0.481059  0.767691  0.846086  1
  O  O28  1  0.846086  0.481059  0.767691  1
  O  O29  1  0.232309  0.153914  0.518941  1
  O  O30  1  0.518941  0.232309  0.153914  1
  O  O31  1  0.153914  0.518941  0.232309  1
  O  O32  1  0.899342  0.106894  0.266683  1
  O  O33  1  0.266683  0.899342  0.106894  1
