# generated using pymatgen
data_KBF4
_symmetry_space_group_name_H-M   'P 1'
_cell_length_a   5.58416628
_cell_length_b   7.15274299
_cell_length_c   8.78728191
_cell_angle_alpha   90.00000000
_cell_angle_beta   90.00000000
_cell_angle_gamma   90.00000000
_symmetry_Int_Tables_number   1
_chemical_formula_structural   KBF4
_chemical_formula_sum   'K4 B4 F16'
_cell_volume   350.98254738
_cell_formula_units_Z   4
loop_
 _symmetry_equiv_pos_site_id
 _symmetry_equiv_pos_as_xyz
  1  'x, y, z'
loop_
 _atom_site_type_symbol
 _atom_site_label
 _atom_site_symmetry_multiplicity
 _atom_site_fract_x
 _atom_site_fract_y
 _atom_site_fract_z
 _atom_site_occupancy
  K  K0  1  0.250000  0.339562  0.684456  1
  K  K1  1  0.750000  0.660438  0.315544  1
  K  K2  1  0.750000  0.839562  0.815544  1
  K  K3  1  0.250000  0.160438  0.184456  1
  B  B4  1  0.250000  0.688778  0.062603  1
  B  B5  1  0.250000  0.811222  0.562603  1
  B  B6  1  0.750000  0.188778  0.437397  1
  B  B7  1  0.750000  0.311222  0.937397  1
  F  F8  1  0.542641  0.304205  0.422889  1
  F  F9  1  0.957359  0.195795  0.922889  1
  F  F10  1  0.457359  0.804205  0.077111  1
  F  F11  1  0.042641  0.695795  0.577111  1
  F  F12  1  0.250000  0.602250  0.918777  1
  F  F13  1  0.750000  0.397750  0.081223  1
  F  F14  1  0.750000  0.102250  0.581223  1
  F  F15  1  0.250000  0.897750  0.418777  1
  F  F16  1  0.250000  0.554281  0.180659  1
  F  F17  1  0.750000  0.445719  0.819341  1
  F  F18  1  0.750000  0.054281  0.319341  1
  F  F19  1  0.250000  0.945719  0.680659  1
  F  F20  1  0.042641  0.804205  0.077111  1
  F  F21  1  0.542641  0.195795  0.922889  1
  F  F22  1  0.957359  0.304205  0.422889  1
  F  F23  1  0.457359  0.695795  0.577111  1
