# generated using pymatgen
data_Lu2Fe14B
_symmetry_space_group_name_H-M   'P 1'
_cell_length_a   8.70044721
_cell_length_b   8.70044721
_cell_length_c   11.77481773
_cell_angle_alpha   90.00000000
_cell_angle_beta   90.00000000
_cell_angle_gamma   90.00000000
_symmetry_Int_Tables_number   1
_chemical_formula_structural   Lu2Fe14B
_chemical_formula_sum   'Lu8 Fe56 B4'
_cell_volume   891.32758154
_cell_formula_units_Z   4
loop_
 _symmetry_equiv_pos_site_id
 _symmetry_equiv_pos_as_xyz
  1  'x, y, z'
loop_
 _atom_site_type_symbol
 _atom_site_label
 _atom_site_symmetry_multiplicity
 _atom_site_fract_x
 _atom_site_fract_y
 _atom_site_fract_z
 _atom_site_occupancy
  Lu  Lu0  1  0.856540  0.143460  0.000000  1
  Lu  Lu1  1  0.356540  0.356540  0.500000  1
  Lu  Lu2  1  0.643460  0.643460  0.500000  1
  Lu  Lu3  1  0.143460  0.856540  0.000000  1
  Lu  Lu4  1  0.734000  0.734000  0.000000  1
  Lu  Lu5  1  0.766000  0.234000  0.500000  1
  Lu  Lu6  1  0.234000  0.766000  0.500000  1
  Lu  Lu7  1  0.266000  0.266000  0.000000  1
  Fe  Fe8  1  0.357985  0.037281  0.173795  1
  Fe  Fe9  1  0.642015  0.962719  0.173795  1
  Fe  Fe10  1  0.037281  0.357985  0.826205  1
  Fe  Fe11  1  0.537281  0.142015  0.673795  1
  Fe  Fe12  1  0.462719  0.857985  0.673795  1
  Fe  Fe13  1  0.142015  0.537281  0.326205  1
  Fe  Fe14  1  0.857985  0.462719  0.326205  1
  Fe  Fe15  1  0.962719  0.642015  0.826205  1
  Fe  Fe16  1  0.642015  0.962719  0.826205  1
  Fe  Fe17  1  0.357985  0.037281  0.826205  1
  Fe  Fe18  1  0.962719  0.642015  0.173795  1
  Fe  Fe19  1  0.462719  0.857985  0.326205  1
  Fe  Fe20  1  0.537281  0.142015  0.326205  1
  Fe  Fe21  1  0.857985  0.462719  0.673795  1
  Fe  Fe22  1  0.142015  0.537281  0.673795  1
  Fe  Fe23  1  0.037281  0.357985  0.173795  1
  Fe  Fe24  1  0.565646  0.224270  0.125596  1
  Fe  Fe25  1  0.434354  0.775730  0.125596  1
  Fe  Fe26  1  0.224270  0.565646  0.874404  1
  Fe  Fe27  1  0.724270  0.934354  0.625596  1
  Fe  Fe28  1  0.275730  0.065646  0.625596  1
  Fe  Fe29  1  0.934354  0.724270  0.374404  1
  Fe  Fe30  1  0.065646  0.275730  0.374404  1
  Fe  Fe31  1  0.775730  0.434354  0.874404  1
  Fe  Fe32  1  0.434354  0.775730  0.874404  1
  Fe  Fe33  1  0.565646  0.224270  0.874404  1
  Fe  Fe34  1  0.775730  0.434354  0.125596  1
  Fe  Fe35  1  0.275730  0.065646  0.374404  1
  Fe  Fe36  1  0.724270  0.934354  0.374404  1
  Fe  Fe37  1  0.065646  0.275730  0.625596  1
  Fe  Fe38  1  0.934354  0.724270  0.625596  1
  Fe  Fe39  1  0.224270  0.565646  0.125596  1
  Fe  Fe40  1  0.683215  0.683215  0.754012  1
  Fe  Fe41  1  0.316785  0.316785  0.754012  1
  Fe  Fe42  1  0.683215  0.683215  0.245988  1
  Fe  Fe43  1  0.183215  0.816785  0.254012  1
  Fe  Fe44  1  0.816785  0.183215  0.254012  1
  Fe  Fe45  1  0.816785  0.183215  0.745988  1
  Fe  Fe46  1  0.183215  0.816785  0.745988  1
  Fe  Fe47  1  0.316785  0.316785  0.245988  1
  Fe  Fe48  1  0.903130  0.903130  0.801916  1
  Fe  Fe49  1  0.096870  0.096870  0.801916  1
  Fe  Fe50  1  0.903130  0.903130  0.198084  1
  Fe  Fe51  1  0.403130  0.596870  0.301916  1
  Fe  Fe52  1  0.596870  0.403130  0.301916  1
  Fe  Fe53  1  0.596870  0.403130  0.698084  1
  Fe  Fe54  1  0.403130  0.596870  0.698084  1
  Fe  Fe55  1  0.096870  0.096870  0.198084  1
  Fe  Fe56  1  0.000000  0.000000  0.383831  1
  Fe  Fe57  1  0.500000  0.500000  0.883831  1
  Fe  Fe58  1  0.500000  0.500000  0.116169  1
  Fe  Fe59  1  0.000000  0.000000  0.616169  1
  Fe  Fe60  1  0.500000  0.000000  0.000000  1
  Fe  Fe61  1  0.500000  0.000000  0.500000  1
  Fe  Fe62  1  0.000000  0.500000  0.500000  1
  Fe  Fe63  1  0.000000  0.500000  0.000000  1
  B  B64  1  0.625402  0.374598  0.000000  1
  B  B65  1  0.125402  0.125402  0.500000  1
  B  B66  1  0.874598  0.874598  0.500000  1
  B  B67  1  0.374598  0.625402  0.000000  1
