# generated using pymatgen
data_Si5Pt12
_symmetry_space_group_name_H-M   'P 1'
_cell_length_a   13.57091870
_cell_length_b   13.57091870
_cell_length_c   5.61863224
_cell_angle_alpha   90.00000000
_cell_angle_beta   90.00000000
_cell_angle_gamma   90.00000000
_symmetry_Int_Tables_number   1
_chemical_formula_structural   Si5Pt12
_chemical_formula_sum   'Si20 Pt48'
_cell_volume   1034.78256898
_cell_formula_units_Z   4
loop_
 _symmetry_equiv_pos_site_id
 _symmetry_equiv_pos_as_xyz
  1  'x, y, z'
loop_
 _atom_site_type_symbol
 _atom_site_label
 _atom_site_symmetry_multiplicity
 _atom_site_fract_x
 _atom_site_fract_y
 _atom_site_fract_z
 _atom_site_occupancy
  Si  Si0  1  0.185374  0.884434  0.985420  1
  Si  Si1  1  0.692981  0.886864  0.565609  1
  Si  Si2  1  0.886864  0.307019  0.434391  1
  Si  Si3  1  0.113136  0.692981  0.434391  1
  Si  Si4  1  0.307019  0.113136  0.565609  1
  Si  Si5  1  0.000000  0.000000  0.500000  1
  Si  Si6  1  0.115566  0.185374  0.014580  1
  Si  Si7  1  0.814626  0.115566  0.985420  1
  Si  Si8  1  0.807019  0.613136  0.434391  1
  Si  Si9  1  0.314626  0.615566  0.014580  1
  Si  Si10  1  0.685374  0.384434  0.014580  1
  Si  Si11  1  0.615566  0.685374  0.985420  1
  Si  Si12  1  0.386864  0.807019  0.565609  1
  Si  Si13  1  0.884434  0.814626  0.014580  1
  Si  Si14  1  0.192981  0.386864  0.434391  1
  Si  Si15  1  0.000000  0.500000  0.945313  1
  Si  Si16  1  0.384434  0.314626  0.985420  1
  Si  Si17  1  0.500000  0.000000  0.054687  1
  Si  Si18  1  0.613136  0.192981  0.565609  1
  Si  Si19  1  0.500000  0.500000  0.500000  1
  Pt  Pt20  1  0.646806  0.018371  0.307154  1
  Pt  Pt21  1  0.666018  0.207133  0.097925  1
  Pt  Pt22  1  0.481629  0.146806  0.307154  1
  Pt  Pt23  1  0.146806  0.518371  0.692846  1
  Pt  Pt24  1  0.147131  0.534699  0.192958  1
  Pt  Pt25  1  0.707133  0.833982  0.097925  1
  Pt  Pt26  1  0.153320  0.213705  0.463004  1
  Pt  Pt27  1  0.353194  0.981629  0.307154  1
  Pt  Pt28  1  0.286295  0.653320  0.463004  1
  Pt  Pt29  1  0.462920  0.655648  0.755072  1
  Pt  Pt30  1  0.962920  0.155648  0.244928  1
  Pt  Pt31  1  0.465301  0.147131  0.807042  1
  Pt  Pt32  1  0.155648  0.037080  0.755072  1
  Pt  Pt33  1  0.655648  0.537080  0.244928  1
  Pt  Pt34  1  0.213705  0.846680  0.536996  1
  Pt  Pt35  1  0.833982  0.292867  0.902075  1
  Pt  Pt36  1  0.981629  0.646806  0.692846  1
  Pt  Pt37  1  0.037080  0.844352  0.244928  1
  Pt  Pt38  1  0.786295  0.153320  0.536996  1
  Pt  Pt39  1  0.018371  0.353194  0.692846  1
  Pt  Pt40  1  0.207133  0.333982  0.902075  1
  Pt  Pt41  1  0.519684  0.353789  0.254256  1
  Pt  Pt42  1  0.846680  0.786295  0.463004  1
  Pt  Pt43  1  0.344352  0.462920  0.244928  1
  Pt  Pt44  1  0.292867  0.166018  0.097925  1
  Pt  Pt45  1  0.537080  0.344352  0.755072  1
  Pt  Pt46  1  0.852869  0.465301  0.192958  1
  Pt  Pt47  1  0.713705  0.346680  0.463004  1
  Pt  Pt48  1  0.647131  0.034699  0.807042  1
  Pt  Pt49  1  0.646211  0.519684  0.745744  1
  Pt  Pt50  1  0.792867  0.666018  0.902075  1
  Pt  Pt51  1  0.653320  0.713705  0.536996  1
  Pt  Pt52  1  0.844352  0.962920  0.755072  1
  Pt  Pt53  1  0.965301  0.647131  0.192958  1
  Pt  Pt54  1  0.480316  0.646211  0.254256  1
  Pt  Pt55  1  0.352869  0.965301  0.807042  1
  Pt  Pt56  1  0.853789  0.980316  0.254256  1
  Pt  Pt57  1  0.166018  0.707133  0.902075  1
  Pt  Pt58  1  0.019684  0.853789  0.745744  1
  Pt  Pt59  1  0.034699  0.352869  0.192958  1
  Pt  Pt60  1  0.534699  0.852869  0.807042  1
  Pt  Pt61  1  0.980316  0.146211  0.745744  1
  Pt  Pt62  1  0.346680  0.286295  0.536996  1
  Pt  Pt63  1  0.333982  0.792867  0.097925  1
  Pt  Pt64  1  0.353789  0.480316  0.745744  1
  Pt  Pt65  1  0.853194  0.481629  0.692846  1
  Pt  Pt66  1  0.518371  0.853194  0.307154  1
  Pt  Pt67  1  0.146211  0.019684  0.254256  1
