# generated using pymatgen
data_TlFeO3
_symmetry_space_group_name_H-M   'P 1'
_cell_length_a   5.41454549
_cell_length_b   5.55344849
_cell_length_c   7.94733710
_cell_angle_alpha   90.00000000
_cell_angle_beta   90.00000000
_cell_angle_gamma   90.00000000
_symmetry_Int_Tables_number   1
_chemical_formula_structural   TlFeO3
_chemical_formula_sum   'Tl4 Fe4 O12'
_cell_volume   238.97165403
_cell_formula_units_Z   4
loop_
 _symmetry_equiv_pos_site_id
 _symmetry_equiv_pos_as_xyz
  1  'x, y, z'
loop_
 _atom_site_type_symbol
 _atom_site_label
 _atom_site_symmetry_multiplicity
 _atom_site_fract_x
 _atom_site_fract_y
 _atom_site_fract_z
 _atom_site_occupancy
  Tl  Tl0  1  0.982803  0.049573  0.250000  1
  Tl  Tl1  1  0.482803  0.450427  0.750000  1
  Tl  Tl2  1  0.517197  0.549573  0.250000  1
  Tl  Tl3  1  0.017197  0.950427  0.750000  1
  Fe  Fe4  1  0.500000  0.000000  0.000000  1
  Fe  Fe5  1  0.000000  0.500000  0.000000  1
  Fe  Fe6  1  0.000000  0.500000  0.500000  1
  Fe  Fe7  1  0.500000  0.000000  0.500000  1
  O  O8  1  0.113976  0.445770  0.250000  1
  O  O9  1  0.613976  0.054230  0.750000  1
  O  O10  1  0.386024  0.945770  0.250000  1
  O  O11  1  0.886024  0.554230  0.750000  1
  O  O12  1  0.696001  0.300540  0.061669  1
  O  O13  1  0.196001  0.199460  0.938331  1
  O  O14  1  0.803999  0.800540  0.438331  1
  O  O15  1  0.303999  0.699460  0.561669  1
  O  O16  1  0.303999  0.699460  0.938331  1
  O  O17  1  0.803999  0.800540  0.061669  1
  O  O18  1  0.196001  0.199460  0.561669  1
  O  O19  1  0.696001  0.300540  0.438331  1
