# generated using pymatgen
data_Li2U3V2O15
_symmetry_space_group_name_H-M   'P 1'
_cell_length_a   13.55405294
_cell_length_b   13.55405294
_cell_length_c   13.55405294
_cell_angle_alpha   148.10309985
_cell_angle_beta   148.10309985
_cell_angle_gamma   45.73319264
_symmetry_Int_Tables_number   1
_chemical_formula_structural   Li2U3V2O15
_chemical_formula_sum   'Li4 U6 V4 O30'
_cell_volume   692.89527112
_cell_formula_units_Z   2
loop_
 _symmetry_equiv_pos_site_id
 _symmetry_equiv_pos_as_xyz
  1  'x, y, z'
loop_
 _atom_site_type_symbol
 _atom_site_label
 _atom_site_symmetry_multiplicity
 _atom_site_fract_x
 _atom_site_fract_y
 _atom_site_fract_z
 _atom_site_occupancy
  Li  Li0  1  0.344371  0.344371  0.000000  1
  Li  Li1  1  0.405629  0.905629  0.500000  1
  Li  Li2  1  0.094371  0.594371  0.500000  1
  Li  Li3  1  0.655629  0.655629  0.000000  1
  U  U4  1  0.915004  0.915004  0.000000  1
  U  U5  1  0.834996  0.334996  0.500000  1
  U  U6  1  0.084996  0.084996  0.000000  1
  U  U7  1  0.665004  0.165004  0.500000  1
  U  U8  1  0.500000  0.500000  0.000000  1
  U  U9  1  0.250000  0.750000  0.500000  1
  V  V10  1  0.782273  0.782273  0.000000  1
  V  V11  1  0.967727  0.467727  0.500000  1
  V  V12  1  0.532273  0.032273  0.500000  1
  V  V13  1  0.217727  0.217727  0.000000  1
  O  O14  1  0.922258  0.599828  0.677569  1
  O  O15  1  0.086850  0.841122  0.754272  1
  O  O16  1  0.176372  0.676372  0.500000  1
  O  O17  1  0.591122  0.336850  0.254272  1
  O  O18  1  0.493368  0.799624  0.306256  1
  O  O19  1  0.994689  0.172258  0.822431  1
  O  O20  1  0.667423  0.913150  0.754272  1
  O  O21  1  0.158878  0.913150  0.245728  1
  O  O22  1  0.323628  0.823628  0.500000  1
  O  O23  1  0.922258  0.244689  0.322431  1
  O  O24  1  0.827742  0.005311  0.177569  1
  O  O25  1  0.400172  0.077742  0.322431  1
  O  O26  1  0.663150  0.917423  0.254272  1
  O  O27  1  0.549624  0.743368  0.806256  1
  O  O28  1  0.663150  0.408878  0.745728  1
  O  O29  1  0.086850  0.332577  0.245728  1
  O  O30  1  0.200376  0.506632  0.693744  1
  O  O31  1  0.573628  0.573628  0.000000  1
  O  O32  1  0.082577  0.336850  0.745728  1
  O  O33  1  0.750000  0.250000  0.500000  1
  O  O34  1  0.812888  0.506632  0.306256  1
  O  O35  1  0.349828  0.172258  0.177569  1
  O  O36  1  0.755311  0.077742  0.677569  1
  O  O37  1  0.256632  0.062888  0.806256  1
  O  O38  1  0.937112  0.743368  0.193744  1
  O  O39  1  0.493368  0.187112  0.693744  1
  O  O40  1  0.827742  0.650172  0.822431  1
  O  O41  1  0.256632  0.450376  0.193744  1
  O  O42  1  0.000000  0.000000  0.000000  1
  O  O43  1  0.426372  0.426372  0.000000  1
