# generated using pymatgen
data_NdVO3
_symmetry_space_group_name_H-M   'P 1'
_cell_length_a   5.49157173
_cell_length_b   5.74559439
_cell_length_c   7.84384447
_cell_angle_alpha   90.00000000
_cell_angle_beta   90.00000000
_cell_angle_gamma   90.00000000
_symmetry_Int_Tables_number   1
_chemical_formula_structural   NdVO3
_chemical_formula_sum   'Nd4 V4 O12'
_cell_volume   247.49167684
_cell_formula_units_Z   4
loop_
 _symmetry_equiv_pos_site_id
 _symmetry_equiv_pos_as_xyz
  1  'x, y, z'
loop_
 _atom_site_type_symbol
 _atom_site_label
 _atom_site_symmetry_multiplicity
 _atom_site_fract_x
 _atom_site_fract_y
 _atom_site_fract_z
 _atom_site_occupancy
  Nd  Nd0  1  0.983866  0.059961  0.250000  1
  Nd  Nd1  1  0.483866  0.440039  0.750000  1
  Nd  Nd2  1  0.516134  0.559961  0.250000  1
  Nd  Nd3  1  0.016134  0.940039  0.750000  1
  V  V4  1  0.500000  0.000000  0.000000  1
  V  V5  1  0.000000  0.500000  0.000000  1
  V  V6  1  0.000000  0.500000  0.500000  1
  V  V7  1  0.500000  0.000000  0.500000  1
  O  O8  1  0.097479  0.471608  0.250000  1
  O  O9  1  0.597479  0.028392  0.750000  1
  O  O10  1  0.402521  0.971608  0.250000  1
  O  O11  1  0.902521  0.528392  0.750000  1
  O  O12  1  0.703102  0.297502  0.050793  1
  O  O13  1  0.203102  0.202498  0.949207  1
  O  O14  1  0.796898  0.797502  0.449207  1
  O  O15  1  0.296898  0.702498  0.550793  1
  O  O16  1  0.296898  0.702498  0.949207  1
  O  O17  1  0.796898  0.797502  0.050793  1
  O  O18  1  0.203102  0.202498  0.550793  1
  O  O19  1  0.703102  0.297502  0.449207  1
