# generated using pymatgen
data_Li3V2(PO4)3
_symmetry_space_group_name_H-M   'P 1'
_cell_length_a   8.60420092
_cell_length_b   8.60420092
_cell_length_c   6.38619713
_cell_angle_alpha   74.02624638
_cell_angle_beta   105.97375362
_cell_angle_gamma   86.22686424
_symmetry_Int_Tables_number   1
_chemical_formula_structural   Li3V2(PO4)3
_chemical_formula_sum   'Li6 V4 P6 O24'
_cell_volume   431.82492525
_cell_formula_units_Z   2
loop_
 _symmetry_equiv_pos_site_id
 _symmetry_equiv_pos_as_xyz
  1  'x, y, z'
loop_
 _atom_site_type_symbol
 _atom_site_label
 _atom_site_symmetry_multiplicity
 _atom_site_fract_x
 _atom_site_fract_y
 _atom_site_fract_z
 _atom_site_occupancy
  Li  Li0  1  0.286095  0.286095  0.250000  1
  Li  Li1  1  0.713905  0.713905  0.750000  1
  Li  Li2  1  0.500000  0.500000  0.000000  1
  Li  Li3  1  0.990690  0.990690  0.250000  1
  Li  Li4  1  0.009310  0.009310  0.750000  1
  Li  Li5  1  0.500000  0.500000  0.500000  1
  V  V6  1  0.379837  0.942687  0.142601  1
  V  V7  1  0.942687  0.379837  0.357399  1
  V  V8  1  0.620163  0.057313  0.857399  1
  V  V9  1  0.057313  0.620163  0.642601  1
  P  P10  1  0.862621  0.339036  0.862537  1
  P  P11  1  0.284495  0.284495  0.750000  1
  P  P12  1  0.339036  0.862621  0.637463  1
  P  P13  1  0.660964  0.137379  0.362537  1
  P  P14  1  0.137379  0.660964  0.137463  1
  P  P15  1  0.715505  0.715505  0.250000  1
  O  O16  1  0.658860  0.011547  0.589246  1
  O  O17  1  0.011547  0.658860  0.910754  1
  O  O18  1  0.842500  0.155183  0.890450  1
  O  O19  1  0.844817  0.157500  0.390450  1
  O  O20  1  0.599979  0.051434  0.171415  1
  O  O21  1  0.296166  0.544697  0.202648  1
  O  O22  1  0.461054  0.262106  0.732539  1
  O  O23  1  0.538946  0.737894  0.267461  1
  O  O24  1  0.948566  0.400021  0.671415  1
  O  O25  1  0.051434  0.599979  0.328585  1
  O  O26  1  0.400021  0.948566  0.828585  1
  O  O27  1  0.155183  0.842500  0.609550  1
  O  O28  1  0.255600  0.170010  0.966607  1
  O  O29  1  0.744400  0.829990  0.033393  1
  O  O30  1  0.544697  0.296166  0.297352  1
  O  O31  1  0.157500  0.844817  0.109550  1
  O  O32  1  0.703834  0.455303  0.797352  1
  O  O33  1  0.170010  0.255600  0.533393  1
  O  O34  1  0.737894  0.538946  0.232539  1
  O  O35  1  0.988453  0.341140  0.089246  1
  O  O36  1  0.455303  0.703834  0.702648  1
  O  O37  1  0.829990  0.744400  0.466607  1
  O  O38  1  0.341140  0.988453  0.410754  1
  O  O39  1  0.262106  0.461054  0.767461  1
