# generated using pymatgen
data_Ta5Ga3
_symmetry_space_group_name_H-M   'P 1'
_cell_length_a   7.70576124
_cell_length_b   7.70576124
_cell_length_c   7.70576124
_cell_angle_alpha   96.37782020
_cell_angle_beta   96.37782020
_cell_angle_gamma   141.06246057
_symmetry_Int_Tables_number   1
_chemical_formula_structural   Ta5Ga3
_chemical_formula_sum   'Ta10 Ga6'
_cell_volume   271.12118261
_cell_formula_units_Z   2
loop_
 _symmetry_equiv_pos_site_id
 _symmetry_equiv_pos_as_xyz
  1  'x, y, z'
loop_
 _atom_site_type_symbol
 _atom_site_label
 _atom_site_symmetry_multiplicity
 _atom_site_fract_x
 _atom_site_fract_y
 _atom_site_fract_z
 _atom_site_occupancy
  Ta  Ta0  1  0.722286  0.574905  0.297190  1
  Ta  Ta1  1  0.750000  0.250000  0.500000  1
  Ta  Ta2  1  0.777714  0.074905  0.852619  1
  Ta  Ta3  1  0.222286  0.925095  0.147381  1
  Ta  Ta4  1  0.250000  0.750000  0.500000  1
  Ta  Ta5  1  0.425095  0.722286  0.147381  1
  Ta  Ta6  1  0.277714  0.425095  0.702810  1
  Ta  Ta7  1  0.925095  0.777714  0.702810  1
  Ta  Ta8  1  0.574905  0.277714  0.852619  1
  Ta  Ta9  1  0.074905  0.222286  0.297190  1
  Ga  Ga10  1  0.333816  0.166184  0.500000  1
  Ga  Ga11  1  0.250000  0.250000  0.000000  1
  Ga  Ga12  1  0.166184  0.666184  0.832368  1
  Ga  Ga13  1  0.666184  0.833816  0.500000  1
  Ga  Ga14  1  0.750000  0.750000  0.000000  1
  Ga  Ga15  1  0.833816  0.333816  0.167632  1
