# generated using pymatgen
data_Na2Ca3Si3O10
_symmetry_space_group_name_H-M   'P 1'
_cell_length_a   8.63126818
_cell_length_b   8.63126818
_cell_length_c   11.45370207
_cell_angle_alpha   86.79981366
_cell_angle_beta   93.20018634
_cell_angle_gamma   144.95053526
_symmetry_Int_Tables_number   1
_chemical_formula_structural   Na2Ca3Si3O10
_chemical_formula_sum   'Na4 Ca6 Si6 O20'
_cell_volume   489.18812217
_cell_formula_units_Z   2
loop_
 _symmetry_equiv_pos_site_id
 _symmetry_equiv_pos_as_xyz
  1  'x, y, z'
loop_
 _atom_site_type_symbol
 _atom_site_label
 _atom_site_symmetry_multiplicity
 _atom_site_fract_x
 _atom_site_fract_y
 _atom_site_fract_z
 _atom_site_occupancy
  Na  Na0  1  0.812806  0.724798  0.965626  1
  Na  Na1  1  0.275202  0.187194  0.465626  1
  Na  Na2  1  0.724798  0.812806  0.534374  1
  Na  Na3  1  0.187194  0.275202  0.034374  1
  Ca  Ca4  1  0.387613  0.083020  0.206871  1
  Ca  Ca5  1  0.916980  0.612387  0.706871  1
  Ca  Ca6  1  0.500000  0.000000  0.500000  1
  Ca  Ca7  1  0.083020  0.387613  0.293129  1
  Ca  Ca8  1  0.612387  0.916980  0.793129  1
  Ca  Ca9  1  0.000000  0.500000  0.000000  1
  Si  Si10  1  0.202586  0.202586  0.750000  1
  Si  Si11  1  0.797414  0.797414  0.250000  1
  Si  Si12  1  0.463164  0.160396  0.896350  1
  Si  Si13  1  0.839604  0.536836  0.396350  1
  Si  Si14  1  0.536836  0.839604  0.103650  1
  Si  Si15  1  0.160396  0.463164  0.603650  1
  O  O16  1  0.843532  0.156190  0.109481  1
  O  O17  1  0.296922  0.579011  0.474165  1
  O  O18  1  0.007319  0.921194  0.151047  1
  O  O19  1  0.921194  0.007319  0.348953  1
  O  O20  1  0.345335  0.481113  0.686581  1
  O  O21  1  0.703078  0.420989  0.525835  1
  O  O22  1  0.654665  0.518887  0.313419  1
  O  O23  1  0.420989  0.703078  0.974165  1
  O  O24  1  0.579011  0.296922  0.025835  1
  O  O25  1  0.156190  0.843532  0.390519  1
  O  O26  1  0.078806  0.992681  0.651047  1
  O  O27  1  0.762097  0.308092  0.338155  1
  O  O28  1  0.156468  0.843810  0.890519  1
  O  O29  1  0.843810  0.156468  0.609481  1
  O  O30  1  0.481113  0.345335  0.813419  1
  O  O31  1  0.308092  0.762097  0.161845  1
  O  O32  1  0.691908  0.237903  0.838155  1
  O  O33  1  0.992681  0.078806  0.848953  1
  O  O34  1  0.518887  0.654665  0.186581  1
  O  O35  1  0.237903  0.691908  0.661845  1
