# generated using pymatgen
data_K2P2WO9
_symmetry_space_group_name_H-M   'P 1'
_cell_length_a   8.17484652
_cell_length_b   8.17484652
_cell_length_c   15.75990868
_cell_angle_alpha   82.36293400
_cell_angle_beta   97.63706600
_cell_angle_gamma   119.49468187
_symmetry_Int_Tables_number   1
_chemical_formula_structural   K2P2WO9
_chemical_formula_sum   'K8 P8 W4 O36'
_cell_volume   905.79692069
_cell_formula_units_Z   4
loop_
 _symmetry_equiv_pos_site_id
 _symmetry_equiv_pos_as_xyz
  1  'x, y, z'
loop_
 _atom_site_type_symbol
 _atom_site_label
 _atom_site_symmetry_multiplicity
 _atom_site_fract_x
 _atom_site_fract_y
 _atom_site_fract_z
 _atom_site_occupancy
  K  K0  1  0.573797  0.275297  0.473510  1
  K  K1  1  0.724703  0.426203  0.973510  1
  K  K2  1  0.506052  0.797956  0.261841  1
  K  K3  1  0.797956  0.506052  0.238159  1
  K  K4  1  0.493948  0.202044  0.738159  1
  K  K5  1  0.426203  0.724703  0.526490  1
  K  K6  1  0.202044  0.493948  0.761841  1
  K  K7  1  0.275297  0.573797  0.026490  1
  P  P8  1  0.208807  0.953910  0.344976  1
  P  P9  1  0.768319  0.842378  0.077614  1
  P  P10  1  0.842378  0.768319  0.422386  1
  P  P11  1  0.953910  0.208807  0.155024  1
  P  P12  1  0.791193  0.046090  0.655024  1
  P  P13  1  0.046090  0.791193  0.844976  1
  P  P14  1  0.231681  0.157622  0.922386  1
  P  P15  1  0.157622  0.231681  0.577614  1
  W  W16  1  0.030114  0.254577  0.364375  1
  W  W17  1  0.745423  0.969886  0.864375  1
  W  W18  1  0.969886  0.745423  0.635625  1
  W  W19  1  0.254577  0.030114  0.135625  1
  O  O20  1  0.628228  0.679309  0.130951  1
  O  O21  1  0.188406  0.474807  0.315060  1
  O  O22  1  0.033884  0.137805  0.915503  1
  O  O23  1  0.811594  0.525193  0.684940  1
  O  O24  1  0.857907  0.098705  0.750634  1
  O  O25  1  0.687136  0.830112  0.981746  1
  O  O26  1  0.383401  0.943669  0.379638  1
  O  O27  1  0.785866  0.036115  0.103473  1
  O  O28  1  0.036115  0.785866  0.396527  1
  O  O29  1  0.679309  0.628228  0.369049  1
  O  O30  1  0.785100  0.859524  0.643543  1
  O  O31  1  0.963885  0.214134  0.603473  1
  O  O32  1  0.098705  0.857907  0.749366  1
  O  O33  1  0.214900  0.140476  0.356457  1
  O  O34  1  0.169888  0.312864  0.481746  1
  O  O35  1  0.830112  0.687136  0.518254  1
  O  O36  1  0.943669  0.383401  0.120362  1
  O  O37  1  0.474807  0.188406  0.184940  1
  O  O38  1  0.966116  0.862195  0.084497  1
  O  O39  1  0.702960  0.152845  0.885976  1
  O  O40  1  0.847155  0.297040  0.385976  1
  O  O41  1  0.214134  0.963885  0.896527  1
  O  O42  1  0.320691  0.371772  0.630951  1
  O  O43  1  0.297040  0.847155  0.114024  1
  O  O44  1  0.152845  0.702960  0.614024  1
  O  O45  1  0.312864  0.169888  0.018254  1
  O  O46  1  0.859524  0.785100  0.856457  1
  O  O47  1  0.056331  0.616599  0.879638  1
  O  O48  1  0.137805  0.033884  0.584497  1
  O  O49  1  0.142093  0.901295  0.249366  1
  O  O50  1  0.616599  0.056331  0.620362  1
  O  O51  1  0.862195  0.966116  0.415503  1
  O  O52  1  0.371772  0.320691  0.869049  1
  O  O53  1  0.901295  0.142093  0.250634  1
  O  O54  1  0.525193  0.811594  0.815060  1
  O  O55  1  0.140476  0.214900  0.143543  1
