# generated using pymatgen
data_Nd3SiS6Cl
_symmetry_space_group_name_H-M   'P 1'
_cell_length_a   10.47931380
_cell_length_b   12.65027271
_cell_length_c   16.39011553
_cell_angle_alpha   90.00000000
_cell_angle_beta   90.00000000
_cell_angle_gamma   90.00000000
_symmetry_Int_Tables_number   1
_chemical_formula_structural   Nd3SiS6Cl
_chemical_formula_sum   'Nd24 Si8 S48 Cl8'
_cell_volume   2172.77496269
_cell_formula_units_Z   8
loop_
 _symmetry_equiv_pos_site_id
 _symmetry_equiv_pos_as_xyz
  1  'x, y, z'
loop_
 _atom_site_type_symbol
 _atom_site_label
 _atom_site_symmetry_multiplicity
 _atom_site_fract_x
 _atom_site_fract_y
 _atom_site_fract_z
 _atom_site_occupancy
  Nd  Nd0  1  0.250000  0.377066  0.638716  1
  Nd  Nd1  1  0.963992  0.618120  0.888227  1
  Nd  Nd2  1  0.250000  0.114978  0.124786  1
  Nd  Nd3  1  0.463992  0.381880  0.111773  1
  Nd  Nd4  1  0.250000  0.877066  0.861284  1
  Nd  Nd5  1  0.536008  0.618120  0.888227  1
  Nd  Nd6  1  0.250000  0.614978  0.375214  1
  Nd  Nd7  1  0.543924  0.312391  0.405535  1
  Nd  Nd8  1  0.043924  0.687609  0.594465  1
  Nd  Nd9  1  0.956076  0.312391  0.405535  1
  Nd  Nd10  1  0.456076  0.187609  0.905535  1
  Nd  Nd11  1  0.956076  0.812391  0.094465  1
  Nd  Nd12  1  0.456076  0.687609  0.594465  1
  Nd  Nd13  1  0.036008  0.381880  0.111773  1
  Nd  Nd14  1  0.963992  0.118120  0.611773  1
  Nd  Nd15  1  0.536008  0.118120  0.611773  1
  Nd  Nd16  1  0.750000  0.122934  0.138716  1
  Nd  Nd17  1  0.043924  0.187609  0.905535  1
  Nd  Nd18  1  0.463992  0.881880  0.388227  1
  Nd  Nd19  1  0.036008  0.881880  0.388227  1
  Nd  Nd20  1  0.750000  0.885022  0.875214  1
  Nd  Nd21  1  0.543924  0.812391  0.094465  1
  Nd  Nd22  1  0.750000  0.385022  0.624786  1
  Nd  Nd23  1  0.750000  0.622934  0.361284  1
  Si  Si24  1  0.250000  0.335688  0.277625  1
  Si  Si25  1  0.250000  0.835688  0.222375  1
  Si  Si26  1  0.750000  0.164312  0.777625  1
  Si  Si27  1  0.250000  0.616633  0.759344  1
  Si  Si28  1  0.750000  0.883367  0.259344  1
  Si  Si29  1  0.750000  0.664312  0.722375  1
  Si  Si30  1  0.250000  0.116633  0.740656  1
  Si  Si31  1  0.750000  0.383367  0.240656  1
  S  S32  1  0.750000  0.022585  0.707787  1
  S  S33  1  0.009698  0.341629  0.569671  1
  S  S34  1  0.750000  0.618517  0.597721  1
  S  S35  1  0.250000  0.062508  0.953801  1
  S  S36  1  0.582954  0.970836  0.229655  1
  S  S37  1  0.509698  0.658371  0.430329  1
  S  S38  1  0.250000  0.977415  0.292213  1
  S  S39  1  0.409152  0.739621  0.253477  1
  S  S40  1  0.990302  0.158371  0.069671  1
  S  S41  1  0.490302  0.341629  0.569671  1
  S  S42  1  0.750000  0.687868  0.972425  1
  S  S43  1  0.250000  0.562508  0.546199  1
  S  S44  1  0.250000  0.477415  0.207787  1
  S  S45  1  0.090848  0.239621  0.246523  1
  S  S46  1  0.417046  0.529164  0.729655  1
  S  S47  1  0.250000  0.768682  0.698927  1
  S  S48  1  0.750000  0.231318  0.301073  1
  S  S49  1  0.750000  0.355390  0.112751  1
  S  S50  1  0.750000  0.855390  0.387249  1
  S  S51  1  0.082954  0.529164  0.729655  1
  S  S52  1  0.250000  0.644610  0.887249  1
  S  S53  1  0.750000  0.187868  0.527575  1
  S  S54  1  0.917046  0.470836  0.270345  1
  S  S55  1  0.090848  0.739621  0.253477  1
  S  S56  1  0.990302  0.658371  0.430329  1
  S  S57  1  0.750000  0.437492  0.453801  1
  S  S58  1  0.750000  0.118517  0.902279  1
  S  S59  1  0.250000  0.144610  0.612751  1
  S  S60  1  0.509698  0.158371  0.069671  1
  S  S61  1  0.250000  0.881483  0.097721  1
  S  S62  1  0.250000  0.381483  0.402279  1
  S  S63  1  0.917046  0.970836  0.229655  1
  S  S64  1  0.250000  0.812132  0.472425  1
  S  S65  1  0.009698  0.841629  0.930329  1
  S  S66  1  0.417046  0.029164  0.770345  1
  S  S67  1  0.590848  0.260379  0.746523  1
  S  S68  1  0.409152  0.239621  0.246523  1
  S  S69  1  0.590848  0.760379  0.753477  1
  S  S70  1  0.750000  0.937492  0.046199  1
  S  S71  1  0.082954  0.029164  0.770345  1
  S  S72  1  0.250000  0.268682  0.801073  1
  S  S73  1  0.909152  0.260379  0.746523  1
  S  S74  1  0.490302  0.841629  0.930329  1
  S  S75  1  0.582954  0.470836  0.270345  1
  S  S76  1  0.909152  0.760379  0.753477  1
  S  S77  1  0.750000  0.522585  0.792213  1
  S  S78  1  0.250000  0.312132  0.027575  1
  S  S79  1  0.750000  0.731318  0.198927  1
  Cl  Cl80  1  0.956764  0.896691  0.559875  1
  Cl  Cl81  1  0.543236  0.396691  0.940125  1
  Cl  Cl82  1  0.543236  0.896691  0.559875  1
  Cl  Cl83  1  0.043236  0.103309  0.440125  1
  Cl  Cl84  1  0.956764  0.396691  0.940125  1
  Cl  Cl85  1  0.456764  0.103309  0.440125  1
  Cl  Cl86  1  0.043236  0.603309  0.059875  1
  Cl  Cl87  1  0.456764  0.603309  0.059875  1
