# generated using pymatgen
data_Sr4NbAlO8
_symmetry_space_group_name_H-M   'P 1'
_cell_length_a   7.25734058
_cell_length_b   5.89666907
_cell_length_c   19.93450583
_cell_angle_alpha   90.00000000
_cell_angle_beta   97.52347017
_cell_angle_gamma   90.00000000
_symmetry_Int_Tables_number   1
_chemical_formula_structural   Sr4NbAlO8
_chemical_formula_sum   'Sr16 Nb4 Al4 O32'
_cell_volume   845.73604721
_cell_formula_units_Z   4
loop_
 _symmetry_equiv_pos_site_id
 _symmetry_equiv_pos_as_xyz
  1  'x, y, z'
loop_
 _atom_site_type_symbol
 _atom_site_label
 _atom_site_symmetry_multiplicity
 _atom_site_fract_x
 _atom_site_fract_y
 _atom_site_fract_z
 _atom_site_occupancy
  Sr  Sr0  1  0.501074  0.749429  0.864952  1
  Sr  Sr1  1  0.288142  0.279994  0.953865  1
  Sr  Sr2  1  0.975317  0.249449  0.597000  1
  Sr  Sr3  1  0.711858  0.779994  0.546135  1
  Sr  Sr4  1  0.498926  0.249429  0.635048  1
  Sr  Sr5  1  0.140425  0.714987  0.209015  1
  Sr  Sr6  1  0.288142  0.220006  0.453865  1
  Sr  Sr7  1  0.140425  0.785013  0.709015  1
  Sr  Sr8  1  0.501074  0.750571  0.364952  1
  Sr  Sr9  1  0.024683  0.750551  0.403000  1
  Sr  Sr10  1  0.498926  0.250571  0.135048  1
  Sr  Sr11  1  0.975317  0.250551  0.097000  1
  Sr  Sr12  1  0.711858  0.720006  0.046135  1
  Sr  Sr13  1  0.859575  0.214987  0.290985  1
  Sr  Sr14  1  0.024683  0.749449  0.903000  1
  Sr  Sr15  1  0.859575  0.285013  0.790985  1
  Nb  Nb16  1  0.338705  0.258192  0.789310  1
  Nb  Nb17  1  0.338705  0.241808  0.289310  1
  Nb  Nb18  1  0.661295  0.741808  0.210690  1
  Nb  Nb19  1  0.661295  0.758192  0.710690  1
  Al  Al20  1  0.266947  0.784854  0.057099  1
  Al  Al21  1  0.266947  0.715146  0.557099  1
  Al  Al22  1  0.733053  0.284854  0.442901  1
  Al  Al23  1  0.733053  0.215146  0.942901  1
  O  O24  1  0.060916  0.839090  0.579132  1
  O  O25  1  0.751719  0.585434  0.442970  1
  O  O26  1  0.498132  0.512404  0.256198  1
  O  O27  1  0.822624  0.720013  0.794599  1
  O  O28  1  0.501868  0.012404  0.243802  1
  O  O29  1  0.939084  0.339090  0.920868  1
  O  O30  1  0.787777  0.531223  0.660576  1
  O  O31  1  0.212223  0.031223  0.839424  1
  O  O32  1  0.335787  0.697554  0.977991  1
  O  O33  1  0.549420  0.209157  0.375407  1
  O  O34  1  0.796764  0.490044  0.178357  1
  O  O35  1  0.248281  0.085434  0.057030  1
  O  O36  1  0.787777  0.968777  0.160576  1
  O  O37  1  0.177376  0.279987  0.205401  1
  O  O38  1  0.501868  0.487596  0.743802  1
  O  O39  1  0.335787  0.802446  0.477991  1
  O  O40  1  0.060916  0.660910  0.079132  1
  O  O41  1  0.796764  0.009956  0.678357  1
  O  O42  1  0.248281  0.414566  0.557030  1
  O  O43  1  0.450580  0.709157  0.124593  1
  O  O44  1  0.450580  0.790843  0.624593  1
  O  O45  1  0.203236  0.990044  0.321643  1
  O  O46  1  0.939084  0.160910  0.420868  1
  O  O47  1  0.751719  0.914566  0.942970  1
  O  O48  1  0.498132  0.987596  0.756198  1
  O  O49  1  0.664213  0.197554  0.522009  1
  O  O50  1  0.664213  0.302446  0.022009  1
  O  O51  1  0.212223  0.468777  0.339424  1
  O  O52  1  0.203236  0.509956  0.821643  1
  O  O53  1  0.177376  0.220013  0.705401  1
  O  O54  1  0.549420  0.290843  0.875407  1
  O  O55  1  0.822624  0.779987  0.294599  1
