# generated using pymatgen
data_Li2U(MoO5)2
_symmetry_space_group_name_H-M   'P 1'
_cell_length_a   5.50857439
_cell_length_b   5.93508646
_cell_length_c   8.38578756
_cell_angle_alpha   108.21182193
_cell_angle_beta   100.09513486
_cell_angle_gamma   104.70585382
_symmetry_Int_Tables_number   1
_chemical_formula_structural   Li2U(MoO5)2
_chemical_formula_sum   'Li2 U1 Mo2 O10'
_cell_volume   242.03303625
_cell_formula_units_Z   1
loop_
 _symmetry_equiv_pos_site_id
 _symmetry_equiv_pos_as_xyz
  1  'x, y, z'
loop_
 _atom_site_type_symbol
 _atom_site_label
 _atom_site_symmetry_multiplicity
 _atom_site_fract_x
 _atom_site_fract_y
 _atom_site_fract_z
 _atom_site_occupancy
  Li  Li0  1  0.053146  0.791028  0.424516  1
  Li  Li1  1  0.946854  0.208972  0.575484  1
  U  U2  1  0.000000  0.000000  0.000000  1
  Mo  Mo3  1  0.617399  0.349097  0.299911  1
  Mo  Mo4  1  0.382601  0.650903  0.700089  1
  O  O5  1  0.229337  0.588740  0.550423  1
  O  O6  1  0.645674  0.639913  0.152503  1
  O  O7  1  0.852433  0.094761  0.839761  1
  O  O8  1  0.796978  0.193901  0.171105  1
  O  O9  1  0.725567  0.845938  0.582203  1
  O  O10  1  0.203022  0.806099  0.828895  1
  O  O11  1  0.354326  0.360087  0.847497  1
  O  O12  1  0.274433  0.154062  0.417797  1
  O  O13  1  0.770663  0.411260  0.449577  1
  O  O14  1  0.147567  0.905239  0.160239  1
