# generated using pymatgen
data_K2Na4Ge2O7
_symmetry_space_group_name_H-M   'P 1'
_cell_length_a   6.06764361
_cell_length_b   29.60626274
_cell_length_c   6.09489528
_cell_angle_alpha   90.00000000
_cell_angle_beta   119.71092849
_cell_angle_gamma   90.00000000
_symmetry_Int_Tables_number   1
_chemical_formula_structural   K2Na4Ge2O7
_chemical_formula_sum   'K8 Na16 Ge8 O28'
_cell_volume   950.95118374
_cell_formula_units_Z   4
loop_
 _symmetry_equiv_pos_site_id
 _symmetry_equiv_pos_as_xyz
  1  'x, y, z'
loop_
 _atom_site_type_symbol
 _atom_site_label
 _atom_site_symmetry_multiplicity
 _atom_site_fract_x
 _atom_site_fract_y
 _atom_site_fract_z
 _atom_site_occupancy
  K  K0  1  0.020358  0.246603  0.300099  1
  K  K1  1  0.979642  0.746603  0.699901  1
  K  K2  1  0.447897  0.552170  0.036573  1
  K  K3  1  0.552103  0.052170  0.963427  1
  K  K4  1  0.885428  0.052090  0.647493  1
  K  K5  1  0.114572  0.552090  0.352507  1
  K  K6  1  0.192866  0.852910  0.561480  1
  K  K7  1  0.807134  0.352910  0.438520  1
  Na  Na8  1  0.182879  0.345642  0.109766  1
  Na  Na9  1  0.791596  0.443454  0.092270  1
  Na  Na10  1  0.358007  0.666196  0.707061  1
  Na  Na11  1  0.817121  0.845642  0.890234  1
  Na  Na12  1  0.661584  0.265896  0.669587  1
  Na  Na13  1  0.208404  0.943454  0.907730  1
  Na  Na14  1  0.398569  0.441347  0.296363  1
  Na  Na15  1  0.777522  0.947601  0.292171  1
  Na  Na16  1  0.601431  0.941347  0.703637  1
  Na  Na17  1  0.641993  0.166196  0.292939  1
  Na  Na18  1  0.838898  0.168041  0.885853  1
  Na  Na19  1  0.338416  0.765896  0.330413  1
  Na  Na20  1  0.222478  0.447601  0.707829  1
  Na  Na21  1  0.261447  0.161747  0.736712  1
  Na  Na22  1  0.161102  0.668041  0.114147  1
  Na  Na23  1  0.738553  0.661747  0.263288  1
  Ge  Ge24  1  0.548812  0.856339  0.231440  1
  Ge  Ge25  1  0.237859  0.112283  0.311996  1
  Ge  Ge26  1  0.679466  0.755291  0.063632  1
  Ge  Ge27  1  0.810501  0.500814  0.700408  1
  Ge  Ge28  1  0.451188  0.356339  0.768560  1
  Ge  Ge29  1  0.762141  0.612283  0.688004  1
  Ge  Ge30  1  0.189499  0.000814  0.299592  1
  Ge  Ge31  1  0.320534  0.255291  0.936368  1
  O  O32  1  0.113912  0.058440  0.352541  1
  O  O33  1  0.587199  0.776184  0.760084  1
  O  O34  1  0.458672  0.621961  0.420219  1
  O  O35  1  0.253094  0.114504  0.029902  1
  O  O36  1  0.412801  0.276184  0.239916  1
  O  O37  1  0.242037  0.838395  0.149888  1
  O  O38  1  0.258119  0.304718  0.724707  1
  O  O39  1  0.074305  0.483776  0.992274  1
  O  O40  1  0.028141  0.225613  0.779245  1
  O  O41  1  0.741881  0.804718  0.275293  1
  O  O42  1  0.555977  0.220283  0.931283  1
  O  O43  1  0.013053  0.150959  0.308354  1
  O  O44  1  0.986947  0.650959  0.691646  1
  O  O45  1  0.925695  0.983776  0.007726  1
  O  O46  1  0.524001  0.496311  0.707813  1
  O  O47  1  0.271867  0.384796  0.475682  1
  O  O48  1  0.449227  0.390803  0.007341  1
  O  O49  1  0.550773  0.890803  0.992659  1
  O  O50  1  0.728133  0.884796  0.524318  1
  O  O51  1  0.541328  0.121961  0.579781  1
  O  O52  1  0.757963  0.338395  0.850112  1
  O  O53  1  0.802595  0.471334  0.443023  1
  O  O54  1  0.197405  0.971334  0.556977  1
  O  O55  1  0.746906  0.614504  0.970098  1
  O  O56  1  0.886088  0.558440  0.647459  1
  O  O57  1  0.444023  0.720283  0.068717  1
  O  O58  1  0.971859  0.725613  0.220755  1
  O  O59  1  0.475999  0.996311  0.292187  1
