# generated using pymatgen
data_Ba3GeI2
_symmetry_space_group_name_H-M   'P 1'
_cell_length_a   16.58254817
_cell_length_b   15.81744112
_cell_length_c   8.77739340
_cell_angle_alpha   79.15322207
_cell_angle_beta   69.52402825
_cell_angle_gamma   31.32274968
_symmetry_Int_Tables_number   1
_chemical_formula_structural   Ba3GeI2
_chemical_formula_sum   'Ba12 Ge4 I8'
_cell_volume   1091.90675430
_cell_formula_units_Z   4
loop_
 _symmetry_equiv_pos_site_id
 _symmetry_equiv_pos_as_xyz
  1  'x, y, z'
loop_
 _atom_site_type_symbol
 _atom_site_label
 _atom_site_symmetry_multiplicity
 _atom_site_fract_x
 _atom_site_fract_y
 _atom_site_fract_z
 _atom_site_occupancy
  Ba  Ba0  1  0.041265  0.458735  0.458735  1
  Ba  Ba1  1  0.791265  0.208735  0.208735  1
  Ba  Ba2  1  0.094082  0.588093  0.943707  1
  Ba  Ba3  1  0.875882  0.306293  0.661907  1
  Ba  Ba4  1  0.588093  0.094082  0.374118  1
  Ba  Ba5  1  0.155918  0.661907  0.306293  1
  Ba  Ba6  1  0.306293  0.875882  0.155918  1
  Ba  Ba7  1  0.374118  0.943707  0.588093  1
  Ba  Ba8  1  0.208735  0.791265  0.791265  1
  Ba  Ba9  1  0.458735  0.041265  0.041265  1
  Ba  Ba10  1  0.943707  0.374118  0.094082  1
  Ba  Ba11  1  0.661907  0.155918  0.875882  1
  Ge  Ge12  1  0.334105  0.334105  0.165895  1
  Ge  Ge13  1  0.165895  0.165895  0.334105  1
  Ge  Ge14  1  0.084105  0.084105  0.915895  1
  Ge  Ge15  1  0.915895  0.915895  0.084105  1
  I  I16  1  0.577314  0.577314  0.422686  1
  I  I17  1  0.672686  0.672686  0.827314  1
  I  I18  1  0.254041  0.254041  0.745959  1
  I  I19  1  0.422686  0.422686  0.577314  1
  I  I20  1  0.995959  0.995959  0.504041  1
  I  I21  1  0.745959  0.745959  0.254041  1
  I  I22  1  0.827314  0.827314  0.672686  1
  I  I23  1  0.504041  0.504041  0.995959  1
