# generated using pymatgen
data_AlTlCl4
_symmetry_space_group_name_H-M   'P 1'
_cell_length_a   7.21159493
_cell_length_b   9.47781801
_cell_length_c   11.09631893
_cell_angle_alpha   90.00000000
_cell_angle_beta   90.00000000
_cell_angle_gamma   90.00000000
_symmetry_Int_Tables_number   1
_chemical_formula_structural   AlTlCl4
_chemical_formula_sum   'Al4 Tl4 Cl16'
_cell_volume   758.43544401
_cell_formula_units_Z   4
loop_
 _symmetry_equiv_pos_site_id
 _symmetry_equiv_pos_as_xyz
  1  'x, y, z'
loop_
 _atom_site_type_symbol
 _atom_site_label
 _atom_site_symmetry_multiplicity
 _atom_site_fract_x
 _atom_site_fract_y
 _atom_site_fract_z
 _atom_site_occupancy
  Al  Al0  1  0.250000  0.312666  0.934470  1
  Al  Al1  1  0.250000  0.187334  0.434470  1
  Al  Al2  1  0.750000  0.687334  0.065530  1
  Al  Al3  1  0.750000  0.812666  0.565530  1
  Tl  Tl4  1  0.750000  0.184293  0.185953  1
  Tl  Tl5  1  0.250000  0.684293  0.314047  1
  Tl  Tl6  1  0.250000  0.815707  0.814047  1
  Tl  Tl7  1  0.750000  0.315707  0.685953  1
  Cl  Cl8  1  0.493482  0.178899  0.924749  1
  Cl  Cl9  1  0.250000  0.452446  0.781363  1
  Cl  Cl10  1  0.506518  0.678899  0.575251  1
  Cl  Cl11  1  0.993482  0.678899  0.575251  1
  Cl  Cl12  1  0.493482  0.321101  0.424749  1
  Cl  Cl13  1  0.750000  0.547554  0.218637  1
  Cl  Cl14  1  0.250000  0.047554  0.281363  1
  Cl  Cl15  1  0.750000  0.925316  0.397694  1
  Cl  Cl16  1  0.993482  0.821101  0.075251  1
  Cl  Cl17  1  0.506518  0.821101  0.075251  1
  Cl  Cl18  1  0.750000  0.952446  0.718637  1
  Cl  Cl19  1  0.250000  0.074684  0.602306  1
  Cl  Cl20  1  0.006518  0.178899  0.924749  1
  Cl  Cl21  1  0.250000  0.425316  0.102306  1
  Cl  Cl22  1  0.750000  0.574684  0.897694  1
  Cl  Cl23  1  0.006518  0.321101  0.424749  1
