# generated using pymatgen
data_La(BO2)3
_symmetry_space_group_name_H-M   'P 1'
_cell_length_a   4.27640922
_cell_length_b   11.83354490
_cell_length_c   7.35171841
_cell_angle_alpha   90.00000000
_cell_angle_beta   91.20623506
_cell_angle_gamma   90.00000000
_symmetry_Int_Tables_number   1
_chemical_formula_structural   La(BO2)3
_chemical_formula_sum   'La4 B12 O24'
_cell_volume   371.95185894
_cell_formula_units_Z   4
loop_
 _symmetry_equiv_pos_site_id
 _symmetry_equiv_pos_as_xyz
  1  'x, y, z'
loop_
 _atom_site_type_symbol
 _atom_site_label
 _atom_site_symmetry_multiplicity
 _atom_site_fract_x
 _atom_site_fract_y
 _atom_site_fract_z
 _atom_site_occupancy
  La  La0  1  0.283949  0.377334  0.119875  1
  La  La1  1  0.716051  0.622666  0.880125  1
  La  La2  1  0.716051  0.877334  0.380125  1
  La  La3  1  0.283949  0.122666  0.619875  1
  B  B4  1  0.822849  0.166046  0.289053  1
  B  B5  1  0.177151  0.833954  0.710947  1
  B  B6  1  0.696026  0.593654  0.373864  1
  B  B7  1  0.177151  0.666046  0.210947  1
  B  B8  1  0.189141  0.621895  0.572492  1
  B  B9  1  0.810859  0.121895  0.927508  1
  B  B10  1  0.303974  0.093654  0.126136  1
  B  B11  1  0.822849  0.333954  0.789053  1
  B  B12  1  0.810859  0.378105  0.427508  1
  B  B13  1  0.189141  0.878105  0.072492  1
  B  B14  1  0.303974  0.406346  0.626136  1
  B  B15  1  0.696026  0.906346  0.873864  1
  O  O16  1  0.347929  0.627572  0.389196  1
  O  O17  1  0.279677  0.715736  0.692435  1
  O  O18  1  0.250495  0.909471  0.562289  1
  O  O19  1  0.705021  0.024297  0.819264  1
  O  O20  1  0.749505  0.409471  0.937711  1
  O  O21  1  0.850313  0.620272  0.546456  1
  O  O22  1  0.652071  0.127572  0.110804  1
  O  O23  1  0.720323  0.215736  0.807565  1
  O  O24  1  0.294979  0.975703  0.180736  1
  O  O25  1  0.347929  0.872428  0.889196  1
  O  O26  1  0.833652  0.832564  0.735995  1
  O  O27  1  0.705021  0.475703  0.319264  1
  O  O28  1  0.166348  0.332564  0.764005  1
  O  O29  1  0.294979  0.524297  0.680736  1
  O  O30  1  0.149687  0.120272  0.953544  1
  O  O31  1  0.166348  0.167436  0.264005  1
  O  O32  1  0.250495  0.590529  0.062289  1
  O  O33  1  0.720323  0.284264  0.307565  1
  O  O34  1  0.652071  0.372428  0.610804  1
  O  O35  1  0.279677  0.784264  0.192435  1
  O  O36  1  0.850313  0.879728  0.046456  1
  O  O37  1  0.749505  0.090529  0.437711  1
  O  O38  1  0.833652  0.667436  0.235995  1
  O  O39  1  0.149687  0.379728  0.453544  1
