# generated using pymatgen
data_FeMoO4
_symmetry_space_group_name_H-M   'P 1'
_cell_length_a   6.79862345
_cell_length_b   6.79862345
_cell_length_c   7.72632833
_cell_angle_alpha   72.84460890
_cell_angle_beta   107.15539110
_cell_angle_gamma   95.05011976
_symmetry_Int_Tables_number   1
_chemical_formula_structural   FeMoO4
_chemical_formula_sum   'Fe4 Mo4 O16'
_cell_volume   326.04969048
_cell_formula_units_Z   4
loop_
 _symmetry_equiv_pos_site_id
 _symmetry_equiv_pos_as_xyz
  1  'x, y, z'
loop_
 _atom_site_type_symbol
 _atom_site_label
 _atom_site_symmetry_multiplicity
 _atom_site_fract_x
 _atom_site_fract_y
 _atom_site_fract_z
 _atom_site_occupancy
  Fe  Fe0  1  0.304981  0.695019  0.153953  1
  Fe  Fe1  1  0.695019  0.304981  0.846047  1
  Fe  Fe2  1  0.695454  0.695454  0.500000  1
  Fe  Fe3  1  0.304546  0.304546  0.500000  1
  Mo  Mo4  1  0.715480  0.284520  0.359999  1
  Mo  Mo5  1  0.284520  0.715480  0.640001  1
  Mo  Mo6  1  0.285404  0.285404  0.000000  1
  Mo  Mo7  1  0.714596  0.714596  0.000000  1
  O  O8  1  0.342872  0.356051  0.758602  1
  O  O9  1  0.684291  0.015852  0.416560  1
  O  O10  1  0.643949  0.657128  0.758602  1
  O  O11  1  0.983087  0.683223  0.072183  1
  O  O12  1  0.649166  0.350834  0.083205  1
  O  O13  1  0.346498  0.653502  0.436880  1
  O  O14  1  0.984148  0.315709  0.416560  1
  O  O15  1  0.316777  0.016913  0.072183  1
  O  O16  1  0.653502  0.346498  0.563120  1
  O  O17  1  0.350834  0.649166  0.916795  1
  O  O18  1  0.315709  0.984148  0.583440  1
  O  O19  1  0.683223  0.983087  0.927817  1
  O  O20  1  0.015852  0.684291  0.583440  1
  O  O21  1  0.657128  0.643949  0.241398  1
  O  O22  1  0.356051  0.342872  0.241398  1
  O  O23  1  0.016913  0.316777  0.927817  1
