# generated using pymatgen
data_Ba2SnS4
_symmetry_space_group_name_H-M   'P 1'
_cell_length_a   8.61714767
_cell_length_b   8.68419936
_cell_length_c   12.17349490
_cell_angle_alpha   90.00000000
_cell_angle_beta   112.84396832
_cell_angle_gamma   90.00000000
_symmetry_Int_Tables_number   1
_chemical_formula_structural   Ba2SnS4
_chemical_formula_sum   'Ba8 Sn4 S16'
_cell_volume   839.52727138
_cell_formula_units_Z   4
loop_
 _symmetry_equiv_pos_site_id
 _symmetry_equiv_pos_as_xyz
  1  'x, y, z'
loop_
 _atom_site_type_symbol
 _atom_site_label
 _atom_site_symmetry_multiplicity
 _atom_site_fract_x
 _atom_site_fract_y
 _atom_site_fract_z
 _atom_site_occupancy
  Ba  Ba0  1  0.540196  0.807372  0.350275  1
  Ba  Ba1  1  0.459804  0.307372  0.149725  1
  Ba  Ba2  1  0.459804  0.192628  0.649725  1
  Ba  Ba3  1  0.540196  0.692628  0.850275  1
  Ba  Ba4  1  0.925683  0.876534  0.165392  1
  Ba  Ba5  1  0.074317  0.376534  0.334608  1
  Ba  Ba6  1  0.074317  0.123466  0.834608  1
  Ba  Ba7  1  0.925683  0.623466  0.665392  1
  Sn  Sn8  1  0.200073  0.811395  0.509424  1
  Sn  Sn9  1  0.799927  0.311395  0.990576  1
  Sn  Sn10  1  0.799927  0.188605  0.490576  1
  Sn  Sn11  1  0.200073  0.688605  0.009424  1
  S  S12  1  0.746244  0.984757  0.607819  1
  S  S13  1  0.253756  0.484757  0.892181  1
  S  S14  1  0.253756  0.015243  0.392181  1
  S  S15  1  0.746244  0.515243  0.107819  1
  S  S16  1  0.230823  0.898092  0.705230  1
  S  S17  1  0.769177  0.398092  0.794770  1
  S  S18  1  0.769177  0.101908  0.294770  1
  S  S19  1  0.230823  0.601908  0.205230  1
  S  S20  1  0.413482  0.882362  0.054588  1
  S  S21  1  0.586518  0.382362  0.445412  1
  S  S22  1  0.586518  0.117638  0.945412  1
  S  S23  1  0.413482  0.617638  0.554588  1
  S  S24  1  0.927426  0.807838  0.902013  1
  S  S25  1  0.072574  0.307838  0.597987  1
  S  S26  1  0.072574  0.192162  0.097987  1
  S  S27  1  0.927426  0.692162  0.402013  1
