# generated using pymatgen
data_PrTa3O9
_symmetry_space_group_name_H-M   'P 1'
_cell_length_a   5.47262974
_cell_length_b   7.63920798
_cell_length_c   8.30222982
_cell_angle_alpha   90.00000000
_cell_angle_beta   92.45783771
_cell_angle_gamma   90.00000000
_symmetry_Int_Tables_number   1
_chemical_formula_structural   PrTa3O9
_chemical_formula_sum   'Pr2 Ta6 O18'
_cell_volume   346.76833885
_cell_formula_units_Z   2
loop_
 _symmetry_equiv_pos_site_id
 _symmetry_equiv_pos_as_xyz
  1  'x, y, z'
loop_
 _atom_site_type_symbol
 _atom_site_label
 _atom_site_symmetry_multiplicity
 _atom_site_fract_x
 _atom_site_fract_y
 _atom_site_fract_z
 _atom_site_occupancy
  Pr  Pr0  1  0.965439  0.250000  0.565807  1
  Pr  Pr1  1  0.034561  0.750000  0.434193  1
  Ta  Ta2  1  0.526425  0.493313  0.301415  1
  Ta  Ta3  1  0.526425  0.006687  0.301415  1
  Ta  Ta4  1  0.473575  0.993313  0.698585  1
  Ta  Ta5  1  0.000000  0.000000  0.000000  1
  Ta  Ta6  1  0.473575  0.506687  0.698585  1
  Ta  Ta7  1  0.000000  0.500000  0.000000  1
  O  O8  1  0.682869  0.954861  0.877676  1
  O  O9  1  0.317131  0.045139  0.122324  1
  O  O10  1  0.155243  0.053647  0.787208  1
  O  O11  1  0.357210  0.750000  0.661676  1
  O  O12  1  0.266300  0.036664  0.467083  1
  O  O13  1  0.155243  0.446353  0.787208  1
  O  O14  1  0.682869  0.545139  0.877676  1
  O  O15  1  0.733700  0.536664  0.532917  1
  O  O16  1  0.079245  0.750000  0.984450  1
  O  O17  1  0.844757  0.946353  0.212792  1
  O  O18  1  0.444113  0.750000  0.312327  1
  O  O19  1  0.844757  0.553647  0.212792  1
  O  O20  1  0.555887  0.250000  0.687673  1
  O  O21  1  0.317131  0.454861  0.122324  1
  O  O22  1  0.733700  0.963336  0.532917  1
  O  O23  1  0.266300  0.463336  0.467083  1
  O  O24  1  0.642790  0.250000  0.338324  1
  O  O25  1  0.920755  0.250000  0.015550  1
