# generated using pymatgen
data_Cu2H2CO5
_symmetry_space_group_name_H-M   'P 1'
_cell_length_a   3.33239612
_cell_length_b   12.04485391
_cell_length_c   9.92325925
_cell_angle_alpha   90.00000000
_cell_angle_beta   103.14699246
_cell_angle_gamma   90.00000000
_symmetry_Int_Tables_number   1
_chemical_formula_structural   Cu2H2CO5
_chemical_formula_sum   'Cu8 H8 C4 O20'
_cell_volume   387.86241012
_cell_formula_units_Z   4
loop_
 _symmetry_equiv_pos_site_id
 _symmetry_equiv_pos_as_xyz
  1  'x, y, z'
loop_
 _atom_site_type_symbol
 _atom_site_label
 _atom_site_symmetry_multiplicity
 _atom_site_fract_x
 _atom_site_fract_y
 _atom_site_fract_z
 _atom_site_occupancy
  Cu  Cu0  1  0.108105  0.288726  0.505026  1
  Cu  Cu1  1  0.891895  0.788726  0.994974  1
  Cu  Cu2  1  0.891895  0.711274  0.494974  1
  Cu  Cu3  1  0.108105  0.211274  0.005026  1
  Cu  Cu4  1  0.623424  0.390230  0.772064  1
  Cu  Cu5  1  0.376576  0.890230  0.727936  1
  Cu  Cu6  1  0.376576  0.609770  0.227936  1
  Cu  Cu7  1  0.623424  0.109770  0.272064  1
  H  H8  1  0.186125  0.401786  0.985250  1
  H  H9  1  0.813875  0.901786  0.514750  1
  H  H10  1  0.813875  0.598214  0.014750  1
  H  H11  1  0.186125  0.098214  0.485250  1
  H  H12  1  0.153894  0.489804  0.602093  1
  H  H13  1  0.846106  0.989804  0.897907  1
  H  H14  1  0.846106  0.510196  0.397907  1
  H  H15  1  0.153894  0.010196  0.102093  1
  C  C16  1  0.532043  0.136297  0.734419  1
  C  C17  1  0.467957  0.636297  0.765581  1
  C  C18  1  0.467957  0.863703  0.265581  1
  C  C19  1  0.532043  0.363703  0.234419  1
  O  O20  1  0.695536  0.125790  0.865509  1
  O  O21  1  0.304464  0.625790  0.634491  1
  O  O22  1  0.304464  0.874210  0.134491  1
  O  O23  1  0.695536  0.374210  0.365509  1
  O  O24  1  0.541424  0.232696  0.674246  1
  O  O25  1  0.458576  0.732696  0.825754  1
  O  O26  1  0.458576  0.767304  0.325754  1
  O  O27  1  0.541424  0.267304  0.174246  1
  O  O28  1  0.355707  0.053614  0.662373  1
  O  O29  1  0.644293  0.553614  0.837627  1
  O  O30  1  0.644293  0.946386  0.337627  1
  O  O31  1  0.355707  0.446386  0.162373  1
  O  O32  1  0.114781  0.348204  0.907318  1
  O  O33  1  0.885219  0.848204  0.592682  1
  O  O34  1  0.885219  0.651796  0.092682  1
  O  O35  1  0.114781  0.151796  0.407318  1
  O  O36  1  0.124432  0.411835  0.630972  1
  O  O37  1  0.875568  0.911835  0.869028  1
  O  O38  1  0.875568  0.588165  0.369028  1
  O  O39  1  0.124432  0.088165  0.130972  1
