# generated using pymatgen
data_Sm2(PPt2)3
_symmetry_space_group_name_H-M   'P 1'
_cell_length_a   23.23018657
_cell_length_b   23.23018657
_cell_length_c   23.23018657
_cell_angle_alpha   169.80560623
_cell_angle_beta   169.80560623
_cell_angle_gamma   14.43619592
_symmetry_Int_Tables_number   1
_chemical_formula_structural   Sm2(PPt2)3
_chemical_formula_sum   'Sm4 P6 Pt12'
_cell_volume   392.67580547
_cell_formula_units_Z   2
loop_
 _symmetry_equiv_pos_site_id
 _symmetry_equiv_pos_as_xyz
  1  'x, y, z'
loop_
 _atom_site_type_symbol
 _atom_site_label
 _atom_site_symmetry_multiplicity
 _atom_site_fract_x
 _atom_site_fract_y
 _atom_site_fract_z
 _atom_site_occupancy
  Sm  Sm0  1  0.549407  0.049407  0.500000  1
  Sm  Sm1  1  0.799407  0.799407  0.000000  1
  Sm  Sm2  1  0.950593  0.450593  0.500000  1
  Sm  Sm3  1  0.200593  0.200593  0.000000  1
  P  P4  1  0.325123  0.325123  0.000000  1
  P  P5  1  0.250000  0.750000  0.500000  1
  P  P6  1  0.075123  0.575123  0.500000  1
  P  P7  1  0.424877  0.924877  0.500000  1
  P  P8  1  0.500000  0.500000  0.000000  1
  P  P9  1  0.674877  0.674877  0.000000  1
  Pt  Pt10  1  0.397722  0.397722  0.000000  1
  Pt  Pt11  1  0.899702  0.899702  0.000000  1
  Pt  Pt12  1  0.147722  0.647722  0.500000  1
  Pt  Pt13  1  0.602278  0.602278  0.000000  1
  Pt  Pt14  1  0.649702  0.149702  0.500000  1
  Pt  Pt15  1  0.274198  0.274198  0.000000  1
  Pt  Pt16  1  0.725802  0.725802  0.000000  1
  Pt  Pt17  1  0.352278  0.852278  0.500000  1
  Pt  Pt18  1  0.475802  0.975802  0.500000  1
  Pt  Pt19  1  0.100298  0.100298  0.000000  1
  Pt  Pt20  1  0.850298  0.350298  0.500000  1
  Pt  Pt21  1  0.024198  0.524198  0.500000  1
