# generated using pymatgen
data_CsGaS3
_symmetry_space_group_name_H-M   'P 1'
_cell_length_a   6.54818197
_cell_length_b   12.73744093
_cell_length_c   7.74615156
_cell_angle_alpha   90.00000000
_cell_angle_beta   107.59456160
_cell_angle_gamma   90.00000000
_symmetry_Int_Tables_number   1
_chemical_formula_structural   CsGaS3
_chemical_formula_sum   'Cs4 Ga4 S12'
_cell_volume   615.85967564
_cell_formula_units_Z   4
loop_
 _symmetry_equiv_pos_site_id
 _symmetry_equiv_pos_as_xyz
  1  'x, y, z'
loop_
 _atom_site_type_symbol
 _atom_site_label
 _atom_site_symmetry_multiplicity
 _atom_site_fract_x
 _atom_site_fract_y
 _atom_site_fract_z
 _atom_site_occupancy
  Cs  Cs0  1  0.719067  0.082940  0.747227  1
  Cs  Cs1  1  0.219067  0.417060  0.747227  1
  Cs  Cs2  1  0.780933  0.582940  0.252773  1
  Cs  Cs3  1  0.280933  0.917060  0.252773  1
  Ga  Ga4  1  0.643428  0.229208  0.190362  1
  Ga  Ga5  1  0.856572  0.729208  0.809638  1
  Ga  Ga6  1  0.143428  0.270792  0.190362  1
  Ga  Ga7  1  0.356572  0.770792  0.809638  1
  S  S8  1  0.187992  0.676245  0.979761  1
  S  S9  1  0.687992  0.823755  0.979761  1
  S  S10  1  0.630650  0.327615  0.439986  1
  S  S11  1  0.355605  0.414450  0.307860  1
  S  S12  1  0.644395  0.585550  0.692140  1
  S  S13  1  0.855605  0.085550  0.307860  1
  S  S14  1  0.130650  0.172385  0.439986  1
  S  S15  1  0.869350  0.827615  0.560014  1
  S  S16  1  0.312008  0.176245  0.020239  1
  S  S17  1  0.812008  0.323755  0.020239  1
  S  S18  1  0.369350  0.672385  0.560014  1
  S  S19  1  0.144395  0.914450  0.692140  1
