# generated using pymatgen
data_Rb2CrCl4
_symmetry_space_group_name_H-M   'P 1'
_cell_length_a   8.89346198
_cell_length_b   8.89346198
_cell_length_c   8.89346198
_cell_angle_alpha   146.81122946
_cell_angle_beta   146.81122946
_cell_angle_gamma   47.64336933
_symmetry_Int_Tables_number   1
_chemical_formula_structural   Rb2CrCl4
_chemical_formula_sum   'Rb2 Cr1 Cl4'
_cell_volume   209.94305331
_cell_formula_units_Z   1
loop_
 _symmetry_equiv_pos_site_id
 _symmetry_equiv_pos_as_xyz
  1  'x, y, z'
loop_
 _atom_site_type_symbol
 _atom_site_label
 _atom_site_symmetry_multiplicity
 _atom_site_fract_x
 _atom_site_fract_y
 _atom_site_fract_z
 _atom_site_occupancy
  Rb  Rb0  1  0.639459  0.639459  0.000000  1
  Rb  Rb1  1  0.360541  0.360541  0.000000  1
  Cr  Cr2  1  0.000000  0.000000  0.000000  1
  Cl  Cl3  1  0.000000  0.500000  0.500000  1
  Cl  Cl4  1  0.849548  0.849548  0.000000  1
  Cl  Cl5  1  0.500000  1.000000  0.500000  1
  Cl  Cl6  1  0.150452  0.150452  0.000000  1
