# generated using pymatgen
data_Ce2Co7B3
_symmetry_space_group_name_H-M   'P 1'
_cell_length_a   5.02194716
_cell_length_b   5.02194716
_cell_length_c   12.89092386
_cell_angle_alpha   90.00000000
_cell_angle_beta   90.00000000
_cell_angle_gamma   120.00000000
_symmetry_Int_Tables_number   1
_chemical_formula_structural   Ce2Co7B3
_chemical_formula_sum   'Ce4 Co14 B6'
_cell_volume   281.55221741
_cell_formula_units_Z   2
loop_
 _symmetry_equiv_pos_site_id
 _symmetry_equiv_pos_as_xyz
  1  'x, y, z'
loop_
 _atom_site_type_symbol
 _atom_site_label
 _atom_site_symmetry_multiplicity
 _atom_site_fract_x
 _atom_site_fract_y
 _atom_site_fract_z
 _atom_site_occupancy
  Ce  Ce0  1  0.000000  0.000000  0.000000  1
  Ce  Ce1  1  0.000000  0.000000  0.500000  1
  Ce  Ce2  1  0.000000  0.000000  0.257532  1
  Ce  Ce3  1  0.000000  0.000000  0.742468  1
  Co  Co4  1  0.333333  0.666667  0.000000  1
  Co  Co5  1  0.666667  0.333333  0.000000  1
  Co  Co6  1  0.500000  0.000000  0.156599  1
  Co  Co7  1  0.500000  0.500000  0.156599  1
  Co  Co8  1  0.000000  0.500000  0.156599  1
  Co  Co9  1  0.500000  0.000000  0.843401  1
  Co  Co10  1  0.500000  0.500000  0.843401  1
  Co  Co11  1  0.000000  0.500000  0.843401  1
  Co  Co12  1  0.500000  0.000000  0.383860  1
  Co  Co13  1  0.500000  0.500000  0.383860  1
  Co  Co14  1  0.000000  0.500000  0.383860  1
  Co  Co15  1  0.500000  0.000000  0.616140  1
  Co  Co16  1  0.500000  0.500000  0.616140  1
  Co  Co17  1  0.000000  0.500000  0.616140  1
  B  B18  1  0.333333  0.666667  0.500000  1
  B  B19  1  0.666667  0.333333  0.500000  1
  B  B20  1  0.333333  0.666667  0.268535  1
  B  B21  1  0.666667  0.333333  0.268535  1
  B  B22  1  0.666667  0.333333  0.731465  1
  B  B23  1  0.333333  0.666667  0.731465  1
