# generated using pymatgen
data_Na3Ce2C4O12F
_symmetry_space_group_name_H-M   'P 1'
_cell_length_a   5.11927744
_cell_length_b   5.11927744
_cell_length_c   22.92006801
_cell_angle_alpha   90.00000000
_cell_angle_beta   90.00000000
_cell_angle_gamma   120.00000000
_symmetry_Int_Tables_number   1
_chemical_formula_structural   Na3Ce2C4O12F
_chemical_formula_sum   'Na6 Ce4 C8 O24 F2'
_cell_volume   520.19223672
_cell_formula_units_Z   2
loop_
 _symmetry_equiv_pos_site_id
 _symmetry_equiv_pos_as_xyz
  1  'x, y, z'
loop_
 _atom_site_type_symbol
 _atom_site_label
 _atom_site_symmetry_multiplicity
 _atom_site_fract_x
 _atom_site_fract_y
 _atom_site_fract_z
 _atom_site_occupancy
  Na  Na0  1  0.666667  0.333333  0.977203  1
  Na  Na1  1  0.666667  0.333333  0.522797  1
  Na  Na2  1  0.333333  0.666667  0.477203  1
  Na  Na3  1  0.333333  0.666667  0.022797  1
  Na  Na4  1  0.000000  0.000000  0.750000  1
  Na  Na5  1  0.000000  0.000000  0.250000  1
  Ce  Ce6  1  0.333333  0.666667  0.645379  1
  Ce  Ce7  1  0.666667  0.333333  0.354621  1
  Ce  Ce8  1  0.333333  0.666667  0.854621  1
  Ce  Ce9  1  0.666667  0.333333  0.145379  1
  C  C10  1  0.000000  0.000000  0.436715  1
  C  C11  1  0.666667  0.333333  0.823164  1
  C  C12  1  0.000000  0.000000  0.936715  1
  C  C13  1  0.000000  0.000000  0.063285  1
  C  C14  1  0.333333  0.666667  0.323164  1
  C  C15  1  0.333333  0.666667  0.176836  1
  C  C16  1  0.000000  0.000000  0.563285  1
  C  C17  1  0.666667  0.333333  0.676836  1
  O  O18  1  0.293053  0.146527  0.062424  1
  O  O19  1  0.812533  0.187467  0.675477  1
  O  O20  1  0.146527  0.853473  0.937576  1
  O  O21  1  0.706947  0.853473  0.562424  1
  O  O22  1  0.853473  0.706947  0.062424  1
  O  O23  1  0.146527  0.293053  0.562424  1
  O  O24  1  0.625066  0.812533  0.324523  1
  O  O25  1  0.187467  0.812533  0.175477  1
  O  O26  1  0.146527  0.853473  0.562424  1
  O  O27  1  0.374934  0.187467  0.824523  1
  O  O28  1  0.812533  0.625066  0.824523  1
  O  O29  1  0.853473  0.146527  0.062424  1
  O  O30  1  0.187467  0.374934  0.324523  1
  O  O31  1  0.187467  0.812533  0.324523  1
  O  O32  1  0.374934  0.187467  0.675477  1
  O  O33  1  0.187467  0.374934  0.175477  1
  O  O34  1  0.812533  0.625066  0.675477  1
  O  O35  1  0.853473  0.706947  0.437576  1
  O  O36  1  0.293053  0.146527  0.437576  1
  O  O37  1  0.853473  0.146527  0.437576  1
  O  O38  1  0.706947  0.853473  0.937576  1
  O  O39  1  0.146527  0.293053  0.937576  1
  O  O40  1  0.625066  0.812533  0.175477  1
  O  O41  1  0.812533  0.187467  0.824523  1
  F  F42  1  0.666667  0.333333  0.250000  1
  F  F43  1  0.333333  0.666667  0.750000  1
