# generated using pymatgen
data_SbC(Cl2O)2
_symmetry_space_group_name_H-M   'P 1'
_cell_length_a   7.12469566
_cell_length_b   7.43325170
_cell_length_c   16.68277013
_cell_angle_alpha   80.04875870
_cell_angle_beta   84.21983744
_cell_angle_gamma   82.95640150
_symmetry_Int_Tables_number   1
_chemical_formula_structural   SbC(Cl2O)2
_chemical_formula_sum   'Sb4 C4 Cl16 O8'
_cell_volume   860.79153202
_cell_formula_units_Z   4
loop_
 _symmetry_equiv_pos_site_id
 _symmetry_equiv_pos_as_xyz
  1  'x, y, z'
loop_
 _atom_site_type_symbol
 _atom_site_label
 _atom_site_symmetry_multiplicity
 _atom_site_fract_x
 _atom_site_fract_y
 _atom_site_fract_z
 _atom_site_occupancy
  Sb  Sb0  1  0.663237  0.729402  0.624958  1
  Sb  Sb1  1  0.782353  0.756340  0.113653  1
  Sb  Sb2  1  0.336763  0.270598  0.375042  1
  Sb  Sb3  1  0.217647  0.243660  0.886347  1
  C  C4  1  0.914939  0.075511  0.999319  1
  C  C5  1  0.442788  0.050093  0.533104  1
  C  C6  1  0.085061  0.924489  0.000681  1
  C  C7  1  0.557212  0.949907  0.466896  1
  Cl  Cl8  1  0.875945  0.469868  0.610698  1
  Cl  Cl9  1  0.529352  0.195791  0.829448  1
  Cl  Cl10  1  0.310475  0.326027  0.005541  1
  Cl  Cl11  1  0.124055  0.530132  0.389302  1
  Cl  Cl12  1  0.904303  0.926158  0.613867  1
  Cl  Cl13  1  0.389582  0.285415  0.234137  1
  Cl  Cl14  1  0.689525  0.673973  0.994459  1
  Cl  Cl15  1  0.091064  0.113304  0.786868  1
  Cl  Cl16  1  0.120097  0.545405  0.829165  1
  Cl  Cl17  1  0.604340  0.418221  0.387323  1
  Cl  Cl18  1  0.879903  0.454595  0.170835  1
  Cl  Cl19  1  0.610418  0.714585  0.765863  1
  Cl  Cl20  1  0.470648  0.804209  0.170552  1
  Cl  Cl21  1  0.095697  0.073842  0.386133  1
  Cl  Cl22  1  0.908936  0.886696  0.213132  1
  Cl  Cl23  1  0.395660  0.581779  0.612677  1
  O  O24  1  0.234225  0.962236  0.956072  1
  O  O25  1  0.533446  0.015843  0.392976  1
  O  O26  1  0.765775  0.037764  0.043928  1
  O  O27  1  0.064428  0.772388  0.046417  1
  O  O28  1  0.935572  0.227612  0.953583  1
  O  O29  1  0.466554  0.984157  0.607024  1
  O  O30  1  0.332225  0.191834  0.509270  1
  O  O31  1  0.667775  0.808166  0.490730  1
