# generated using pymatgen
data_RbZrCdF7
_symmetry_space_group_name_H-M   'P 1'
_cell_length_a   6.63913790
_cell_length_b   6.63913790
_cell_length_c   8.67049578
_cell_angle_alpha   90.00000000
_cell_angle_beta   90.00000000
_cell_angle_gamma   116.97669132
_symmetry_Int_Tables_number   1
_chemical_formula_structural   RbZrCdF7
_chemical_formula_sum   'Rb2 Zr2 Cd2 F14'
_cell_volume   340.59492336
_cell_formula_units_Z   2
loop_
 _symmetry_equiv_pos_site_id
 _symmetry_equiv_pos_as_xyz
  1  'x, y, z'
loop_
 _atom_site_type_symbol
 _atom_site_label
 _atom_site_symmetry_multiplicity
 _atom_site_fract_x
 _atom_site_fract_y
 _atom_site_fract_z
 _atom_site_occupancy
  Rb  Rb0  1  0.000000  0.000000  0.000000  1
  Rb  Rb1  1  0.000000  0.000000  0.500000  1
  Zr  Zr2  1  0.693180  0.306820  0.250000  1
  Zr  Zr3  1  0.306820  0.693180  0.750000  1
  Cd  Cd4  1  0.691362  0.308638  0.750000  1
  Cd  Cd5  1  0.308638  0.691362  0.250000  1
  F  F6  1  0.703619  0.296381  0.486067  1
  F  F7  1  0.936804  0.652562  0.250000  1
  F  F8  1  0.347438  0.063196  0.250000  1
  F  F9  1  0.328643  0.025325  0.750000  1
  F  F10  1  0.974675  0.671357  0.750000  1
  F  F11  1  0.703619  0.296381  0.013933  1
  F  F12  1  0.652562  0.936804  0.750000  1
  F  F13  1  0.025325  0.328643  0.250000  1
  F  F14  1  0.671357  0.974675  0.250000  1
  F  F15  1  0.510455  0.489545  0.250000  1
  F  F16  1  0.296381  0.703619  0.986067  1
  F  F17  1  0.296381  0.703619  0.513933  1
  F  F18  1  0.489545  0.510455  0.750000  1
  F  F19  1  0.063196  0.347438  0.750000  1
