# generated using pymatgen
data_ZrAlPt
_symmetry_space_group_name_H-M   'P 1'
_cell_length_a   7.16523214
_cell_length_b   7.16523214
_cell_length_c   7.29246026
_cell_angle_alpha   90.00000000
_cell_angle_beta   90.00000000
_cell_angle_gamma   120.00000000
_symmetry_Int_Tables_number   1
_chemical_formula_structural   ZrAlPt
_chemical_formula_sum   'Zr6 Al6 Pt6'
_cell_volume   324.23898704
_cell_formula_units_Z   6
loop_
 _symmetry_equiv_pos_site_id
 _symmetry_equiv_pos_as_xyz
  1  'x, y, z'
loop_
 _atom_site_type_symbol
 _atom_site_label
 _atom_site_symmetry_multiplicity
 _atom_site_fract_x
 _atom_site_fract_y
 _atom_site_fract_z
 _atom_site_occupancy
  Zr  Zr0  1  0.017810  0.605939  0.750000  1
  Zr  Zr1  1  0.982190  0.588129  0.250000  1
  Zr  Zr2  1  0.605939  0.017810  0.250000  1
  Zr  Zr3  1  0.588129  0.982190  0.750000  1
  Zr  Zr4  1  0.411871  0.394061  0.250000  1
  Zr  Zr5  1  0.394061  0.411871  0.750000  1
  Al  Al6  1  0.000000  0.258154  0.500000  1
  Al  Al7  1  0.741846  0.741846  0.000000  1
  Al  Al8  1  0.000000  0.258154  0.000000  1
  Al  Al9  1  0.258154  0.000000  0.500000  1
  Al  Al10  1  0.258154  0.000000  0.000000  1
  Al  Al11  1  0.741846  0.741846  0.500000  1
  Pt  Pt12  1  0.333333  0.666667  0.475677  1
  Pt  Pt13  1  0.666667  0.333333  0.524323  1
  Pt  Pt14  1  0.666667  0.333333  0.975677  1
  Pt  Pt15  1  0.000000  0.000000  0.250000  1
  Pt  Pt16  1  0.000000  0.000000  0.750000  1
  Pt  Pt17  1  0.333333  0.666667  0.024323  1
