# generated using pymatgen
data_CsRe3(O3F5)2
_symmetry_space_group_name_H-M   'P 1'
_cell_length_a   7.34656576
_cell_length_b   10.10067561
_cell_length_c   10.67801807
_cell_angle_alpha   113.56292525
_cell_angle_beta   91.01045898
_cell_angle_gamma   92.22424985
_symmetry_Int_Tables_number   1
_chemical_formula_structural   CsRe3(O3F5)2
_chemical_formula_sum   'Cs2 Re6 O12 F20'
_cell_volume   725.27644812
_cell_formula_units_Z   2
loop_
 _symmetry_equiv_pos_site_id
 _symmetry_equiv_pos_as_xyz
  1  'x, y, z'
loop_
 _atom_site_type_symbol
 _atom_site_label
 _atom_site_symmetry_multiplicity
 _atom_site_fract_x
 _atom_site_fract_y
 _atom_site_fract_z
 _atom_site_occupancy
  Cs  Cs0  1  0.695475  0.704078  0.121155  1
  Cs  Cs1  1  0.304525  0.295922  0.878845  1
  Re  Re2  1  0.230132  0.625460  0.367910  1
  Re  Re3  1  0.769868  0.374540  0.632090  1
  Re  Re4  1  0.258701  0.014158  0.326188  1
  Re  Re5  1  0.741299  0.985842  0.673812  1
  Re  Re6  1  0.238607  0.778185  0.889382  1
  Re  Re7  1  0.761393  0.221815  0.110618  1
  O  O8  1  0.166956  0.480260  0.403107  1
  O  O9  1  0.833044  0.519740  0.596893  1
  O  O10  1  0.129830  0.765645  0.494413  1
  O  O11  1  0.870170  0.234355  0.505587  1
  O  O12  1  0.277636  0.076551  0.500171  1
  O  O13  1  0.722364  0.923449  0.499829  1
  O  O14  1  0.202837  0.164765  0.302095  1
  O  O15  1  0.797163  0.835235  0.697905  1
  O  O16  1  0.237433  0.668918  0.719526  1
  O  O17  1  0.762567  0.331082  0.280474  1
  O  O18  1  0.189231  0.943141  0.889322  1
  O  O19  1  0.810769  0.056859  0.110678  1
  F  F20  1  0.042747  0.602541  0.235000  1
  F  F21  1  0.957253  0.397459  0.765000  1
  F  F22  1  0.369313  0.529051  0.204132  1
  F  F23  1  0.630687  0.470949  0.795868  1
  F  F24  1  0.463790  0.665426  0.453700  1
  F  F25  1  0.536210  0.334574  0.546300  1
  F  F26  1  0.326554  0.805314  0.305746  1
  F  F27  1  0.673446  0.194686  0.694254  1
  F  F28  1  0.021770  0.928312  0.304579  1
  F  F29  1  0.978230  0.071688  0.695421  1
  F  F30  1  0.509363  0.022438  0.294289  1
  F  F31  1  0.490637  0.977562  0.705711  1
  F  F32  1  0.250176  0.896654  0.114001  1
  F  F33  1  0.749824  0.103346  0.885999  1
  F  F34  1  0.299050  0.630600  0.957811  1
  F  F35  1  0.700950  0.369400  0.042189  1
  F  F36  1  0.998351  0.732441  0.925079  1
  F  F37  1  0.001649  0.267559  0.074921  1
  F  F38  1  0.492672  0.821913  0.917459  1
  F  F39  1  0.507328  0.178087  0.082541  1
