# generated using pymatgen
data_Mn4(PO4)3
_symmetry_space_group_name_H-M   'P 1'
_cell_length_a   7.75369105
_cell_length_b   8.20899684
_cell_length_c   9.73172453
_cell_angle_alpha   109.97468633
_cell_angle_beta   112.96149941
_cell_angle_gamma   93.59995154
_symmetry_Int_Tables_number   1
_chemical_formula_structural   Mn4(PO4)3
_chemical_formula_sum   'Mn8 P6 O24'
_cell_volume   522.09825935
_cell_formula_units_Z   2
loop_
 _symmetry_equiv_pos_site_id
 _symmetry_equiv_pos_as_xyz
  1  'x, y, z'
loop_
 _atom_site_type_symbol
 _atom_site_label
 _atom_site_symmetry_multiplicity
 _atom_site_fract_x
 _atom_site_fract_y
 _atom_site_fract_z
 _atom_site_occupancy
  Mn  Mn0  1  0.026580  0.798030  0.456516  1
  Mn  Mn1  1  0.270486  0.920589  0.931672  1
  Mn  Mn2  1  0.279568  0.533497  0.931143  1
  Mn  Mn3  1  0.315472  0.617348  0.304723  1
  Mn  Mn4  1  0.684528  0.382652  0.695277  1
  Mn  Mn5  1  0.720432  0.466503  0.068857  1
  Mn  Mn6  1  0.729514  0.079411  0.068328  1
  Mn  Mn7  1  0.973420  0.201970  0.543484  1
  P  P8  1  0.016284  0.252478  0.934071  1
  P  P9  1  0.295050  0.548010  0.612813  1
  P  P10  1  0.402010  0.142528  0.751035  1
  P  P11  1  0.597990  0.857472  0.248965  1
  P  P12  1  0.704950  0.451990  0.387187  1
  P  P13  1  0.983716  0.747522  0.065929  1
  O  O14  1  0.078277  0.077872  0.904758  1
  O  O15  1  0.270003  0.653222  0.770123  1
  O  O16  1  0.061098  0.711801  0.228715  1
  O  O17  1  0.185587  0.058831  0.626274  1
  O  O18  1  0.157745  0.364742  0.521113  1
  O  O19  1  0.247858  0.659213  0.504003  1
  O  O20  1  0.424593  0.336700  0.870426  1
  O  O21  1  0.461956  0.029560  0.855788  1
  O  O22  1  0.140803  0.744392  0.003798  1
  O  O23  1  0.185753  0.418224  0.058596  1
  O  O24  1  0.505235  0.536155  0.655575  1
  O  O25  1  0.529515  0.153642  0.666606  1
  O  O26  1  0.470485  0.846358  0.333394  1
  O  O27  1  0.494765  0.463845  0.344425  1
  O  O28  1  0.814247  0.581776  0.941404  1
  O  O29  1  0.859197  0.255608  0.996202  1
  O  O30  1  0.538044  0.970440  0.144212  1
  O  O31  1  0.575407  0.663300  0.129574  1
  O  O32  1  0.752142  0.340787  0.495997  1
  O  O33  1  0.842255  0.635258  0.478887  1
  O  O34  1  0.814413  0.941169  0.373726  1
  O  O35  1  0.938902  0.288199  0.771285  1
  O  O36  1  0.729997  0.346778  0.229877  1
  O  O37  1  0.921723  0.922128  0.095242  1
