# generated using pymatgen
data_ErZrSb
_symmetry_space_group_name_H-M   'P 1'
_cell_length_a   8.79610782
_cell_length_b   8.79610782
_cell_length_c   8.79610782
_cell_angle_alpha   151.94869039
_cell_angle_beta   151.94869039
_cell_angle_gamma   40.08823624
_symmetry_Int_Tables_number   1
_chemical_formula_structural   ErZrSb
_chemical_formula_sum   'Er2 Zr2 Sb2'
_cell_volume   150.21189317
_cell_formula_units_Z   2
loop_
 _symmetry_equiv_pos_site_id
 _symmetry_equiv_pos_as_xyz
  1  'x, y, z'
loop_
 _atom_site_type_symbol
 _atom_site_label
 _atom_site_symmetry_multiplicity
 _atom_site_fract_x
 _atom_site_fract_y
 _atom_site_fract_z
 _atom_site_occupancy
  Er  Er0  1  0.676236  0.676236  0.000000  1
  Er  Er1  1  0.323764  0.323764  0.000000  1
  Zr  Zr2  1  0.500000  0.000000  0.500000  1
  Zr  Zr3  1  0.000000  0.500000  0.500000  1
  Sb  Sb4  1  0.134591  0.134591  0.000000  1
  Sb  Sb5  1  0.865409  0.865409  0.000000  1
