# generated using pymatgen
data_Ho2Mn3Si5
_symmetry_space_group_name_H-M   'P 1'
_cell_length_a   10.56462735
_cell_length_b   10.56462735
_cell_length_c   5.40579650
_cell_angle_alpha   90.00000000
_cell_angle_beta   90.00000000
_cell_angle_gamma   90.00000000
_symmetry_Int_Tables_number   1
_chemical_formula_structural   Ho2Mn3Si5
_chemical_formula_sum   'Ho8 Mn12 Si20'
_cell_volume   603.34825084
_cell_formula_units_Z   4
loop_
 _symmetry_equiv_pos_site_id
 _symmetry_equiv_pos_as_xyz
  1  'x, y, z'
loop_
 _atom_site_type_symbol
 _atom_site_label
 _atom_site_symmetry_multiplicity
 _atom_site_fract_x
 _atom_site_fract_y
 _atom_site_fract_z
 _atom_site_occupancy
  Ho  Ho0  1  0.236470  0.075622  0.000000  1
  Ho  Ho1  1  0.075622  0.763530  0.000000  1
  Ho  Ho2  1  0.924378  0.236470  0.000000  1
  Ho  Ho3  1  0.763530  0.924378  0.000000  1
  Ho  Ho4  1  0.263530  0.575622  0.500000  1
  Ho  Ho5  1  0.736470  0.424378  0.500000  1
  Ho  Ho6  1  0.575622  0.736470  0.500000  1
  Ho  Ho7  1  0.424378  0.263530  0.500000  1
  Mn  Mn8  1  0.500000  0.000000  0.250000  1
  Mn  Mn9  1  0.000000  0.500000  0.250000  1
  Mn  Mn10  1  0.500000  0.000000  0.750000  1
  Mn  Mn11  1  0.000000  0.500000  0.750000  1
  Mn  Mn12  1  0.354439  0.378636  0.000000  1
  Mn  Mn13  1  0.378636  0.645561  0.000000  1
  Mn  Mn14  1  0.621364  0.354439  0.000000  1
  Mn  Mn15  1  0.645561  0.621364  0.000000  1
  Mn  Mn16  1  0.145561  0.878636  0.500000  1
  Mn  Mn17  1  0.854439  0.121364  0.500000  1
  Mn  Mn18  1  0.878636  0.854439  0.500000  1
  Mn  Mn19  1  0.121364  0.145561  0.500000  1
  Si  Si20  1  0.000000  0.000000  0.257763  1
  Si  Si21  1  0.500000  0.500000  0.242237  1
  Si  Si22  1  0.000000  0.000000  0.742237  1
  Si  Si23  1  0.500000  0.500000  0.757763  1
  Si  Si24  1  0.674769  0.174769  0.250000  1
  Si  Si25  1  0.174769  0.325231  0.250000  1
  Si  Si26  1  0.825231  0.674769  0.250000  1
  Si  Si27  1  0.325231  0.825231  0.250000  1
  Si  Si28  1  0.325231  0.825231  0.750000  1
  Si  Si29  1  0.825231  0.674769  0.750000  1
  Si  Si30  1  0.174769  0.325231  0.750000  1
  Si  Si31  1  0.674769  0.174769  0.750000  1
  Si  Si32  1  0.475783  0.185284  0.000000  1
  Si  Si33  1  0.185284  0.524217  0.000000  1
  Si  Si34  1  0.814716  0.475783  0.000000  1
  Si  Si35  1  0.524217  0.814716  0.000000  1
  Si  Si36  1  0.024217  0.685284  0.500000  1
  Si  Si37  1  0.975783  0.314716  0.500000  1
  Si  Si38  1  0.685284  0.975783  0.500000  1
  Si  Si39  1  0.314716  0.024217  0.500000  1
