# generated using pymatgen
data_MnB2F8
_symmetry_space_group_name_H-M   'P 1'
_cell_length_a   5.56085437
_cell_length_b   8.72106828
_cell_length_c   11.12058164
_cell_angle_alpha   90.00000000
_cell_angle_beta   90.00000000
_cell_angle_gamma   90.00000000
_symmetry_Int_Tables_number   1
_chemical_formula_structural   MnB2F8
_chemical_formula_sum   'Mn4 B8 F32'
_cell_volume   539.31029565
_cell_formula_units_Z   4
loop_
 _symmetry_equiv_pos_site_id
 _symmetry_equiv_pos_as_xyz
  1  'x, y, z'
loop_
 _atom_site_type_symbol
 _atom_site_label
 _atom_site_symmetry_multiplicity
 _atom_site_fract_x
 _atom_site_fract_y
 _atom_site_fract_z
 _atom_site_occupancy
  Mn  Mn0  1  0.250000  0.752675  0.898640  1
  Mn  Mn1  1  0.750000  0.247325  0.101360  1
  Mn  Mn2  1  0.250000  0.252675  0.601360  1
  Mn  Mn3  1  0.750000  0.747325  0.398640  1
  B  B4  1  0.250000  0.854116  0.593308  1
  B  B5  1  0.750000  0.145884  0.406692  1
  B  B6  1  0.250000  0.354116  0.906692  1
  B  B7  1  0.750000  0.645884  0.093308  1
  B  B8  1  0.250000  0.505730  0.345477  1
  B  B9  1  0.750000  0.494270  0.654523  1
  B  B10  1  0.250000  0.005730  0.154523  1
  B  B11  1  0.750000  0.994270  0.845477  1
  F  F12  1  0.250000  0.746472  0.687965  1
  F  F13  1  0.250000  0.431809  0.459772  1
  F  F14  1  0.750000  0.068191  0.959772  1
  F  F15  1  0.250000  0.931809  0.040228  1
  F  F16  1  0.750000  0.993601  0.359508  1
  F  F17  1  0.250000  0.006399  0.640492  1
  F  F18  1  0.750000  0.493601  0.140492  1
  F  F19  1  0.250000  0.506399  0.859508  1
  F  F20  1  0.457577  0.603010  0.339898  1
  F  F21  1  0.957577  0.396990  0.660102  1
  F  F22  1  0.042423  0.103010  0.160102  1
  F  F23  1  0.750000  0.568191  0.540228  1
  F  F24  1  0.542423  0.396990  0.660102  1
  F  F25  1  0.042423  0.603010  0.339898  1
  F  F26  1  0.957577  0.896990  0.839898  1
  F  F27  1  0.457577  0.103010  0.160102  1
  F  F28  1  0.458860  0.834191  0.521818  1
  F  F29  1  0.958860  0.165809  0.478182  1
  F  F30  1  0.041140  0.334191  0.978182  1
  F  F31  1  0.541140  0.665809  0.021818  1
  F  F32  1  0.541140  0.165809  0.478182  1
  F  F33  1  0.041140  0.834191  0.521818  1
  F  F34  1  0.958860  0.665809  0.021818  1
  F  F35  1  0.458860  0.334191  0.978182  1
  F  F36  1  0.750000  0.596924  0.747937  1
  F  F37  1  0.250000  0.403076  0.252063  1
  F  F38  1  0.750000  0.096924  0.752063  1
  F  F39  1  0.250000  0.903076  0.247937  1
  F  F40  1  0.250000  0.246472  0.812035  1
  F  F41  1  0.750000  0.753528  0.187965  1
  F  F42  1  0.542423  0.896990  0.839898  1
  F  F43  1  0.750000  0.253528  0.312035  1
