# generated using pymatgen
data_Th7Ir3
_symmetry_space_group_name_H-M   'P 1'
_cell_length_a   10.08842975
_cell_length_b   10.08842975
_cell_length_c   6.31211134
_cell_angle_alpha   90.00000000
_cell_angle_beta   90.00000000
_cell_angle_gamma   120.00000000
_symmetry_Int_Tables_number   1
_chemical_formula_structural   Th7Ir3
_chemical_formula_sum   'Th14 Ir6'
_cell_volume   556.35555819
_cell_formula_units_Z   2
loop_
 _symmetry_equiv_pos_site_id
 _symmetry_equiv_pos_as_xyz
  1  'x, y, z'
loop_
 _atom_site_type_symbol
 _atom_site_label
 _atom_site_symmetry_multiplicity
 _atom_site_fract_x
 _atom_site_fract_y
 _atom_site_fract_z
 _atom_site_occupancy
  Th  Th0  1  0.457680  0.542320  0.293051  1
  Th  Th1  1  0.084639  0.542320  0.293051  1
  Th  Th2  1  0.915361  0.457680  0.793051  1
  Th  Th3  1  0.256852  0.128426  0.498868  1
  Th  Th4  1  0.542320  0.084639  0.793051  1
  Th  Th5  1  0.743148  0.871574  0.998868  1
  Th  Th6  1  0.666667  0.333333  0.305794  1
  Th  Th7  1  0.128426  0.871574  0.998868  1
  Th  Th8  1  0.457680  0.915361  0.293051  1
  Th  Th9  1  0.542320  0.457680  0.793051  1
  Th  Th10  1  0.871574  0.128426  0.498868  1
  Th  Th11  1  0.128426  0.256852  0.998868  1
  Th  Th12  1  0.871574  0.743148  0.498868  1
  Th  Th13  1  0.333333  0.666667  0.805794  1
  Ir  Ir14  1  0.812913  0.625826  0.053483  1
  Ir  Ir15  1  0.812913  0.187087  0.053483  1
  Ir  Ir16  1  0.625826  0.812913  0.553483  1
  Ir  Ir17  1  0.374174  0.187087  0.053483  1
  Ir  Ir18  1  0.187087  0.374174  0.553483  1
  Ir  Ir19  1  0.187087  0.812913  0.553483  1
