# generated using pymatgen
data_Ba3ErRu2O9
_symmetry_space_group_name_H-M   'P 1'
_cell_length_a   5.94147088
_cell_length_b   5.94147088
_cell_length_c   14.53691444
_cell_angle_alpha   90.00000000
_cell_angle_beta   90.00000000
_cell_angle_gamma   120.00000000
_symmetry_Int_Tables_number   1
_chemical_formula_structural   Ba3ErRu2O9
_chemical_formula_sum   'Ba6 Er2 Ru4 O18'
_cell_volume   444.41715217
_cell_formula_units_Z   2
loop_
 _symmetry_equiv_pos_site_id
 _symmetry_equiv_pos_as_xyz
  1  'x, y, z'
loop_
 _atom_site_type_symbol
 _atom_site_label
 _atom_site_symmetry_multiplicity
 _atom_site_fract_x
 _atom_site_fract_y
 _atom_site_fract_z
 _atom_site_occupancy
  Ba  Ba0  1  0.000000  0.000000  0.250000  1
  Ba  Ba1  1  0.000000  0.000000  0.750000  1
  Ba  Ba2  1  0.333333  0.666667  0.906480  1
  Ba  Ba3  1  0.666667  0.333333  0.406480  1
  Ba  Ba4  1  0.666667  0.333333  0.093520  1
  Ba  Ba5  1  0.333333  0.666667  0.593520  1
  Er  Er6  1  0.000000  0.000000  0.000000  1
  Er  Er7  1  0.000000  0.000000  0.500000  1
  Ru  Ru8  1  0.333333  0.666667  0.163979  1
  Ru  Ru9  1  0.666667  0.333333  0.663979  1
  Ru  Ru10  1  0.666667  0.333333  0.836021  1
  Ru  Ru11  1  0.333333  0.666667  0.336021  1
  O  O12  1  0.490417  0.980833  0.250000  1
  O  O13  1  0.509583  0.490417  0.750000  1
  O  O14  1  0.980833  0.490417  0.750000  1
  O  O15  1  0.019167  0.509583  0.250000  1
  O  O16  1  0.490417  0.509583  0.250000  1
  O  O17  1  0.509583  0.019167  0.750000  1
  O  O18  1  0.175425  0.350849  0.412646  1
  O  O19  1  0.824575  0.175425  0.912646  1
  O  O20  1  0.350849  0.175425  0.912646  1
  O  O21  1  0.649151  0.824575  0.412646  1
  O  O22  1  0.175425  0.824575  0.412646  1
  O  O23  1  0.824575  0.649151  0.587354  1
  O  O24  1  0.824575  0.175425  0.587354  1
  O  O25  1  0.824575  0.649151  0.912646  1
  O  O26  1  0.350849  0.175425  0.587354  1
  O  O27  1  0.649151  0.824575  0.087354  1
  O  O28  1  0.175425  0.350849  0.087354  1
  O  O29  1  0.175425  0.824575  0.087354  1
