# generated using pymatgen
data_Na2Ti2Si2O9
_symmetry_space_group_name_H-M   'P 1'
_cell_length_a   5.28700700
_cell_length_b   8.79768900
_cell_length_c   14.73470800
_cell_angle_alpha   90.00000000
_cell_angle_beta   90.00000000
_cell_angle_gamma   90.00000000
_symmetry_Int_Tables_number   1
_chemical_formula_structural   Na2Ti2Si2O9
_chemical_formula_sum   'Na8 Ti8 Si8 O36'
_cell_volume   685.36200550
_cell_formula_units_Z   4
loop_
 _symmetry_equiv_pos_site_id
 _symmetry_equiv_pos_as_xyz
  1  'x, y, z'
loop_
 _atom_site_type_symbol
 _atom_site_label
 _atom_site_symmetry_multiplicity
 _atom_site_fract_x
 _atom_site_fract_y
 _atom_site_fract_z
 _atom_site_occupancy
  Na  Na0  1  0.859405  0.436687  0.345657  1
  Na  Na1  1  0.859405  0.563313  0.154343  1
  Na  Na2  1  0.640595  0.936687  0.654343  1
  Na  Na3  1  0.640595  0.063313  0.845657  1
  Na  Na4  1  0.140595  0.563313  0.654343  1
  Na  Na5  1  0.140595  0.436687  0.845657  1
  Na  Na6  1  0.359405  0.063313  0.345657  1
  Na  Na7  1  0.359405  0.936687  0.154343  1
  Ti  Ti8  1  0.369808  0.650354  0.331087  1
  Ti  Ti9  1  0.369808  0.349646  0.168913  1
  Ti  Ti10  1  0.130192  0.150354  0.668913  1
  Ti  Ti11  1  0.130192  0.849646  0.831087  1
  Ti  Ti12  1  0.630192  0.349646  0.668913  1
  Ti  Ti13  1  0.630192  0.650354  0.831087  1
  Ti  Ti14  1  0.869808  0.849646  0.331087  1
  Ti  Ti15  1  0.869808  0.150354  0.168913  1
  Si  Si16  1  0.300197  0.341975  0.473482  1
  Si  Si17  1  0.300197  0.658025  0.026518  1
  Si  Si18  1  0.199803  0.841975  0.526518  1
  Si  Si19  1  0.199803  0.158025  0.973482  1
  Si  Si20  1  0.699803  0.658025  0.526518  1
  Si  Si21  1  0.699803  0.341975  0.973482  1
  Si  Si22  1  0.800197  0.158025  0.473482  1
  Si  Si23  1  0.800197  0.841975  0.026518  1
  O  O24  1  0.491925  0.500000  0.250000  1
  O  O25  1  0.008075  0.000000  0.750000  1
  O  O26  1  0.508075  0.500000  0.750000  1
  O  O27  1  0.991925  0.000000  0.250000  1
  O  O28  1  0.059477  0.683285  0.277992  1
  O  O29  1  0.059477  0.316715  0.222008  1
  O  O30  1  0.440523  0.183285  0.722008  1
  O  O31  1  0.440523  0.816715  0.777992  1
  O  O32  1  0.940523  0.316715  0.722008  1
  O  O33  1  0.940523  0.683285  0.777992  1
  O  O34  1  0.559477  0.816715  0.277992  1
  O  O35  1  0.559477  0.183285  0.222008  1
  O  O36  1  0.064407  0.235008  0.433108  1
  O  O37  1  0.064407  0.764992  0.066892  1
  O  O38  1  0.740595  0.493810  0.573926  1
  O  O39  1  0.435593  0.735008  0.566892  1
  O  O40  1  0.935593  0.764992  0.566892  1
  O  O41  1  0.935593  0.235008  0.933108  1
  O  O42  1  0.564407  0.264992  0.433108  1
  O  O43  1  0.564407  0.735008  0.066892  1
  O  O44  1  0.259405  0.506190  0.426074  1
  O  O45  1  0.259405  0.493810  0.073926  1
  O  O46  1  0.240595  0.006190  0.573926  1
  O  O47  1  0.240595  0.993810  0.926074  1
  O  O48  1  0.798945  0.834806  0.916078  1
  O  O49  1  0.798945  0.165194  0.583922  1
  O  O50  1  0.701055  0.334806  0.083922  1
  O  O51  1  0.701055  0.665194  0.416078  1
  O  O52  1  0.201055  0.165194  0.083922  1
  O  O53  1  0.201055  0.834806  0.416078  1
  O  O54  1  0.298945  0.665194  0.916078  1
  O  O55  1  0.298945  0.334806  0.583922  1
  O  O56  1  0.759405  0.006190  0.073926  1
  O  O57  1  0.759405  0.993810  0.426074  1
  O  O58  1  0.740595  0.506190  0.926074  1
  O  O59  1  0.435593  0.264992  0.933108  1
