# generated using pymatgen
data_Pr6Si4S17
_symmetry_space_group_name_H-M   'P 1'
_cell_length_a   9.04108665
_cell_length_b   10.07546511
_cell_length_c   14.38075838
_cell_angle_alpha   81.99255654
_cell_angle_beta   86.88386320
_cell_angle_gamma   89.31585172
_symmetry_Int_Tables_number   1
_chemical_formula_structural   Pr6Si4S17
_chemical_formula_sum   'Pr12 Si8 S34'
_cell_volume   1295.28550650
_cell_formula_units_Z   2
loop_
 _symmetry_equiv_pos_site_id
 _symmetry_equiv_pos_as_xyz
  1  'x, y, z'
loop_
 _atom_site_type_symbol
 _atom_site_label
 _atom_site_symmetry_multiplicity
 _atom_site_fract_x
 _atom_site_fract_y
 _atom_site_fract_z
 _atom_site_occupancy
  Pr  Pr0  1  0.668215  0.588831  0.657760  1
  Pr  Pr1  1  0.106560  0.385029  0.816543  1
  Pr  Pr2  1  0.551824  0.261472  0.998774  1
  Pr  Pr3  1  0.630027  0.934018  0.324626  1
  Pr  Pr4  1  0.893440  0.614971  0.183457  1
  Pr  Pr5  1  0.981292  0.230825  0.540489  1
  Pr  Pr6  1  0.083626  0.080103  0.165678  1
  Pr  Pr7  1  0.916374  0.919897  0.834322  1
  Pr  Pr8  1  0.369973  0.065982  0.675374  1
  Pr  Pr9  1  0.448176  0.738528  0.001226  1
  Pr  Pr10  1  0.331785  0.411169  0.342240  1
  Pr  Pr11  1  0.018708  0.769175  0.459511  1
  Si  Si12  1  0.769329  0.562432  0.901176  1
  Si  Si13  1  0.751005  0.500606  0.416220  1
  Si  Si14  1  0.725278  0.941379  0.605639  1
  Si  Si15  1  0.250926  0.060082  0.922782  1
  Si  Si16  1  0.749074  0.939918  0.077218  1
  Si  Si17  1  0.274722  0.058621  0.394361  1
  Si  Si18  1  0.248995  0.499394  0.583780  1
  Si  Si19  1  0.230671  0.437568  0.098824  1
  S  S20  1  0.742052  0.114117  0.148682  1
  S  S21  1  0.340411  0.001435  0.056443  1
  S  S22  1  0.990499  0.627773  0.885502  1
  S  S23  1  0.703278  0.692157  0.459341  1
  S  S24  1  0.300145  0.911635  0.303445  1
  S  S25  1  0.699855  0.088365  0.696555  1
  S  S26  1  0.247124  0.612904  0.166992  1
  S  S27  1  0.015302  0.492020  0.623238  1
  S  S28  1  0.306041  0.632827  0.461296  1
  S  S29  1  0.815306  0.018581  0.467763  1
  S  S30  1  0.644793  0.470816  0.293841  1
  S  S31  1  0.107451  0.201303  0.345564  1
  S  S32  1  0.041382  0.147494  0.951784  1
  S  S33  1  0.257948  0.885883  0.851318  1
  S  S34  1  0.930777  0.856684  0.277874  1
  S  S35  1  0.383057  0.212457  0.839125  1
  S  S36  1  0.958618  0.852506  0.048216  1
  S  S37  1  0.633430  0.717586  0.833656  1
  S  S38  1  0.659589  0.998565  0.943557  1
  S  S39  1  0.752876  0.387096  0.833008  1
  S  S40  1  0.892549  0.798697  0.654436  1
  S  S41  1  0.296722  0.307843  0.540659  1
  S  S42  1  0.355207  0.529184  0.706159  1
  S  S43  1  0.184694  0.981419  0.532237  1
  S  S44  1  0.693959  0.367173  0.538704  1
  S  S45  1  0.616943  0.787543  0.160875  1
  S  S46  1  0.984698  0.507980  0.376762  1
  S  S47  1  0.069223  0.143316  0.722126  1
  S  S48  1  0.517650  0.846418  0.603528  1
  S  S49  1  0.366570  0.282414  0.166344  1
  S  S50  1  0.678659  0.518626  0.043022  1
  S  S51  1  0.321341  0.481374  0.956978  1
  S  S52  1  0.009501  0.372227  0.114498  1
  S  S53  1  0.482350  0.153582  0.396472  1
