# generated using pymatgen
data_Co2AsClO4
_symmetry_space_group_name_H-M   'P 1'
_cell_length_a   4.99458820
_cell_length_b   6.71263237
_cell_length_c   6.95958929
_cell_angle_alpha   90.00000000
_cell_angle_beta   91.49458943
_cell_angle_gamma   90.00000000
_symmetry_Int_Tables_number   1
_chemical_formula_structural   Co2AsClO4
_chemical_formula_sum   'Co4 As2 Cl2 O8'
_cell_volume   233.25361616
_cell_formula_units_Z   2
loop_
 _symmetry_equiv_pos_site_id
 _symmetry_equiv_pos_as_xyz
  1  'x, y, z'
loop_
 _atom_site_type_symbol
 _atom_site_label
 _atom_site_symmetry_multiplicity
 _atom_site_fract_x
 _atom_site_fract_y
 _atom_site_fract_z
 _atom_site_occupancy
  Co  Co0  1  0.000000  0.000000  0.000000  1
  Co  Co1  1  0.349684  0.250000  0.269081  1
  Co  Co2  1  0.000000  0.500000  0.000000  1
  Co  Co3  1  0.650316  0.750000  0.730919  1
  As  As4  1  0.510079  0.750000  0.239919  1
  As  As5  1  0.489921  0.250000  0.760081  1
  Cl  Cl6  1  0.834326  0.250000  0.232545  1
  Cl  Cl7  1  0.165674  0.750000  0.767455  1
  O  O8  1  0.694466  0.043871  0.798623  1
  O  O9  1  0.323545  0.250000  0.546756  1
  O  O10  1  0.694466  0.456129  0.798623  1
  O  O11  1  0.305534  0.956129  0.201377  1
  O  O12  1  0.676455  0.750000  0.453244  1
  O  O13  1  0.240086  0.250000  0.935541  1
  O  O14  1  0.305534  0.543871  0.201377  1
  O  O15  1  0.759914  0.750000  0.064459  1
