# generated using pymatgen
data_Y3CuGeS7
_symmetry_space_group_name_H-M   'P 1'
_cell_length_a   9.89241385
_cell_length_b   9.89241385
_cell_length_c   5.82526589
_cell_angle_alpha   90.00000000
_cell_angle_beta   90.00000000
_cell_angle_gamma   120.00000000
_symmetry_Int_Tables_number   1
_chemical_formula_structural   Y3CuGeS7
_chemical_formula_sum   'Y6 Cu2 Ge2 S14'
_cell_volume   493.68614395
_cell_formula_units_Z   2
loop_
 _symmetry_equiv_pos_site_id
 _symmetry_equiv_pos_as_xyz
  1  'x, y, z'
loop_
 _atom_site_type_symbol
 _atom_site_label
 _atom_site_symmetry_multiplicity
 _atom_site_fract_x
 _atom_site_fract_y
 _atom_site_fract_z
 _atom_site_occupancy
  Y  Y0  1  0.133796  0.776335  0.751385  1
  Y  Y1  1  0.776335  0.642539  0.251385  1
  Y  Y2  1  0.357461  0.133796  0.251385  1
  Y  Y3  1  0.642539  0.866204  0.751385  1
  Y  Y4  1  0.866204  0.223665  0.251385  1
  Y  Y5  1  0.223665  0.357461  0.751385  1
  Cu  Cu6  1  0.000000  0.000000  0.193062  1
  Cu  Cu7  1  0.000000  0.000000  0.693062  1
  Ge  Ge8  1  0.666667  0.333333  0.832623  1
  Ge  Ge9  1  0.333333  0.666667  0.332623  1
  S  S10  1  0.479852  0.577793  0.494017  1
  S  S11  1  0.902059  0.479852  0.994017  1
  S  S12  1  0.900352  0.159536  0.715349  1
  S  S13  1  0.099648  0.840464  0.215349  1
  S  S14  1  0.097941  0.520148  0.494017  1
  S  S15  1  0.333333  0.666667  0.953663  1
  S  S16  1  0.740816  0.900352  0.215349  1
  S  S17  1  0.666667  0.333333  0.453663  1
  S  S18  1  0.577793  0.097941  0.994017  1
  S  S19  1  0.259184  0.099648  0.715349  1
  S  S20  1  0.159536  0.259184  0.215349  1
  S  S21  1  0.422207  0.902059  0.494017  1
  S  S22  1  0.840464  0.740816  0.715349  1
  S  S23  1  0.520148  0.422207  0.994017  1
