# generated using pymatgen
data_GdH7C2SO8
_symmetry_space_group_name_H-M   'P 1'
_cell_length_a   6.79163296
_cell_length_b   7.00512594
_cell_length_c   8.77935017
_cell_angle_alpha   110.29965286
_cell_angle_beta   89.90719450
_cell_angle_gamma   107.85774179
_symmetry_Int_Tables_number   1
_chemical_formula_structural   GdH7C2SO8
_chemical_formula_sum   'Gd2 H14 C4 S2 O16'
_cell_volume   370.29553082
_cell_formula_units_Z   2
loop_
 _symmetry_equiv_pos_site_id
 _symmetry_equiv_pos_as_xyz
  1  'x, y, z'
loop_
 _atom_site_type_symbol
 _atom_site_label
 _atom_site_symmetry_multiplicity
 _atom_site_fract_x
 _atom_site_fract_y
 _atom_site_fract_z
 _atom_site_occupancy
  Gd  Gd0  1  0.882457  0.648348  0.870902  1
  Gd  Gd1  1  0.117543  0.351652  0.129098  1
  H  H2  1  0.415206  0.140962  0.330675  1
  H  H3  1  0.895140  0.800675  0.574204  1
  H  H4  1  0.426494  0.931178  0.822916  1
  H  H5  1  0.078948  0.982781  0.709438  1
  H  H6  1  0.515604  0.095998  0.703843  1
  H  H7  1  0.608867  0.338740  0.556129  1
  H  H8  1  0.484396  0.904002  0.296157  1
  H  H9  1  0.104860  0.199325  0.425796  1
  H  H10  1  0.573506  0.068822  0.177084  1
  H  H11  1  0.921052  0.017219  0.290562  1
  H  H12  1  0.169186  0.671182  0.499319  1
  H  H13  1  0.830814  0.328818  0.500681  1
  H  H14  1  0.584794  0.859038  0.669325  1
  H  H15  1  0.391133  0.661260  0.443871  1
  C  C16  1  0.254857  0.878915  0.117285  1
  C  C17  1  0.443681  0.003448  0.238315  1
  C  C18  1  0.556319  0.996552  0.761685  1
  C  C19  1  0.745143  0.121085  0.882715  1
  S  S20  1  0.696269  0.587933  0.248967  1
  S  S21  1  0.303731  0.412067  0.751033  1
  O  O22  1  0.218523  0.272312  0.848157  1
  O  O23  1  0.781477  0.727688  0.151843  1
  O  O24  1  0.241612  0.612245  0.406333  1
  O  O25  1  0.174359  0.972615  0.044432  1
  O  O26  1  0.830475  0.322839  0.917168  1
  O  O27  1  0.831576  0.457487  0.250914  1
  O  O28  1  0.168424  0.542513  0.749086  1
  O  O29  1  0.758388  0.387755  0.593667  1
  O  O30  1  0.311493  0.272218  0.580535  1
  O  O31  1  0.169525  0.677161  0.082832  1
  O  O32  1  0.688507  0.727782  0.419465  1
  O  O33  1  0.996316  0.173864  0.337993  1
  O  O34  1  0.825641  0.027385  0.955568  1
  O  O35  1  0.518459  0.557548  0.825412  1
  O  O36  1  0.003684  0.826136  0.662007  1
  O  O37  1  0.481541  0.442452  0.174588  1
