# generated using pymatgen
data_Mg2B2O5
_symmetry_space_group_name_H-M   'P 1'
_cell_length_a   3.16027109
_cell_length_b   6.21755828
_cell_length_c   9.31315873
_cell_angle_alpha   104.57985894
_cell_angle_beta   90.59517699
_cell_angle_gamma   91.88677217
_symmetry_Int_Tables_number   1
_chemical_formula_structural   Mg2B2O5
_chemical_formula_sum   'Mg4 B4 O10'
_cell_volume   176.97394023
_cell_formula_units_Z   2
loop_
 _symmetry_equiv_pos_site_id
 _symmetry_equiv_pos_as_xyz
  1  'x, y, z'
loop_
 _atom_site_type_symbol
 _atom_site_label
 _atom_site_symmetry_multiplicity
 _atom_site_fract_x
 _atom_site_fract_y
 _atom_site_fract_z
 _atom_site_occupancy
  Mg  Mg0  1  0.232528  0.210386  0.855921  1
  Mg  Mg1  1  0.767472  0.789614  0.144079  1
  Mg  Mg2  1  0.733979  0.371984  0.602617  1
  Mg  Mg3  1  0.266021  0.628016  0.397383  1
  B  B4  1  0.800543  0.318541  0.143689  1
  B  B5  1  0.199457  0.681459  0.856311  1
  B  B6  1  0.837204  0.879423  0.669204  1
  B  B7  1  0.162796  0.120577  0.330796  1
  O  O8  1  0.273781  0.906887  0.318863  1
  O  O9  1  0.726219  0.093113  0.681137  1
  O  O10  1  0.235515  0.303953  0.446626  1
  O  O11  1  0.764485  0.696047  0.553374  1
  O  O12  1  0.933666  0.138644  0.200699  1
  O  O13  1  0.066334  0.861356  0.799301  1
  O  O14  1  0.267960  0.725178  0.004301  1
  O  O15  1  0.732040  0.274822  0.995699  1
  O  O16  1  0.759263  0.523280  0.241522  1
  O  O17  1  0.240737  0.476720  0.758478  1
