# generated using pymatgen
data_K3Na2SnBi3
_symmetry_space_group_name_H-M   'P 1'
_cell_length_a   14.38106064
_cell_length_b   14.38106064
_cell_length_c   14.38106064
_cell_angle_alpha   150.72636642
_cell_angle_beta   106.13385015
_cell_angle_gamma   81.36283824
_symmetry_Int_Tables_number   1
_chemical_formula_structural   K3Na2SnBi3
_chemical_formula_sum   'K12 Na8 Sn4 Bi12'
_cell_volume   1369.86897641
_cell_formula_units_Z   4
loop_
 _symmetry_equiv_pos_site_id
 _symmetry_equiv_pos_as_xyz
  1  'x, y, z'
loop_
 _atom_site_type_symbol
 _atom_site_label
 _atom_site_symmetry_multiplicity
 _atom_site_fract_x
 _atom_site_fract_y
 _atom_site_fract_z
 _atom_site_occupancy
  K  K0  1  0.912231  0.056785  0.798865  1
  K  K1  1  0.423880  0.250000  0.173880  1
  K  K2  1  0.587769  0.886634  0.644554  1
  K  K3  1  0.087769  0.943215  0.201135  1
  K  K4  1  0.742080  0.386634  0.298865  1
  K  K5  1  0.257920  0.613366  0.701135  1
  K  K6  1  0.412231  0.113366  0.355446  1
  K  K7  1  0.076120  0.750000  0.326120  1
  K  K8  1  0.757920  0.556785  0.144554  1
  K  K9  1  0.242080  0.443215  0.855446  1
  K  K10  1  0.576120  0.750000  0.826120  1
  K  K11  1  0.923880  0.250000  0.673880  1
  Na  Na12  1  0.497153  0.747153  0.250000  1
  Na  Na13  1  0.837988  0.087988  0.250000  1
  Na  Na14  1  0.502847  0.252847  0.750000  1
  Na  Na15  1  0.002847  0.752847  0.750000  1
  Na  Na16  1  0.997153  0.247153  0.250000  1
  Na  Na17  1  0.337988  0.587988  0.250000  1
  Na  Na18  1  0.162012  0.912012  0.750000  1
  Na  Na19  1  0.662012  0.412012  0.750000  1
  Sn  Sn20  1  0.832383  0.582383  0.750000  1
  Sn  Sn21  1  0.332383  0.082383  0.750000  1
  Sn  Sn22  1  0.667617  0.917617  0.250000  1
  Sn  Sn23  1  0.167617  0.417617  0.250000  1
  Bi  Bi24  1  0.148323  0.250000  0.898323  1
  Bi  Bi25  1  0.021867  0.447366  0.649381  1
  Bi  Bi26  1  0.521867  0.372485  0.074500  1
  Bi  Bi27  1  0.978133  0.552634  0.350619  1
  Bi  Bi28  1  0.202015  0.127515  0.149381  1
  Bi  Bi29  1  0.797985  0.872485  0.850619  1
  Bi  Bi30  1  0.478133  0.627515  0.925500  1
  Bi  Bi31  1  0.851677  0.750000  0.101677  1
  Bi  Bi32  1  0.702015  0.052634  0.574500  1
  Bi  Bi33  1  0.351677  0.750000  0.601677  1
  Bi  Bi34  1  0.297985  0.947366  0.425500  1
  Bi  Bi35  1  0.648323  0.250000  0.398323  1
