# generated using pymatgen
data_MgB2P2H8O13
_symmetry_space_group_name_H-M   'P 1'
_cell_length_a   7.80768439
_cell_length_b   14.82632614
_cell_length_c   8.34547775
_cell_angle_alpha   90.00000000
_cell_angle_beta   90.45328222
_cell_angle_gamma   90.00000000
_symmetry_Int_Tables_number   1
_chemical_formula_structural   MgB2P2H8O13
_chemical_formula_sum   'Mg4 B8 P8 H32 O52'
_cell_volume   966.03622292
_cell_formula_units_Z   4
loop_
 _symmetry_equiv_pos_site_id
 _symmetry_equiv_pos_as_xyz
  1  'x, y, z'
loop_
 _atom_site_type_symbol
 _atom_site_label
 _atom_site_symmetry_multiplicity
 _atom_site_fract_x
 _atom_site_fract_y
 _atom_site_fract_z
 _atom_site_occupancy
  Mg  Mg0  1  0.249202  0.464316  0.799954  1
  Mg  Mg1  1  0.750798  0.964316  0.700046  1
  Mg  Mg2  1  0.750798  0.535684  0.200046  1
  Mg  Mg3  1  0.249202  0.035684  0.299954  1
  B  B4  1  0.916423  0.717311  0.060762  1
  B  B5  1  0.083577  0.217311  0.439238  1
  B  B6  1  0.083577  0.282689  0.939238  1
  B  B7  1  0.916423  0.782689  0.560762  1
  B  B8  1  0.416688  0.664335  0.773301  1
  B  B9  1  0.583312  0.164335  0.726699  1
  B  B10  1  0.583312  0.335665  0.226699  1
  B  B11  1  0.416688  0.835665  0.273301  1
  P  P12  1  0.566670  0.713045  0.066057  1
  P  P13  1  0.433330  0.213045  0.433943  1
  P  P14  1  0.433330  0.286955  0.933943  1
  P  P15  1  0.566670  0.786955  0.566057  1
  P  P16  1  0.065364  0.839035  0.274784  1
  P  P17  1  0.934636  0.339035  0.225216  1
  P  P18  1  0.934636  0.160965  0.725216  1
  P  P19  1  0.065364  0.660965  0.774784  1
  H  H20  1  0.959163  0.132854  0.275301  1
  H  H21  1  0.040837  0.632854  0.224699  1
  H  H22  1  0.040837  0.867146  0.724699  1
  H  H23  1  0.959163  0.367146  0.775301  1
  H  H24  1  0.548053  0.550291  0.836133  1
  H  H25  1  0.451947  0.050291  0.663867  1
  H  H26  1  0.451947  0.449709  0.163867  1
  H  H27  1  0.548053  0.949709  0.336133  1
  H  H28  1  0.244964  0.992817  0.979293  1
  H  H29  1  0.755036  0.492817  0.520707  1
  H  H30  1  0.755036  0.007183  0.020707  1
  H  H31  1  0.244964  0.507183  0.479293  1
  H  H32  1  0.209742  0.098062  0.990937  1
  H  H33  1  0.790258  0.598062  0.509063  1
  H  H34  1  0.790258  0.901938  0.009063  1
  H  H35  1  0.209742  0.401938  0.490937  1
  H  H36  1  0.276492  0.948838  0.579928  1
  H  H37  1  0.723508  0.448838  0.920072  1
  H  H38  1  0.723508  0.051162  0.420072  1
  H  H39  1  0.276492  0.551162  0.079928  1
  H  H40  1  0.145833  0.027806  0.616659  1
  H  H41  1  0.854167  0.527806  0.883341  1
  H  H42  1  0.854167  0.972194  0.383341  1
  H  H43  1  0.145833  0.472194  0.116659  1
  H  H44  1  0.230462  0.842124  0.928007  1
  H  H45  1  0.769538  0.342124  0.571993  1
  H  H46  1  0.769538  0.157876  0.071993  1
  H  H47  1  0.230462  0.657876  0.428007  1
  H  H48  1  0.358703  0.882716  0.806470  1
  H  H49  1  0.641297  0.382716  0.693530  1
  H  H50  1  0.641297  0.117284  0.193530  1
  H  H51  1  0.358703  0.617284  0.306470  1
  O  O52  1  0.044106  0.939569  0.301875  1
  O  O53  1  0.955894  0.439569  0.198125  1
  O  O54  1  0.955894  0.060431  0.698125  1
  O  O55  1  0.044106  0.560431  0.801875  1
  O  O56  1  0.545332  0.803159  0.158596  1
  O  O57  1  0.454668  0.303159  0.341404  1
  O  O58  1  0.454668  0.196841  0.841404  1
  O  O59  1  0.545332  0.696841  0.658596  1
  O  O60  1  0.548933  0.629145  0.170056  1
  O  O61  1  0.451067  0.129145  0.329944  1
  O  O62  1  0.451067  0.370855  0.829944  1
  O  O63  1  0.548933  0.870855  0.670056  1
  O  O64  1  0.046643  0.782165  0.430960  1
  O  O65  1  0.953357  0.282165  0.069040  1
  O  O66  1  0.953357  0.217835  0.569040  1
  O  O67  1  0.046643  0.717835  0.930960  1
  O  O68  1  0.935608  0.806167  0.144744  1
  O  O69  1  0.064392  0.306167  0.355256  1
  O  O70  1  0.064392  0.193833  0.855256  1
  O  O71  1  0.935608  0.693833  0.644744  1
  O  O72  1  0.433057  0.784455  0.427041  1
  O  O73  1  0.566943  0.284455  0.072959  1
  O  O74  1  0.566943  0.215545  0.572959  1
  O  O75  1  0.433057  0.715545  0.927041  1
  O  O76  1  0.253908  0.217506  0.515042  1
  O  O77  1  0.746092  0.717506  0.984958  1
  O  O78  1  0.746092  0.782494  0.484958  1
  O  O79  1  0.253908  0.282494  0.015042  1
  O  O80  1  0.245221  0.815088  0.206340  1
  O  O81  1  0.754779  0.315088  0.293660  1
  O  O82  1  0.754779  0.184912  0.793660  1
  O  O83  1  0.245221  0.684912  0.706340  1
  O  O84  1  0.068488  0.138820  0.334515  1
  O  O85  1  0.931512  0.638820  0.165485  1
  O  O86  1  0.931512  0.861180  0.665485  1
  O  O87  1  0.068488  0.361180  0.834515  1
  O  O88  1  0.433250  0.567581  0.795338  1
  O  O89  1  0.566750  0.067581  0.704662  1
  O  O90  1  0.566750  0.432419  0.204662  1
  O  O91  1  0.433250  0.932419  0.295338  1
  O  O92  1  0.241939  0.045017  0.053729  1
  O  O93  1  0.758061  0.545017  0.446271  1
  O  O94  1  0.758061  0.954983  0.946271  1
  O  O95  1  0.241939  0.454983  0.553729  1
  O  O96  1  0.256579  0.013027  0.561753  1
  O  O97  1  0.743421  0.513027  0.938247  1
  O  O98  1  0.743421  0.986973  0.438247  1
  O  O99  1  0.256579  0.486973  0.061753  1
  O  O100  1  0.244252  0.892984  0.854023  1
  O  O101  1  0.755748  0.392984  0.645977  1
  O  O102  1  0.755748  0.107016  0.145977  1
  O  O103  1  0.244252  0.607016  0.354023  1
