# generated using pymatgen
data_Dy2CdSe4
_symmetry_space_group_name_H-M   'P 1'
_cell_length_a   8.35611458
_cell_length_b   8.35611458
_cell_length_c   8.35611458
_cell_angle_alpha   60.00000000
_cell_angle_beta   60.00000000
_cell_angle_gamma   60.00000000
_symmetry_Int_Tables_number   1
_chemical_formula_structural   Dy2CdSe4
_chemical_formula_sum   'Dy4 Cd2 Se8'
_cell_volume   412.57049012
_cell_formula_units_Z   2
loop_
 _symmetry_equiv_pos_site_id
 _symmetry_equiv_pos_as_xyz
  1  'x, y, z'
loop_
 _atom_site_type_symbol
 _atom_site_label
 _atom_site_symmetry_multiplicity
 _atom_site_fract_x
 _atom_site_fract_y
 _atom_site_fract_z
 _atom_site_occupancy
  Dy  Dy0  1  0.125000  0.125000  0.125000  1
  Dy  Dy1  1  0.125000  0.125000  0.625000  1
  Dy  Dy2  1  0.625000  0.125000  0.125000  1
  Dy  Dy3  1  0.125000  0.625000  0.125000  1
  Cd  Cd4  1  0.500000  0.500000  0.500000  1
  Cd  Cd5  1  0.750000  0.750000  0.750000  1
  Se  Se6  1  0.882019  0.882019  0.353942  1
  Se  Se7  1  0.367981  0.367981  0.367981  1
  Se  Se8  1  0.896058  0.367981  0.367981  1
  Se  Se9  1  0.882019  0.353942  0.882019  1
  Se  Se10  1  0.367981  0.896058  0.367981  1
  Se  Se11  1  0.882019  0.882019  0.882019  1
  Se  Se12  1  0.367981  0.367981  0.896058  1
  Se  Se13  1  0.353942  0.882019  0.882019  1
