# generated using pymatgen
data_NdP5O14
_symmetry_space_group_name_H-M   'P 1'
_cell_length_a   8.91563651
_cell_length_b   9.17380631
_cell_length_c   13.18435931
_cell_angle_alpha   90.00000000
_cell_angle_beta   90.00000000
_cell_angle_gamma   90.00000000
_symmetry_Int_Tables_number   1
_chemical_formula_structural   NdP5O14
_chemical_formula_sum   'Nd4 P20 O56'
_cell_volume   1078.35299957
_cell_formula_units_Z   4
loop_
 _symmetry_equiv_pos_site_id
 _symmetry_equiv_pos_as_xyz
  1  'x, y, z'
loop_
 _atom_site_type_symbol
 _atom_site_label
 _atom_site_symmetry_multiplicity
 _atom_site_fract_x
 _atom_site_fract_y
 _atom_site_fract_z
 _atom_site_occupancy
  Nd  Nd0  1  0.276659  0.688456  0.000000  1
  Nd  Nd1  1  0.276659  0.811544  0.500000  1
  Nd  Nd2  1  0.723341  0.311544  0.000000  1
  Nd  Nd3  1  0.723341  0.188456  0.500000  1
  P  P4  1  0.763570  0.951365  0.836176  1
  P  P5  1  0.000000  0.000000  0.674565  1
  P  P6  1  0.236430  0.048635  0.836176  1
  P  P7  1  0.236430  0.451365  0.336176  1
  P  P8  1  0.236430  0.451365  0.663824  1
  P  P9  1  0.684937  0.746257  0.000000  1
  P  P10  1  0.500000  0.000000  0.296590  1
  P  P11  1  0.763570  0.951365  0.163824  1
  P  P12  1  0.500000  0.500000  0.796590  1
  P  P13  1  0.315063  0.246257  0.500000  1
  P  P14  1  0.000000  0.500000  0.174565  1
  P  P15  1  0.763570  0.548635  0.663824  1
  P  P16  1  0.763570  0.548635  0.336176  1
  P  P17  1  0.684937  0.753743  0.500000  1
  P  P18  1  0.000000  0.000000  0.325435  1
  P  P19  1  0.500000  0.500000  0.203410  1
  P  P20  1  0.500000  0.000000  0.703410  1
  P  P21  1  0.315063  0.253743  0.000000  1
  P  P22  1  0.000000  0.500000  0.825435  1
  P  P23  1  0.236430  0.048635  0.163824  1
  O  O24  1  0.081480  0.617568  0.119861  1
  O  O25  1  0.586434  0.384927  0.149663  1
  O  O26  1  0.468766  0.189342  0.000000  1
  O  O27  1  0.531234  0.689342  0.500000  1
  O  O28  1  0.712311  0.913475  0.500000  1
  O  O29  1  0.287689  0.086525  0.500000  1
  O  O30  1  0.887751  0.918061  0.245566  1
  O  O31  1  0.226607  0.906022  0.887621  1
  O  O32  1  0.609494  0.584837  0.717603  1
  O  O33  1  0.918520  0.382432  0.880139  1
  O  O34  1  0.226607  0.593978  0.387621  1
  O  O35  1  0.287689  0.413475  0.000000  1
  O  O36  1  0.887751  0.918061  0.754434  1
  O  O37  1  0.586434  0.384927  0.850337  1
  O  O38  1  0.609494  0.915163  0.217603  1
  O  O39  1  0.586434  0.115073  0.649663  1
  O  O40  1  0.918520  0.117568  0.619861  1
  O  O41  1  0.413566  0.884927  0.649663  1
  O  O42  1  0.112249  0.418061  0.745566  1
  O  O43  1  0.413566  0.615073  0.149663  1
  O  O44  1  0.390506  0.415163  0.717603  1
  O  O45  1  0.609494  0.915163  0.782397  1
  O  O46  1  0.784282  0.813194  0.093846  1
  O  O47  1  0.609494  0.584837  0.282397  1
  O  O48  1  0.226607  0.906022  0.112379  1
  O  O49  1  0.215718  0.186806  0.093846  1
  O  O50  1  0.390506  0.084837  0.217603  1
  O  O51  1  0.773393  0.406022  0.387621  1
  O  O52  1  0.784282  0.813194  0.906154  1
  O  O53  1  0.918520  0.382432  0.119861  1
  O  O54  1  0.773393  0.093978  0.112379  1
  O  O55  1  0.918520  0.117568  0.380139  1
  O  O56  1  0.112249  0.081939  0.754434  1
  O  O57  1  0.887751  0.581939  0.254434  1
  O  O58  1  0.215718  0.313194  0.406154  1
  O  O59  1  0.112249  0.418061  0.254434  1
  O  O60  1  0.081480  0.882432  0.619861  1
  O  O61  1  0.215718  0.313194  0.593846  1
  O  O62  1  0.773393  0.406022  0.612379  1
  O  O63  1  0.784282  0.686806  0.406154  1
  O  O64  1  0.390506  0.415163  0.282397  1
  O  O65  1  0.112249  0.081939  0.245566  1
  O  O66  1  0.215718  0.186806  0.906154  1
  O  O67  1  0.390506  0.084837  0.782397  1
  O  O68  1  0.413566  0.615073  0.850337  1
  O  O69  1  0.531234  0.810658  0.000000  1
  O  O70  1  0.784282  0.686806  0.593846  1
  O  O71  1  0.887751  0.581939  0.745566  1
  O  O72  1  0.468766  0.310658  0.500000  1
  O  O73  1  0.081480  0.882432  0.380139  1
  O  O74  1  0.413566  0.884927  0.350337  1
  O  O75  1  0.586434  0.115073  0.350337  1
  O  O76  1  0.226607  0.593978  0.612379  1
  O  O77  1  0.712311  0.586525  0.000000  1
  O  O78  1  0.773393  0.093978  0.887621  1
  O  O79  1  0.081480  0.617568  0.880139  1
