# generated using pymatgen
data_K4Ba(SiO3)3
_symmetry_space_group_name_H-M   'P 1'
_cell_length_a   7.33240622
_cell_length_b   7.33240622
_cell_length_c   11.29037200
_cell_angle_alpha   90.00000000
_cell_angle_beta   90.00000000
_cell_angle_gamma   111.76965160
_symmetry_Int_Tables_number   1
_chemical_formula_structural   K4Ba(SiO3)3
_chemical_formula_sum   'K8 Ba2 Si6 O18'
_cell_volume   563.72656589
_cell_formula_units_Z   2
loop_
 _symmetry_equiv_pos_site_id
 _symmetry_equiv_pos_as_xyz
  1  'x, y, z'
loop_
 _atom_site_type_symbol
 _atom_site_label
 _atom_site_symmetry_multiplicity
 _atom_site_fract_x
 _atom_site_fract_y
 _atom_site_fract_z
 _atom_site_occupancy
  K  K0  1  0.489776  0.510224  0.000000  1
  K  K1  1  0.225889  0.672662  0.250000  1
  K  K2  1  0.960413  0.039587  0.000000  1
  K  K3  1  0.327338  0.774111  0.750000  1
  K  K4  1  0.960413  0.039587  0.500000  1
  K  K5  1  0.489776  0.510224  0.500000  1
  K  K6  1  0.234561  0.247640  0.750000  1
  K  K7  1  0.752360  0.765439  0.250000  1
  Ba  Ba8  1  0.733983  0.259825  0.250000  1
  Ba  Ba9  1  0.740175  0.266017  0.750000  1
  Si  Si10  1  0.263360  0.192242  0.250000  1
  Si  Si11  1  0.413015  0.980931  0.472942  1
  Si  Si12  1  0.807758  0.736640  0.750000  1
  Si  Si13  1  0.019069  0.586985  0.527058  1
  Si  Si14  1  0.019069  0.586985  0.972942  1
  Si  Si15  1  0.413015  0.980931  0.027058  1
  O  O16  1  0.600018  0.949063  0.086046  1
  O  O17  1  0.244811  0.755189  0.000000  1
  O  O18  1  0.924262  0.690356  0.631970  1
  O  O19  1  0.050937  0.399982  0.586046  1
  O  O20  1  0.309644  0.075738  0.131970  1
  O  O21  1  0.886834  0.555611  0.408528  1
  O  O22  1  0.583203  0.579141  0.750000  1
  O  O23  1  0.444389  0.113166  0.591472  1
  O  O24  1  0.444389  0.113166  0.908528  1
  O  O25  1  0.050937  0.399982  0.913954  1
  O  O26  1  0.844668  0.967093  0.750000  1
  O  O27  1  0.244811  0.755189  0.500000  1
  O  O28  1  0.420859  0.416797  0.250000  1
  O  O29  1  0.924262  0.690356  0.868030  1
  O  O30  1  0.886834  0.555611  0.091472  1
  O  O31  1  0.309644  0.075738  0.368030  1
  O  O32  1  0.600018  0.949063  0.413954  1
  O  O33  1  0.032907  0.155332  0.250000  1
