# generated using pymatgen
data_P3RuO9
_symmetry_space_group_name_H-M   'P 1'
_cell_length_a   5.12629170
_cell_length_b   7.06225542
_cell_length_c   10.47396965
_cell_angle_alpha   98.63457537
_cell_angle_beta   92.41326172
_cell_angle_gamma   92.36051543
_symmetry_Int_Tables_number   1
_chemical_formula_structural   P3RuO9
_chemical_formula_sum   'P6 Ru2 O18'
_cell_volume   374.12729640
_cell_formula_units_Z   2
loop_
 _symmetry_equiv_pos_site_id
 _symmetry_equiv_pos_as_xyz
  1  'x, y, z'
loop_
 _atom_site_type_symbol
 _atom_site_label
 _atom_site_symmetry_multiplicity
 _atom_site_fract_x
 _atom_site_fract_y
 _atom_site_fract_z
 _atom_site_occupancy
  P  P0  1  0.525759  0.959106  0.181232  1
  P  P1  1  0.241075  0.314332  0.228715  1
  P  P2  1  0.498776  0.329429  0.639101  1
  P  P3  1  0.474241  0.040894  0.818768  1
  P  P4  1  0.758925  0.685668  0.771285  1
  P  P5  1  0.501224  0.670571  0.360899  1
  Ru  Ru6  1  0.000000  0.000000  0.000000  1
  Ru  Ru7  1  0.000000  0.500000  0.500000  1
  O  O8  1  0.488114  0.181275  0.232737  1
  O  O9  1  0.095693  0.270331  0.098275  1
  O  O10  1  0.330445  0.880447  0.073368  1
  O  O11  1  0.207691  0.354803  0.622161  1
  O  O12  1  0.663826  0.333678  0.524201  1
  O  O13  1  0.187340  0.066870  0.842481  1
  O  O14  1  0.616638  0.478026  0.763598  1
  O  O15  1  0.904307  0.729669  0.901725  1
  O  O16  1  0.534288  0.129366  0.689425  1
  O  O17  1  0.792309  0.645197  0.377839  1
  O  O18  1  0.915015  0.699265  0.653562  1
  O  O19  1  0.812660  0.933130  0.157519  1
  O  O20  1  0.511886  0.818725  0.767263  1
  O  O21  1  0.669555  0.119553  0.926632  1
  O  O22  1  0.465712  0.870634  0.310575  1
  O  O23  1  0.084985  0.300735  0.346438  1
  O  O24  1  0.383362  0.521974  0.236402  1
  O  O25  1  0.336174  0.666322  0.475799  1
