# generated using pymatgen
data_ErGe3
_symmetry_space_group_name_H-M   'P 1'
_cell_length_a   10.57178226
_cell_length_b   10.57178226
_cell_length_c   3.93450187
_cell_angle_alpha   90.00000000
_cell_angle_beta   90.00000000
_cell_angle_gamma   158.06513035
_symmetry_Int_Tables_number   1
_chemical_formula_structural   ErGe3
_chemical_formula_sum   'Er2 Ge6'
_cell_volume   164.26222060
_cell_formula_units_Z   2
loop_
 _symmetry_equiv_pos_site_id
 _symmetry_equiv_pos_as_xyz
  1  'x, y, z'
loop_
 _atom_site_type_symbol
 _atom_site_label
 _atom_site_symmetry_multiplicity
 _atom_site_fract_x
 _atom_site_fract_y
 _atom_site_fract_z
 _atom_site_occupancy
  Er  Er0  1  0.418212  0.581788  0.250000  1
  Er  Er1  1  0.581788  0.418212  0.750000  1
  Ge  Ge2  1  0.811363  0.188637  0.250000  1
  Ge  Ge3  1  0.188637  0.811363  0.750000  1
  Ge  Ge4  1  0.959697  0.040303  0.750000  1
  Ge  Ge5  1  0.040303  0.959697  0.250000  1
  Ge  Ge6  1  0.309448  0.690552  0.750000  1
  Ge  Ge7  1  0.690552  0.309448  0.250000  1
