# generated using pymatgen
data_Li2AlBO4
_symmetry_space_group_name_H-M   'P 1'
_cell_length_a   6.36818779
_cell_length_b   5.10917415
_cell_length_c   10.44953306
_cell_angle_alpha   90.00000000
_cell_angle_beta   96.27569343
_cell_angle_gamma   90.00000000
_symmetry_Int_Tables_number   1
_chemical_formula_structural   Li2AlBO4
_chemical_formula_sum   'Li8 Al4 B4 O16'
_cell_volume   337.95048779
_cell_formula_units_Z   4
loop_
 _symmetry_equiv_pos_site_id
 _symmetry_equiv_pos_as_xyz
  1  'x, y, z'
loop_
 _atom_site_type_symbol
 _atom_site_label
 _atom_site_symmetry_multiplicity
 _atom_site_fract_x
 _atom_site_fract_y
 _atom_site_fract_z
 _atom_site_occupancy
  Li  Li0  1  0.774858  0.330837  0.928542  1
  Li  Li1  1  0.225142  0.830837  0.571458  1
  Li  Li2  1  0.774858  0.169163  0.428542  1
  Li  Li3  1  0.894783  0.357723  0.210770  1
  Li  Li4  1  0.105217  0.857723  0.289230  1
  Li  Li5  1  0.105217  0.642277  0.789230  1
  Li  Li6  1  0.894783  0.142277  0.710770  1
  Li  Li7  1  0.225142  0.669163  0.071458  1
  Al  Al8  1  0.501842  0.856526  0.841167  1
  Al  Al9  1  0.501842  0.643474  0.341167  1
  Al  Al10  1  0.498158  0.356526  0.658833  1
  Al  Al11  1  0.498158  0.143474  0.158833  1
  B  B12  1  0.202691  0.322861  0.441426  1
  B  B13  1  0.202691  0.177139  0.941426  1
  B  B14  1  0.797309  0.822861  0.058574  1
  B  B15  1  0.797309  0.677139  0.558574  1
  O  O16  1  0.698884  0.699504  0.948535  1
  O  O17  1  0.266349  0.585264  0.419485  1
  O  O18  1  0.733651  0.085264  0.080515  1
  O  O19  1  0.301116  0.199504  0.551465  1
  O  O20  1  0.946683  0.700339  0.138833  1
  O  O21  1  0.301116  0.300496  0.051465  1
  O  O22  1  0.053317  0.200339  0.361167  1
  O  O23  1  0.266349  0.914736  0.919485  1
  O  O24  1  0.698884  0.800496  0.448535  1
  O  O25  1  0.399664  0.648713  0.716022  1
  O  O26  1  0.399664  0.851287  0.216022  1
  O  O27  1  0.053317  0.299661  0.861167  1
  O  O28  1  0.600336  0.351287  0.283978  1
  O  O29  1  0.946683  0.799661  0.638833  1
  O  O30  1  0.733651  0.414736  0.580515  1
  O  O31  1  0.600336  0.148713  0.783978  1
