# generated using pymatgen
data_La2O3
_symmetry_space_group_name_H-M   'P 1'
_cell_length_a   7.62222395
_cell_length_b   7.62222395
_cell_length_c   9.22427403
_cell_angle_alpha   80.02384234
_cell_angle_beta   99.97615766
_cell_angle_gamma   151.14600598
_symmetry_Int_Tables_number   1
_chemical_formula_structural   La2O3
_chemical_formula_sum   'La6 O9'
_cell_volume   254.44999614
_cell_formula_units_Z   3
loop_
 _symmetry_equiv_pos_site_id
 _symmetry_equiv_pos_as_xyz
  1  'x, y, z'
loop_
 _atom_site_type_symbol
 _atom_site_label
 _atom_site_symmetry_multiplicity
 _atom_site_fract_x
 _atom_site_fract_y
 _atom_site_fract_z
 _atom_site_occupancy
  La  La0  1  0.690432  0.309568  0.138337  1
  La  La1  1  0.365514  0.634486  0.507474  1
  La  La2  1  0.309568  0.690432  0.861663  1
  La  La3  1  0.967048  0.032952  0.187989  1
  La  La4  1  0.634486  0.365514  0.492526  1
  La  La5  1  0.032952  0.967048  0.812011  1
  O  O6  1  0.799701  0.200299  0.372701  1
  O  O7  1  0.871879  0.128121  0.713653  1
  O  O8  1  0.474159  0.525841  0.343350  1
  O  O9  1  0.824072  0.175928  0.025149  1
  O  O10  1  0.175928  0.824072  0.974851  1
  O  O11  1  0.200299  0.799701  0.627299  1
  O  O12  1  0.525841  0.474159  0.656650  1
  O  O13  1  0.128121  0.871879  0.286347  1
  O  O14  1  0.500000  0.500000  0.000000  1
