# generated using pymatgen
data_LiNiP2O7
_symmetry_space_group_name_H-M   'P 1'
_cell_length_a   6.34183558
_cell_length_b   6.41552864
_cell_length_c   6.90077034
_cell_angle_alpha   84.72397602
_cell_angle_beta   67.05608312
_cell_angle_gamma   81.87243356
_symmetry_Int_Tables_number   1
_chemical_formula_structural   LiNiP2O7
_chemical_formula_sum   'Li2 Ni2 P4 O14'
_cell_volume   255.74794581
_cell_formula_units_Z   2
loop_
 _symmetry_equiv_pos_site_id
 _symmetry_equiv_pos_as_xyz
  1  'x, y, z'
loop_
 _atom_site_type_symbol
 _atom_site_label
 _atom_site_symmetry_multiplicity
 _atom_site_fract_x
 _atom_site_fract_y
 _atom_site_fract_z
 _atom_site_occupancy
  Li  Li0  1  0.712072  0.008609  0.831288  1
  Li  Li1  1  0.287928  0.991391  0.168712  1
  Ni  Ni2  1  0.907840  0.355392  0.217268  1
  Ni  Ni3  1  0.092160  0.644608  0.782732  1
  P  P4  1  0.789395  0.864542  0.234334  1
  P  P5  1  0.654301  0.606204  0.645015  1
  P  P6  1  0.210605  0.135458  0.765666  1
  P  P7  1  0.345699  0.393796  0.354985  1
  O  O8  1  0.224115  0.310769  0.229269  1
  O  O9  1  0.614598  0.949814  0.138962  1
  O  O10  1  0.936842  0.027761  0.248428  1
  O  O11  1  0.385402  0.050186  0.861038  1
  O  O12  1  0.358279  0.212835  0.528890  1
  O  O13  1  0.063158  0.972239  0.751572  1
  O  O14  1  0.051840  0.331610  0.878450  1
  O  O15  1  0.595495  0.404490  0.202082  1
  O  O16  1  0.770953  0.401078  0.535532  1
  O  O17  1  0.641721  0.787165  0.471110  1
  O  O18  1  0.404505  0.595510  0.797918  1
  O  O19  1  0.948160  0.668390  0.121550  1
  O  O20  1  0.775885  0.689231  0.770731  1
  O  O21  1  0.229047  0.598922  0.464468  1
