# generated using pymatgen
data_ErAl9(Fe2Si3)2
_symmetry_space_group_name_H-M   'P 1'
_cell_length_a   8.64580780
_cell_length_b   8.64580780
_cell_length_c   15.20046510
_cell_angle_alpha   90.00000000
_cell_angle_beta   90.00000000
_cell_angle_gamma   90.00000000
_symmetry_Int_Tables_number   1
_chemical_formula_structural   ErAl9(Fe2Si3)2
_chemical_formula_sum   'Er4 Al36 Fe16 Si24'
_cell_volume   1136.23465244
_cell_formula_units_Z   4
loop_
 _symmetry_equiv_pos_site_id
 _symmetry_equiv_pos_as_xyz
  1  'x, y, z'
loop_
 _atom_site_type_symbol
 _atom_site_label
 _atom_site_symmetry_multiplicity
 _atom_site_fract_x
 _atom_site_fract_y
 _atom_site_fract_z
 _atom_site_occupancy
  Er  Er0  1  0.000000  0.500000  0.585464  1
  Er  Er1  1  0.000000  0.500000  0.085464  1
  Er  Er2  1  0.500000  0.000000  0.914536  1
  Er  Er3  1  0.500000  0.000000  0.414536  1
  Al  Al4  1  0.182884  0.500000  0.410958  1
  Al  Al5  1  0.754052  0.202196  0.830951  1
  Al  Al6  1  0.844485  0.000000  0.397997  1
  Al  Al7  1  0.317116  0.000000  0.089042  1
  Al  Al8  1  0.202196  0.754052  0.169049  1
  Al  Al9  1  0.500000  0.344485  0.897997  1
  Al  Al10  1  0.000000  0.844485  0.602003  1
  Al  Al11  1  0.155515  0.000000  0.397997  1
  Al  Al12  1  0.000000  0.000000  0.771914  1
  Al  Al13  1  0.745948  0.702196  0.669049  1
  Al  Al14  1  0.245948  0.202196  0.830951  1
  Al  Al15  1  0.202196  0.245948  0.169049  1
  Al  Al16  1  0.500000  0.655515  0.897997  1
  Al  Al17  1  0.245948  0.797804  0.830951  1
  Al  Al18  1  0.702196  0.745948  0.330951  1
  Al  Al19  1  0.000000  0.155515  0.602003  1
  Al  Al20  1  0.500000  0.500000  0.271914  1
  Al  Al21  1  0.254052  0.297804  0.669049  1
  Al  Al22  1  0.297804  0.254052  0.330951  1
  Al  Al23  1  0.254052  0.702196  0.669049  1
  Al  Al24  1  0.797804  0.245948  0.169049  1
  Al  Al25  1  0.344485  0.500000  0.102003  1
  Al  Al26  1  0.754052  0.797804  0.830951  1
  Al  Al27  1  0.000000  0.682884  0.910958  1
  Al  Al28  1  0.817116  0.500000  0.410958  1
  Al  Al29  1  0.500000  0.500000  0.728086  1
  Al  Al30  1  0.000000  0.000000  0.228086  1
  Al  Al31  1  0.797804  0.754052  0.169049  1
  Al  Al32  1  0.297804  0.745948  0.330951  1
  Al  Al33  1  0.000000  0.317116  0.910958  1
  Al  Al34  1  0.745948  0.297804  0.669049  1
  Al  Al35  1  0.702196  0.254052  0.330951  1
  Al  Al36  1  0.655515  0.500000  0.102003  1
  Al  Al37  1  0.500000  0.182884  0.589042  1
  Al  Al38  1  0.500000  0.817116  0.589042  1
  Al  Al39  1  0.682884  0.000000  0.089042  1
  Fe  Fe40  1  0.722402  0.000000  0.250105  1
  Fe  Fe41  1  0.244881  0.244881  0.000000  1
  Fe  Fe42  1  0.500000  0.222402  0.750105  1
  Fe  Fe43  1  0.244881  0.755119  0.000000  1
  Fe  Fe44  1  0.000000  0.722402  0.749895  1
  Fe  Fe45  1  0.000000  0.277598  0.749895  1
  Fe  Fe46  1  0.222402  0.500000  0.249895  1
  Fe  Fe47  1  0.744881  0.255119  0.500000  1
  Fe  Fe48  1  0.755119  0.244881  0.000000  1
  Fe  Fe49  1  0.255119  0.255119  0.500000  1
  Fe  Fe50  1  0.255119  0.744881  0.500000  1
  Fe  Fe51  1  0.500000  0.777598  0.750105  1
  Fe  Fe52  1  0.755119  0.755119  0.000000  1
  Fe  Fe53  1  0.777598  0.500000  0.249895  1
  Fe  Fe54  1  0.744881  0.744881  0.500000  1
  Fe  Fe55  1  0.277598  0.000000  0.250105  1
  Si  Si56  1  0.761089  0.500000  0.938617  1
  Si  Si57  1  0.738911  0.000000  0.561383  1
  Si  Si58  1  0.155963  0.000000  0.943563  1
  Si  Si59  1  0.361703  0.000000  0.720584  1
  Si  Si60  1  0.138297  0.500000  0.779416  1
  Si  Si61  1  0.500000  0.761089  0.061383  1
  Si  Si62  1  0.655963  0.500000  0.556437  1
  Si  Si63  1  0.638297  0.000000  0.720584  1
  Si  Si64  1  0.844037  0.000000  0.943563  1
  Si  Si65  1  0.000000  0.844037  0.056437  1
  Si  Si66  1  0.861703  0.500000  0.779416  1
  Si  Si67  1  0.500000  0.238911  0.061383  1
  Si  Si68  1  0.000000  0.261089  0.438617  1
  Si  Si69  1  0.000000  0.361703  0.279416  1
  Si  Si70  1  0.500000  0.138297  0.220584  1
  Si  Si71  1  0.344037  0.500000  0.556437  1
  Si  Si72  1  0.000000  0.738911  0.438617  1
  Si  Si73  1  0.000000  0.155963  0.056437  1
  Si  Si74  1  0.500000  0.861703  0.220584  1
  Si  Si75  1  0.261089  0.000000  0.561383  1
  Si  Si76  1  0.000000  0.638297  0.279416  1
  Si  Si77  1  0.500000  0.655963  0.443563  1
  Si  Si78  1  0.500000  0.344037  0.443563  1
  Si  Si79  1  0.238911  0.500000  0.938617  1
