# generated using pymatgen
data_Ce8C8Cl5
_symmetry_space_group_name_H-M   'P 1'
_cell_length_a   6.65433384
_cell_length_b   16.54815229
_cell_length_c   7.58883458
_cell_angle_alpha   90.00000000
_cell_angle_beta   104.54289709
_cell_angle_gamma   90.00000000
_symmetry_Int_Tables_number   1
_chemical_formula_structural   Ce8C8Cl5
_chemical_formula_sum   'Ce16 C16 Cl10'
_cell_volume   808.88457047
_cell_formula_units_Z   2
loop_
 _symmetry_equiv_pos_site_id
 _symmetry_equiv_pos_as_xyz
  1  'x, y, z'
loop_
 _atom_site_type_symbol
 _atom_site_label
 _atom_site_symmetry_multiplicity
 _atom_site_fract_x
 _atom_site_fract_y
 _atom_site_fract_z
 _atom_site_occupancy
  Ce  Ce0  1  0.370803  0.306160  0.923761  1
  Ce  Ce1  1  0.379979  0.067615  0.849697  1
  Ce  Ce2  1  0.887880  0.948799  0.780471  1
  Ce  Ce3  1  0.112120  0.051201  0.219529  1
  Ce  Ce4  1  0.629197  0.693840  0.076239  1
  Ce  Ce5  1  0.612120  0.448799  0.219529  1
  Ce  Ce6  1  0.620021  0.932385  0.150303  1
  Ce  Ce7  1  0.870803  0.193840  0.923761  1
  Ce  Ce8  1  0.896921  0.673240  0.706388  1
  Ce  Ce9  1  0.387880  0.551201  0.780471  1
  Ce  Ce10  1  0.879979  0.432385  0.849697  1
  Ce  Ce11  1  0.103079  0.326760  0.293612  1
  Ce  Ce12  1  0.120021  0.567615  0.150303  1
  Ce  Ce13  1  0.129197  0.806160  0.076239  1
  Ce  Ce14  1  0.603079  0.173240  0.293612  1
  Ce  Ce15  1  0.396921  0.826760  0.706388  1
  C  C16  1  0.233334  0.659929  0.961943  1
  C  C17  1  0.716025  0.283651  0.155119  1
  C  C18  1  0.733334  0.840071  0.961943  1
  C  C19  1  0.283975  0.716349  0.844881  1
  C  C20  1  0.723355  0.538517  0.029661  1
  C  C21  1  0.766666  0.340071  0.038057  1
  C  C22  1  0.216025  0.216349  0.155119  1
  C  C23  1  0.276645  0.461483  0.970339  1
  C  C24  1  0.721239  0.085821  0.102517  1
  C  C25  1  0.776645  0.038517  0.970339  1
  C  C26  1  0.278761  0.914179  0.897483  1
  C  C27  1  0.778761  0.585821  0.897483  1
  C  C28  1  0.783975  0.783651  0.844881  1
  C  C29  1  0.266666  0.159929  0.038057  1
  C  C30  1  0.223355  0.961483  0.029661  1
  C  C31  1  0.221239  0.414179  0.102517  1
  Cl  Cl32  1  0.979238  0.097384  0.584689  1
  Cl  Cl33  1  0.975346  0.297097  0.642630  1
  Cl  Cl34  1  0.475346  0.202903  0.642630  1
  Cl  Cl35  1  0.020762  0.902616  0.415311  1
  Cl  Cl36  1  0.479238  0.402616  0.584689  1
  Cl  Cl37  1  0.524654  0.797097  0.357370  1
  Cl  Cl38  1  0.000000  0.500000  0.500000  1
  Cl  Cl39  1  0.520762  0.597384  0.415311  1
  Cl  Cl40  1  0.500000  0.000000  0.500000  1
  Cl  Cl41  1  0.024654  0.702903  0.357370  1
