# generated using pymatgen
data_MnP2O7
_symmetry_space_group_name_H-M   'P 1'
_cell_length_a   8.49096516
_cell_length_b   5.01601793
_cell_length_c   13.24753751
_cell_angle_alpha   90.00000000
_cell_angle_beta   115.74755725
_cell_angle_gamma   90.00000000
_symmetry_Int_Tables_number   1
_chemical_formula_structural   MnP2O7
_chemical_formula_sum   'Mn4 P8 O28'
_cell_volume   508.20571101
_cell_formula_units_Z   4
loop_
 _symmetry_equiv_pos_site_id
 _symmetry_equiv_pos_as_xyz
  1  'x, y, z'
loop_
 _atom_site_type_symbol
 _atom_site_label
 _atom_site_symmetry_multiplicity
 _atom_site_fract_x
 _atom_site_fract_y
 _atom_site_fract_z
 _atom_site_occupancy
  Mn  Mn0  1  0.267551  0.752267  0.028540  1
  Mn  Mn1  1  0.732449  0.252267  0.471460  1
  Mn  Mn2  1  0.267551  0.747733  0.528540  1
  Mn  Mn3  1  0.732449  0.247733  0.971460  1
  P  P4  1  0.164533  0.242580  0.135098  1
  P  P5  1  0.685747  0.760414  0.614811  1
  P  P6  1  0.835467  0.742580  0.364902  1
  P  P7  1  0.685747  0.739586  0.114811  1
  P  P8  1  0.314253  0.260414  0.885189  1
  P  P9  1  0.164533  0.257420  0.635098  1
  P  P10  1  0.314253  0.239586  0.385189  1
  P  P11  1  0.835467  0.757420  0.864902  1
  O  O12  1  0.226835  0.952973  0.139010  1
  O  O13  1  0.289498  0.443612  0.120362  1
  O  O14  1  0.487947  0.318933  0.384680  1
  O  O15  1  0.689554  0.053449  0.582373  1
  O  O16  1  0.829008  0.720104  0.742558  1
  O  O17  1  0.023300  0.699557  0.945879  1
  O  O18  1  0.754286  0.578015  0.550976  1
  O  O19  1  0.512053  0.818933  0.115320  1
  O  O20  1  0.710502  0.943612  0.379638  1
  O  O21  1  0.773165  0.452973  0.360990  1
  O  O22  1  0.245714  0.078015  0.949024  1
  O  O23  1  0.976700  0.199557  0.554121  1
  O  O24  1  0.170992  0.220104  0.757442  1
  O  O25  1  0.689554  0.446551  0.082373  1
  O  O26  1  0.310446  0.553449  0.917627  1
  O  O27  1  0.829008  0.779896  0.242558  1
  O  O28  1  0.023300  0.800443  0.445879  1
  O  O29  1  0.754286  0.921985  0.050976  1
  O  O30  1  0.226835  0.547027  0.639010  1
  O  O31  1  0.289498  0.056388  0.620362  1
  O  O32  1  0.487947  0.181067  0.884680  1
  O  O33  1  0.245714  0.421985  0.449024  1
  O  O34  1  0.976700  0.300443  0.054121  1
  O  O35  1  0.170992  0.279896  0.257442  1
  O  O36  1  0.310446  0.946551  0.417627  1
  O  O37  1  0.512053  0.681067  0.615320  1
  O  O38  1  0.710502  0.556388  0.879638  1
  O  O39  1  0.773165  0.047027  0.860990  1
