# generated using pymatgen
data_Ni4(Bi4I)3
_symmetry_space_group_name_H-M   'P 1'
_cell_length_a   8.30193458
_cell_length_b   8.30193458
_cell_length_c   34.93053581
_cell_angle_alpha   90.00000000
_cell_angle_beta   90.00000000
_cell_angle_gamma   151.50991389
_symmetry_Int_Tables_number   1
_chemical_formula_structural   Ni4(Bi4I)3
_chemical_formula_sum   'Ni8 Bi24 I6'
_cell_volume   1148.38717063
_cell_formula_units_Z   2
loop_
 _symmetry_equiv_pos_site_id
 _symmetry_equiv_pos_as_xyz
  1  'x, y, z'
loop_
 _atom_site_type_symbol
 _atom_site_label
 _atom_site_symmetry_multiplicity
 _atom_site_fract_x
 _atom_site_fract_y
 _atom_site_fract_z
 _atom_site_occupancy
  Ni  Ni0  1  0.515298  0.484702  0.853698  1
  Ni  Ni1  1  0.484702  0.515298  0.146302  1
  Ni  Ni2  1  0.484702  0.515298  0.353698  1
  Ni  Ni3  1  0.515298  0.484702  0.646302  1
  Ni  Ni4  1  0.937284  0.062716  0.879205  1
  Ni  Ni5  1  0.062716  0.937284  0.120795  1
  Ni  Ni6  1  0.062716  0.937284  0.379205  1
  Ni  Ni7  1  0.937284  0.062716  0.620795  1
  Bi  Bi8  1  0.984219  0.015781  0.802368  1
  Bi  Bi9  1  0.015781  0.984219  0.197632  1
  Bi  Bi10  1  0.015781  0.984219  0.302368  1
  Bi  Bi11  1  0.984219  0.015781  0.697632  1
  Bi  Bi12  1  0.339175  0.660825  0.853072  1
  Bi  Bi13  1  0.660825  0.339175  0.146928  1
  Bi  Bi14  1  0.660825  0.339175  0.353072  1
  Bi  Bi15  1  0.339175  0.660825  0.646928  1
  Bi  Bi16  1  0.111788  0.888212  0.880252  1
  Bi  Bi17  1  0.888212  0.111788  0.119748  1
  Bi  Bi18  1  0.888212  0.111788  0.380252  1
  Bi  Bi19  1  0.111788  0.888212  0.619748  1
  Bi  Bi20  1  0.467821  0.532179  0.930975  1
  Bi  Bi21  1  0.532179  0.467821  0.069025  1
  Bi  Bi22  1  0.532179  0.467821  0.430975  1
  Bi  Bi23  1  0.467821  0.532179  0.569025  1
  Bi  Bi24  1  0.643273  0.356727  0.802454  1
  Bi  Bi25  1  0.356727  0.643273  0.197546  1
  Bi  Bi26  1  0.356727  0.643273  0.302454  1
  Bi  Bi27  1  0.643273  0.356727  0.697546  1
  Bi  Bi28  1  0.806692  0.193308  0.927758  1
  Bi  Bi29  1  0.193308  0.806692  0.072242  1
  Bi  Bi30  1  0.193308  0.806692  0.427758  1
  Bi  Bi31  1  0.806692  0.193308  0.572242  1
  I  I32  1  0.130462  0.869538  0.976437  1
  I  I33  1  0.869538  0.130462  0.023563  1
  I  I34  1  0.869538  0.130462  0.476437  1
  I  I35  1  0.130462  0.869538  0.523563  1
  I  I36  1  0.320398  0.679602  0.750000  1
  I  I37  1  0.679602  0.320398  0.250000  1
