# generated using pymatgen
data_K3Bi5(AsO4)6
_symmetry_space_group_name_H-M   'P 1'
_cell_length_a   9.90484188
_cell_length_b   9.90484188
_cell_length_c   19.49083454
_cell_angle_alpha   66.61894777
_cell_angle_beta   113.38105223
_cell_angle_gamma   136.66837235
_symmetry_Int_Tables_number   1
_chemical_formula_structural   K3Bi5(AsO4)6
_chemical_formula_sum   'K6 Bi10 As12 O48'
_cell_volume   1186.52144908
_cell_formula_units_Z   2
loop_
 _symmetry_equiv_pos_site_id
 _symmetry_equiv_pos_as_xyz
  1  'x, y, z'
loop_
 _atom_site_type_symbol
 _atom_site_label
 _atom_site_symmetry_multiplicity
 _atom_site_fract_x
 _atom_site_fract_y
 _atom_site_fract_z
 _atom_site_occupancy
  K  K0  1  0.805953  0.805953  0.750000  1
  K  K1  1  0.814708  0.965767  0.917655  1
  K  K2  1  0.034233  0.185292  0.417655  1
  K  K3  1  0.965767  0.814708  0.582345  1
  K  K4  1  0.194047  0.194047  0.250000  1
  K  K5  1  0.185292  0.034233  0.082345  1
  Bi  Bi6  1  0.885067  0.321900  0.701534  1
  Bi  Bi7  1  0.732739  0.459260  0.972714  1
  Bi  Bi8  1  0.540740  0.267261  0.472714  1
  Bi  Bi9  1  0.341211  0.341211  0.750000  1
  Bi  Bi10  1  0.678100  0.114933  0.201534  1
  Bi  Bi11  1  0.321900  0.885067  0.798466  1
  Bi  Bi12  1  0.459260  0.732739  0.527286  1
  Bi  Bi13  1  0.114933  0.678100  0.298466  1
  Bi  Bi14  1  0.267261  0.540740  0.027286  1
  Bi  Bi15  1  0.658789  0.658789  0.250000  1
  As  As16  1  0.050608  0.789078  0.414071  1
  As  As17  1  0.837072  0.411389  0.845906  1
  As  As18  1  0.949392  0.210922  0.585929  1
  As  As19  1  0.162928  0.588611  0.154094  1
  As  As20  1  0.210922  0.949392  0.914071  1
  As  As21  1  0.789078  0.050608  0.085929  1
  As  As22  1  0.588611  0.162928  0.345906  1
  As  As23  1  0.476788  0.335474  0.616211  1
  As  As24  1  0.411389  0.837072  0.654094  1
  As  As25  1  0.335474  0.476788  0.883789  1
  As  As26  1  0.523212  0.664526  0.383789  1
  As  As27  1  0.664526  0.523212  0.116211  1
  O  O28  1  0.036259  0.200593  0.685132  1
  O  O29  1  0.129378  0.350861  0.533929  1
  O  O30  1  0.695380  0.152366  0.077258  1
  O  O31  1  0.666886  0.837969  0.312600  1
  O  O32  1  0.782870  0.960432  0.582161  1
  O  O33  1  0.333114  0.162031  0.687400  1
  O  O34  1  0.593510  0.062349  0.440285  1
  O  O35  1  0.039568  0.217130  0.082161  1
  O  O36  1  0.007574  0.373420  0.216206  1
  O  O37  1  0.756464  0.648198  0.032745  1
  O  O38  1  0.304620  0.847634  0.922742  1
  O  O39  1  0.960432  0.782870  0.917839  1
  O  O40  1  0.602187  0.349512  0.341858  1
  O  O41  1  0.394642  0.698459  0.868901  1
  O  O42  1  0.152366  0.695380  0.422742  1
  O  O43  1  0.650488  0.397813  0.841858  1
  O  O44  1  0.799407  0.963741  0.185132  1
  O  O45  1  0.784083  0.255406  0.311747  1
  O  O46  1  0.243536  0.351802  0.967255  1
  O  O47  1  0.648198  0.756464  0.467255  1
  O  O48  1  0.200593  0.036259  0.814868  1
  O  O49  1  0.397813  0.650488  0.658142  1
  O  O50  1  0.547866  0.550420  0.621149  1
  O  O51  1  0.605358  0.301541  0.131099  1
  O  O52  1  0.217130  0.039568  0.417839  1
  O  O53  1  0.215917  0.744594  0.688253  1
  O  O54  1  0.373420  0.007574  0.283794  1
  O  O55  1  0.870622  0.649139  0.466071  1
  O  O56  1  0.449580  0.452134  0.121149  1
  O  O57  1  0.349512  0.602187  0.158142  1
  O  O58  1  0.837969  0.666886  0.187400  1
  O  O59  1  0.649139  0.870622  0.033929  1
  O  O60  1  0.550420  0.547866  0.878851  1
  O  O61  1  0.452134  0.449580  0.378851  1
  O  O62  1  0.406490  0.937651  0.559715  1
  O  O63  1  0.255406  0.784083  0.188253  1
  O  O64  1  0.350861  0.129378  0.966071  1
  O  O65  1  0.847634  0.304620  0.577258  1
  O  O66  1  0.937651  0.406490  0.940285  1
  O  O67  1  0.162031  0.333114  0.812600  1
  O  O68  1  0.062349  0.593510  0.059715  1
  O  O69  1  0.992426  0.626580  0.783794  1
  O  O70  1  0.744594  0.215917  0.811747  1
  O  O71  1  0.698459  0.394642  0.631099  1
  O  O72  1  0.963741  0.799407  0.314868  1
  O  O73  1  0.351802  0.243536  0.532745  1
  O  O74  1  0.626580  0.992426  0.716206  1
  O  O75  1  0.301541  0.605358  0.368901  1
