# generated using pymatgen
data_K2Ni12As7
_symmetry_space_group_name_H-M   'P 1'
_cell_length_a   9.54225479
_cell_length_b   9.54225479
_cell_length_c   3.83057829
_cell_angle_alpha   90.00000000
_cell_angle_beta   90.00000000
_cell_angle_gamma   120.00000000
_symmetry_Int_Tables_number   1
_chemical_formula_structural   K2Ni12As7
_chemical_formula_sum   'K2 Ni12 As7'
_cell_volume   302.06262463
_cell_formula_units_Z   1
loop_
 _symmetry_equiv_pos_site_id
 _symmetry_equiv_pos_as_xyz
  1  'x, y, z'
loop_
 _atom_site_type_symbol
 _atom_site_label
 _atom_site_symmetry_multiplicity
 _atom_site_fract_x
 _atom_site_fract_y
 _atom_site_fract_z
 _atom_site_occupancy
  K  K0  1  0.666667  0.333333  0.500000  1
  K  K1  1  0.333333  0.666667  0.000000  1
  Ni  Ni2  1  0.374318  0.954150  0.500000  1
  Ni  Ni3  1  0.579832  0.625682  0.500000  1
  Ni  Ni4  1  0.045850  0.420168  0.500000  1
  Ni  Ni5  1  0.205313  0.111201  0.500000  1
  Ni  Ni6  1  0.905889  0.794687  0.500000  1
  Ni  Ni7  1  0.888799  0.094111  0.500000  1
  Ni  Ni8  1  0.149843  0.874727  0.000000  1
  Ni  Ni9  1  0.724884  0.850157  0.000000  1
  Ni  Ni10  1  0.125273  0.275116  0.000000  1
  Ni  Ni11  1  0.616352  0.050901  0.000000  1
  Ni  Ni12  1  0.434550  0.383648  0.000000  1
  Ni  Ni13  1  0.949099  0.565450  0.000000  1
  As  As14  1  0.000000  0.000000  0.000000  1
  As  As15  1  0.400605  0.113903  0.000000  1
  As  As16  1  0.713298  0.599395  0.000000  1
  As  As17  1  0.886097  0.286702  0.000000  1
  As  As18  1  0.601547  0.898830  0.500000  1
  As  As19  1  0.297284  0.398453  0.500000  1
  As  As20  1  0.101170  0.702716  0.500000  1
