# generated using pymatgen
data_Zn2In2S5
_symmetry_space_group_name_H-M   'P 1'
_cell_length_a   15.79556591
_cell_length_b   15.79556591
_cell_length_c   15.79556591
_cell_angle_alpha   14.26324794
_cell_angle_beta   14.26324794
_cell_angle_gamma   14.26324794
_symmetry_Int_Tables_number   1
_chemical_formula_structural   Zn2In2S5
_chemical_formula_sum   'Zn2 In2 S5'
_cell_volume   208.24510543
_cell_formula_units_Z   1
loop_
 _symmetry_equiv_pos_site_id
 _symmetry_equiv_pos_as_xyz
  1  'x, y, z'
loop_
 _atom_site_type_symbol
 _atom_site_label
 _atom_site_symmetry_multiplicity
 _atom_site_fract_x
 _atom_site_fract_y
 _atom_site_fract_z
 _atom_site_occupancy
  Zn  Zn0  1  0.311804  0.311804  0.311804  1
  Zn  Zn1  1  0.482867  0.482867  0.482867  1
  In  In2  1  0.896096  0.896096  0.896096  1
  In  In3  1  0.077735  0.077735  0.077735  1
  S  S4  1  0.991760  0.991760  0.991760  1
  S  S5  1  0.530774  0.530774  0.530774  1
  S  S6  1  0.388826  0.388826  0.388826  1
  S  S7  1  0.257016  0.257016  0.257016  1
  S  S8  1  0.131122  0.131122  0.131122  1
