# generated using pymatgen
data_ThSiO4
_symmetry_space_group_name_H-M   'P 1'
_cell_length_a   6.00445766
_cell_length_b   6.00445766
_cell_length_c   6.00445766
_cell_angle_alpha   106.30319415
_cell_angle_beta   106.30319415
_cell_angle_gamma   116.01201195
_symmetry_Int_Tables_number   1
_chemical_formula_structural   ThSiO4
_chemical_formula_sum   'Th2 Si2 O8'
_cell_volume   165.00080186
_cell_formula_units_Z   2
loop_
 _symmetry_equiv_pos_site_id
 _symmetry_equiv_pos_as_xyz
  1  'x, y, z'
loop_
 _atom_site_type_symbol
 _atom_site_label
 _atom_site_symmetry_multiplicity
 _atom_site_fract_x
 _atom_site_fract_y
 _atom_site_fract_z
 _atom_site_occupancy
  Th  Th0  1  0.500000  0.500000  0.000000  1
  Th  Th1  1  0.750000  0.250000  0.500000  1
  Si  Si2  1  0.000000  0.000000  0.000000  1
  Si  Si3  1  0.250000  0.750000  0.500000  1
  O  O4  1  0.833570  0.010040  0.176470  1
  O  O5  1  0.907100  0.583570  0.323530  1
  O  O6  1  0.260040  0.583570  0.676470  1
  O  O7  1  0.833570  0.657100  0.823530  1
  O  O8  1  0.989960  0.166430  0.823530  1
  O  O9  1  0.416430  0.092900  0.676470  1
  O  O10  1  0.416430  0.739960  0.323530  1
  O  O11  1  0.342900  0.166430  0.176470  1
