# generated using pymatgen
data_CuMoO4
_symmetry_space_group_name_H-M   'P 1'
_cell_length_a   4.81039965
_cell_length_b   4.95134185
_cell_length_c   6.04119350
_cell_angle_alpha   86.97467110
_cell_angle_beta   79.77029624
_cell_angle_gamma   85.61749364
_symmetry_Int_Tables_number   1
_chemical_formula_structural   CuMoO4
_chemical_formula_sum   'Cu2 Mo2 O8'
_cell_volume   141.07466472
_cell_formula_units_Z   2
loop_
 _symmetry_equiv_pos_site_id
 _symmetry_equiv_pos_as_xyz
  1  'x, y, z'
loop_
 _atom_site_type_symbol
 _atom_site_label
 _atom_site_symmetry_multiplicity
 _atom_site_fract_x
 _atom_site_fract_y
 _atom_site_fract_z
 _atom_site_occupancy
  Cu  Cu0  1  0.490149  0.746200  0.155068  1
  Cu  Cu1  1  0.509851  0.253800  0.844932  1
  Mo  Mo2  1  0.971386  0.256891  0.328978  1
  Mo  Mo3  1  0.028614  0.743109  0.671022  1
  O  O4  1  0.726227  0.904286  0.879999  1
  O  O5  1  0.788790  0.427668  0.623386  1
  O  O6  1  0.753576  0.434412  0.148916  1
  O  O7  1  0.246424  0.565588  0.851084  1
  O  O8  1  0.217648  0.043411  0.586073  1
  O  O9  1  0.782352  0.956589  0.413927  1
  O  O10  1  0.211210  0.572332  0.376614  1
  O  O11  1  0.273773  0.095714  0.120001  1
