# generated using pymatgen
data_Tb2H16S3O20
_symmetry_space_group_name_H-M   'P 1'
_cell_length_a   7.56067779
_cell_length_b   7.56067779
_cell_length_c   18.39173775
_cell_angle_alpha   78.81751571
_cell_angle_beta   101.18248429
_cell_angle_gamma   126.84255434
_symmetry_Int_Tables_number   1
_chemical_formula_structural   Tb2H16S3O20
_chemical_formula_sum   'Tb4 H32 S6 O40'
_cell_volume   821.35416161
_cell_formula_units_Z   2
loop_
 _symmetry_equiv_pos_site_id
 _symmetry_equiv_pos_as_xyz
  1  'x, y, z'
loop_
 _atom_site_type_symbol
 _atom_site_label
 _atom_site_symmetry_multiplicity
 _atom_site_fract_x
 _atom_site_fract_y
 _atom_site_fract_z
 _atom_site_occupancy
  Tb  Tb0  1  0.811520  0.146513  0.607464  1
  Tb  Tb1  1  0.146513  0.811520  0.892536  1
  Tb  Tb2  1  0.188480  0.853487  0.392536  1
  Tb  Tb3  1  0.853487  0.188480  0.107464  1
  H  H4  1  0.289244  0.301488  0.660915  1
  H  H5  1  0.301488  0.289244  0.839085  1
  H  H6  1  0.710756  0.698512  0.339085  1
  H  H7  1  0.698512  0.710756  0.160915  1
  H  H8  1  0.151228  0.042971  0.649734  1
  H  H9  1  0.042971  0.151228  0.850266  1
  H  H10  1  0.848772  0.957029  0.350266  1
  H  H11  1  0.957029  0.848772  0.149734  1
  H  H12  1  0.718008  0.374981  0.697460  1
  H  H13  1  0.374981  0.718008  0.802540  1
  H  H14  1  0.281992  0.625019  0.302540  1
  H  H15  1  0.625019  0.281992  0.197460  1
  H  H16  1  0.761009  0.213155  0.755156  1
  H  H17  1  0.213155  0.761009  0.744844  1
  H  H18  1  0.238991  0.786845  0.244844  1
  H  H19  1  0.786845  0.238991  0.255156  1
  H  H20  1  0.536745  0.290689  0.508450  1
  H  H21  1  0.290689  0.536745  0.991550  1
  H  H22  1  0.463255  0.709311  0.491550  1
  H  H23  1  0.709311  0.463255  0.008450  1
  H  H24  1  0.788201  0.501377  0.517229  1
  H  H25  1  0.501377  0.788201  0.982771  1
  H  H26  1  0.211799  0.498623  0.482771  1
  H  H27  1  0.498623  0.211799  0.017229  1
  H  H28  1  0.665848  0.681831  0.606383  1
  H  H29  1  0.681831  0.665848  0.893617  1
  H  H30  1  0.334152  0.318169  0.393617  1
  H  H31  1  0.318169  0.334152  0.106383  1
  H  H32  1  0.837168  0.811581  0.545635  1
  H  H33  1  0.811581  0.837168  0.954365  1
  H  H34  1  0.162832  0.188419  0.454365  1
  H  H35  1  0.188419  0.162832  0.045635  1
  S  S36  1  0.674305  0.674305  0.750000  1
  S  S37  1  0.325695  0.325695  0.250000  1
  S  S38  1  0.810680  0.245873  0.409722  1
  S  S39  1  0.245873  0.810680  0.090278  1
  S  S40  1  0.189320  0.754127  0.590278  1
  S  S41  1  0.754127  0.189320  0.909722  1
  O  O42  1  0.143568  0.172280  0.642494  1
  O  O43  1  0.172280  0.143568  0.857506  1
  O  O44  1  0.856432  0.827720  0.357506  1
  O  O45  1  0.827720  0.856432  0.142494  1
  O  O46  1  0.758497  0.270871  0.702007  1
  O  O47  1  0.270871  0.758497  0.797993  1
  O  O48  1  0.241503  0.729129  0.297993  1
  O  O49  1  0.729129  0.241503  0.202007  1
  O  O50  1  0.674321  0.358834  0.542810  1
  O  O51  1  0.358834  0.674321  0.957190  1
  O  O52  1  0.325679  0.641166  0.457190  1
  O  O53  1  0.641166  0.325679  0.042810  1
  O  O54  1  0.717233  0.801388  0.564065  1
  O  O55  1  0.801388  0.717233  0.935935  1
  O  O56  1  0.282767  0.198612  0.435935  1
  O  O57  1  0.198612  0.282767  0.064065  1
  O  O58  1  0.715780  0.886672  0.712630  1
  O  O59  1  0.886672  0.715780  0.787370  1
  O  O60  1  0.284220  0.113328  0.287370  1
  O  O61  1  0.113328  0.284220  0.212630  1
  O  O62  1  0.582470  0.514803  0.692947  1
  O  O63  1  0.514803  0.582470  0.807053  1
  O  O64  1  0.417530  0.485197  0.307053  1
  O  O65  1  0.485197  0.417530  0.192947  1
  O  O66  1  0.934303  0.221804  0.482255  1
  O  O67  1  0.221804  0.934303  0.017745  1
  O  O68  1  0.065697  0.778196  0.517745  1
  O  O69  1  0.778196  0.065697  0.982255  1
  O  O70  1  0.570547  0.089585  0.418287  1
  O  O71  1  0.089585  0.570547  0.081713  1
  O  O72  1  0.429453  0.910415  0.581713  1
  O  O73  1  0.910415  0.429453  0.918287  1
  O  O74  1  0.876152  0.476879  0.396843  1
  O  O75  1  0.476879  0.876152  0.103157  1
  O  O76  1  0.123848  0.523121  0.603157  1
  O  O77  1  0.523121  0.123848  0.896843  1
  O  O78  1  0.870049  0.195004  0.348585  1
  O  O79  1  0.195004  0.870049  0.151415  1
  O  O80  1  0.129951  0.804996  0.651415  1
  O  O81  1  0.804996  0.129951  0.848585  1
