# generated using pymatgen
data_Sr3GaSb3
_symmetry_space_group_name_H-M   'P 1'
_cell_length_a   11.83728722
_cell_length_b   14.78414385
_cell_length_c   13.61216096
_cell_angle_alpha   90.00000000
_cell_angle_beta   124.98345706
_cell_angle_gamma   90.00000000
_symmetry_Int_Tables_number   1
_chemical_formula_structural   Sr3GaSb3
_chemical_formula_sum   'Sr24 Ga8 Sb24'
_cell_volume   1951.76593833
_cell_formula_units_Z   8
loop_
 _symmetry_equiv_pos_site_id
 _symmetry_equiv_pos_as_xyz
  1  'x, y, z'
loop_
 _atom_site_type_symbol
 _atom_site_label
 _atom_site_symmetry_multiplicity
 _atom_site_fract_x
 _atom_site_fract_y
 _atom_site_fract_z
 _atom_site_occupancy
  Sr  Sr0  1  0.922719  0.566802  0.335860  1
  Sr  Sr1  1  0.596027  0.716653  0.908588  1
  Sr  Sr2  1  0.403973  0.283347  0.091412  1
  Sr  Sr3  1  0.136714  0.749873  0.658001  1
  Sr  Sr4  1  0.649990  0.424553  0.977047  1
  Sr  Sr5  1  0.863286  0.249873  0.841999  1
  Sr  Sr6  1  0.860659  0.928886  0.318362  1
  Sr  Sr7  1  0.077281  0.433198  0.664140  1
  Sr  Sr8  1  0.618438  0.095425  0.961940  1
  Sr  Sr9  1  0.136714  0.750127  0.158001  1
  Sr  Sr10  1  0.618438  0.404575  0.461940  1
  Sr  Sr11  1  0.596027  0.783347  0.408588  1
  Sr  Sr12  1  0.139341  0.071114  0.681638  1
  Sr  Sr13  1  0.381562  0.904575  0.038060  1
  Sr  Sr14  1  0.649990  0.075447  0.477047  1
  Sr  Sr15  1  0.350010  0.924553  0.522953  1
  Sr  Sr16  1  0.863286  0.250127  0.341999  1
  Sr  Sr17  1  0.860659  0.571114  0.818362  1
  Sr  Sr18  1  0.077281  0.066802  0.164140  1
  Sr  Sr19  1  0.922719  0.933198  0.835860  1
  Sr  Sr20  1  0.350010  0.575447  0.022953  1
  Sr  Sr21  1  0.381562  0.595425  0.538060  1
  Sr  Sr22  1  0.403973  0.216653  0.591412  1
  Sr  Sr23  1  0.139341  0.428886  0.181638  1
  Ga  Ga24  1  0.129520  0.245069  0.321663  1
  Ga  Ga25  1  0.371537  0.408766  0.688467  1
  Ga  Ga26  1  0.628463  0.591234  0.311533  1
  Ga  Ga27  1  0.371537  0.091234  0.188467  1
  Ga  Ga28  1  0.870480  0.745069  0.178337  1
  Ga  Ga29  1  0.870480  0.754931  0.678337  1
  Ga  Ga30  1  0.129520  0.254931  0.821663  1
  Ga  Ga31  1  0.628463  0.908766  0.811533  1
  Sb  Sb32  1  0.844891  0.900538  0.050439  1
  Sb  Sb33  1  0.609450  0.093566  0.204416  1
  Sb  Sb34  1  0.885362  0.590378  0.073500  1
  Sb  Sb35  1  0.889592  0.258520  0.100549  1
  Sb  Sb36  1  0.889592  0.241480  0.600549  1
  Sb  Sb37  1  0.885362  0.909622  0.573500  1
  Sb  Sb38  1  0.155109  0.099462  0.949561  1
  Sb  Sb39  1  0.650190  0.067369  0.726418  1
  Sb  Sb40  1  0.349810  0.567369  0.773582  1
  Sb  Sb41  1  0.633262  0.737678  0.179150  1
  Sb  Sb42  1  0.114638  0.090378  0.426500  1
  Sb  Sb43  1  0.366738  0.237678  0.320850  1
  Sb  Sb44  1  0.633262  0.762322  0.679150  1
  Sb  Sb45  1  0.110408  0.741480  0.899451  1
  Sb  Sb46  1  0.609450  0.406434  0.704416  1
  Sb  Sb47  1  0.114638  0.409622  0.926500  1
  Sb  Sb48  1  0.844891  0.599462  0.550439  1
  Sb  Sb49  1  0.155109  0.400538  0.449561  1
  Sb  Sb50  1  0.390550  0.593566  0.295584  1
  Sb  Sb51  1  0.650190  0.432631  0.226418  1
  Sb  Sb52  1  0.110408  0.758520  0.399451  1
  Sb  Sb53  1  0.390550  0.906434  0.795584  1
  Sb  Sb54  1  0.366738  0.262322  0.820850  1
  Sb  Sb55  1  0.349810  0.932631  0.273582  1
