# generated using pymatgen
data_WOF4
_symmetry_space_group_name_H-M   'P 1'
_cell_length_a   8.75854608
_cell_length_b   8.75854608
_cell_length_c   5.43221958
_cell_angle_alpha   88.23357039
_cell_angle_beta   91.76642961
_cell_angle_gamma   67.88906569
_symmetry_Int_Tables_number   1
_chemical_formula_structural   WOF4
_chemical_formula_sum   'W4 O4 F16'
_cell_volume   385.48171521
_cell_formula_units_Z   4
loop_
 _symmetry_equiv_pos_site_id
 _symmetry_equiv_pos_as_xyz
  1  'x, y, z'
loop_
 _atom_site_type_symbol
 _atom_site_label
 _atom_site_symmetry_multiplicity
 _atom_site_fract_x
 _atom_site_fract_y
 _atom_site_fract_z
 _atom_site_occupancy
  W  W0  1  0.239406  0.760594  0.767206  1
  W  W1  1  0.760594  0.239406  0.232794  1
  W  W2  1  0.813600  0.813600  0.000000  1
  W  W3  1  0.186400  0.186400  0.000000  1
  O  O4  1  0.786922  0.025853  0.119072  1
  O  O5  1  0.025853  0.786922  0.880928  1
  O  O6  1  0.213078  0.974147  0.880928  1
  O  O7  1  0.974147  0.213078  0.119072  1
  F  F8  1  0.551999  0.265415  0.348283  1
  F  F9  1  0.341497  0.658503  0.071529  1
  F  F10  1  0.291268  0.086911  0.304636  1
  F  F11  1  0.164778  0.393240  0.119475  1
  F  F12  1  0.835222  0.606760  0.880525  1
  F  F13  1  0.606760  0.835222  0.119475  1
  F  F14  1  0.448001  0.734585  0.651717  1
  F  F15  1  0.856544  0.143456  0.545140  1
  F  F16  1  0.265415  0.551999  0.651717  1
  F  F17  1  0.734585  0.448001  0.348283  1
  F  F18  1  0.393240  0.164778  0.880525  1
  F  F19  1  0.143456  0.856544  0.454860  1
  F  F20  1  0.658503  0.341497  0.928471  1
  F  F21  1  0.708732  0.913089  0.695364  1
  F  F22  1  0.086911  0.291268  0.695364  1
  F  F23  1  0.913089  0.708732  0.304636  1
