# generated using pymatgen
data_VP2O7
_symmetry_space_group_name_H-M   'P 1'
_cell_length_a   6.27302163
_cell_length_b   6.39305179
_cell_length_c   6.88704036
_cell_angle_alpha   88.77268869
_cell_angle_beta   113.72997888
_cell_angle_gamma   94.97364340
_symmetry_Int_Tables_number   1
_chemical_formula_structural   VP2O7
_chemical_formula_sum   'V2 P4 O14'
_cell_volume   251.86485409
_cell_formula_units_Z   2
loop_
 _symmetry_equiv_pos_site_id
 _symmetry_equiv_pos_as_xyz
  1  'x, y, z'
loop_
 _atom_site_type_symbol
 _atom_site_label
 _atom_site_symmetry_multiplicity
 _atom_site_fract_x
 _atom_site_fract_y
 _atom_site_fract_z
 _atom_site_occupancy
  V  V0  1  0.092854  0.352816  0.203819  1
  V  V1  1  0.907146  0.647184  0.796181  1
  P  P2  1  0.336591  0.613592  0.646632  1
  P  P3  1  0.663409  0.386408  0.353368  1
  P  P4  1  0.237464  0.866378  0.245689  1
  P  P5  1  0.762536  0.133622  0.754311  1
  O  O6  1  0.402334  0.385582  0.208245  1
  O  O7  1  0.560261  0.101870  0.810848  1
  O  O8  1  0.439739  0.898130  0.189152  1
  O  O9  1  0.906220  0.943743  0.775905  1
  O  O10  1  0.300669  0.806678  0.492367  1
  O  O11  1  0.203363  0.646562  0.786632  1
  O  O12  1  0.059516  0.669469  0.120340  1
  O  O13  1  0.597666  0.614418  0.791755  1
  O  O14  1  0.699331  0.193322  0.507633  1
  O  O15  1  0.237806  0.412918  0.511657  1
  O  O16  1  0.093780  0.056257  0.224095  1
  O  O17  1  0.940484  0.330531  0.879660  1
  O  O18  1  0.796637  0.353438  0.213368  1
  O  O19  1  0.762194  0.587082  0.488343  1
