# generated using pymatgen
data_Ba3In2Cl2O5
_symmetry_space_group_name_H-M   'P 1'
_cell_length_a   13.10970489
_cell_length_b   13.10970489
_cell_length_c   13.10970489
_cell_angle_alpha   161.11627671
_cell_angle_beta   161.11627671
_cell_angle_gamma   26.82935734
_symmetry_Int_Tables_number   1
_chemical_formula_structural   Ba3In2Cl2O5
_chemical_formula_sum   'Ba3 In2 Cl2 O5'
_cell_volume   235.91750813
_cell_formula_units_Z   1
loop_
 _symmetry_equiv_pos_site_id
 _symmetry_equiv_pos_as_xyz
  1  'x, y, z'
loop_
 _atom_site_type_symbol
 _atom_site_label
 _atom_site_symmetry_multiplicity
 _atom_site_fract_x
 _atom_site_fract_y
 _atom_site_fract_z
 _atom_site_occupancy
  Ba  Ba0  1  0.661246  0.661246  0.000000  1
  Ba  Ba1  1  0.500000  0.500000  0.000000  1
  Ba  Ba2  1  0.338754  0.338754  0.000000  1
  In  In3  1  0.917572  0.917572  0.000000  1
  In  In4  1  0.082428  0.082428  0.000000  1
  Cl  Cl5  1  0.205189  0.205189  0.000000  1
  Cl  Cl6  1  0.794811  0.794811  0.000000  1
  O  O7  1  0.594059  0.094059  0.500000  1
  O  O8  1  0.905941  0.405941  0.500000  1
  O  O9  1  0.405941  0.905941  0.500000  1
  O  O10  1  0.000000  0.000000  0.000000  1
  O  O11  1  0.094059  0.594059  0.500000  1
