# generated using pymatgen
data_Mo5O14
_symmetry_space_group_name_H-M   'P 1'
_cell_length_a   6.85483710
_cell_length_b   5.56933845
_cell_length_c   32.12448474
_cell_angle_alpha   90.00000000
_cell_angle_beta   101.26664630
_cell_angle_gamma   90.00000000
_symmetry_Int_Tables_number   1
_chemical_formula_structural   Mo5O14
_chemical_formula_sum   'Mo20 O56'
_cell_volume   1202.77873743
_cell_formula_units_Z   4
loop_
 _symmetry_equiv_pos_site_id
 _symmetry_equiv_pos_as_xyz
  1  'x, y, z'
loop_
 _atom_site_type_symbol
 _atom_site_label
 _atom_site_symmetry_multiplicity
 _atom_site_fract_x
 _atom_site_fract_y
 _atom_site_fract_z
 _atom_site_occupancy
  Mo  Mo0  1  0.177003  0.268224  0.273624  1
  Mo  Mo1  1  0.822997  0.768224  0.226376  1
  Mo  Mo2  1  0.822997  0.731776  0.726376  1
  Mo  Mo3  1  0.177003  0.231776  0.773624  1
  Mo  Mo4  1  0.544506  0.765948  0.319461  1
  Mo  Mo5  1  0.455494  0.265948  0.180539  1
  Mo  Mo6  1  0.455494  0.234052  0.680539  1
  Mo  Mo7  1  0.544506  0.734052  0.819461  1
  Mo  Mo8  1  0.915370  0.269439  0.369640  1
  Mo  Mo9  1  0.084630  0.769439  0.130360  1
  Mo  Mo10  1  0.084630  0.730561  0.630360  1
  Mo  Mo11  1  0.915370  0.230561  0.869640  1
  Mo  Mo12  1  0.291518  0.761795  0.418308  1
  Mo  Mo13  1  0.708482  0.261795  0.081692  1
  Mo  Mo14  1  0.708482  0.238205  0.581692  1
  Mo  Mo15  1  0.291518  0.738205  0.918308  1
  Mo  Mo16  1  0.663840  0.275974  0.464969  1
  Mo  Mo17  1  0.336160  0.775974  0.035031  1
  Mo  Mo18  1  0.336160  0.724026  0.535031  1
  Mo  Mo19  1  0.663840  0.224026  0.964969  1
  O  O20  1  0.010103  0.531091  0.251773  1
  O  O21  1  0.989897  0.031091  0.248227  1
  O  O22  1  0.989897  0.468909  0.748227  1
  O  O23  1  0.010103  0.968909  0.751773  1
  O  O24  1  0.690196  0.769041  0.278178  1
  O  O25  1  0.309804  0.269041  0.221822  1
  O  O26  1  0.309804  0.230959  0.721822  1
  O  O27  1  0.690196  0.730959  0.778178  1
  O  O28  1  0.367739  0.999776  0.299375  1
  O  O29  1  0.632261  0.499776  0.200625  1
  O  O30  1  0.632261  0.000224  0.700625  1
  O  O31  1  0.367739  0.500224  0.799375  1
  O  O32  1  0.389310  0.507165  0.302478  1
  O  O33  1  0.610690  0.007165  0.197522  1
  O  O34  1  0.610690  0.492835  0.697522  1
  O  O35  1  0.389310  0.992835  0.802478  1
  O  O36  1  0.050534  0.265268  0.327256  1
  O  O37  1  0.949466  0.765268  0.172744  1
  O  O38  1  0.761833  0.530123  0.356021  1
  O  O39  1  0.949466  0.734732  0.672744  1
  O  O40  1  0.215539  0.745266  0.979952  1
  O  O41  1  0.784461  0.245266  0.520048  1
  O  O42  1  0.784461  0.254734  0.020048  1
  O  O43  1  0.215539  0.754734  0.479952  1
  O  O44  1  0.488264  0.459197  0.950643  1
  O  O45  1  0.511736  0.959197  0.549357  1
  O  O46  1  0.511736  0.540803  0.049357  1
  O  O47  1  0.488264  0.040803  0.450643  1
  O  O48  1  0.535054  0.943030  0.955770  1
  O  O49  1  0.464946  0.443030  0.544230  1
  O  O50  1  0.464946  0.056970  0.044230  1
  O  O51  1  0.535054  0.556970  0.455770  1
  O  O52  1  0.846453  0.237596  0.932034  1
  O  O53  1  0.153547  0.737596  0.567966  1
  O  O54  1  0.153547  0.762404  0.067966  1
  O  O55  1  0.846453  0.262404  0.432034  1
  O  O56  1  0.112954  0.509189  0.900805  1
  O  O57  1  0.887046  0.009189  0.599195  1
  O  O58  1  0.887046  0.490811  0.099195  1
  O  O59  1  0.112954  0.990811  0.400805  1
  O  O60  1  0.147073  0.004680  0.904258  1
  O  O61  1  0.852927  0.504680  0.595742  1
  O  O62  1  0.852927  0.995320  0.095742  1
  O  O63  1  0.147073  0.495320  0.404258  1
  O  O64  1  0.433002  0.732127  0.876821  1
  O  O65  1  0.566998  0.232127  0.623179  1
  O  O66  1  0.566998  0.267873  0.123179  1
  O  O67  1  0.433002  0.767873  0.376821  1
  O  O68  1  0.736000  0.462731  0.852701  1
  O  O69  1  0.264000  0.962731  0.647299  1
  O  O70  1  0.264000  0.537269  0.147299  1
  O  O71  1  0.736000  0.037269  0.352701  1
  O  O72  1  0.761833  0.969877  0.856021  1
  O  O73  1  0.238167  0.469877  0.643979  1
  O  O74  1  0.238167  0.030123  0.143979  1
  O  O75  1  0.050534  0.234732  0.827256  1
