# generated using pymatgen
data_CaTl2O4
_symmetry_space_group_name_H-M   'P 1'
_cell_length_a   5.85791657
_cell_length_b   5.85791657
_cell_length_c   10.65250903
_cell_angle_alpha   90.00000000
_cell_angle_beta   90.00000000
_cell_angle_gamma   146.44850945
_symmetry_Int_Tables_number   1
_chemical_formula_structural   CaTl2O4
_chemical_formula_sum   'Ca2 Tl4 O8'
_cell_volume   202.03046527
_cell_formula_units_Z   2
loop_
 _symmetry_equiv_pos_site_id
 _symmetry_equiv_pos_as_xyz
  1  'x, y, z'
loop_
 _atom_site_type_symbol
 _atom_site_label
 _atom_site_symmetry_multiplicity
 _atom_site_fract_x
 _atom_site_fract_y
 _atom_site_fract_z
 _atom_site_occupancy
  Ca  Ca0  1  0.108178  0.891822  0.250000  1
  Ca  Ca1  1  0.891822  0.108178  0.750000  1
  Tl  Tl2  1  0.634645  0.365355  0.572055  1
  Tl  Tl3  1  0.365355  0.634645  0.427945  1
  Tl  Tl4  1  0.365355  0.634645  0.072055  1
  Tl  Tl5  1  0.634645  0.365355  0.927945  1
  O  O6  1  0.463194  0.536806  0.250000  1
  O  O7  1  0.536806  0.463194  0.750000  1
  O  O8  1  0.000000  0.000000  0.500000  1
  O  O9  1  0.000000  0.000000  0.000000  1
  O  O10  1  0.719705  0.280295  0.117442  1
  O  O11  1  0.280295  0.719705  0.882558  1
  O  O12  1  0.719705  0.280295  0.382558  1
  O  O13  1  0.280295  0.719705  0.617442  1
