# generated using pymatgen
data_NdNiGe2
_symmetry_space_group_name_H-M   'P 1'
_cell_length_a   8.65783192
_cell_length_b   8.65783192
_cell_length_c   4.25259548
_cell_angle_alpha   90.00000000
_cell_angle_beta   90.00000000
_cell_angle_gamma   151.68480191
_symmetry_Int_Tables_number   1
_chemical_formula_structural   NdNiGe2
_chemical_formula_sum   'Nd2 Ni2 Ge4'
_cell_volume   151.19777793
_cell_formula_units_Z   2
loop_
 _symmetry_equiv_pos_site_id
 _symmetry_equiv_pos_as_xyz
  1  'x, y, z'
loop_
 _atom_site_type_symbol
 _atom_site_label
 _atom_site_symmetry_multiplicity
 _atom_site_fract_x
 _atom_site_fract_y
 _atom_site_fract_z
 _atom_site_occupancy
  Nd  Nd0  1  0.891388  0.108612  0.250000  1
  Nd  Nd1  1  0.108612  0.891388  0.750000  1
  Ni  Ni2  1  0.681144  0.318856  0.250000  1
  Ni  Ni3  1  0.318856  0.681144  0.750000  1
  Ge  Ge4  1  0.250779  0.749221  0.250000  1
  Ge  Ge5  1  0.542105  0.457895  0.250000  1
  Ge  Ge6  1  0.749221  0.250779  0.750000  1
  Ge  Ge7  1  0.457895  0.542105  0.750000  1
