# generated using pymatgen
data_LiFe4(PO4)3
_symmetry_space_group_name_H-M   'P 1'
_cell_length_a   8.85226526
_cell_length_b   8.85226526
_cell_length_c   6.58688323
_cell_angle_alpha   73.66857954
_cell_angle_beta   106.33142046
_cell_angle_gamma   84.39675905
_symmetry_Int_Tables_number   1
_chemical_formula_structural   LiFe4(PO4)3
_chemical_formula_sum   'Li2 Fe8 P6 O24'
_cell_volume   466.51949220
_cell_formula_units_Z   2
loop_
 _symmetry_equiv_pos_site_id
 _symmetry_equiv_pos_as_xyz
  1  'x, y, z'
loop_
 _atom_site_type_symbol
 _atom_site_label
 _atom_site_symmetry_multiplicity
 _atom_site_fract_x
 _atom_site_fract_y
 _atom_site_fract_z
 _atom_site_occupancy
  Li  Li0  1  0.006899  0.006899  0.250000  1
  Li  Li1  1  0.993101  0.993101  0.750000  1
  Fe  Fe2  1  0.944131  0.367571  0.374347  1
  Fe  Fe3  1  0.267287  0.267287  0.250000  1
  Fe  Fe4  1  0.367571  0.944131  0.125653  1
  Fe  Fe5  1  0.499396  0.499396  0.250000  1
  Fe  Fe6  1  0.632429  0.055869  0.874347  1
  Fe  Fe7  1  0.055869  0.632429  0.625653  1
  Fe  Fe8  1  0.500604  0.500604  0.750000  1
  Fe  Fe9  1  0.732713  0.732713  0.750000  1
  P  P10  1  0.705617  0.705617  0.250000  1
  P  P11  1  0.888777  0.330924  0.881713  1
  P  P12  1  0.111223  0.669076  0.118287  1
  P  P13  1  0.330924  0.888777  0.618287  1
  P  P14  1  0.294383  0.294383  0.750000  1
  P  P15  1  0.669076  0.111223  0.381713  1
  O  O16  1  0.851034  0.160785  0.904237  1
  O  O17  1  0.728525  0.525650  0.257126  1
  O  O18  1  0.271475  0.474350  0.742874  1
  O  O19  1  0.734525  0.806574  0.036825  1
  O  O20  1  0.474350  0.271475  0.757126  1
  O  O21  1  0.607113  0.040265  0.192418  1
  O  O22  1  0.193426  0.265475  0.536825  1
  O  O23  1  0.160785  0.851034  0.595763  1
  O  O24  1  0.806574  0.734525  0.463175  1
  O  O25  1  0.839215  0.148966  0.404237  1
  O  O26  1  0.040265  0.607113  0.307582  1
  O  O27  1  0.318438  0.010096  0.386998  1
  O  O28  1  0.392887  0.959735  0.807582  1
  O  O29  1  0.010096  0.318438  0.113002  1
  O  O30  1  0.262756  0.537008  0.165512  1
  O  O31  1  0.959735  0.392887  0.692418  1
  O  O32  1  0.148966  0.839215  0.095763  1
  O  O33  1  0.462992  0.737244  0.665512  1
  O  O34  1  0.265475  0.193426  0.963175  1
  O  O35  1  0.681562  0.989904  0.613002  1
  O  O36  1  0.525650  0.728525  0.242874  1
  O  O37  1  0.537008  0.262756  0.334488  1
  O  O38  1  0.989904  0.681562  0.886998  1
  O  O39  1  0.737244  0.462992  0.834488  1
