# generated using pymatgen
data_YCuPbS3
_symmetry_space_group_name_H-M   'P 1'
_cell_length_a   3.92604989
_cell_length_b   10.28004472
_cell_length_c   13.03333008
_cell_angle_alpha   90.00000000
_cell_angle_beta   90.00000000
_cell_angle_gamma   90.00000000
_symmetry_Int_Tables_number   1
_chemical_formula_structural   YCuPbS3
_chemical_formula_sum   'Y4 Cu4 Pb4 S12'
_cell_volume   526.02479072
_cell_formula_units_Z   4
loop_
 _symmetry_equiv_pos_site_id
 _symmetry_equiv_pos_as_xyz
  1  'x, y, z'
loop_
 _atom_site_type_symbol
 _atom_site_label
 _atom_site_symmetry_multiplicity
 _atom_site_fract_x
 _atom_site_fract_y
 _atom_site_fract_z
 _atom_site_occupancy
  Y  Y0  1  0.750000  0.506329  0.249702  1
  Y  Y1  1  0.250000  0.493671  0.750298  1
  Y  Y2  1  0.750000  0.006329  0.250298  1
  Y  Y3  1  0.250000  0.993671  0.749702  1
  Cu  Cu4  1  0.750000  0.243673  0.782706  1
  Cu  Cu5  1  0.250000  0.756327  0.217294  1
  Cu  Cu6  1  0.750000  0.743673  0.717294  1
  Cu  Cu7  1  0.250000  0.256327  0.282706  1
  Pb  Pb8  1  0.750000  0.255219  0.497910  1
  Pb  Pb9  1  0.250000  0.744781  0.502090  1
  Pb  Pb10  1  0.750000  0.755219  0.002090  1
  Pb  Pb11  1  0.250000  0.244781  0.997910  1
  S  S12  1  0.750000  0.756168  0.324673  1
  S  S13  1  0.250000  0.243832  0.675327  1
  S  S14  1  0.750000  0.256168  0.175327  1
  S  S15  1  0.250000  0.743832  0.824673  1
  S  S16  1  0.750000  0.561290  0.611881  1
  S  S17  1  0.250000  0.438710  0.388119  1
  S  S18  1  0.750000  0.061290  0.888119  1
  S  S19  1  0.250000  0.938710  0.111881  1
  S  S20  1  0.750000  0.925495  0.611793  1
  S  S21  1  0.250000  0.074505  0.388207  1
  S  S22  1  0.750000  0.425495  0.888207  1
  S  S23  1  0.250000  0.574505  0.111793  1
