# generated using pymatgen
data_Li2GeF6
_symmetry_space_group_name_H-M   'P 1'
_cell_length_a   8.56255845
_cell_length_b   8.56255845
_cell_length_c   4.69465182
_cell_angle_alpha   90.00000000
_cell_angle_beta   90.00000000
_cell_angle_gamma   120.00000000
_symmetry_Int_Tables_number   1
_chemical_formula_structural   Li2GeF6
_chemical_formula_sum   'Li6 Ge3 F18'
_cell_volume   298.08568359
_cell_formula_units_Z   3
loop_
 _symmetry_equiv_pos_site_id
 _symmetry_equiv_pos_as_xyz
  1  'x, y, z'
loop_
 _atom_site_type_symbol
 _atom_site_label
 _atom_site_symmetry_multiplicity
 _atom_site_fract_x
 _atom_site_fract_y
 _atom_site_fract_z
 _atom_site_occupancy
  Li  Li0  1  0.701923  0.000000  0.500000  1
  Li  Li1  1  0.633422  0.633422  0.000000  1
  Li  Li2  1  0.000000  0.366578  0.000000  1
  Li  Li3  1  0.366578  0.000000  0.000000  1
  Li  Li4  1  0.000000  0.701923  0.500000  1
  Li  Li5  1  0.298077  0.298077  0.500000  1
  Ge  Ge6  1  0.666667  0.333333  0.512321  1
  Ge  Ge7  1  0.333333  0.666667  0.487679  1
  Ge  Ge8  1  0.000000  0.000000  0.000000  1
  F  F9  1  0.096032  0.204177  0.218924  1
  F  F10  1  0.108145  0.903968  0.218924  1
  F  F11  1  0.795823  0.891855  0.218924  1
  F  F12  1  0.462279  0.224158  0.292343  1
  F  F13  1  0.775842  0.238121  0.292343  1
  F  F14  1  0.761879  0.537721  0.292343  1
  F  F15  1  0.238121  0.775842  0.707657  1
  F  F16  1  0.537721  0.761879  0.707657  1
  F  F17  1  0.224158  0.462279  0.707657  1
  F  F18  1  0.420465  0.550324  0.267102  1
  F  F19  1  0.449676  0.870141  0.267102  1
  F  F20  1  0.129859  0.579535  0.267102  1
  F  F21  1  0.870141  0.449676  0.732898  1
  F  F22  1  0.579535  0.129859  0.732898  1
  F  F23  1  0.550324  0.420465  0.732898  1
  F  F24  1  0.204177  0.096032  0.781076  1
  F  F25  1  0.903968  0.108145  0.781076  1
  F  F26  1  0.891855  0.795823  0.781076  1
