# generated using pymatgen
data_Np2S3
_symmetry_space_group_name_H-M   'P 1'
_cell_length_a   3.87566819
_cell_length_b   10.34505260
_cell_length_c   10.52615105
_cell_angle_alpha   90.00000000
_cell_angle_beta   90.00000000
_cell_angle_gamma   90.00000000
_symmetry_Int_Tables_number   1
_chemical_formula_structural   Np2S3
_chemical_formula_sum   'Np8 S12'
_cell_volume   422.03540847
_cell_formula_units_Z   4
loop_
 _symmetry_equiv_pos_site_id
 _symmetry_equiv_pos_as_xyz
  1  'x, y, z'
loop_
 _atom_site_type_symbol
 _atom_site_label
 _atom_site_symmetry_multiplicity
 _atom_site_fract_x
 _atom_site_fract_y
 _atom_site_fract_z
 _atom_site_occupancy
  Np  Np0  1  0.250000  0.316609  0.992490  1
  Np  Np1  1  0.750000  0.683391  0.007510  1
  Np  Np2  1  0.750000  0.816609  0.507510  1
  Np  Np3  1  0.250000  0.183391  0.492490  1
  Np  Np4  1  0.250000  0.507906  0.313410  1
  Np  Np5  1  0.750000  0.492094  0.686590  1
  Np  Np6  1  0.750000  0.007906  0.186590  1
  Np  Np7  1  0.250000  0.992094  0.813410  1
  S  S8  1  0.250000  0.869075  0.051027  1
  S  S9  1  0.750000  0.130925  0.948973  1
  S  S10  1  0.750000  0.369075  0.448973  1
  S  S11  1  0.250000  0.630925  0.551027  1
  S  S12  1  0.250000  0.555021  0.875170  1
  S  S13  1  0.750000  0.444979  0.124830  1
  S  S14  1  0.750000  0.055021  0.624830  1
  S  S15  1  0.250000  0.944979  0.375170  1
  S  S16  1  0.250000  0.202964  0.228457  1
  S  S17  1  0.750000  0.797036  0.771543  1
  S  S18  1  0.750000  0.702964  0.271543  1
  S  S19  1  0.250000  0.297036  0.728457  1
