# generated using pymatgen
data_Sc2CrB6
_symmetry_space_group_name_H-M   'P 1'
_cell_length_a   3.37145155
_cell_length_b   8.90138371
_cell_length_c   11.17071472
_cell_angle_alpha   90.00000000
_cell_angle_beta   90.00000000
_cell_angle_gamma   90.00000000
_symmetry_Int_Tables_number   1
_chemical_formula_structural   Sc2CrB6
_chemical_formula_sum   'Sc8 Cr4 B24'
_cell_volume   335.23967140
_cell_formula_units_Z   4
loop_
 _symmetry_equiv_pos_site_id
 _symmetry_equiv_pos_as_xyz
  1  'x, y, z'
loop_
 _atom_site_type_symbol
 _atom_site_label
 _atom_site_symmetry_multiplicity
 _atom_site_fract_x
 _atom_site_fract_y
 _atom_site_fract_z
 _atom_site_occupancy
  Sc  Sc0  1  0.000000  0.823311  0.085462  1
  Sc  Sc1  1  0.000000  0.176689  0.914538  1
  Sc  Sc2  1  0.000000  0.323311  0.414538  1
  Sc  Sc3  1  0.000000  0.676689  0.585462  1
  Sc  Sc4  1  0.000000  0.443129  0.131003  1
  Sc  Sc5  1  0.000000  0.556871  0.868997  1
  Sc  Sc6  1  0.000000  0.943129  0.368997  1
  Sc  Sc7  1  0.000000  0.056871  0.631003  1
  Cr  Cr8  1  0.000000  0.141403  0.180715  1
  Cr  Cr9  1  0.000000  0.858597  0.819285  1
  Cr  Cr10  1  0.000000  0.641403  0.319285  1
  Cr  Cr11  1  0.000000  0.358597  0.680715  1
  B  B12  1  0.500000  0.053895  0.065351  1
  B  B13  1  0.500000  0.946105  0.934649  1
  B  B14  1  0.500000  0.553895  0.434649  1
  B  B15  1  0.500000  0.446105  0.565351  1
  B  B16  1  0.500000  0.252170  0.079752  1
  B  B17  1  0.500000  0.747830  0.920248  1
  B  B18  1  0.500000  0.752170  0.420248  1
  B  B19  1  0.500000  0.247830  0.579752  1
  B  B20  1  0.500000  0.295299  0.237168  1
  B  B21  1  0.500000  0.704701  0.762832  1
  B  B22  1  0.500000  0.795299  0.262832  1
  B  B23  1  0.500000  0.204701  0.737168  1
  B  B24  1  0.500000  0.131290  0.317610  1
  B  B25  1  0.500000  0.868710  0.682390  1
  B  B26  1  0.500000  0.631290  0.182390  1
  B  B27  1  0.500000  0.368710  0.817610  1
  B  B28  1  0.500000  0.480971  0.288492  1
  B  B29  1  0.500000  0.519029  0.711508  1
  B  B30  1  0.500000  0.980971  0.211508  1
  B  B31  1  0.500000  0.019029  0.788492  1
  B  B32  1  0.500000  0.098342  0.473169  1
  B  B33  1  0.500000  0.901658  0.526831  1
  B  B34  1  0.500000  0.598342  0.026831  1
  B  B35  1  0.500000  0.401658  0.973169  1
