# generated using pymatgen
data_Li6CaCeO6
_symmetry_space_group_name_H-M   'P 1'
_cell_length_a   5.86726753
_cell_length_b   5.86726753
_cell_length_c   10.74252767
_cell_angle_alpha   90.00000000
_cell_angle_beta   90.00000000
_cell_angle_gamma   120.00000000
_symmetry_Int_Tables_number   1
_chemical_formula_structural   Li6CaCeO6
_chemical_formula_sum   'Li12 Ca2 Ce2 O12'
_cell_volume   320.26456948
_cell_formula_units_Z   2
loop_
 _symmetry_equiv_pos_site_id
 _symmetry_equiv_pos_as_xyz
  1  'x, y, z'
loop_
 _atom_site_type_symbol
 _atom_site_label
 _atom_site_symmetry_multiplicity
 _atom_site_fract_x
 _atom_site_fract_y
 _atom_site_fract_z
 _atom_site_occupancy
  Li  Li0  1  0.058725  0.690124  0.064835  1
  Li  Li1  1  0.309876  0.368601  0.064835  1
  Li  Li2  1  0.058725  0.368601  0.435165  1
  Li  Li3  1  0.941275  0.309876  0.935165  1
  Li  Li4  1  0.631399  0.690124  0.435165  1
  Li  Li5  1  0.690124  0.631399  0.935165  1
  Li  Li6  1  0.309876  0.941275  0.435165  1
  Li  Li7  1  0.690124  0.058725  0.564835  1
  Li  Li8  1  0.368601  0.309876  0.564835  1
  Li  Li9  1  0.941275  0.631399  0.564835  1
  Li  Li10  1  0.631399  0.941275  0.064835  1
  Li  Li11  1  0.368601  0.058725  0.935165  1
  Ca  Ca12  1  0.000000  0.000000  0.750000  1
  Ca  Ca13  1  0.000000  0.000000  0.250000  1
  Ce  Ce14  1  0.333333  0.666667  0.750000  1
  Ce  Ce15  1  0.666667  0.333333  0.250000  1
  O  O16  1  0.043905  0.696896  0.880572  1
  O  O17  1  0.303104  0.347009  0.880572  1
  O  O18  1  0.696896  0.043905  0.380572  1
  O  O19  1  0.652991  0.696896  0.619428  1
  O  O20  1  0.956095  0.303104  0.119428  1
  O  O21  1  0.303104  0.956095  0.619428  1
  O  O22  1  0.043905  0.347009  0.619428  1
  O  O23  1  0.696896  0.652991  0.119428  1
  O  O24  1  0.956095  0.652991  0.380572  1
  O  O25  1  0.347009  0.303104  0.380572  1
  O  O26  1  0.347009  0.043905  0.119428  1
  O  O27  1  0.652991  0.956095  0.880572  1
