# generated using pymatgen
data_Li3Fe2(PO4)3
_symmetry_space_group_name_H-M   'P 1'
_cell_length_a   8.44448520
_cell_length_b   8.44448520
_cell_length_c   8.67384088
_cell_angle_alpha   61.48212817
_cell_angle_beta   118.51787183
_cell_angle_gamma   116.89555079
_symmetry_Int_Tables_number   1
_chemical_formula_structural   Li3Fe2(PO4)3
_chemical_formula_sum   'Li6 Fe4 P6 O24'
_cell_volume   456.91748475
_cell_formula_units_Z   2
loop_
 _symmetry_equiv_pos_site_id
 _symmetry_equiv_pos_as_xyz
  1  'x, y, z'
loop_
 _atom_site_type_symbol
 _atom_site_label
 _atom_site_symmetry_multiplicity
 _atom_site_fract_x
 _atom_site_fract_y
 _atom_site_fract_z
 _atom_site_occupancy
  Li  Li0  1  0.839719  0.235407  0.358215  1
  Li  Li1  1  0.764593  0.160281  0.858215  1
  Li  Li2  1  0.500000  1.000000  0.500000  1
  Li  Li3  1  0.235407  0.839719  0.141785  1
  Li  Li4  1  1.000000  0.500000  0.000000  1
  Li  Li5  1  0.160281  0.764593  0.641785  1
  Fe  Fe6  1  0.851960  0.637326  0.147059  1
  Fe  Fe7  1  0.362674  0.148040  0.647059  1
  Fe  Fe8  1  0.637326  0.851960  0.352941  1
  Fe  Fe9  1  0.148040  0.362674  0.852941  1
  P  P10  1  0.559977  0.255342  0.031974  1
  P  P11  1  0.955198  0.955198  0.750000  1
  P  P12  1  0.744658  0.440023  0.531974  1
  P  P13  1  0.255342  0.559977  0.468026  1
  P  P14  1  0.044802  0.044802  0.250000  1
  P  P15  1  0.440023  0.744658  0.968026  1
  O  O16  1  0.986003  0.122193  0.800767  1
  O  O17  1  0.877807  0.013997  0.300767  1
  O  O18  1  0.561167  0.099412  0.226394  1
  O  O19  1  0.754059  0.407898  0.069940  1
  O  O20  1  0.553688  0.186580  0.892634  1
  O  O21  1  0.947385  0.769724  0.919332  1
  O  O22  1  0.389024  0.323076  0.956871  1
  O  O23  1  0.900588  0.438833  0.726394  1
  O  O24  1  0.592102  0.245941  0.569940  1
  O  O25  1  0.813420  0.446312  0.392634  1
  O  O26  1  0.323076  0.389024  0.543129  1
  O  O27  1  0.230276  0.052615  0.419332  1
  O  O28  1  0.769724  0.947385  0.580668  1
  O  O29  1  0.676924  0.610976  0.456871  1
  O  O30  1  0.186580  0.553688  0.607366  1
  O  O31  1  0.407898  0.754059  0.430060  1
  O  O32  1  0.099412  0.561167  0.273606  1
  O  O33  1  0.610976  0.676924  0.043129  1
  O  O34  1  0.052615  0.230276  0.080668  1
  O  O35  1  0.446312  0.813420  0.107366  1
  O  O36  1  0.245941  0.592102  0.930060  1
  O  O37  1  0.438833  0.900588  0.773606  1
  O  O38  1  0.122193  0.986003  0.699233  1
  O  O39  1  0.013997  0.877807  0.199233  1
