# generated using pymatgen
data_K2CuBr3
_symmetry_space_group_name_H-M   'P 1'
_cell_length_a   4.36097922
_cell_length_b   12.81371908
_cell_length_c   13.38730740
_cell_angle_alpha   90.00000000
_cell_angle_beta   90.00000000
_cell_angle_gamma   90.00000000
_symmetry_Int_Tables_number   1
_chemical_formula_structural   K2CuBr3
_chemical_formula_sum   'K8 Cu4 Br12'
_cell_volume   748.08759227
_cell_formula_units_Z   4
loop_
 _symmetry_equiv_pos_site_id
 _symmetry_equiv_pos_as_xyz
  1  'x, y, z'
loop_
 _atom_site_type_symbol
 _atom_site_label
 _atom_site_symmetry_multiplicity
 _atom_site_fract_x
 _atom_site_fract_y
 _atom_site_fract_z
 _atom_site_occupancy
  K  K0  1  0.250000  0.175957  0.515833  1
  K  K1  1  0.250000  0.511967  0.321819  1
  K  K2  1  0.750000  0.824043  0.484167  1
  K  K3  1  0.750000  0.488033  0.678181  1
  K  K4  1  0.750000  0.988033  0.821819  1
  K  K5  1  0.250000  0.675957  0.984167  1
  K  K6  1  0.750000  0.324043  0.015833  1
  K  K7  1  0.250000  0.011967  0.178181  1
  Cu  Cu8  1  0.750000  0.745503  0.196429  1
  Cu  Cu9  1  0.750000  0.245503  0.303571  1
  Cu  Cu10  1  0.250000  0.254497  0.803571  1
  Cu  Cu11  1  0.250000  0.754497  0.696429  1
  Br  Br12  1  0.750000  0.725316  0.790404  1
  Br  Br13  1  0.750000  0.225316  0.709596  1
  Br  Br14  1  0.250000  0.438475  0.860979  1
  Br  Br15  1  0.250000  0.938475  0.639021  1
  Br  Br16  1  0.250000  0.774684  0.290404  1
  Br  Br17  1  0.250000  0.274684  0.209596  1
  Br  Br18  1  0.250000  0.632466  0.554759  1
  Br  Br19  1  0.250000  0.132466  0.945241  1
  Br  Br20  1  0.750000  0.061525  0.360979  1
  Br  Br21  1  0.750000  0.867534  0.054759  1
  Br  Br22  1  0.750000  0.367534  0.445241  1
  Br  Br23  1  0.750000  0.561525  0.139021  1
