# generated using pymatgen
data_NaFe(SiO3)2
_symmetry_space_group_name_H-M   'P 1'
_cell_length_a   6.61749017
_cell_length_b   6.61749017
_cell_length_c   5.35110800
_cell_angle_alpha   77.38502128
_cell_angle_beta   102.61497872
_cell_angle_gamma   95.43618015
_symmetry_Int_Tables_number   1
_chemical_formula_structural   NaFe(SiO3)2
_chemical_formula_sum   'Na2 Fe2 Si4 O12'
_cell_volume   222.88181305
_cell_formula_units_Z   2
loop_
 _symmetry_equiv_pos_site_id
 _symmetry_equiv_pos_as_xyz
  1  'x, y, z'
loop_
 _atom_site_type_symbol
 _atom_site_label
 _atom_site_symmetry_multiplicity
 _atom_site_fract_x
 _atom_site_fract_y
 _atom_site_fract_z
 _atom_site_occupancy
  Na  Na0  1  0.698795  0.698795  0.250000  1
  Na  Na1  1  0.301205  0.301205  0.750000  1
  Fe  Fe2  1  0.101221  0.101221  0.250000  1
  Fe  Fe3  1  0.898779  0.898779  0.750000  1
  Si  Si4  1  0.799288  0.379597  0.768896  1
  Si  Si5  1  0.200712  0.620403  0.231104  1
  Si  Si6  1  0.620403  0.200712  0.268896  1
  Si  Si7  1  0.379597  0.799288  0.731104  1
  O  O8  1  0.362075  0.659921  0.504225  1
  O  O9  1  0.659921  0.362075  0.995775  1
  O  O10  1  0.637925  0.340079  0.495775  1
  O  O11  1  0.340079  0.637925  0.004225  1
  O  O12  1  0.613987  0.894206  0.802832  1
  O  O13  1  0.894206  0.613987  0.697168  1
  O  O14  1  0.386013  0.105794  0.197168  1
  O  O15  1  0.105794  0.386013  0.302832  1
  O  O16  1  0.035494  0.806781  0.136816  1
  O  O17  1  0.806781  0.035494  0.363184  1
  O  O18  1  0.193219  0.964506  0.636816  1
  O  O19  1  0.964506  0.193219  0.863184  1
