# generated using pymatgen
data_SmTlPd
_symmetry_space_group_name_H-M   'P 1'
_cell_length_a   7.96080490
_cell_length_b   7.96080490
_cell_length_c   3.85509276
_cell_angle_alpha   90.00000000
_cell_angle_beta   90.00000000
_cell_angle_gamma   120.00000000
_symmetry_Int_Tables_number   1
_chemical_formula_structural   SmTlPd
_chemical_formula_sum   'Sm3 Tl3 Pd3'
_cell_volume   211.58234465
_cell_formula_units_Z   3
loop_
 _symmetry_equiv_pos_site_id
 _symmetry_equiv_pos_as_xyz
  1  'x, y, z'
loop_
 _atom_site_type_symbol
 _atom_site_label
 _atom_site_symmetry_multiplicity
 _atom_site_fract_x
 _atom_site_fract_y
 _atom_site_fract_z
 _atom_site_occupancy
  Sm  Sm0  1  0.000000  0.596980  0.500000  1
  Sm  Sm1  1  0.596980  0.000000  0.500000  1
  Sm  Sm2  1  0.403020  0.403020  0.500000  1
  Tl  Tl3  1  0.000000  0.265660  0.000000  1
  Tl  Tl4  1  0.265660  0.000000  0.000000  1
  Tl  Tl5  1  0.734340  0.734340  0.000000  1
  Pd  Pd6  1  0.000000  0.000000  0.500000  1
  Pd  Pd7  1  0.666667  0.333333  0.000000  1
  Pd  Pd8  1  0.333333  0.666667  0.000000  1
