# generated using pymatgen
data_Dy(IO3)3
_symmetry_space_group_name_H-M   'P 1'
_cell_length_a   8.80772515
_cell_length_b   6.13014183
_cell_length_c   16.74077439
_cell_angle_alpha   90.00000000
_cell_angle_beta   114.75951155
_cell_angle_gamma   90.00000000
_symmetry_Int_Tables_number   1
_chemical_formula_structural   Dy(IO3)3
_chemical_formula_sum   'Dy4 I12 O36'
_cell_volume   820.78781171
_cell_formula_units_Z   4
loop_
 _symmetry_equiv_pos_site_id
 _symmetry_equiv_pos_as_xyz
  1  'x, y, z'
loop_
 _atom_site_type_symbol
 _atom_site_label
 _atom_site_symmetry_multiplicity
 _atom_site_fract_x
 _atom_site_fract_y
 _atom_site_fract_z
 _atom_site_occupancy
  Dy  Dy0  1  0.852682  0.786624  0.895373  1
  Dy  Dy1  1  0.852682  0.713376  0.395373  1
  Dy  Dy2  1  0.147318  0.286624  0.604627  1
  Dy  Dy3  1  0.147318  0.213376  0.104627  1
  I  I4  1  0.927162  0.811961  0.641864  1
  I  I5  1  0.581741  0.094274  0.697867  1
  I  I6  1  0.418259  0.594274  0.802133  1
  I  I7  1  0.927162  0.688039  0.141864  1
  I  I8  1  0.645407  0.144420  0.980109  1
  I  I9  1  0.072838  0.311961  0.858136  1
  I  I10  1  0.645407  0.355580  0.480109  1
  I  I11  1  0.418259  0.905726  0.302133  1
  I  I12  1  0.354593  0.855580  0.019891  1
  I  I13  1  0.354593  0.644420  0.519891  1
  I  I14  1  0.581741  0.405726  0.197867  1
  I  I15  1  0.072838  0.188039  0.358136  1
  O  O16  1  0.609434  0.527689  0.383363  1
  O  O17  1  0.874394  0.375779  0.514732  1
  O  O18  1  0.059673  0.053972  0.686873  1
  O  O19  1  0.655639  0.677189  0.244491  1
  O  O20  1  0.353762  0.428532  0.441138  1
  O  O21  1  0.637496  0.988867  0.365701  1
  O  O22  1  0.353762  0.071468  0.941138  1
  O  O23  1  0.095679  0.894590  0.170034  1
  O  O24  1  0.344361  0.177189  0.255509  1
  O  O25  1  0.655639  0.822811  0.744491  1
  O  O26  1  0.646238  0.571468  0.558862  1
  O  O27  1  0.659856  0.083109  0.611886  1
  O  O28  1  0.115204  0.371716  0.972106  1
  O  O29  1  0.637496  0.511133  0.865701  1
  O  O30  1  0.874394  0.124221  0.014732  1
  O  O31  1  0.115204  0.128284  0.472106  1
  O  O32  1  0.362504  0.011133  0.634299  1
  O  O33  1  0.884796  0.628284  0.027894  1
  O  O34  1  0.940327  0.553972  0.813127  1
  O  O35  1  0.095679  0.605410  0.670034  1
  O  O36  1  0.125606  0.624221  0.485268  1
  O  O37  1  0.340144  0.583109  0.888114  1
  O  O38  1  0.125606  0.875779  0.985268  1
  O  O39  1  0.340144  0.916891  0.388114  1
  O  O40  1  0.646238  0.928532  0.058862  1
  O  O41  1  0.390566  0.027689  0.116637  1
  O  O42  1  0.904321  0.394590  0.329966  1
  O  O43  1  0.659856  0.416891  0.111886  1
  O  O44  1  0.904321  0.105410  0.829966  1
  O  O45  1  0.344361  0.322811  0.755509  1
  O  O46  1  0.940327  0.946028  0.313127  1
  O  O47  1  0.390566  0.472311  0.616637  1
  O  O48  1  0.884796  0.871716  0.527894  1
  O  O49  1  0.059673  0.446028  0.186873  1
  O  O50  1  0.362504  0.488867  0.134299  1
  O  O51  1  0.609434  0.972311  0.883363  1
