# generated using pymatgen
data_Rb4TmI6
_symmetry_space_group_name_H-M   'P 1'
_cell_length_a   10.19499010
_cell_length_b   10.19499010
_cell_length_c   10.19499010
_cell_angle_alpha   90.15911673
_cell_angle_beta   90.15911673
_cell_angle_gamma   90.15911673
_symmetry_Int_Tables_number   1
_chemical_formula_structural   Rb4TmI6
_chemical_formula_sum   'Rb8 Tm2 I12'
_cell_volume   1059.63279669
_cell_formula_units_Z   2
loop_
 _symmetry_equiv_pos_site_id
 _symmetry_equiv_pos_as_xyz
  1  'x, y, z'
loop_
 _atom_site_type_symbol
 _atom_site_label
 _atom_site_symmetry_multiplicity
 _atom_site_fract_x
 _atom_site_fract_y
 _atom_site_fract_z
 _atom_site_occupancy
  Rb  Rb0  1  0.130366  0.369634  0.750000  1
  Rb  Rb1  1  0.250000  0.869634  0.630366  1
  Rb  Rb2  1  0.630366  0.250000  0.869634  1
  Rb  Rb3  1  0.869634  0.630366  0.250000  1
  Rb  Rb4  1  0.750000  0.750000  0.750000  1
  Rb  Rb5  1  0.750000  0.130366  0.369634  1
  Rb  Rb6  1  0.369634  0.750000  0.130366  1
  Rb  Rb7  1  0.250000  0.250000  0.250000  1
  Tm  Tm8  1  0.000000  0.000000  0.000000  1
  Tm  Tm9  1  0.500000  0.500000  0.500000  1
  I  I10  1  0.432721  0.210982  0.557294  1
  I  I11  1  0.567279  0.789018  0.442706  1
  I  I12  1  0.289018  0.067279  0.942706  1
  I  I13  1  0.442706  0.567279  0.789018  1
  I  I14  1  0.057294  0.710982  0.932721  1
  I  I15  1  0.942706  0.289018  0.067279  1
  I  I16  1  0.210982  0.557294  0.432721  1
  I  I17  1  0.710982  0.932721  0.057294  1
  I  I18  1  0.932721  0.057294  0.710982  1
  I  I19  1  0.067279  0.942706  0.289018  1
  I  I20  1  0.557294  0.432721  0.210982  1
  I  I21  1  0.789018  0.442706  0.567279  1
