# generated using pymatgen
data_Rb2FeF5
_symmetry_space_group_name_H-M   'P 1'
_cell_length_a   5.91483370
_cell_length_b   7.73455195
_cell_length_c   12.23909397
_cell_angle_alpha   90.00000000
_cell_angle_beta   90.00000000
_cell_angle_gamma   90.00000000
_symmetry_Int_Tables_number   1
_chemical_formula_structural   Rb2FeF5
_chemical_formula_sum   'Rb8 Fe4 F20'
_cell_volume   559.92127399
_cell_formula_units_Z   4
loop_
 _symmetry_equiv_pos_site_id
 _symmetry_equiv_pos_as_xyz
  1  'x, y, z'
loop_
 _atom_site_type_symbol
 _atom_site_label
 _atom_site_symmetry_multiplicity
 _atom_site_fract_x
 _atom_site_fract_y
 _atom_site_fract_z
 _atom_site_occupancy
  Rb  Rb0  1  0.250000  0.986905  0.725422  1
  Rb  Rb1  1  0.750000  0.013095  0.274578  1
  Rb  Rb2  1  0.250000  0.486905  0.774578  1
  Rb  Rb3  1  0.750000  0.513095  0.225422  1
  Rb  Rb4  1  0.250000  0.653572  0.415655  1
  Rb  Rb5  1  0.750000  0.346428  0.584345  1
  Rb  Rb6  1  0.250000  0.153572  0.084345  1
  Rb  Rb7  1  0.750000  0.846428  0.915655  1
  Fe  Fe8  1  0.250000  0.161718  0.438011  1
  Fe  Fe9  1  0.750000  0.838282  0.561989  1
  Fe  Fe10  1  0.250000  0.661718  0.061989  1
  Fe  Fe11  1  0.750000  0.338282  0.938011  1
  F  F12  1  0.987227  0.690745  0.615139  1
  F  F13  1  0.487227  0.309255  0.384861  1
  F  F14  1  0.512773  0.190745  0.884861  1
  F  F15  1  0.012773  0.809255  0.115139  1
  F  F16  1  0.012773  0.309255  0.384861  1
  F  F17  1  0.512773  0.690745  0.615139  1
  F  F18  1  0.487227  0.809255  0.115139  1
  F  F19  1  0.987227  0.190745  0.884861  1
  F  F20  1  0.250000  0.275847  0.581005  1
  F  F21  1  0.750000  0.724153  0.418995  1
  F  F22  1  0.250000  0.775847  0.918995  1
  F  F23  1  0.750000  0.224153  0.081005  1
  F  F24  1  0.000000  0.000000  0.500000  1
  F  F25  1  0.500000  0.000000  0.500000  1
  F  F26  1  0.500000  0.500000  0.000000  1
  F  F27  1  0.000000  0.500000  0.000000  1
  F  F28  1  0.750000  0.482056  0.810271  1
  F  F29  1  0.250000  0.517944  0.189729  1
  F  F30  1  0.750000  0.982056  0.689729  1
  F  F31  1  0.250000  0.017944  0.310271  1
