# generated using pymatgen
data_ZnSO4
_symmetry_space_group_name_H-M   'P 1'
_cell_length_a   4.84577816
_cell_length_b   6.83478826
_cell_length_c   8.69936078
_cell_angle_alpha   90.00000000
_cell_angle_beta   90.00000000
_cell_angle_gamma   90.00000000
_symmetry_Int_Tables_number   1
_chemical_formula_structural   ZnSO4
_chemical_formula_sum   'Zn4 S4 O16'
_cell_volume   288.12167792
_cell_formula_units_Z   4
loop_
 _symmetry_equiv_pos_site_id
 _symmetry_equiv_pos_as_xyz
  1  'x, y, z'
loop_
 _atom_site_type_symbol
 _atom_site_label
 _atom_site_symmetry_multiplicity
 _atom_site_fract_x
 _atom_site_fract_y
 _atom_site_fract_z
 _atom_site_occupancy
  Zn  Zn0  1  0.500000  0.500000  0.500000  1
  Zn  Zn1  1  0.000000  0.500000  0.000000  1
  Zn  Zn2  1  0.500000  0.000000  0.500000  1
  Zn  Zn3  1  0.000000  0.000000  0.000000  1
  S  S4  1  0.967619  0.750000  0.677692  1
  S  S5  1  0.467619  0.250000  0.822308  1
  S  S6  1  0.032381  0.250000  0.322308  1
  S  S7  1  0.532381  0.750000  0.177692  1
  O  O8  1  0.169711  0.430939  0.374582  1
  O  O9  1  0.669711  0.569061  0.125418  1
  O  O10  1  0.830289  0.930939  0.625418  1
  O  O11  1  0.330289  0.069061  0.874582  1
  O  O12  1  0.830289  0.569061  0.625418  1
  O  O13  1  0.330289  0.430939  0.874582  1
  O  O14  1  0.169711  0.069061  0.374582  1
  O  O15  1  0.669711  0.930939  0.125418  1
  O  O16  1  0.239764  0.750000  0.124207  1
  O  O17  1  0.739764  0.250000  0.375793  1
  O  O18  1  0.760236  0.250000  0.875793  1
  O  O19  1  0.260236  0.750000  0.624207  1
  O  O20  1  0.546180  0.750000  0.352145  1
  O  O21  1  0.046180  0.250000  0.147855  1
  O  O22  1  0.453820  0.250000  0.647855  1
  O  O23  1  0.953820  0.750000  0.852145  1
