# generated using pymatgen
data_MnPO4
_symmetry_space_group_name_H-M   'P 1'
_cell_length_a   5.11151930
_cell_length_b   7.73309662
_cell_length_c   10.10617616
_cell_angle_alpha   90.00000000
_cell_angle_beta   90.00000000
_cell_angle_gamma   90.00000000
_symmetry_Int_Tables_number   1
_chemical_formula_structural   MnPO4
_chemical_formula_sum   'Mn4 P4 O16'
_cell_volume   399.47564395
_cell_formula_units_Z   4
loop_
 _symmetry_equiv_pos_site_id
 _symmetry_equiv_pos_as_xyz
  1  'x, y, z'
loop_
 _atom_site_type_symbol
 _atom_site_label
 _atom_site_symmetry_multiplicity
 _atom_site_fract_x
 _atom_site_fract_y
 _atom_site_fract_z
 _atom_site_occupancy
  Mn  Mn0  1  0.325083  0.287123  0.850436  1
  Mn  Mn1  1  0.825083  0.787123  0.649564  1
  Mn  Mn2  1  0.174917  0.287123  0.350436  1
  Mn  Mn3  1  0.674917  0.787123  0.149564  1
  P  P4  1  0.658711  0.039035  0.413176  1
  P  P5  1  0.841289  0.039035  0.913176  1
  P  P6  1  0.341289  0.539035  0.586824  1
  P  P7  1  0.158711  0.539035  0.086824  1
  O  O8  1  0.731609  0.993475  0.557945  1
  O  O9  1  0.697372  0.876344  0.327493  1
  O  O10  1  0.865959  0.590833  0.091562  1
  O  O11  1  0.268391  0.493475  0.442055  1
  O  O12  1  0.824000  0.193066  0.364745  1
  O  O13  1  0.768391  0.993475  0.057945  1
  O  O14  1  0.802628  0.876344  0.827493  1
  O  O15  1  0.676000  0.193066  0.864745  1
  O  O16  1  0.634041  0.590833  0.591562  1
  O  O17  1  0.134041  0.090833  0.908438  1
  O  O18  1  0.176000  0.693066  0.635255  1
  O  O19  1  0.302628  0.376344  0.672507  1
  O  O20  1  0.365959  0.090833  0.408438  1
  O  O21  1  0.197372  0.376344  0.172507  1
  O  O22  1  0.231609  0.493475  0.942055  1
  O  O23  1  0.324000  0.693066  0.135255  1
