# generated using pymatgen
data_CaSiO3
_symmetry_space_group_name_H-M   'P 1'
_cell_length_a   6.91711420
_cell_length_b   6.91711420
_cell_length_c   19.79627106
_cell_angle_alpha   89.67195774
_cell_angle_beta   90.32804226
_cell_angle_gamma   59.88962929
_symmetry_Int_Tables_number   1
_chemical_formula_structural   CaSiO3
_chemical_formula_sum   'Ca12 Si12 O36'
_cell_volume   819.31567022
_cell_formula_units_Z   12
loop_
 _symmetry_equiv_pos_site_id
 _symmetry_equiv_pos_as_xyz
  1  'x, y, z'
loop_
 _atom_site_type_symbol
 _atom_site_label
 _atom_site_symmetry_multiplicity
 _atom_site_fract_x
 _atom_site_fract_y
 _atom_site_fract_z
 _atom_site_occupancy
  Ca  Ca0  1  0.671175  0.671175  0.750000  1
  Ca  Ca1  1  0.328825  0.328825  0.250000  1
  Ca  Ca2  1  0.005478  0.005478  0.250000  1
  Ca  Ca3  1  0.651551  0.676662  0.499560  1
  Ca  Ca4  1  0.000000  0.000000  0.000000  1
  Ca  Ca5  1  0.656835  0.656835  0.250000  1
  Ca  Ca6  1  0.676662  0.651551  0.000440  1
  Ca  Ca7  1  0.348449  0.323338  0.500440  1
  Ca  Ca8  1  0.343165  0.343165  0.750000  1
  Ca  Ca9  1  0.323338  0.348449  0.999560  1
  Ca  Ca10  1  0.000000  0.000000  0.500000  1
  Ca  Ca11  1  0.994522  0.994523  0.750000  1
  Si  Si12  1  0.595316  0.999150  0.877818  1
  Si  Si13  1  0.999150  0.595316  0.622182  1
  Si  Si14  1  0.331944  0.745733  0.875063  1
  Si  Si15  1  0.736652  0.922638  0.372108  1
  Si  Si16  1  0.745733  0.331944  0.624937  1
  Si  Si17  1  0.077362  0.263348  0.872108  1
  Si  Si18  1  0.404684  0.000850  0.122182  1
  Si  Si19  1  0.922638  0.736652  0.127892  1
  Si  Si20  1  0.263348  0.077362  0.627892  1
  Si  Si21  1  0.668056  0.254267  0.124937  1
  Si  Si22  1  0.254267  0.668056  0.375063  1
  Si  Si23  1  0.000850  0.404684  0.377818  1
  O  O24  1  0.337499  0.225621  0.874875  1
  O  O25  1  0.693359  0.997617  0.951972  1
  O  O26  1  0.223115  0.442166  0.376296  1
  O  O27  1  0.890993  0.994119  0.126146  1
  O  O28  1  0.969605  0.370843  0.943441  1
  O  O29  1  0.672926  0.356529  0.052509  1
  O  O30  1  0.294894  0.003461  0.193530  1
  O  O31  1  0.557834  0.776885  0.876296  1
  O  O32  1  0.370843  0.969605  0.556559  1
  O  O33  1  0.327074  0.643471  0.947491  1
  O  O34  1  0.225621  0.337499  0.625125  1
  O  O35  1  0.442166  0.223115  0.123704  1
  O  O36  1  0.980968  0.363632  0.797926  1
  O  O37  1  0.333065  0.642679  0.802633  1
  O  O38  1  0.357321  0.666935  0.302633  1
  O  O39  1  0.705106  0.996539  0.806470  1
  O  O40  1  0.643471  0.327074  0.552509  1
  O  O41  1  0.306641  0.002383  0.048028  1
  O  O42  1  0.996539  0.705106  0.693530  1
  O  O43  1  0.363632  0.980968  0.702074  1
  O  O44  1  0.002383  0.306641  0.451972  1
  O  O45  1  0.774379  0.662501  0.374875  1
  O  O46  1  0.356529  0.672926  0.447491  1
  O  O47  1  0.997617  0.693359  0.548028  1
  O  O48  1  0.994119  0.890993  0.373854  1
  O  O49  1  0.019032  0.636368  0.202074  1
  O  O50  1  0.109007  0.005881  0.873854  1
  O  O51  1  0.636368  0.019032  0.297926  1
  O  O52  1  0.030395  0.629157  0.056559  1
  O  O53  1  0.629157  0.030395  0.443441  1
  O  O54  1  0.662501  0.774379  0.125125  1
  O  O55  1  0.003461  0.294894  0.306470  1
  O  O56  1  0.005881  0.109007  0.626146  1
  O  O57  1  0.776885  0.557834  0.623704  1
  O  O58  1  0.642679  0.333065  0.697367  1
  O  O59  1  0.666935  0.357321  0.197367  1
