# generated using pymatgen
data_Fe12PbO19
_symmetry_space_group_name_H-M   'P 1'
_cell_length_a   6.00795044
_cell_length_b   6.00795044
_cell_length_c   23.35515804
_cell_angle_alpha   90.00000000
_cell_angle_beta   90.00000000
_cell_angle_gamma   120.00000000
_symmetry_Int_Tables_number   1
_chemical_formula_structural   Fe12PbO19
_chemical_formula_sum   'Fe24 Pb2 O38'
_cell_volume   730.07272693
_cell_formula_units_Z   2
loop_
 _symmetry_equiv_pos_site_id
 _symmetry_equiv_pos_as_xyz
  1  'x, y, z'
loop_
 _atom_site_type_symbol
 _atom_site_label
 _atom_site_symmetry_multiplicity
 _atom_site_fract_x
 _atom_site_fract_y
 _atom_site_fract_z
 _atom_site_occupancy
  Fe  Fe0  1  0.336212  0.168106  0.390774  1
  Fe  Fe1  1  0.666667  0.333333  0.690911  1
  Fe  Fe2  1  0.663788  0.831894  0.609226  1
  Fe  Fe3  1  0.831894  0.168106  0.109226  1
  Fe  Fe4  1  0.831894  0.663788  0.390774  1
  Fe  Fe5  1  0.666667  0.333333  0.972071  1
  Fe  Fe6  1  0.168106  0.831894  0.609226  1
  Fe  Fe7  1  0.333333  0.666667  0.472071  1
  Fe  Fe8  1  0.168106  0.336212  0.609226  1
  Fe  Fe9  1  0.336212  0.168106  0.109226  1
  Fe  Fe10  1  0.333333  0.666667  0.309089  1
  Fe  Fe11  1  0.666667  0.333333  0.809089  1
  Fe  Fe12  1  0.168106  0.336212  0.890774  1
  Fe  Fe13  1  0.000000  0.000000  0.500000  1
  Fe  Fe14  1  0.666667  0.333333  0.527929  1
  Fe  Fe15  1  0.333333  0.666667  0.027929  1
  Fe  Fe16  1  0.831894  0.168106  0.390774  1
  Fe  Fe17  1  0.831894  0.663788  0.109226  1
  Fe  Fe18  1  0.663788  0.831894  0.890774  1
  Fe  Fe19  1  0.000000  0.000000  0.750000  1
  Fe  Fe20  1  0.168106  0.831894  0.890774  1
  Fe  Fe21  1  0.333333  0.666667  0.190911  1
  Fe  Fe22  1  0.000000  0.000000  0.000000  1
  Fe  Fe23  1  0.000000  0.000000  0.250000  1
  Pb  Pb24  1  0.666667  0.333333  0.250000  1
  Pb  Pb25  1  0.333333  0.666667  0.750000  1
  O  O26  1  0.844724  0.689448  0.552916  1
  O  O27  1  0.009893  0.504947  0.650574  1
  O  O28  1  0.495053  0.504947  0.849426  1
  O  O29  1  0.844724  0.155276  0.552916  1
  O  O30  1  0.666667  0.333333  0.055196  1
  O  O31  1  0.504947  0.495053  0.349426  1
  O  O32  1  0.633847  0.816924  0.250000  1
  O  O33  1  0.495053  0.990107  0.650574  1
  O  O34  1  0.366153  0.183076  0.750000  1
  O  O35  1  0.310552  0.155276  0.947084  1
  O  O36  1  0.310552  0.155276  0.552916  1
  O  O37  1  0.689448  0.844724  0.052916  1
  O  O38  1  0.155276  0.310552  0.052916  1
  O  O39  1  0.504947  0.009893  0.349426  1
  O  O40  1  0.333333  0.666667  0.555196  1
  O  O41  1  0.183076  0.366153  0.250000  1
  O  O42  1  0.000000  0.000000  0.847922  1
  O  O43  1  0.183076  0.816924  0.250000  1
  O  O44  1  0.000000  0.000000  0.347922  1
  O  O45  1  0.844724  0.155276  0.947084  1
  O  O46  1  0.504947  0.009893  0.150574  1
  O  O47  1  0.009893  0.504947  0.849426  1
  O  O48  1  0.816924  0.183076  0.750000  1
  O  O49  1  0.000000  0.000000  0.652078  1
  O  O50  1  0.666667  0.333333  0.444804  1
  O  O51  1  0.333333  0.666667  0.944804  1
  O  O52  1  0.504947  0.495053  0.150574  1
  O  O53  1  0.495053  0.504947  0.650574  1
  O  O54  1  0.816924  0.633847  0.750000  1
  O  O55  1  0.990107  0.495053  0.150574  1
  O  O56  1  0.689448  0.844724  0.447084  1
  O  O57  1  0.495053  0.990107  0.849426  1
  O  O58  1  0.155276  0.844724  0.447084  1
  O  O59  1  0.155276  0.310552  0.447084  1
  O  O60  1  0.155276  0.844724  0.052916  1
  O  O61  1  0.000000  0.000000  0.152078  1
  O  O62  1  0.990107  0.495053  0.349426  1
  O  O63  1  0.844724  0.689448  0.947084  1
