# generated using pymatgen
data_Pr2P3Au
_symmetry_space_group_name_H-M   'P 1'
_cell_length_a   4.21912529
_cell_length_b   7.79056551
_cell_length_c   16.35395039
_cell_angle_alpha   90.00000000
_cell_angle_beta   90.00000000
_cell_angle_gamma   90.00000000
_symmetry_Int_Tables_number   1
_chemical_formula_structural   Pr2P3Au
_chemical_formula_sum   'Pr8 P12 Au4'
_cell_volume   537.54407849
_cell_formula_units_Z   4
loop_
 _symmetry_equiv_pos_site_id
 _symmetry_equiv_pos_as_xyz
  1  'x, y, z'
loop_
 _atom_site_type_symbol
 _atom_site_label
 _atom_site_symmetry_multiplicity
 _atom_site_fract_x
 _atom_site_fract_y
 _atom_site_fract_z
 _atom_site_occupancy
  Pr  Pr0  1  0.750000  0.399607  0.702779  1
  Pr  Pr1  1  0.250000  0.232384  0.475692  1
  Pr  Pr2  1  0.250000  0.100393  0.202779  1
  Pr  Pr3  1  0.250000  0.600393  0.297221  1
  Pr  Pr4  1  0.750000  0.267616  0.975692  1
  Pr  Pr5  1  0.250000  0.732384  0.024308  1
  Pr  Pr6  1  0.750000  0.899607  0.797221  1
  Pr  Pr7  1  0.750000  0.767616  0.524308  1
  P  P8  1  0.750000  0.117388  0.587507  1
  P  P9  1  0.750000  0.297173  0.298507  1
  P  P10  1  0.750000  0.797173  0.201493  1
  P  P11  1  0.250000  0.702827  0.701493  1
  P  P12  1  0.750000  0.466422  0.406447  1
  P  P13  1  0.250000  0.882612  0.412493  1
  P  P14  1  0.750000  0.617388  0.912493  1
  P  P15  1  0.250000  0.033578  0.906447  1
  P  P16  1  0.750000  0.966422  0.093553  1
  P  P17  1  0.250000  0.382612  0.087507  1
  P  P18  1  0.250000  0.533578  0.593553  1
  P  P19  1  0.250000  0.202827  0.798507  1
  Au  Au20  1  0.250000  0.011321  0.650717  1
  Au  Au21  1  0.750000  0.988679  0.349283  1
  Au  Au22  1  0.750000  0.488679  0.150717  1
  Au  Au23  1  0.250000  0.511321  0.849283  1
