# generated using pymatgen
data_KLiCrO4
_symmetry_space_group_name_H-M   'P 1'
_cell_length_a   5.27739927
_cell_length_b   8.48916656
_cell_length_c   19.76541631
_cell_angle_alpha   90.00000000
_cell_angle_beta   90.00000000
_cell_angle_gamma   90.00000000
_symmetry_Int_Tables_number   1
_chemical_formula_structural   KLiCrO4
_chemical_formula_sum   'K8 Li8 Cr8 O32'
_cell_volume   885.50490959
_cell_formula_units_Z   8
loop_
 _symmetry_equiv_pos_site_id
 _symmetry_equiv_pos_as_xyz
  1  'x, y, z'
loop_
 _atom_site_type_symbol
 _atom_site_label
 _atom_site_symmetry_multiplicity
 _atom_site_fract_x
 _atom_site_fract_y
 _atom_site_fract_z
 _atom_site_occupancy
  K  K0  1  0.794176  0.481396  0.235295  1
  K  K1  1  0.767560  0.174202  0.052211  1
  K  K2  1  0.267560  0.325798  0.552211  1
  K  K3  1  0.267560  0.825798  0.947789  1
  K  K4  1  0.767560  0.674202  0.447789  1
  K  K5  1  0.794176  0.981396  0.264705  1
  K  K6  1  0.294176  0.018604  0.735295  1
  K  K7  1  0.294176  0.518604  0.764705  1
  Li  Li8  1  0.246659  0.498072  0.056710  1
  Li  Li9  1  0.246926  0.308424  0.344895  1
  Li  Li10  1  0.746926  0.191576  0.844895  1
  Li  Li11  1  0.746926  0.691576  0.655105  1
  Li  Li12  1  0.246659  0.998072  0.443290  1
  Li  Li13  1  0.746659  0.001928  0.556710  1
  Li  Li14  1  0.746659  0.501928  0.943290  1
  Li  Li15  1  0.246926  0.808424  0.155105  1
  Cr  Cr16  1  0.748411  0.795144  0.822561  1
  Cr  Cr17  1  0.248411  0.204856  0.177439  1
  Cr  Cr18  1  0.250504  0.782757  0.572272  1
  Cr  Cr19  1  0.248411  0.704856  0.322561  1
  Cr  Cr20  1  0.750504  0.717243  0.072272  1
  Cr  Cr21  1  0.250504  0.282757  0.927728  1
  Cr  Cr22  1  0.748411  0.295144  0.677439  1
  Cr  Cr23  1  0.750504  0.217243  0.427728  1
  O  O24  1  0.617191  0.555128  0.037925  1
  O  O25  1  0.204490  0.133970  0.979575  1
  O  O26  1  0.637945  0.763353  0.744510  1
  O  O27  1  0.065071  0.192015  0.418610  1
  O  O28  1  0.116181  0.245545  0.853562  1
  O  O29  1  0.142747  0.346508  0.125778  1
  O  O30  1  0.116181  0.745545  0.646438  1
  O  O31  1  0.137945  0.236647  0.255490  1
  O  O32  1  0.616181  0.254455  0.353562  1
  O  O33  1  0.641591  0.969177  0.849211  1
  O  O34  1  0.642747  0.153492  0.625778  1
  O  O35  1  0.565071  0.307985  0.918610  1
  O  O36  1  0.137945  0.736647  0.244510  1
  O  O37  1  0.065071  0.692015  0.081390  1
  O  O38  1  0.141591  0.530823  0.349211  1
  O  O39  1  0.637945  0.263353  0.755490  1
  O  O40  1  0.617191  0.055128  0.462075  1
  O  O41  1  0.141591  0.030823  0.150789  1
  O  O42  1  0.565071  0.807985  0.581390  1
  O  O43  1  0.642747  0.653492  0.874222  1
  O  O44  1  0.061650  0.294385  0.678734  1
  O  O45  1  0.142747  0.846508  0.374222  1
  O  O46  1  0.704490  0.866030  0.020425  1
  O  O47  1  0.704490  0.366030  0.479575  1
  O  O48  1  0.117191  0.444872  0.962075  1
  O  O49  1  0.117191  0.944872  0.537925  1
  O  O50  1  0.616181  0.754455  0.146438  1
  O  O51  1  0.061650  0.794385  0.821266  1
  O  O52  1  0.561650  0.705615  0.321266  1
  O  O53  1  0.641591  0.469177  0.650789  1
  O  O54  1  0.204490  0.633970  0.520425  1
  O  O55  1  0.561650  0.205615  0.178734  1
