# generated using pymatgen
data_CdSb6(S2I)4
_symmetry_space_group_name_H-M   'P 1'
_cell_length_a   7.56550299
_cell_length_b   9.09708732
_cell_length_c   9.14643193
_cell_angle_alpha   91.23752857
_cell_angle_beta   108.74808564
_cell_angle_gamma   95.49657542
_symmetry_Int_Tables_number   1
_chemical_formula_structural   CdSb6(S2I)4
_chemical_formula_sum   'Cd1 Sb6 S8 I4'
_cell_volume   592.43609899
_cell_formula_units_Z   1
loop_
 _symmetry_equiv_pos_site_id
 _symmetry_equiv_pos_as_xyz
  1  'x, y, z'
loop_
 _atom_site_type_symbol
 _atom_site_label
 _atom_site_symmetry_multiplicity
 _atom_site_fract_x
 _atom_site_fract_y
 _atom_site_fract_z
 _atom_site_occupancy
  Cd  Cd0  1  0.000000  0.000000  0.000000  1
  Sb  Sb1  1  0.242819  0.644139  0.147654  1
  Sb  Sb2  1  0.237709  0.928598  0.435099  1
  Sb  Sb3  1  0.757181  0.355861  0.852346  1
  Sb  Sb4  1  0.207865  0.296320  0.779694  1
  Sb  Sb5  1  0.792135  0.703680  0.220306  1
  Sb  Sb6  1  0.762291  0.071402  0.564901  1
  S  S7  1  0.669420  0.076224  0.809896  1
  S  S8  1  0.084492  0.311830  0.012729  1
  S  S9  1  0.915508  0.688170  0.987271  1
  S  S10  1  0.912443  0.982528  0.275020  1
  S  S11  1  0.101954  0.644246  0.391712  1
  S  S12  1  0.898046  0.355754  0.608288  1
  S  S13  1  0.330580  0.923776  0.190104  1
  S  S14  1  0.087557  0.017472  0.724980  1
  I  I15  1  0.351823  0.668461  0.859980  1
  I  I16  1  0.645659  0.727808  0.540993  1
  I  I17  1  0.648177  0.331539  0.140020  1
  I  I18  1  0.354341  0.272192  0.459007  1
