# generated using pymatgen
data_UPCl10
_symmetry_space_group_name_H-M   'P 1'
_cell_length_a   7.43380645
_cell_length_b   7.77501250
_cell_length_c   14.36705169
_cell_angle_alpha   91.08526443
_cell_angle_beta   91.08883006
_cell_angle_gamma   105.64867099
_symmetry_Int_Tables_number   1
_chemical_formula_structural   UPCl10
_chemical_formula_sum   'U2 P2 Cl20'
_cell_volume   799.21250611
_cell_formula_units_Z   2
loop_
 _symmetry_equiv_pos_site_id
 _symmetry_equiv_pos_as_xyz
  1  'x, y, z'
loop_
 _atom_site_type_symbol
 _atom_site_label
 _atom_site_symmetry_multiplicity
 _atom_site_fract_x
 _atom_site_fract_y
 _atom_site_fract_z
 _atom_site_occupancy
  U  U0  1  0.000000  0.000000  0.000000  1
  U  U1  1  0.000000  0.000000  0.500000  1
  P  P2  1  0.383206  0.587817  0.261709  1
  P  P3  1  0.616794  0.412183  0.738291  1
  Cl  Cl4  1  0.238643  0.839520  0.946905  1
  Cl  Cl5  1  0.761357  0.160480  0.053095  1
  Cl  Cl6  1  0.767549  0.700054  0.024053  1
  Cl  Cl7  1  0.232451  0.299946  0.975947  1
  Cl  Cl8  1  0.885541  0.996470  0.833108  1
  Cl  Cl9  1  0.114459  0.003530  0.166892  1
  Cl  Cl10  1  0.866424  0.176888  0.383503  1
  Cl  Cl11  1  0.133576  0.823112  0.616497  1
  Cl  Cl12  1  0.310841  0.080653  0.419623  1
  Cl  Cl13  1  0.689159  0.919347  0.580377  1
  Cl  Cl14  1  0.886932  0.718405  0.397763  1
  Cl  Cl15  1  0.113068  0.281595  0.602237  1
  Cl  Cl16  1  0.141697  0.523334  0.195604  1
  Cl  Cl17  1  0.858303  0.476666  0.804396  1
  Cl  Cl18  1  0.525514  0.826050  0.226324  1
  Cl  Cl19  1  0.474486  0.173950  0.773676  1
  Cl  Cl20  1  0.521583  0.415591  0.227439  1
  Cl  Cl21  1  0.478417  0.584409  0.772561  1
  Cl  Cl22  1  0.344047  0.584091  0.395766  1
  Cl  Cl23  1  0.655953  0.415909  0.604234  1
