# generated using pymatgen
data_KTa(BO3)2
_symmetry_space_group_name_H-M   'P 1'
_cell_length_a   3.95555269
_cell_length_b   7.49629401
_cell_length_c   9.47237338
_cell_angle_alpha   90.00000000
_cell_angle_beta   90.00000000
_cell_angle_gamma   90.00000000
_symmetry_Int_Tables_number   1
_chemical_formula_structural   KTa(BO3)2
_chemical_formula_sum   'K2 Ta2 B4 O12'
_cell_volume   280.87468225
_cell_formula_units_Z   2
loop_
 _symmetry_equiv_pos_site_id
 _symmetry_equiv_pos_as_xyz
  1  'x, y, z'
loop_
 _atom_site_type_symbol
 _atom_site_label
 _atom_site_symmetry_multiplicity
 _atom_site_fract_x
 _atom_site_fract_y
 _atom_site_fract_z
 _atom_site_occupancy
  K  K0  1  0.523762  0.500000  0.856592  1
  K  K1  1  0.476238  0.000000  0.356592  1
  Ta  Ta2  1  0.175435  0.000000  0.756508  1
  Ta  Ta3  1  0.824565  0.500000  0.256508  1
  B  B4  1  0.018893  0.666435  0.543773  1
  B  B5  1  0.981107  0.166435  0.043773  1
  B  B6  1  0.018893  0.333565  0.543773  1
  B  B7  1  0.981107  0.833565  0.043773  1
  O  O8  1  0.148262  0.809255  0.614202  1
  O  O9  1  0.148262  0.190745  0.614202  1
  O  O10  1  0.851738  0.309255  0.114202  1
  O  O11  1  0.645141  0.000000  0.758351  1
  O  O12  1  0.354859  0.500000  0.258351  1
  O  O13  1  0.123103  0.184081  0.913448  1
  O  O14  1  0.123103  0.815919  0.913448  1
  O  O15  1  0.851738  0.690745  0.114202  1
  O  O16  1  0.876897  0.315919  0.413448  1
  O  O17  1  0.952601  0.000000  0.112501  1
  O  O18  1  0.876897  0.684081  0.413448  1
  O  O19  1  0.047399  0.500000  0.612501  1
