# generated using pymatgen
data_Na2Cu(PO3)4
_symmetry_space_group_name_H-M   'P 1'
_cell_length_a   8.25865039
_cell_length_b   8.25865039
_cell_length_c   7.91001856
_cell_angle_alpha   87.02035910
_cell_angle_beta   92.97964090
_cell_angle_gamma   70.33179219
_symmetry_Int_Tables_number   1
_chemical_formula_structural   Na2Cu(PO3)4
_chemical_formula_sum   'Na4 Cu2 P8 O24'
_cell_volume   505.95577116
_cell_formula_units_Z   2
loop_
 _symmetry_equiv_pos_site_id
 _symmetry_equiv_pos_as_xyz
  1  'x, y, z'
loop_
 _atom_site_type_symbol
 _atom_site_label
 _atom_site_symmetry_multiplicity
 _atom_site_fract_x
 _atom_site_fract_y
 _atom_site_fract_z
 _atom_site_occupancy
  Na  Na0  1  0.529470  0.183537  0.694032  1
  Na  Na1  1  0.470530  0.816463  0.305968  1
  Na  Na2  1  0.816463  0.470530  0.194032  1
  Na  Na3  1  0.183537  0.529470  0.805968  1
  Cu  Cu4  1  0.137400  0.137400  0.250000  1
  Cu  Cu5  1  0.862600  0.862600  0.750000  1
  P  P6  1  0.935873  0.212239  0.823498  1
  P  P7  1  0.212239  0.935873  0.676502  1
  P  P8  1  0.787761  0.064127  0.323498  1
  P  P9  1  0.448863  0.239732  0.124728  1
  P  P10  1  0.760268  0.551137  0.624728  1
  P  P11  1  0.239732  0.448863  0.375272  1
  P  P12  1  0.064127  0.787761  0.176502  1
  P  P13  1  0.551137  0.760268  0.875272  1
  O  O14  1  0.160147  0.914591  0.160158  1
  O  O15  1  0.121507  0.121507  0.750000  1
  O  O16  1  0.959652  0.306129  0.973224  1
  O  O17  1  0.395866  0.395866  0.250000  1
  O  O18  1  0.625665  0.896552  0.815033  1
  O  O19  1  0.306129  0.959652  0.526776  1
  O  O20  1  0.085409  0.839853  0.660158  1
  O  O21  1  0.914591  0.160147  0.339842  1
  O  O22  1  0.834970  0.345705  0.663456  1
  O  O23  1  0.896552  0.625665  0.684967  1
  O  O24  1  0.688817  0.586368  0.444640  1
  O  O25  1  0.374335  0.103448  0.184967  1
  O  O26  1  0.586368  0.688817  0.055360  1
  O  O27  1  0.413632  0.311183  0.944640  1
  O  O28  1  0.878493  0.878493  0.250000  1
  O  O29  1  0.654295  0.165030  0.163456  1
  O  O30  1  0.165030  0.654295  0.336544  1
  O  O31  1  0.040348  0.693871  0.026775  1
  O  O32  1  0.103448  0.374335  0.315033  1
  O  O33  1  0.345705  0.834970  0.836544  1
  O  O34  1  0.311183  0.413632  0.555360  1
  O  O35  1  0.839853  0.085409  0.839842  1
  O  O36  1  0.604134  0.604134  0.750000  1
  O  O37  1  0.693871  0.040348  0.473224  1
