# generated using pymatgen
data_LiCo3P3O11
_symmetry_space_group_name_H-M   'P 1'
_cell_length_a   9.84734106
_cell_length_b   9.66646908
_cell_length_c   10.31672715
_cell_angle_alpha   90.00000000
_cell_angle_beta   119.88098252
_cell_angle_gamma   90.00000000
_symmetry_Int_Tables_number   1
_chemical_formula_structural   LiCo3P3O11
_chemical_formula_sum   'Li4 Co12 P12 O44'
_cell_volume   851.48896340
_cell_formula_units_Z   4
loop_
 _symmetry_equiv_pos_site_id
 _symmetry_equiv_pos_as_xyz
  1  'x, y, z'
loop_
 _atom_site_type_symbol
 _atom_site_label
 _atom_site_symmetry_multiplicity
 _atom_site_fract_x
 _atom_site_fract_y
 _atom_site_fract_z
 _atom_site_occupancy
  Li  Li0  1  0.303514  0.671328  0.296251  1
  Li  Li1  1  0.696486  0.171328  0.203749  1
  Li  Li2  1  0.696486  0.328672  0.703749  1
  Li  Li3  1  0.303514  0.828672  0.796251  1
  Co  Co4  1  0.272741  0.131639  0.628657  1
  Co  Co5  1  0.914871  0.868738  0.732116  1
  Co  Co6  1  0.899813  0.125158  0.896672  1
  Co  Co7  1  0.727259  0.868361  0.371343  1
  Co  Co8  1  0.085129  0.131262  0.267884  1
  Co  Co9  1  0.085129  0.368738  0.767884  1
  Co  Co10  1  0.100187  0.874842  0.103328  1
  Co  Co11  1  0.100187  0.625158  0.603328  1
  Co  Co12  1  0.272741  0.368361  0.128657  1
  Co  Co13  1  0.899813  0.374842  0.396672  1
  Co  Co14  1  0.727259  0.631639  0.871343  1
  Co  Co15  1  0.914871  0.631262  0.232116  1
  P  P16  1  0.594309  0.933690  0.744997  1
  P  P17  1  0.892485  0.162056  0.565507  1
  P  P18  1  0.236793  0.421598  0.429327  1
  P  P19  1  0.405691  0.066310  0.255003  1
  P  P20  1  0.763207  0.578402  0.570673  1
  P  P21  1  0.763207  0.921598  0.070673  1
  P  P22  1  0.892485  0.337944  0.065507  1
  P  P23  1  0.236793  0.078402  0.929327  1
  P  P24  1  0.107515  0.837944  0.434493  1
  P  P25  1  0.405691  0.433690  0.755003  1
  P  P26  1  0.107515  0.662056  0.934493  1
  P  P27  1  0.594309  0.566310  0.244997  1
  O  O28  1  0.772102  0.220416  0.410331  1
  O  O29  1  0.085291  0.007164  0.916320  1
  O  O30  1  0.772102  0.279584  0.910331  1
  O  O31  1  0.268403  0.023040  0.809332  1
  O  O32  1  0.731597  0.976960  0.190668  1
  O  O33  1  0.454419  0.481163  0.140658  1
  O  O34  1  0.249863  0.484045  0.745488  1
  O  O35  1  0.776193  0.763519  0.064370  1
  O  O36  1  0.731597  0.523040  0.690668  1
  O  O37  1  0.750137  0.984045  0.754512  1
  O  O38  1  0.888569  0.003012  0.565304  1
  O  O39  1  0.227898  0.779584  0.589669  1
  O  O40  1  0.945667  0.773415  0.405227  1
  O  O41  1  0.776193  0.736481  0.564370  1
  O  O42  1  0.379515  0.029451  0.085783  1
  O  O43  1  0.580098  0.722084  0.228665  1
  O  O44  1  0.873889  0.228677  0.695145  1
  O  O45  1  0.227898  0.720416  0.089669  1
  O  O46  1  0.545581  0.981163  0.359342  1
  O  O47  1  0.454419  0.018837  0.640658  1
  O  O48  1  0.620485  0.970549  0.914217  1
  O  O49  1  0.126111  0.771323  0.304855  1
  O  O50  1  0.126111  0.728677  0.804855  1
  O  O51  1  0.054333  0.273415  0.094773  1
  O  O52  1  0.419902  0.277916  0.771335  1
  O  O53  1  0.545581  0.518837  0.859342  1
  O  O54  1  0.914709  0.507164  0.583680  1
  O  O55  1  0.268403  0.476960  0.309332  1
  O  O56  1  0.085291  0.492836  0.416320  1
  O  O57  1  0.419902  0.222084  0.271335  1
  O  O58  1  0.945667  0.726585  0.905227  1
  O  O59  1  0.580098  0.777916  0.728665  1
  O  O60  1  0.223807  0.236481  0.935630  1
  O  O61  1  0.223807  0.263519  0.435630  1
  O  O62  1  0.914709  0.992836  0.083680  1
  O  O63  1  0.111431  0.503012  0.934696  1
  O  O64  1  0.620485  0.529451  0.414217  1
  O  O65  1  0.873889  0.271323  0.195145  1
  O  O66  1  0.111431  0.996988  0.434696  1
  O  O67  1  0.054333  0.226585  0.594773  1
  O  O68  1  0.379515  0.470549  0.585783  1
  O  O69  1  0.750137  0.515955  0.254512  1
  O  O70  1  0.888569  0.496988  0.065304  1
  O  O71  1  0.249863  0.015955  0.245488  1
