# generated using pymatgen
data_Dy9(SbO)5
_symmetry_space_group_name_H-M   'P 1'
_cell_length_a   9.87512717
_cell_length_b   9.87512717
_cell_length_c   8.87761015
_cell_angle_alpha   90.00000000
_cell_angle_beta   90.00000000
_cell_angle_gamma   90.00000000
_symmetry_Int_Tables_number   1
_chemical_formula_structural   Dy9(SbO)5
_chemical_formula_sum   'Dy18 Sb10 O10'
_cell_volume   865.72799950
_cell_formula_units_Z   2
loop_
 _symmetry_equiv_pos_site_id
 _symmetry_equiv_pos_as_xyz
  1  'x, y, z'
loop_
 _atom_site_type_symbol
 _atom_site_label
 _atom_site_symmetry_multiplicity
 _atom_site_fract_x
 _atom_site_fract_y
 _atom_site_fract_z
 _atom_site_occupancy
  Dy  Dy0  1  0.500000  0.000000  0.672314  1
  Dy  Dy1  1  0.794553  0.104628  0.341736  1
  Dy  Dy2  1  0.274089  0.082607  0.001797  1
  Dy  Dy3  1  0.582607  0.225911  0.001797  1
  Dy  Dy4  1  0.205447  0.895372  0.341736  1
  Dy  Dy5  1  0.604628  0.705447  0.341736  1
  Dy  Dy6  1  0.294553  0.604628  0.658264  1
  Dy  Dy7  1  0.417393  0.774089  0.001797  1
  Dy  Dy8  1  0.225911  0.417393  0.998203  1
  Dy  Dy9  1  0.895372  0.794553  0.658264  1
  Dy  Dy10  1  0.000000  0.500000  0.327686  1
  Dy  Dy11  1  0.082607  0.725911  0.998203  1
  Dy  Dy12  1  0.917393  0.274089  0.998203  1
  Dy  Dy13  1  0.774089  0.582607  0.998203  1
  Dy  Dy14  1  0.725911  0.917393  0.001797  1
  Dy  Dy15  1  0.395372  0.294553  0.341736  1
  Dy  Dy16  1  0.705447  0.395372  0.658264  1
  Dy  Dy17  1  0.104628  0.205447  0.658264  1
  Sb  Sb18  1  0.595522  0.695432  0.698239  1
  Sb  Sb19  1  0.904478  0.804568  0.301761  1
  Sb  Sb20  1  0.695432  0.404478  0.301761  1
  Sb  Sb21  1  0.000000  0.500000  0.681464  1
  Sb  Sb22  1  0.304568  0.595522  0.301761  1
  Sb  Sb23  1  0.804568  0.095522  0.698239  1
  Sb  Sb24  1  0.404478  0.304568  0.698239  1
  Sb  Sb25  1  0.195432  0.904478  0.698239  1
  Sb  Sb26  1  0.095522  0.195432  0.301761  1
  Sb  Sb27  1  0.500000  0.000000  0.318536  1
  O  O28  1  0.224912  0.879910  0.086834  1
  O  O29  1  0.275088  0.620090  0.913166  1
  O  O30  1  0.120090  0.224912  0.913166  1
  O  O31  1  0.879910  0.775088  0.913166  1
  O  O32  1  0.724912  0.379910  0.913166  1
  O  O33  1  0.500000  0.000000  0.936184  1
  O  O34  1  0.775088  0.120090  0.086834  1
  O  O35  1  0.000000  0.500000  0.063816  1
  O  O36  1  0.379910  0.275088  0.086834  1
  O  O37  1  0.620090  0.724912  0.086834  1
