# generated using pymatgen
data_USb3O2F17
_symmetry_space_group_name_H-M   'P 1'
_cell_length_a   11.33048729
_cell_length_b   12.64894849
_cell_length_c   13.40831412
_cell_angle_alpha   90.00000000
_cell_angle_beta   120.91686695
_cell_angle_gamma   90.00000000
_symmetry_Int_Tables_number   1
_chemical_formula_structural   USb3O2F17
_chemical_formula_sum   'U4 Sb12 O8 F68'
_cell_volume   1648.62084152
_cell_formula_units_Z   4
loop_
 _symmetry_equiv_pos_site_id
 _symmetry_equiv_pos_as_xyz
  1  'x, y, z'
loop_
 _atom_site_type_symbol
 _atom_site_label
 _atom_site_symmetry_multiplicity
 _atom_site_fract_x
 _atom_site_fract_y
 _atom_site_fract_z
 _atom_site_occupancy
  U  U0  1  0.065361  0.095402  0.824423  1
  U  U1  1  0.065361  0.404598  0.324423  1
  U  U2  1  0.934639  0.595402  0.675577  1
  U  U3  1  0.934639  0.904598  0.175577  1
  Sb  Sb4  1  0.240203  0.703003  0.415160  1
  Sb  Sb5  1  0.646266  0.853029  0.805840  1
  Sb  Sb6  1  0.646266  0.646971  0.305840  1
  Sb  Sb7  1  0.759797  0.203003  0.084840  1
  Sb  Sb8  1  0.759797  0.296997  0.584840  1
  Sb  Sb9  1  0.353734  0.146971  0.194160  1
  Sb  Sb10  1  0.353734  0.353029  0.694160  1
  Sb  Sb11  1  0.193232  0.095559  0.489928  1
  Sb  Sb12  1  0.806768  0.904441  0.510072  1
  Sb  Sb13  1  0.806768  0.595559  0.010072  1
  Sb  Sb14  1  0.240203  0.796997  0.915160  1
  Sb  Sb15  1  0.193232  0.404441  0.989928  1
  O  O16  1  0.066045  0.596426  0.640960  1
  O  O17  1  0.933955  0.096426  0.859040  1
  O  O18  1  0.802266  0.906561  0.209039  1
  O  O19  1  0.197734  0.406561  0.290961  1
  O  O20  1  0.802266  0.593439  0.709039  1
  O  O21  1  0.197734  0.093439  0.790961  1
  O  O22  1  0.066045  0.903574  0.140960  1
  O  O23  1  0.933955  0.403574  0.359040  1
  F  F24  1  0.659594  0.592292  0.036649  1
  F  F25  1  0.235506  0.396706  0.528608  1
  F  F26  1  0.340406  0.407708  0.963351  1
  F  F27  1  0.741326  0.479418  0.908720  1
  F  F28  1  0.078694  0.011785  0.349399  1
  F  F29  1  0.549241  0.718562  0.162993  1
  F  F30  1  0.765155  0.269423  0.449192  1
  F  F31  1  0.935266  0.210478  0.667211  1
  F  F32  1  0.302444  0.302839  0.122150  1
  F  F33  1  0.064734  0.789522  0.332789  1
  F  F34  1  0.128096  0.222089  0.390177  1
  F  F35  1  0.662765  0.172870  0.576731  1
  F  F36  1  0.064734  0.710478  0.832789  1
  F  F37  1  0.697556  0.697161  0.877850  1
  F  F38  1  0.198164  0.669110  0.262699  1
  F  F39  1  0.741326  0.020582  0.408720  1
  F  F40  1  0.888170  0.419725  0.610000  1
  F  F41  1  0.611542  0.107149  0.011765  1
  F  F42  1  0.258674  0.979418  0.591280  1
  F  F43  1  0.871904  0.722089  0.109823  1
  F  F44  1  0.495573  0.160258  0.161412  1
  F  F45  1  0.234845  0.769423  0.050808  1
  F  F46  1  0.450759  0.281438  0.837007  1
  F  F47  1  0.388458  0.892851  0.988235  1
  F  F48  1  0.185639  0.157776  0.191767  1
  F  F49  1  0.198164  0.830890  0.762699  1
  F  F50  1  0.921306  0.511785  0.150601  1
  F  F51  1  0.549241  0.781438  0.662993  1
  F  F52  1  0.340406  0.092292  0.463351  1
  F  F53  1  0.111830  0.580275  0.390000  1
  F  F54  1  0.764494  0.603294  0.471392  1
  F  F55  1  0.389566  0.493797  0.745585  1
  F  F56  1  0.871904  0.777911  0.609823  1
  F  F57  1  0.043546  0.382999  0.011705  1
  F  F58  1  0.611542  0.392851  0.511765  1
  F  F59  1  0.495573  0.339742  0.661412  1
  F  F60  1  0.764494  0.896706  0.971392  1
  F  F61  1  0.801836  0.169110  0.237301  1
  F  F62  1  0.888170  0.080275  0.110000  1
  F  F63  1  0.610434  0.506203  0.254415  1
  F  F64  1  0.302444  0.197161  0.622150  1
  F  F65  1  0.662765  0.327130  0.076731  1
  F  F66  1  0.956454  0.617001  0.988295  1
  F  F67  1  0.814361  0.842224  0.808233  1
  F  F68  1  0.697556  0.802839  0.377850  1
  F  F69  1  0.185639  0.342224  0.691767  1
  F  F70  1  0.389566  0.006203  0.245585  1
  F  F71  1  0.765155  0.230577  0.949192  1
  F  F72  1  0.043546  0.117001  0.511705  1
  F  F73  1  0.078694  0.488215  0.849399  1
  F  F74  1  0.921306  0.988215  0.650601  1
  F  F75  1  0.504427  0.660258  0.338588  1
  F  F76  1  0.337235  0.672870  0.923269  1
  F  F77  1  0.659594  0.907708  0.536649  1
  F  F78  1  0.610434  0.993797  0.754415  1
  F  F79  1  0.235506  0.103294  0.028608  1
  F  F80  1  0.258674  0.520582  0.091280  1
  F  F81  1  0.450759  0.218562  0.337007  1
  F  F82  1  0.234845  0.730577  0.550808  1
  F  F83  1  0.128096  0.277911  0.890177  1
  F  F84  1  0.814361  0.657776  0.308233  1
  F  F85  1  0.388458  0.607149  0.488235  1
  F  F86  1  0.504427  0.839742  0.838588  1
  F  F87  1  0.337235  0.827130  0.423269  1
  F  F88  1  0.111830  0.919725  0.890000  1
  F  F89  1  0.956454  0.882999  0.488295  1
  F  F90  1  0.935266  0.289522  0.167211  1
  F  F91  1  0.801836  0.330890  0.737301  1
