# generated using pymatgen
data_Cd(GaO2)2
_symmetry_space_group_name_H-M   'P 1'
_cell_length_a   6.17552283
_cell_length_b   6.17552283
_cell_length_c   30.46183723
_cell_angle_alpha   90.00000000
_cell_angle_beta   90.00000000
_cell_angle_gamma   120.00000000
_symmetry_Int_Tables_number   1
_chemical_formula_structural   Cd(GaO2)2
_chemical_formula_sum   'Cd12 Ga24 O48'
_cell_volume   1006.08387329
_cell_formula_units_Z   12
loop_
 _symmetry_equiv_pos_site_id
 _symmetry_equiv_pos_as_xyz
  1  'x, y, z'
loop_
 _atom_site_type_symbol
 _atom_site_label
 _atom_site_symmetry_multiplicity
 _atom_site_fract_x
 _atom_site_fract_y
 _atom_site_fract_z
 _atom_site_occupancy
  Cd  Cd0  1  0.666667  0.333333  0.043106  1
  Cd  Cd1  1  0.000000  0.000000  0.019010  1
  Cd  Cd2  1  0.000000  0.000000  0.210247  1
  Cd  Cd3  1  0.333333  0.666667  0.189285  1
  Cd  Cd4  1  0.333333  0.666667  0.376900  1
  Cd  Cd5  1  0.333333  0.666667  0.500052  1
  Cd  Cd6  1  0.000000  0.000000  0.331219  1
  Cd  Cd7  1  0.666667  0.333333  0.541049  1
  Cd  Cd8  1  0.000000  0.000000  0.707697  1
  Cd  Cd9  1  0.666667  0.333333  0.666803  1
  Cd  Cd10  1  0.333333  0.666667  0.875048  1
  Cd  Cd11  1  0.000000  0.000000  0.834635  1
  Ga  Ga12  1  0.333333  0.666667  0.998014  1
  Ga  Ga13  1  0.161865  0.323730  0.104158  1
  Ga  Ga14  1  0.676270  0.838135  0.104158  1
  Ga  Ga15  1  0.666667  0.333333  0.163079  1
  Ga  Ga16  1  0.161865  0.838135  0.104158  1
  Ga  Ga17  1  0.497289  0.994578  0.273014  1
  Ga  Ga18  1  0.005422  0.502711  0.273014  1
  Ga  Ga19  1  0.497289  0.502711  0.273014  1
  Ga  Ga20  1  0.833487  0.666973  0.437358  1
  Ga  Ga21  1  0.333027  0.166513  0.437358  1
  Ga  Ga22  1  0.666667  0.333333  0.354802  1
  Ga  Ga23  1  0.833487  0.166513  0.437358  1
  Ga  Ga24  1  0.166540  0.333079  0.603949  1
  Ga  Ga25  1  0.000000  0.000000  0.520587  1
  Ga  Ga26  1  0.666921  0.833460  0.603949  1
  Ga  Ga27  1  0.166540  0.833460  0.603949  1
  Ga  Ga28  1  0.499397  0.998793  0.770439  1
  Ga  Ga29  1  0.333333  0.666667  0.687070  1
  Ga  Ga30  1  0.001207  0.500603  0.770439  1
  Ga  Ga31  1  0.499397  0.500603  0.770439  1
  Ga  Ga32  1  0.829232  0.658465  0.936192  1
  Ga  Ga33  1  0.341535  0.170768  0.936192  1
  Ga  Ga34  1  0.666667  0.333333  0.852439  1
  Ga  Ga35  1  0.829232  0.170768  0.936192  1
  O  O36  1  0.850341  0.149659  0.070423  1
  O  O37  1  0.299319  0.149659  0.070423  1
  O  O38  1  0.000000  0.000000  0.139358  1
  O  O39  1  0.850341  0.700681  0.070423  1
  O  O40  1  0.495137  0.990274  0.139194  1
  O  O41  1  0.180847  0.819153  0.240674  1
  O  O42  1  0.333333  0.666667  0.063015  1
  O  O43  1  0.009726  0.504863  0.139194  1
  O  O44  1  0.638307  0.819153  0.240674  1
  O  O45  1  0.333333  0.666667  0.307066  1
  O  O46  1  0.495137  0.504863  0.139194  1
  O  O47  1  0.180847  0.361693  0.240674  1
  O  O48  1  0.805598  0.611196  0.309850  1
  O  O49  1  0.524561  0.475439  0.399615  1
  O  O50  1  0.666667  0.333333  0.226578  1
  O  O51  1  0.950878  0.475439  0.399615  1
  O  O52  1  0.388804  0.194402  0.309850  1
  O  O53  1  0.666667  0.333333  0.470357  1
  O  O54  1  0.805598  0.194402  0.309850  1
  O  O55  1  0.524561  0.049122  0.399615  1
  O  O56  1  0.142328  0.284656  0.476278  1
  O  O57  1  0.857301  0.142699  0.565711  1
  O  O58  1  0.000000  0.000000  0.404122  1
  O  O59  1  0.285398  0.142699  0.565711  1
  O  O60  1  0.715344  0.857672  0.476278  1
  O  O61  1  0.000000  0.000000  0.636744  1
  O  O62  1  0.142328  0.857672  0.476278  1
  O  O63  1  0.857301  0.714602  0.565711  1
  O  O64  1  0.190708  0.809292  0.732188  1
  O  O65  1  0.475871  0.951741  0.642980  1
  O  O66  1  0.333333  0.666667  0.571693  1
  O  O67  1  0.048259  0.524129  0.642980  1
  O  O68  1  0.618585  0.809292  0.732188  1
  O  O69  1  0.333333  0.666667  0.803504  1
  O  O70  1  0.475871  0.524129  0.642980  1
  O  O71  1  0.190708  0.381415  0.732188  1
  O  O72  1  0.525750  0.474250  0.897041  1
  O  O73  1  0.810357  0.620714  0.809254  1
  O  O74  1  0.666667  0.333333  0.738487  1
  O  O75  1  0.379286  0.189643  0.809254  1
  O  O76  1  0.666667  0.333333  0.970144  1
  O  O77  1  0.948499  0.474250  0.897041  1
  O  O78  1  0.810357  0.189643  0.809254  1
  O  O79  1  0.525750  0.051501  0.897041  1
  O  O80  1  0.169343  0.338686  0.971618  1
  O  O81  1  0.661314  0.830657  0.971618  1
  O  O82  1  0.000000  0.000000  0.908080  1
  O  O83  1  0.169343  0.830657  0.971618  1
