# generated using pymatgen
data_Zr3Pb(O2F3)2
_symmetry_space_group_name_H-M   'P 1'
_cell_length_a   7.84093580
_cell_length_b   7.84093580
_cell_length_c   7.84093580
_cell_angle_alpha   60.00000000
_cell_angle_beta   60.00000000
_cell_angle_gamma   60.00000000
_symmetry_Int_Tables_number   1
_chemical_formula_structural   Zr3Pb(O2F3)2
_chemical_formula_sum   'Zr6 Pb2 O8 F12'
_cell_volume   340.86993320
_cell_formula_units_Z   2
loop_
 _symmetry_equiv_pos_site_id
 _symmetry_equiv_pos_as_xyz
  1  'x, y, z'
loop_
 _atom_site_type_symbol
 _atom_site_label
 _atom_site_symmetry_multiplicity
 _atom_site_fract_x
 _atom_site_fract_y
 _atom_site_fract_z
 _atom_site_occupancy
  Zr  Zr0  1  0.277116  0.722884  0.722884  1
  Zr  Zr1  1  0.722884  0.277116  0.722884  1
  Zr  Zr2  1  0.277116  0.722884  0.277116  1
  Zr  Zr3  1  0.277116  0.277116  0.722884  1
  Zr  Zr4  1  0.722884  0.722884  0.277116  1
  Zr  Zr5  1  0.722884  0.277116  0.277116  1
  Pb  Pb6  1  0.250000  0.250000  0.250000  1
  Pb  Pb7  1  0.750000  0.750000  0.750000  1
  O  O8  1  0.384229  0.847312  0.384229  1
  O  O9  1  0.615771  0.615771  0.615771  1
  O  O10  1  0.615771  0.615771  0.152688  1
  O  O11  1  0.152688  0.615771  0.615771  1
  O  O12  1  0.384229  0.384229  0.847312  1
  O  O13  1  0.847312  0.384229  0.384229  1
  O  O14  1  0.384229  0.384229  0.384229  1
  O  O15  1  0.615771  0.152688  0.615771  1
  F  F16  1  1.000000  0.328025  0.671975  1
  F  F17  1  0.000000  0.328025  0.000000  1
  F  F18  1  0.328025  0.000000  0.671975  1
  F  F19  1  0.671975  0.000000  0.000000  1
  F  F20  1  0.328025  0.000000  0.000000  1
  F  F21  1  0.671975  0.328025  1.000000  1
  F  F22  1  0.000000  0.000000  0.671975  1
  F  F23  1  0.671975  0.000000  0.328025  1
  F  F24  1  0.328025  0.671975  1.000000  1
  F  F25  1  0.000000  0.000000  0.328025  1
  F  F26  1  1.000000  0.671975  0.000000  1
  F  F27  1  0.000000  0.671975  0.328025  1
