# generated using pymatgen
data_CsNb(PO4)2
_symmetry_space_group_name_H-M   'P 1'
_cell_length_a   5.15558286
_cell_length_b   5.15558286
_cell_length_c   8.99487340
_cell_angle_alpha   87.17039399
_cell_angle_beta   92.82960601
_cell_angle_gamma   117.90767852
_symmetry_Int_Tables_number   1
_chemical_formula_structural   CsNb(PO4)2
_chemical_formula_sum   'Cs1 Nb1 P2 O8'
_cell_volume   210.92824850
_cell_formula_units_Z   1
loop_
 _symmetry_equiv_pos_site_id
 _symmetry_equiv_pos_as_xyz
  1  'x, y, z'
loop_
 _atom_site_type_symbol
 _atom_site_label
 _atom_site_symmetry_multiplicity
 _atom_site_fract_x
 _atom_site_fract_y
 _atom_site_fract_z
 _atom_site_occupancy
  Cs  Cs0  1  0.000000  0.000000  0.000000  1
  Nb  Nb1  1  0.000000  1.000000  0.500000  1
  P  P2  1  0.643748  0.356252  0.307784  1
  P  P3  1  0.356252  0.643748  0.692216  1
  O  O4  1  0.215686  0.313745  0.648502  1
  O  O5  1  0.211255  0.788745  0.582091  1
  O  O6  1  0.321182  0.678818  0.852481  1
  O  O7  1  0.686255  0.784314  0.648502  1
  O  O8  1  0.678818  0.321182  0.147519  1
  O  O9  1  0.788745  0.211255  0.417909  1
  O  O10  1  0.313745  0.215686  0.351498  1
  O  O11  1  0.784314  0.686255  0.351498  1
