# generated using pymatgen
data_Zr5Si3
_symmetry_space_group_name_H-M   'P 1'
_cell_length_a   8.01803308
_cell_length_b   8.01803308
_cell_length_c   5.57493177
_cell_angle_alpha   90.00000000
_cell_angle_beta   90.00000000
_cell_angle_gamma   120.00000000
_symmetry_Int_Tables_number   1
_chemical_formula_structural   Zr5Si3
_chemical_formula_sum   'Zr10 Si6'
_cell_volume   310.38868131
_cell_formula_units_Z   2
loop_
 _symmetry_equiv_pos_site_id
 _symmetry_equiv_pos_as_xyz
  1  'x, y, z'
loop_
 _atom_site_type_symbol
 _atom_site_label
 _atom_site_symmetry_multiplicity
 _atom_site_fract_x
 _atom_site_fract_y
 _atom_site_fract_z
 _atom_site_occupancy
  Zr  Zr0  1  0.747472  0.747472  0.250000  1
  Zr  Zr1  1  0.000000  0.252528  0.250000  1
  Zr  Zr2  1  0.747472  0.000000  0.750000  1
  Zr  Zr3  1  0.333333  0.666667  0.500000  1
  Zr  Zr4  1  0.252528  0.000000  0.250000  1
  Zr  Zr5  1  0.666667  0.333333  0.500000  1
  Zr  Zr6  1  0.000000  0.747472  0.750000  1
  Zr  Zr7  1  0.333333  0.666667  0.000000  1
  Zr  Zr8  1  0.252528  0.252528  0.750000  1
  Zr  Zr9  1  0.666667  0.333333  0.000000  1
  Si  Si10  1  0.610486  0.610486  0.750000  1
  Si  Si11  1  0.389514  0.000000  0.750000  1
  Si  Si12  1  0.610486  0.000000  0.250000  1
  Si  Si13  1  0.000000  0.389514  0.750000  1
  Si  Si14  1  0.389514  0.389514  0.250000  1
  Si  Si15  1  0.000000  0.610486  0.250000  1
