# generated using pymatgen
data_SrVClO3
_symmetry_space_group_name_H-M   'P 1'
_cell_length_a   5.33427156
_cell_length_b   7.08569140
_cell_length_c   10.24580941
_cell_angle_alpha   90.00000000
_cell_angle_beta   90.00000000
_cell_angle_gamma   90.00000000
_symmetry_Int_Tables_number   1
_chemical_formula_structural   SrVClO3
_chemical_formula_sum   'Sr4 V4 Cl4 O12'
_cell_volume   387.26087997
_cell_formula_units_Z   4
loop_
 _symmetry_equiv_pos_site_id
 _symmetry_equiv_pos_as_xyz
  1  'x, y, z'
loop_
 _atom_site_type_symbol
 _atom_site_label
 _atom_site_symmetry_multiplicity
 _atom_site_fract_x
 _atom_site_fract_y
 _atom_site_fract_z
 _atom_site_occupancy
  Sr  Sr0  1  0.750000  0.903037  0.811264  1
  Sr  Sr1  1  0.750000  0.596963  0.311264  1
  Sr  Sr2  1  0.250000  0.096963  0.188736  1
  Sr  Sr3  1  0.250000  0.403037  0.688736  1
  V  V4  1  0.750000  0.058168  0.462334  1
  V  V5  1  0.750000  0.441832  0.962334  1
  V  V6  1  0.250000  0.558168  0.037666  1
  V  V7  1  0.250000  0.941832  0.537666  1
  Cl  Cl8  1  0.250000  0.432658  0.391849  1
  Cl  Cl9  1  0.250000  0.067342  0.891849  1
  Cl  Cl10  1  0.750000  0.932658  0.108151  1
  Cl  Cl11  1  0.750000  0.567342  0.608151  1
  O  O12  1  0.750000  0.261364  0.861381  1
  O  O13  1  0.005998  0.904106  0.400258  1
  O  O14  1  0.494002  0.904106  0.400258  1
  O  O15  1  0.994002  0.095894  0.599742  1
  O  O16  1  0.750000  0.238636  0.361381  1
  O  O17  1  0.250000  0.738636  0.138619  1
  O  O18  1  0.494002  0.595894  0.900258  1
  O  O19  1  0.505998  0.095894  0.599742  1
  O  O20  1  0.005998  0.595894  0.900258  1
  O  O21  1  0.250000  0.761364  0.638619  1
  O  O22  1  0.994002  0.404106  0.099742  1
  O  O23  1  0.505998  0.404106  0.099742  1
