# generated using pymatgen
data_KTaN2
_symmetry_space_group_name_H-M   'P 1'
_cell_length_a   5.99214429
_cell_length_b   12.02712538
_cell_length_c   16.69091003
_cell_angle_alpha   90.00000000
_cell_angle_beta   90.00000000
_cell_angle_gamma   90.00000000
_symmetry_Int_Tables_number   1
_chemical_formula_structural   KTaN2
_chemical_formula_sum   'K16 Ta16 N32'
_cell_volume   1202.88502179
_cell_formula_units_Z   16
loop_
 _symmetry_equiv_pos_site_id
 _symmetry_equiv_pos_as_xyz
  1  'x, y, z'
loop_
 _atom_site_type_symbol
 _atom_site_label
 _atom_site_symmetry_multiplicity
 _atom_site_fract_x
 _atom_site_fract_y
 _atom_site_fract_z
 _atom_site_occupancy
  K  K0  1  0.739860  0.994195  0.437202  1
  K  K1  1  0.239860  0.505805  0.562798  1
  K  K2  1  0.260140  0.494195  0.062798  1
  K  K3  1  0.760140  0.005805  0.937202  1
  K  K4  1  0.260140  0.005805  0.562798  1
  K  K5  1  0.760140  0.494195  0.437202  1
  K  K6  1  0.739860  0.505805  0.937202  1
  K  K7  1  0.239860  0.994195  0.062798  1
  K  K8  1  0.810499  0.261357  0.312294  1
  K  K9  1  0.310499  0.238643  0.687706  1
  K  K10  1  0.189501  0.761357  0.187706  1
  K  K11  1  0.689501  0.738643  0.812294  1
  K  K12  1  0.189501  0.738643  0.687706  1
  K  K13  1  0.689501  0.761357  0.312294  1
  K  K14  1  0.810499  0.238643  0.812294  1
  K  K15  1  0.310499  0.261357  0.187706  1
  Ta  Ta16  1  0.228574  0.011935  0.312490  1
  Ta  Ta17  1  0.728574  0.488065  0.687510  1
  Ta  Ta18  1  0.771426  0.511935  0.187510  1
  Ta  Ta19  1  0.271426  0.988065  0.812490  1
  Ta  Ta20  1  0.771426  0.988065  0.687510  1
  Ta  Ta21  1  0.271426  0.511935  0.312490  1
  Ta  Ta22  1  0.228574  0.488065  0.812490  1
  Ta  Ta23  1  0.728574  0.011935  0.187510  1
  Ta  Ta24  1  0.292333  0.267247  0.437759  1
  Ta  Ta25  1  0.792333  0.232753  0.562241  1
  Ta  Ta26  1  0.707667  0.767247  0.062241  1
  Ta  Ta27  1  0.207667  0.732753  0.937759  1
  Ta  Ta28  1  0.707667  0.732753  0.562241  1
  Ta  Ta29  1  0.207667  0.767247  0.437759  1
  Ta  Ta30  1  0.292333  0.232753  0.937759  1
  Ta  Ta31  1  0.792333  0.267247  0.062241  1
  N  N32  1  0.604099  0.273989  0.471526  1
  N  N33  1  0.104099  0.226011  0.528474  1
  N  N34  1  0.395901  0.773989  0.028474  1
  N  N35  1  0.895901  0.726011  0.971526  1
  N  N36  1  0.395901  0.726011  0.528474  1
  N  N37  1  0.895901  0.773989  0.471526  1
  N  N38  1  0.604099  0.226011  0.971526  1
  N  N39  1  0.104099  0.273989  0.028474  1
  N  N40  1  0.199213  0.414047  0.402075  1
  N  N41  1  0.699213  0.085953  0.597925  1
  N  N42  1  0.800787  0.914047  0.097925  1
  N  N43  1  0.300787  0.585953  0.902075  1
  N  N44  1  0.800787  0.585953  0.597925  1
  N  N45  1  0.300787  0.914047  0.402075  1
  N  N46  1  0.199213  0.085953  0.902075  1
  N  N47  1  0.699213  0.414047  0.097925  1
  N  N48  1  0.258357  0.165589  0.347375  1
  N  N49  1  0.758357  0.334411  0.652625  1
  N  N50  1  0.741643  0.665589  0.152625  1
  N  N51  1  0.241643  0.834411  0.847375  1
  N  N52  1  0.741643  0.834411  0.652625  1
  N  N53  1  0.241643  0.665589  0.347375  1
  N  N54  1  0.258357  0.334411  0.847375  1
  N  N55  1  0.758357  0.165589  0.152625  1
  N  N56  1  0.076624  0.483238  0.221343  1
  N  N57  1  0.576624  0.016762  0.778657  1
  N  N58  1  0.923376  0.983238  0.278657  1
  N  N59  1  0.423376  0.516762  0.721343  1
  N  N60  1  0.923376  0.516762  0.778657  1
  N  N61  1  0.423376  0.983238  0.221343  1
  N  N62  1  0.076624  0.016762  0.721343  1
  N  N63  1  0.576624  0.483238  0.278657  1
