# generated using pymatgen
data_Si(Sn3O4)2
_symmetry_space_group_name_H-M   'P 1'
_cell_length_a   7.42411010
_cell_length_b   7.42411010
_cell_length_c   12.06039367
_cell_angle_alpha   90.00000000
_cell_angle_beta   90.00000000
_cell_angle_gamma   120.00000000
_symmetry_Int_Tables_number   1
_chemical_formula_structural   Si(Sn3O4)2
_chemical_formula_sum   'Si2 Sn12 O16'
_cell_volume   575.67971035
_cell_formula_units_Z   2
loop_
 _symmetry_equiv_pos_site_id
 _symmetry_equiv_pos_as_xyz
  1  'x, y, z'
loop_
 _atom_site_type_symbol
 _atom_site_label
 _atom_site_symmetry_multiplicity
 _atom_site_fract_x
 _atom_site_fract_y
 _atom_site_fract_z
 _atom_site_occupancy
  Si  Si0  1  0.666667  0.333333  0.094835  1
  Si  Si1  1  0.333333  0.666667  0.594835  1
  Sn  Sn2  1  0.172407  0.344815  0.093138  1
  Sn  Sn3  1  0.988073  0.494037  0.351478  1
  Sn  Sn4  1  0.494037  0.988073  0.851478  1
  Sn  Sn5  1  0.344815  0.172407  0.593138  1
  Sn  Sn6  1  0.655185  0.827593  0.093138  1
  Sn  Sn7  1  0.011927  0.505963  0.851478  1
  Sn  Sn8  1  0.827593  0.655185  0.593138  1
  Sn  Sn9  1  0.494037  0.505963  0.851478  1
  Sn  Sn10  1  0.505963  0.494037  0.351478  1
  Sn  Sn11  1  0.505963  0.011927  0.351478  1
  Sn  Sn12  1  0.827593  0.172407  0.593138  1
  Sn  Sn13  1  0.172407  0.827593  0.093138  1
  O  O14  1  0.807100  0.614200  0.419336  1
  O  O15  1  0.544590  0.455410  0.048136  1
  O  O16  1  0.333333  0.666667  0.118897  1
  O  O17  1  0.544590  0.089180  0.048136  1
  O  O18  1  0.614200  0.807100  0.919336  1
  O  O19  1  0.455410  0.910820  0.548136  1
  O  O20  1  0.666667  0.333333  0.618897  1
  O  O21  1  0.807100  0.192900  0.419336  1
  O  O22  1  0.192900  0.385800  0.919336  1
  O  O23  1  0.333333  0.666667  0.732713  1
  O  O24  1  0.666667  0.333333  0.232713  1
  O  O25  1  0.089180  0.544590  0.548136  1
  O  O26  1  0.385800  0.192900  0.419336  1
  O  O27  1  0.455410  0.544590  0.548136  1
  O  O28  1  0.910820  0.455410  0.048136  1
  O  O29  1  0.192900  0.807100  0.919336  1
