# generated using pymatgen
data_LuB4
_symmetry_space_group_name_H-M   'P 1'
_cell_length_a   7.02686952
_cell_length_b   7.02686952
_cell_length_c   3.96821264
_cell_angle_alpha   90.00000000
_cell_angle_beta   90.00000000
_cell_angle_gamma   90.00000000
_symmetry_Int_Tables_number   1
_chemical_formula_structural   LuB4
_chemical_formula_sum   'Lu4 B16'
_cell_volume   195.93801986
_cell_formula_units_Z   4
loop_
 _symmetry_equiv_pos_site_id
 _symmetry_equiv_pos_as_xyz
  1  'x, y, z'
loop_
 _atom_site_type_symbol
 _atom_site_label
 _atom_site_symmetry_multiplicity
 _atom_site_fract_x
 _atom_site_fract_y
 _atom_site_fract_z
 _atom_site_occupancy
  Lu  Lu0  1  0.818253  0.318253  0.000000  1
  Lu  Lu1  1  0.681747  0.818253  0.000000  1
  Lu  Lu2  1  0.181747  0.681747  0.000000  1
  Lu  Lu3  1  0.318253  0.181747  0.000000  1
  B  B4  1  0.961471  0.822903  0.500000  1
  B  B5  1  0.086606  0.413394  0.500000  1
  B  B6  1  0.677097  0.538529  0.500000  1
  B  B7  1  0.413394  0.913394  0.500000  1
  B  B8  1  0.538529  0.322903  0.500000  1
  B  B9  1  0.586606  0.086606  0.500000  1
  B  B10  1  0.461471  0.677097  0.500000  1
  B  B11  1  0.822903  0.038529  0.500000  1
  B  B12  1  0.000000  0.000000  0.202389  1
  B  B13  1  0.500000  0.500000  0.202389  1
  B  B14  1  0.000000  0.000000  0.797611  1
  B  B15  1  0.177097  0.961471  0.500000  1
  B  B16  1  0.038529  0.177097  0.500000  1
  B  B17  1  0.913394  0.586606  0.500000  1
  B  B18  1  0.500000  0.500000  0.797611  1
  B  B19  1  0.322903  0.461471  0.500000  1
