# generated using pymatgen
data_NaTbMnWO6
_symmetry_space_group_name_H-M   'P 1'
_cell_length_a   5.48310960
_cell_length_b   5.67384904
_cell_length_c   8.00799318
_cell_angle_alpha   90.00000000
_cell_angle_beta   90.03571737
_cell_angle_gamma   90.00000000
_symmetry_Int_Tables_number   1
_chemical_formula_structural   NaTbMnWO6
_chemical_formula_sum   'Na2 Tb2 Mn2 W2 O12'
_cell_volume   249.13131129
_cell_formula_units_Z   2
loop_
 _symmetry_equiv_pos_site_id
 _symmetry_equiv_pos_as_xyz
  1  'x, y, z'
loop_
 _atom_site_type_symbol
 _atom_site_label
 _atom_site_symmetry_multiplicity
 _atom_site_fract_x
 _atom_site_fract_y
 _atom_site_fract_z
 _atom_site_occupancy
  Na  Na0  1  0.251161  0.305932  0.000942  1
  Na  Na1  1  0.748839  0.805932  0.999058  1
  Tb  Tb2  1  0.265309  0.209441  0.501493  1
  Tb  Tb3  1  0.734691  0.709441  0.498507  1
  Mn  Mn4  1  0.752007  0.265451  0.241784  1
  Mn  Mn5  1  0.247993  0.765451  0.758216  1
  W  W6  1  0.761711  0.275233  0.756175  1
  W  W7  1  0.238289  0.775233  0.243825  1
  O  O8  1  0.089266  0.079749  0.217203  1
  O  O9  1  0.469636  0.466823  0.679869  1
  O  O10  1  0.530364  0.966823  0.320131  1
  O  O11  1  0.060435  0.108101  0.774688  1
  O  O12  1  0.566655  0.999844  0.678380  1
  O  O13  1  0.330055  0.737718  0.020314  1
  O  O14  1  0.433345  0.499844  0.321620  1
  O  O15  1  0.669945  0.237718  0.979686  1
  O  O16  1  0.910734  0.579749  0.782797  1
  O  O17  1  0.939565  0.608101  0.225312  1
  O  O18  1  0.136789  0.816109  0.493060  1
  O  O19  1  0.863211  0.316109  0.506940  1
