# generated using pymatgen
data_Ta3Si
_symmetry_space_group_name_H-M   'P 1'
_cell_length_a   10.23355895
_cell_length_b   10.23355895
_cell_length_c   5.21538653
_cell_angle_alpha   90.00000000
_cell_angle_beta   90.00000000
_cell_angle_gamma   90.00000000
_symmetry_Int_Tables_number   1
_chemical_formula_structural   Ta3Si
_chemical_formula_sum   'Ta24 Si8'
_cell_volume   546.18515524
_cell_formula_units_Z   8
loop_
 _symmetry_equiv_pos_site_id
 _symmetry_equiv_pos_as_xyz
  1  'x, y, z'
loop_
 _atom_site_type_symbol
 _atom_site_label
 _atom_site_symmetry_multiplicity
 _atom_site_fract_x
 _atom_site_fract_y
 _atom_site_fract_z
 _atom_site_occupancy
  Ta  Ta0  1  0.517495  0.646408  0.273098  1
  Ta  Ta1  1  0.400444  0.085842  0.029468  1
  Ta  Ta2  1  0.713338  0.812143  0.513063  1
  Ta  Ta3  1  0.900444  0.585842  0.470532  1
  Ta  Ta4  1  0.853592  0.017495  0.773098  1
  Ta  Ta5  1  0.017495  0.146408  0.226902  1
  Ta  Ta6  1  0.786662  0.687857  0.986937  1
  Ta  Ta7  1  0.286662  0.187857  0.513063  1
  Ta  Ta8  1  0.687857  0.213338  0.013063  1
  Ta  Ta9  1  0.414158  0.900444  0.529468  1
  Ta  Ta10  1  0.812143  0.286662  0.486937  1
  Ta  Ta11  1  0.353592  0.517495  0.726902  1
  Ta  Ta12  1  0.646408  0.482505  0.726902  1
  Ta  Ta13  1  0.146408  0.982505  0.773098  1
  Ta  Ta14  1  0.213338  0.312143  0.986937  1
  Ta  Ta15  1  0.914158  0.400444  0.970532  1
  Ta  Ta16  1  0.312143  0.786662  0.013063  1
  Ta  Ta17  1  0.599556  0.914158  0.029468  1
  Ta  Ta18  1  0.085842  0.599556  0.970532  1
  Ta  Ta19  1  0.099556  0.414158  0.470532  1
  Ta  Ta20  1  0.982505  0.853592  0.226902  1
  Ta  Ta21  1  0.187857  0.713338  0.486937  1
  Ta  Ta22  1  0.482505  0.353592  0.273098  1
  Ta  Ta23  1  0.585842  0.099556  0.529468  1
  Si  Si24  1  0.970885  0.794818  0.720646  1
  Si  Si25  1  0.205182  0.970885  0.279354  1
  Si  Si26  1  0.794818  0.029115  0.279354  1
  Si  Si27  1  0.470885  0.294818  0.779354  1
  Si  Si28  1  0.294818  0.529115  0.220646  1
  Si  Si29  1  0.029115  0.205182  0.720646  1
  Si  Si30  1  0.705182  0.470885  0.220646  1
  Si  Si31  1  0.529115  0.705182  0.779354  1
