# generated using pymatgen
data_UTl2(TeO4)2
_symmetry_space_group_name_H-M   'P 1'
_cell_length_a   7.59127698
_cell_length_b   8.18817310
_cell_length_c   9.14551408
_cell_angle_alpha   92.89596864
_cell_angle_beta   107.95298262
_cell_angle_gamma   108.53444038
_symmetry_Int_Tables_number   1
_chemical_formula_structural   UTl2(TeO4)2
_chemical_formula_sum   'U2 Tl4 Te4 O16'
_cell_volume   505.74722951
_cell_formula_units_Z   2
loop_
 _symmetry_equiv_pos_site_id
 _symmetry_equiv_pos_as_xyz
  1  'x, y, z'
loop_
 _atom_site_type_symbol
 _atom_site_label
 _atom_site_symmetry_multiplicity
 _atom_site_fract_x
 _atom_site_fract_y
 _atom_site_fract_z
 _atom_site_occupancy
  U  U0  1  0.112189  0.940176  0.714386  1
  U  U1  1  0.887811  0.059824  0.285614  1
  Tl  Tl2  1  0.031741  0.417873  0.685990  1
  Tl  Tl3  1  0.296766  0.425185  0.096134  1
  Tl  Tl4  1  0.703234  0.574815  0.903866  1
  Tl  Tl5  1  0.968259  0.582127  0.314010  1
  Te  Te6  1  0.394509  0.288603  0.487760  1
  Te  Te7  1  0.605491  0.711397  0.512240  1
  Te  Te8  1  0.663012  0.098197  0.868474  1
  Te  Te9  1  0.336988  0.901803  0.131526  1
  O  O10  1  0.583253  0.891924  0.119455  1
  O  O11  1  0.416747  0.108076  0.880545  1
  O  O12  1  0.422218  0.494951  0.614121  1
  O  O13  1  0.217246  0.804866  0.623239  1
  O  O14  1  0.181616  0.294086  0.309836  1
  O  O15  1  0.991776  0.918025  0.199235  1
  O  O16  1  0.577782  0.505049  0.385879  1
  O  O17  1  0.164205  0.786734  0.928779  1
  O  O18  1  0.835795  0.213266  0.071221  1
  O  O19  1  0.292710  0.709542  0.237973  1
  O  O20  1  0.818384  0.705914  0.690164  1
  O  O21  1  0.707290  0.290458  0.762027  1
  O  O22  1  0.172368  0.138654  0.548558  1
  O  O23  1  0.008224  0.081975  0.800765  1
  O  O24  1  0.782754  0.195134  0.376761  1
  O  O25  1  0.827632  0.861346  0.451442  1
