# generated using pymatgen
data_BaCuB2O5
_symmetry_space_group_name_H-M   'P 1'
_cell_length_a   5.66387542
_cell_length_b   5.66387542
_cell_length_c   4.11280061
_cell_angle_alpha   86.27064851
_cell_angle_beta   93.72935149
_cell_angle_gamma   70.43046243
_symmetry_Int_Tables_number   1
_chemical_formula_structural   BaCuB2O5
_chemical_formula_sum   'Ba1 Cu1 B2 O5'
_cell_volume   123.52194623
_cell_formula_units_Z   1
loop_
 _symmetry_equiv_pos_site_id
 _symmetry_equiv_pos_as_xyz
  1  'x, y, z'
loop_
 _atom_site_type_symbol
 _atom_site_label
 _atom_site_symmetry_multiplicity
 _atom_site_fract_x
 _atom_site_fract_y
 _atom_site_fract_z
 _atom_site_occupancy
  Ba  Ba0  1  0.997494  0.997494  0.500000  1
  Cu  Cu1  1  0.407373  0.407373  0.000000  1
  B  B2  1  0.513882  0.870800  0.095341  1
  B  B3  1  0.870800  0.513882  0.904659  1
  O  O4  1  0.761763  0.761763  0.000000  1
  O  O5  1  0.765019  0.332485  0.966950  1
  O  O6  1  0.332485  0.765019  0.033050  1
  O  O7  1  0.461035  0.083336  0.254142  1
  O  O8  1  0.083336  0.461035  0.745858  1
