# generated using pymatgen
data_Y2Cu2O5
_symmetry_space_group_name_H-M   'P 1'
_cell_length_a   6.26558928
_cell_length_b   7.19304331
_cell_length_c   11.24612508
_cell_angle_alpha   90.00000000
_cell_angle_beta   90.00000000
_cell_angle_gamma   90.00000000
_symmetry_Int_Tables_number   1
_chemical_formula_structural   Y2Cu2O5
_chemical_formula_sum   'Y8 Cu8 O20'
_cell_volume   506.84773192
_cell_formula_units_Z   4
loop_
 _symmetry_equiv_pos_site_id
 _symmetry_equiv_pos_as_xyz
  1  'x, y, z'
loop_
 _atom_site_type_symbol
 _atom_site_label
 _atom_site_symmetry_multiplicity
 _atom_site_fract_x
 _atom_site_fract_y
 _atom_site_fract_z
 _atom_site_occupancy
  Y  Y0  1  0.249998  0.880165  0.021354  1
  Y  Y1  1  0.749998  0.619835  0.478646  1
  Y  Y2  1  0.250002  0.380165  0.978646  1
  Y  Y3  1  0.750002  0.119835  0.521354  1
  Y  Y4  1  0.750002  0.119835  0.978646  1
  Y  Y5  1  0.250002  0.380165  0.521354  1
  Y  Y6  1  0.749998  0.619835  0.021354  1
  Y  Y7  1  0.249998  0.880165  0.478646  1
  Cu  Cu8  1  0.928580  0.848822  0.250000  1
  Cu  Cu9  1  0.428580  0.651178  0.250000  1
  Cu  Cu10  1  0.571420  0.348822  0.750000  1
  Cu  Cu11  1  0.071420  0.151178  0.750000  1
  Cu  Cu12  1  0.411660  0.127397  0.250000  1
  Cu  Cu13  1  0.911660  0.372603  0.250000  1
  Cu  Cu14  1  0.088340  0.627397  0.750000  1
  Cu  Cu15  1  0.588340  0.872603  0.750000  1
  O  O16  1  0.245491  0.880633  0.250000  1
  O  O17  1  0.745491  0.619367  0.250000  1
  O  O18  1  0.254509  0.380633  0.750000  1
  O  O19  1  0.754509  0.119367  0.750000  1
  O  O20  1  0.903851  0.886099  0.088331  1
  O  O21  1  0.403851  0.613901  0.411669  1
  O  O22  1  0.596149  0.386099  0.911669  1
  O  O23  1  0.096149  0.113901  0.588331  1
  O  O24  1  0.096149  0.113901  0.911669  1
  O  O25  1  0.596149  0.386099  0.588331  1
  O  O26  1  0.403851  0.613901  0.088331  1
  O  O27  1  0.903851  0.886099  0.411669  1
  O  O28  1  0.429795  0.143273  0.085948  1
  O  O29  1  0.929795  0.356727  0.414052  1
  O  O30  1  0.070205  0.643273  0.914052  1
  O  O31  1  0.570205  0.856727  0.585948  1
  O  O32  1  0.570205  0.856727  0.914052  1
  O  O33  1  0.070205  0.643273  0.585948  1
  O  O34  1  0.929795  0.356727  0.085948  1
  O  O35  1  0.429795  0.143273  0.414052  1
