# generated using pymatgen
data_Ta2Pt3S8
_symmetry_space_group_name_H-M   'P 1'
_cell_length_a   3.48997505
_cell_length_b   10.53951691
_cell_length_c   14.69120199
_cell_angle_alpha   90.00000000
_cell_angle_beta   90.00000000
_cell_angle_gamma   90.00000000
_symmetry_Int_Tables_number   1
_chemical_formula_structural   Ta2Pt3S8
_chemical_formula_sum   'Ta4 Pt6 S16'
_cell_volume   540.38135638
_cell_formula_units_Z   2
loop_
 _symmetry_equiv_pos_site_id
 _symmetry_equiv_pos_as_xyz
  1  'x, y, z'
loop_
 _atom_site_type_symbol
 _atom_site_label
 _atom_site_symmetry_multiplicity
 _atom_site_fract_x
 _atom_site_fract_y
 _atom_site_fract_z
 _atom_site_occupancy
  Ta  Ta0  1  0.500000  0.206429  0.119647  1
  Ta  Ta1  1  0.500000  0.293571  0.619647  1
  Ta  Ta2  1  0.500000  0.793571  0.880353  1
  Ta  Ta3  1  0.500000  0.706429  0.380353  1
  Pt  Pt4  1  0.000000  0.870212  0.279771  1
  Pt  Pt5  1  0.000000  0.129788  0.720229  1
  Pt  Pt6  1  0.000000  0.370212  0.220229  1
  Pt  Pt7  1  0.000000  0.629788  0.779771  1
  Pt  Pt8  1  0.000000  0.500000  0.500000  1
  Pt  Pt9  1  0.000000  0.000000  0.000000  1
  S  S10  1  0.500000  0.059490  0.622784  1
  S  S11  1  0.000000  0.223929  0.997472  1
  S  S12  1  0.500000  0.440510  0.122784  1
  S  S13  1  0.000000  0.459743  0.657104  1
  S  S14  1  0.000000  0.276071  0.497472  1
  S  S15  1  0.000000  0.959743  0.842896  1
  S  S16  1  0.000000  0.723929  0.502528  1
  S  S17  1  0.000000  0.040257  0.157104  1
  S  S18  1  0.500000  0.746991  0.215483  1
  S  S19  1  0.000000  0.540257  0.342896  1
  S  S20  1  0.500000  0.559490  0.877216  1
  S  S21  1  0.500000  0.246991  0.284517  1
  S  S22  1  0.000000  0.776071  0.002528  1
  S  S23  1  0.500000  0.253009  0.784517  1
  S  S24  1  0.500000  0.753009  0.715483  1
  S  S25  1  0.500000  0.940510  0.377216  1
