# generated using pymatgen
data_TlGaCl4
_symmetry_space_group_name_H-M   'P 1'
_cell_length_a   7.24620501
_cell_length_b   9.64456705
_cell_length_c   11.01714067
_cell_angle_alpha   90.00000000
_cell_angle_beta   90.00000000
_cell_angle_gamma   90.00000000
_symmetry_Int_Tables_number   1
_chemical_formula_structural   TlGaCl4
_chemical_formula_sum   'Tl4 Ga4 Cl16'
_cell_volume   769.94951245
_cell_formula_units_Z   4
loop_
 _symmetry_equiv_pos_site_id
 _symmetry_equiv_pos_as_xyz
  1  'x, y, z'
loop_
 _atom_site_type_symbol
 _atom_site_label
 _atom_site_symmetry_multiplicity
 _atom_site_fract_x
 _atom_site_fract_y
 _atom_site_fract_z
 _atom_site_occupancy
  Tl  Tl0  1  0.750000  0.808695  0.188478  1
  Tl  Tl1  1  0.750000  0.691305  0.688478  1
  Tl  Tl2  1  0.250000  0.308695  0.311522  1
  Tl  Tl3  1  0.250000  0.191305  0.811522  1
  Ga  Ga4  1  0.750000  0.313892  0.065287  1
  Ga  Ga5  1  0.750000  0.186108  0.565287  1
  Ga  Ga6  1  0.250000  0.813892  0.434713  1
  Ga  Ga7  1  0.250000  0.686108  0.934713  1
  Cl  Cl8  1  0.997357  0.179431  0.074051  1
  Cl  Cl9  1  0.250000  0.572312  0.106788  1
  Cl  Cl10  1  0.002643  0.679431  0.425949  1
  Cl  Cl11  1  0.750000  0.072312  0.393212  1
  Cl  Cl12  1  0.750000  0.451710  0.224055  1
  Cl  Cl13  1  0.502643  0.320569  0.574051  1
  Cl  Cl14  1  0.497357  0.820569  0.925949  1
  Cl  Cl15  1  0.750000  0.048290  0.724055  1
  Cl  Cl16  1  0.750000  0.427688  0.893212  1
  Cl  Cl17  1  0.997357  0.320569  0.574051  1
  Cl  Cl18  1  0.497357  0.679431  0.425949  1
  Cl  Cl19  1  0.250000  0.927688  0.606788  1
  Cl  Cl20  1  0.002643  0.820569  0.925949  1
  Cl  Cl21  1  0.250000  0.951710  0.275945  1
  Cl  Cl22  1  0.250000  0.548290  0.775945  1
  Cl  Cl23  1  0.502643  0.179431  0.074051  1
