# generated using pymatgen
data_SbXe2OF15
_symmetry_space_group_name_H-M   'P 1'
_cell_length_a   5.76686359
_cell_length_b   9.14641426
_cell_length_c   12.68294018
_cell_angle_alpha   90.00000000
_cell_angle_beta   102.75782590
_cell_angle_gamma   90.00000000
_symmetry_Int_Tables_number   1
_chemical_formula_structural   SbXe2OF15
_chemical_formula_sum   'Sb2 Xe4 O2 F30'
_cell_volume   652.46036176
_cell_formula_units_Z   2
loop_
 _symmetry_equiv_pos_site_id
 _symmetry_equiv_pos_as_xyz
  1  'x, y, z'
loop_
 _atom_site_type_symbol
 _atom_site_label
 _atom_site_symmetry_multiplicity
 _atom_site_fract_x
 _atom_site_fract_y
 _atom_site_fract_z
 _atom_site_occupancy
  Sb  Sb0  1  0.813017  0.750000  0.565575  1
  Sb  Sb1  1  0.186983  0.250000  0.434425  1
  Xe  Xe2  1  0.798484  0.250000  0.708121  1
  Xe  Xe3  1  0.411793  0.250000  0.094486  1
  Xe  Xe4  1  0.201516  0.750000  0.291879  1
  Xe  Xe5  1  0.588207  0.750000  0.905514  1
  O  O6  1  0.392258  0.250000  0.948739  1
  O  O7  1  0.607742  0.750000  0.051261  1
  F  F8  1  0.811634  0.250000  0.863467  1
  F  F9  1  0.333756  0.907572  0.879686  1
  F  F10  1  0.839859  0.592286  0.916677  1
  F  F11  1  0.515200  0.250000  0.522295  1
  F  F12  1  0.333756  0.592428  0.879686  1
  F  F13  1  0.666244  0.092428  0.120314  1
  F  F14  1  0.071463  0.250000  0.568664  1
  F  F15  1  0.556612  0.098281  0.712916  1
  F  F16  1  0.798812  0.542112  0.558329  1
  F  F17  1  0.044786  0.400787  0.752180  1
  F  F18  1  0.130454  0.750000  0.647418  1
  F  F19  1  0.955214  0.599213  0.247820  1
  F  F20  1  0.443388  0.901719  0.287084  1
  F  F21  1  0.556612  0.401719  0.712916  1
  F  F22  1  0.484800  0.750000  0.477705  1
  F  F23  1  0.315235  0.250000  0.307181  1
  F  F24  1  0.839859  0.907714  0.916677  1
  F  F25  1  0.869546  0.250000  0.352582  1
  F  F26  1  0.201188  0.457888  0.441671  1
  F  F27  1  0.666244  0.407572  0.120314  1
  F  F28  1  0.928537  0.750000  0.431336  1
  F  F29  1  0.684765  0.750000  0.692819  1
  F  F30  1  0.160141  0.407714  0.083323  1
  F  F31  1  0.188366  0.750000  0.136533  1
  F  F32  1  0.160141  0.092286  0.083323  1
  F  F33  1  0.798812  0.957888  0.558329  1
  F  F34  1  0.201188  0.042112  0.441671  1
  F  F35  1  0.044786  0.099213  0.752180  1
  F  F36  1  0.443388  0.598281  0.287084  1
  F  F37  1  0.955214  0.900787  0.247820  1
