# generated using pymatgen
data_Cu2H3ClO3
_symmetry_space_group_name_H-M   'P 1'
_cell_length_a   6.08607306
_cell_length_b   6.93562356
_cell_length_c   9.11364183
_cell_angle_alpha   90.00000000
_cell_angle_beta   90.00000000
_cell_angle_gamma   90.00000000
_symmetry_Int_Tables_number   1
_chemical_formula_structural   Cu2H3ClO3
_chemical_formula_sum   'Cu8 H12 Cl4 O12'
_cell_volume   384.69330785
_cell_formula_units_Z   4
loop_
 _symmetry_equiv_pos_site_id
 _symmetry_equiv_pos_as_xyz
  1  'x, y, z'
loop_
 _atom_site_type_symbol
 _atom_site_label
 _atom_site_symmetry_multiplicity
 _atom_site_fract_x
 _atom_site_fract_y
 _atom_site_fract_z
 _atom_site_occupancy
  Cu  Cu0  1  0.186394  0.750000  0.759305  1
  Cu  Cu1  1  0.313606  0.250000  0.259305  1
  Cu  Cu2  1  0.686394  0.750000  0.740695  1
  Cu  Cu3  1  0.813606  0.250000  0.240695  1
  Cu  Cu4  1  0.000000  0.500000  0.500000  1
  Cu  Cu5  1  0.500000  0.500000  0.000000  1
  Cu  Cu6  1  0.500000  0.000000  0.000000  1
  Cu  Cu7  1  0.000000  0.000000  0.500000  1
  H  H8  1  0.420596  0.452107  0.724721  1
  H  H9  1  0.079404  0.547893  0.224721  1
  H  H10  1  0.920596  0.047893  0.775279  1
  H  H11  1  0.579404  0.952107  0.275279  1
  H  H12  1  0.579404  0.547893  0.275279  1
  H  H13  1  0.920596  0.452107  0.775279  1
  H  H14  1  0.079404  0.952107  0.224721  1
  H  H15  1  0.420596  0.047893  0.724721  1
  H  H16  1  0.296905  0.750000  0.453348  1
  H  H17  1  0.203095  0.250000  0.953348  1
  H  H18  1  0.796905  0.750000  0.046652  1
  H  H19  1  0.703095  0.250000  0.546652  1
  Cl  Cl20  1  0.364519  0.250000  0.563443  1
  Cl  Cl21  1  0.135481  0.750000  0.063443  1
  Cl  Cl22  1  0.864519  0.250000  0.936557  1
  Cl  Cl23  1  0.635481  0.750000  0.436557  1
  O  O24  1  0.436482  0.564774  0.792051  1
  O  O25  1  0.063518  0.435226  0.292051  1
  O  O26  1  0.936482  0.935226  0.707949  1
  O  O27  1  0.563518  0.064774  0.207949  1
  O  O28  1  0.563518  0.435226  0.207949  1
  O  O29  1  0.936482  0.564774  0.707949  1
  O  O30  1  0.063518  0.064774  0.292051  1
  O  O31  1  0.436482  0.935226  0.792051  1
  O  O32  1  0.148698  0.750000  0.498340  1
  O  O33  1  0.351302  0.250000  0.998340  1
  O  O34  1  0.648698  0.750000  0.001660  1
  O  O35  1  0.851302  0.250000  0.501660  1
