# generated using pymatgen
data_TaSiAs
_symmetry_space_group_name_H-M   'P 1'
_cell_length_a   3.52058955
_cell_length_b   3.52058955
_cell_length_c   7.91416337
_cell_angle_alpha   90.00000000
_cell_angle_beta   90.00000000
_cell_angle_gamma   90.00000000
_symmetry_Int_Tables_number   1
_chemical_formula_structural   TaSiAs
_chemical_formula_sum   'Ta2 Si2 As2'
_cell_volume   98.09249977
_cell_formula_units_Z   2
loop_
 _symmetry_equiv_pos_site_id
 _symmetry_equiv_pos_as_xyz
  1  'x, y, z'
loop_
 _atom_site_type_symbol
 _atom_site_label
 _atom_site_symmetry_multiplicity
 _atom_site_fract_x
 _atom_site_fract_y
 _atom_site_fract_z
 _atom_site_occupancy
  Ta  Ta0  1  0.500000  0.000000  0.253879  1
  Ta  Ta1  1  0.000000  0.500000  0.746121  1
  Si  Si2  1  0.000000  0.000000  0.000000  1
  Si  Si3  1  0.500000  0.500000  0.000000  1
  As  As4  1  0.500000  0.000000  0.611265  1
  As  As5  1  0.000000  0.500000  0.388735  1
