# generated using pymatgen
data_Li4Zn(PO4)2
_symmetry_space_group_name_H-M   'P 1'
_cell_length_a   8.20926675
_cell_length_b   10.40428318
_cell_length_c   8.22224373
_cell_angle_alpha   90.00000000
_cell_angle_beta   104.63982739
_cell_angle_gamma   90.00000000
_symmetry_Int_Tables_number   1
_chemical_formula_structural   Li4Zn(PO4)2
_chemical_formula_sum   'Li16 Zn4 P8 O32'
_cell_volume   679.47422565
_cell_formula_units_Z   4
loop_
 _symmetry_equiv_pos_site_id
 _symmetry_equiv_pos_as_xyz
  1  'x, y, z'
loop_
 _atom_site_type_symbol
 _atom_site_label
 _atom_site_symmetry_multiplicity
 _atom_site_fract_x
 _atom_site_fract_y
 _atom_site_fract_z
 _atom_site_occupancy
  Li  Li0  1  0.272313  0.072943  0.522033  1
  Li  Li1  1  0.150987  0.651294  0.149529  1
  Li  Li2  1  0.349013  0.151294  0.850471  1
  Li  Li3  1  0.727687  0.927057  0.477967  1
  Li  Li4  1  0.772313  0.427057  0.522033  1
  Li  Li5  1  0.849013  0.348706  0.850471  1
  Li  Li6  1  0.599343  0.164459  0.601710  1
  Li  Li7  1  0.157434  0.837945  0.654675  1
  Li  Li8  1  0.227687  0.572943  0.477967  1
  Li  Li9  1  0.650987  0.848706  0.149529  1
  Li  Li10  1  0.342566  0.337945  0.345325  1
  Li  Li11  1  0.657434  0.662055  0.654675  1
  Li  Li12  1  0.400657  0.835541  0.398290  1
  Li  Li13  1  0.842566  0.162055  0.345325  1
  Li  Li14  1  0.900657  0.664459  0.398290  1
  Li  Li15  1  0.099343  0.335541  0.601710  1
  Zn  Zn16  1  0.908708  0.843294  0.907786  1
  Zn  Zn17  1  0.408708  0.656706  0.907786  1
  Zn  Zn18  1  0.091292  0.156706  0.092214  1
  Zn  Zn19  1  0.591292  0.343294  0.092214  1
  P  P20  1  0.465678  0.093271  0.232432  1
  P  P21  1  0.534322  0.906729  0.767568  1
  P  P22  1  0.026695  0.908528  0.288848  1
  P  P23  1  0.473305  0.408528  0.711152  1
  P  P24  1  0.965678  0.406729  0.232432  1
  P  P25  1  0.526695  0.591472  0.288848  1
  P  P26  1  0.973305  0.091472  0.711152  1
  P  P27  1  0.034322  0.593271  0.767568  1
  O  O28  1  0.087725  0.655269  0.616664  1
  O  O29  1  0.628313  0.349964  0.662384  1
  O  O30  1  0.991192  0.053541  0.244348  1
  O  O31  1  0.008808  0.946459  0.755652  1
  O  O32  1  0.412275  0.155269  0.383336  1
  O  O33  1  0.871687  0.849964  0.337616  1
  O  O34  1  0.115832  0.330332  0.195166  1
  O  O35  1  0.686839  0.600971  0.437137  1
  O  O36  1  0.371687  0.650036  0.337616  1
  O  O37  1  0.684556  0.896936  0.928263  1
  O  O38  1  0.521799  0.952709  0.274576  1
  O  O39  1  0.315444  0.103064  0.071737  1
  O  O40  1  0.021799  0.547291  0.274576  1
  O  O41  1  0.912275  0.344731  0.383336  1
  O  O42  1  0.978201  0.452709  0.725424  1
  O  O43  1  0.587725  0.844731  0.616664  1
  O  O44  1  0.560600  0.666853  0.136352  1
  O  O45  1  0.615832  0.169668  0.195166  1
  O  O46  1  0.884168  0.669668  0.804834  1
  O  O47  1  0.939400  0.166853  0.863648  1
  O  O48  1  0.384168  0.830332  0.804834  1
  O  O49  1  0.491192  0.446459  0.244348  1
  O  O50  1  0.813161  0.100971  0.562863  1
  O  O51  1  0.060600  0.833147  0.136352  1
  O  O52  1  0.478201  0.047291  0.725424  1
  O  O53  1  0.815444  0.396936  0.071737  1
  O  O54  1  0.439400  0.333147  0.863648  1
  O  O55  1  0.508808  0.553541  0.755652  1
  O  O56  1  0.184556  0.603064  0.928263  1
  O  O57  1  0.128313  0.150036  0.662384  1
  O  O58  1  0.186839  0.899029  0.437137  1
  O  O59  1  0.313161  0.399029  0.562863  1
