# generated using pymatgen
data_Er3(Si3Ru)4
_symmetry_space_group_name_H-M   'P 1'
_cell_length_a   10.10355622
_cell_length_b   10.10355622
_cell_length_c   8.11964942
_cell_angle_alpha   90.00000000
_cell_angle_beta   90.00000000
_cell_angle_gamma   132.63567000
_symmetry_Int_Tables_number   1
_chemical_formula_structural   Er3(Si3Ru)4
_chemical_formula_sum   'Er6 Si24 Ru8'
_cell_volume   609.77852453
_cell_formula_units_Z   2
loop_
 _symmetry_equiv_pos_site_id
 _symmetry_equiv_pos_as_xyz
  1  'x, y, z'
loop_
 _atom_site_type_symbol
 _atom_site_label
 _atom_site_symmetry_multiplicity
 _atom_site_fract_x
 _atom_site_fract_y
 _atom_site_fract_z
 _atom_site_occupancy
  Er  Er0  1  0.997267  0.497267  0.750000  1
  Er  Er1  1  0.502733  0.002733  0.250000  1
  Er  Er2  1  0.002733  0.502733  0.250000  1
  Er  Er3  1  0.497267  0.997267  0.750000  1
  Er  Er4  1  0.500000  0.500000  0.500000  1
  Er  Er5  1  0.000000  0.000000  0.000000  1
  Si  Si6  1  0.154190  0.388498  0.994255  1
  Si  Si7  1  0.888498  0.654190  0.505745  1
  Si  Si8  1  0.345810  0.111502  0.494255  1
  Si  Si9  1  0.611502  0.845810  0.005745  1
  Si  Si10  1  0.845810  0.611502  0.005745  1
  Si  Si11  1  0.111502  0.345810  0.494255  1
  Si  Si12  1  0.654190  0.888498  0.505745  1
  Si  Si13  1  0.388498  0.154190  0.994255  1
  Si  Si14  1  0.378280  0.612683  0.771415  1
  Si  Si15  1  0.112683  0.878280  0.728585  1
  Si  Si16  1  0.121720  0.887317  0.271415  1
  Si  Si17  1  0.387317  0.621720  0.228585  1
  Si  Si18  1  0.621720  0.387317  0.228585  1
  Si  Si19  1  0.887317  0.121720  0.271415  1
  Si  Si20  1  0.295034  0.704966  0.000000  1
  Si  Si21  1  0.204966  0.795034  0.500000  1
  Si  Si22  1  0.704966  0.295034  0.000000  1
  Si  Si23  1  0.795034  0.204966  0.500000  1
  Si  Si24  1  0.167360  0.167360  0.666824  1
  Si  Si25  1  0.667360  0.667360  0.833176  1
  Si  Si26  1  0.332640  0.332640  0.166824  1
  Si  Si27  1  0.832640  0.832640  0.333176  1
  Si  Si28  1  0.612683  0.378280  0.771415  1
  Si  Si29  1  0.878280  0.112683  0.728585  1
  Ru  Ru30  1  0.627012  0.627012  0.127459  1
  Ru  Ru31  1  0.127012  0.127012  0.372541  1
  Ru  Ru32  1  0.872988  0.872988  0.627459  1
  Ru  Ru33  1  0.372988  0.372988  0.872541  1
  Ru  Ru34  1  0.669598  0.330402  0.500000  1
  Ru  Ru35  1  0.830402  0.169598  0.000000  1
  Ru  Ru36  1  0.330402  0.669598  0.500000  1
  Ru  Ru37  1  0.169598  0.830402  0.000000  1
