# generated using pymatgen
data_TbCu(WO4)2
_symmetry_space_group_name_H-M   'P 1'
_cell_length_a   6.91188849
_cell_length_b   10.13083298
_cell_length_c   15.35427061
_cell_angle_alpha   107.22710046
_cell_angle_beta   88.39246928
_cell_angle_gamma   108.02303633
_symmetry_Int_Tables_number   1
_chemical_formula_structural   TbCu(WO4)2
_chemical_formula_sum   'Tb6 Cu6 W12 O48'
_cell_volume   974.13757844
_cell_formula_units_Z   6
loop_
 _symmetry_equiv_pos_site_id
 _symmetry_equiv_pos_as_xyz
  1  'x, y, z'
loop_
 _atom_site_type_symbol
 _atom_site_label
 _atom_site_symmetry_multiplicity
 _atom_site_fract_x
 _atom_site_fract_y
 _atom_site_fract_z
 _atom_site_occupancy
  Tb  Tb0  1  0.364111  0.052192  0.343872  1
  Tb  Tb1  1  0.033063  0.393054  0.661886  1
  Tb  Tb2  1  0.966937  0.606946  0.338114  1
  Tb  Tb3  1  0.316191  0.295123  0.996986  1
  Tb  Tb4  1  0.635889  0.947808  0.656128  1
  Tb  Tb5  1  0.683809  0.704877  0.003014  1
  Cu  Cu6  1  0.658615  0.334772  0.832138  1
  Cu  Cu7  1  0.846253  0.166654  0.160935  1
  Cu  Cu8  1  0.341385  0.665228  0.167862  1
  Cu  Cu9  1  0.153747  0.833346  0.839065  1
  Cu  Cu10  1  0.500000  0.500000  0.500000  1
  Cu  Cu11  1  0.000000  0.000000  0.000000  1
  W  W12  1  0.166657  0.560901  0.931263  1
  W  W13  1  0.147287  0.099065  0.731585  1
  W  W14  1  0.981042  0.244810  0.387349  1
  W  W15  1  0.018958  0.755190  0.612651  1
  W  W16  1  0.642160  0.591146  0.723248  1
  W  W17  1  0.498655  0.765613  0.393208  1
  W  W18  1  0.664186  0.083344  0.939458  1
  W  W19  1  0.852713  0.900935  0.268415  1
  W  W20  1  0.357840  0.408854  0.276752  1
  W  W21  1  0.833343  0.439099  0.068737  1
  W  W22  1  0.501345  0.234387  0.606792  1
  W  W23  1  0.335814  0.916656  0.060542  1
  O  O24  1  0.574457  0.977037  0.824654  1
  O  O25  1  0.661507  0.272715  0.935371  1
  O  O26  1  0.090016  0.419199  0.007132  1
  O  O27  1  0.054936  0.884096  0.060781  1
  O  O28  1  0.233564  0.250839  0.665162  1
  O  O29  1  0.617290  0.874834  0.504561  1
  O  O30  1  0.371007  0.562092  0.721353  1
  O  O31  1  0.943529  0.600745  0.673552  1
  O  O32  1  0.410956  0.518074  0.926394  1
  O  O33  1  0.710939  0.217904  0.386182  1
  O  O34  1  0.382710  0.125166  0.495439  1
  O  O35  1  0.056471  0.399255  0.326448  1
  O  O36  1  0.440688  0.577966  0.413676  1
  O  O37  1  0.099496  0.866805  0.254028  1
  O  O38  1  0.001010  0.939471  0.608972  1
  O  O39  1  0.589044  0.481926  0.073606  1
  O  O40  1  0.559312  0.422034  0.586324  1
  O  O41  1  0.727477  0.689338  0.842945  1
  O  O42  1  0.610272  0.925226  0.001476  1
  O  O43  1  0.945064  0.115904  0.939219  1
  O  O44  1  0.277355  0.206992  0.843656  1
  O  O45  1  0.903169  0.086142  0.245267  1
  O  O46  1  0.998990  0.060529  0.391028  1
  O  O47  1  0.928936  0.648158  0.494557  1
  O  O48  1  0.722645  0.793008  0.156344  1
  O  O49  1  0.957847  0.549899  0.178267  1
  O  O50  1  0.767206  0.251307  0.083224  1
  O  O51  1  0.389728  0.074774  0.998524  1
  O  O52  1  0.286912  0.257076  0.336244  1
  O  O53  1  0.342907  0.598059  0.268135  1
  O  O54  1  0.338493  0.727285  0.064629  1
  O  O55  1  0.425543  0.022963  0.175346  1
  O  O56  1  0.909984  0.580801  0.992868  1
  O  O57  1  0.250716  0.801424  0.401582  1
  O  O58  1  0.232794  0.748693  0.916776  1
  O  O59  1  0.749284  0.198576  0.598418  1
  O  O60  1  0.577970  0.912070  0.324011  1
  O  O61  1  0.766436  0.749161  0.334838  1
  O  O62  1  0.422030  0.087930  0.675989  1
  O  O63  1  0.042153  0.450101  0.821733  1
  O  O64  1  0.096831  0.913858  0.754733  1
  O  O65  1  0.272523  0.310662  0.157055  1
  O  O66  1  0.289061  0.782096  0.613818  1
  O  O67  1  0.071064  0.351842  0.505443  1
  O  O68  1  0.657093  0.401941  0.731865  1
  O  O69  1  0.713088  0.742924  0.663756  1
  O  O70  1  0.628993  0.437908  0.278647  1
  O  O71  1  0.900504  0.133195  0.745972  1
