# generated using pymatgen
data_CsAgF3
_symmetry_space_group_name_H-M   'P 1'
_cell_length_a   6.38463377
_cell_length_b   6.38463377
_cell_length_c   6.38463377
_cell_angle_alpha   118.42506045
_cell_angle_beta   118.42506045
_cell_angle_gamma   92.75023232
_symmetry_Int_Tables_number   1
_chemical_formula_structural   CsAgF3
_chemical_formula_sum   'Cs2 Ag2 F6'
_cell_volume   188.17824319
_cell_formula_units_Z   2
loop_
 _symmetry_equiv_pos_site_id
 _symmetry_equiv_pos_as_xyz
  1  'x, y, z'
loop_
 _atom_site_type_symbol
 _atom_site_label
 _atom_site_symmetry_multiplicity
 _atom_site_fract_x
 _atom_site_fract_y
 _atom_site_fract_z
 _atom_site_occupancy
  Cs  Cs0  1  0.750000  0.750000  0.000000  1
  Cs  Cs1  1  0.250000  0.250000  0.000000  1
  Ag  Ag2  1  0.000000  0.500000  0.500000  1
  Ag  Ag3  1  0.500000  0.000000  0.500000  1
  F  F4  1  0.770353  0.729647  0.500000  1
  F  F5  1  0.270353  0.770353  0.040705  1
  F  F6  1  0.750000  0.250000  0.500000  1
  F  F7  1  0.229647  0.270353  0.500000  1
  F  F8  1  0.729647  0.229647  0.959295  1
  F  F9  1  0.250000  0.750000  0.500000  1
