# generated using pymatgen
data_Cd2H2SO6
_symmetry_space_group_name_H-M   'P 1'
_cell_length_a   7.11330919
_cell_length_b   7.62434725
_cell_length_c   11.62449637
_cell_angle_alpha   90.00000000
_cell_angle_beta   119.73359713
_cell_angle_gamma   90.00000000
_symmetry_Int_Tables_number   1
_chemical_formula_structural   Cd2H2SO6
_chemical_formula_sum   'Cd8 H8 S4 O24'
_cell_volume   547.44277274
_cell_formula_units_Z   4
loop_
 _symmetry_equiv_pos_site_id
 _symmetry_equiv_pos_as_xyz
  1  'x, y, z'
loop_
 _atom_site_type_symbol
 _atom_site_label
 _atom_site_symmetry_multiplicity
 _atom_site_fract_x
 _atom_site_fract_y
 _atom_site_fract_z
 _atom_site_occupancy
  Cd  Cd0  1  0.652396  0.536097  0.667557  1
  Cd  Cd1  1  0.167724  0.167541  0.494735  1
  Cd  Cd2  1  0.832276  0.832459  0.505265  1
  Cd  Cd3  1  0.167724  0.332459  0.994735  1
  Cd  Cd4  1  0.347604  0.036097  0.832443  1
  Cd  Cd5  1  0.347604  0.463903  0.332443  1
  Cd  Cd6  1  0.652396  0.963903  0.167557  1
  Cd  Cd7  1  0.832276  0.667541  0.005265  1
  H  H8  1  0.262800  0.673473  0.132231  1
  H  H9  1  0.262800  0.826527  0.632231  1
  H  H10  1  0.569525  0.286489  0.045552  1
  H  H11  1  0.430475  0.713511  0.954448  1
  H  H12  1  0.569525  0.213511  0.545552  1
  H  H13  1  0.430475  0.786489  0.454448  1
  H  H14  1  0.737200  0.173473  0.367769  1
  H  H15  1  0.737200  0.326527  0.867769  1
  S  S16  1  0.808564  0.506754  0.281077  1
  S  S17  1  0.191436  0.006754  0.218923  1
  S  S18  1  0.808564  0.993246  0.781077  1
  S  S19  1  0.191436  0.493246  0.718923  1
  O  O20  1  0.662763  0.405699  0.314182  1
  O  O21  1  0.533453  0.689092  0.475725  1
  O  O22  1  0.662763  0.094301  0.814182  1
  O  O23  1  0.259367  0.983526  0.361557  1
  O  O24  1  0.466547  0.189092  0.024275  1
  O  O25  1  0.180260  0.566364  0.124870  1
  O  O26  1  0.819740  0.433636  0.875130  1
  O  O27  1  0.740633  0.016474  0.638443  1
  O  O28  1  0.466547  0.310908  0.524275  1
  O  O29  1  0.198546  0.301763  0.691514  1
  O  O30  1  0.740633  0.483526  0.138443  1
  O  O31  1  0.180260  0.933636  0.624870  1
  O  O32  1  0.337237  0.905699  0.185818  1
  O  O33  1  0.819740  0.066364  0.375130  1
  O  O34  1  0.801454  0.801763  0.808486  1
  O  O35  1  0.259367  0.516474  0.861557  1
  O  O36  1  0.964259  0.558758  0.634155  1
  O  O37  1  0.035741  0.058758  0.865845  1
  O  O38  1  0.337237  0.594301  0.685818  1
  O  O39  1  0.801454  0.698237  0.308486  1
  O  O40  1  0.533453  0.810908  0.975725  1
  O  O41  1  0.964259  0.941242  0.134155  1
  O  O42  1  0.035741  0.441242  0.365845  1
  O  O43  1  0.198546  0.198237  0.191514  1
