# generated using pymatgen
data_CoH20S2(NO7)2
_symmetry_space_group_name_H-M   'P 1'
_cell_length_a   6.31082809
_cell_length_b   12.63487764
_cell_length_c   9.27938018
_cell_angle_alpha   90.00000000
_cell_angle_beta   107.58343785
_cell_angle_gamma   90.00000000
_symmetry_Int_Tables_number   1
_chemical_formula_structural   CoH20S2(NO7)2
_chemical_formula_sum   'Co2 H40 S4 N4 O28'
_cell_volume   705.33582624
_cell_formula_units_Z   2
loop_
 _symmetry_equiv_pos_site_id
 _symmetry_equiv_pos_as_xyz
  1  'x, y, z'
loop_
 _atom_site_type_symbol
 _atom_site_label
 _atom_site_symmetry_multiplicity
 _atom_site_fract_x
 _atom_site_fract_y
 _atom_site_fract_z
 _atom_site_occupancy
  Co  Co0  1  0.000000  0.000000  0.000000  1
  Co  Co1  1  0.000000  0.500000  0.500000  1
  H  H2  1  0.323827  0.145343  0.027278  1
  H  H3  1  0.676173  0.645343  0.472722  1
  H  H4  1  0.676173  0.854657  0.972722  1
  H  H5  1  0.323827  0.354657  0.527278  1
  H  H6  1  0.339584  0.059770  0.906509  1
  H  H7  1  0.660416  0.559770  0.593491  1
  H  H8  1  0.660416  0.940230  0.093491  1
  H  H9  1  0.339584  0.440230  0.406509  1
  H  H10  1  0.675662  0.092953  0.783100  1
  H  H11  1  0.324338  0.592953  0.716900  1
  H  H12  1  0.324338  0.907047  0.216900  1
  H  H13  1  0.675662  0.407047  0.283100  1
  H  H14  1  0.904062  0.124982  0.751371  1
  H  H15  1  0.095938  0.624982  0.748629  1
  H  H16  1  0.095938  0.875018  0.248629  1
  H  H17  1  0.904062  0.375018  0.251371  1
  H  H18  1  0.005519  0.814600  0.860770  1
  H  H19  1  0.994481  0.314600  0.639230  1
  H  H20  1  0.994481  0.185400  0.139230  1
  H  H21  1  0.005519  0.685400  0.360770  1
  H  H22  1  0.946994  0.901164  0.731370  1
  H  H23  1  0.053006  0.401164  0.768630  1
  H  H24  1  0.053006  0.098836  0.268630  1
  H  H25  1  0.946994  0.598836  0.231370  1
  H  H26  1  0.529062  0.337449  0.926848  1
  H  H27  1  0.470938  0.837449  0.573152  1
  H  H28  1  0.470938  0.662551  0.073152  1
  H  H29  1  0.529062  0.162551  0.426848  1
  H  H30  1  0.597997  0.298992  0.773448  1
  H  H31  1  0.402003  0.798992  0.726552  1
  H  H32  1  0.402003  0.701008  0.226552  1
  H  H33  1  0.597997  0.201008  0.273448  1
  H  H34  1  0.798104  0.334069  0.937502  1
  H  H35  1  0.201896  0.834069  0.562498  1
  H  H36  1  0.201896  0.665931  0.062498  1
  H  H37  1  0.798104  0.165931  0.437502  1
  H  H38  1  0.631100  0.427974  0.829441  1
  H  H39  1  0.368900  0.927974  0.670559  1
  H  H40  1  0.368900  0.572026  0.170559  1
  H  H41  1  0.631100  0.072026  0.329441  1
  S  S42  1  0.741296  0.637379  0.907192  1
  S  S43  1  0.258704  0.137379  0.592808  1
  S  S44  1  0.258704  0.362621  0.092808  1
  S  S45  1  0.741296  0.862621  0.407192  1
  N  N46  1  0.639626  0.349359  0.865810  1
  N  N47  1  0.360374  0.849359  0.634190  1
  N  N48  1  0.360374  0.650641  0.134190  1
  N  N49  1  0.639626  0.150641  0.365810  1
  O  O50  1  0.301960  0.068909  0.001828  1
  O  O51  1  0.698040  0.568909  0.498172  1
  O  O52  1  0.698040  0.931091  0.998172  1
  O  O53  1  0.301960  0.431091  0.501828  1
  O  O54  1  0.834256  0.111010  0.831507  1
  O  O55  1  0.165744  0.611010  0.668493  1
  O  O56  1  0.165744  0.888990  0.168493  1
  O  O57  1  0.834256  0.388990  0.331507  1
  O  O58  1  0.037756  0.888423  0.838092  1
  O  O59  1  0.962244  0.388423  0.661908  1
  O  O60  1  0.962244  0.111577  0.161908  1
  O  O61  1  0.037756  0.611577  0.338092  1
  O  O62  1  0.591393  0.729111  0.910413  1
  O  O63  1  0.408607  0.229111  0.589587  1
  O  O64  1  0.408607  0.270889  0.089587  1
  O  O65  1  0.591393  0.770889  0.410413  1
  O  O66  1  0.788500  0.577136  0.049927  1
  O  O67  1  0.211500  0.077136  0.450073  1
  O  O68  1  0.211500  0.422864  0.950073  1
  O  O69  1  0.788500  0.922864  0.549927  1
  O  O70  1  0.621075  0.566894  0.777646  1
  O  O71  1  0.378925  0.066894  0.722354  1
  O  O72  1  0.378925  0.433106  0.222354  1
  O  O73  1  0.621075  0.933106  0.277646  1
  O  O74  1  0.952763  0.677280  0.883854  1
  O  O75  1  0.047237  0.177280  0.616146  1
  O  O76  1  0.047237  0.322720  0.116146  1
  O  O77  1  0.952763  0.822720  0.383854  1
