# generated using pymatgen
data_KVSO6
_symmetry_space_group_name_H-M   'P 1'
_cell_length_a   5.55844953
_cell_length_b   8.64061821
_cell_length_c   11.26552085
_cell_angle_alpha   90.00000000
_cell_angle_beta   90.00000000
_cell_angle_gamma   90.00000000
_symmetry_Int_Tables_number   1
_chemical_formula_structural   KVSO6
_chemical_formula_sum   'K4 V4 S4 O24'
_cell_volume   541.06539478
_cell_formula_units_Z   4
loop_
 _symmetry_equiv_pos_site_id
 _symmetry_equiv_pos_as_xyz
  1  'x, y, z'
loop_
 _atom_site_type_symbol
 _atom_site_label
 _atom_site_symmetry_multiplicity
 _atom_site_fract_x
 _atom_site_fract_y
 _atom_site_fract_z
 _atom_site_occupancy
  K  K0  1  0.027100  0.189524  0.640254  1
  K  K1  1  0.527100  0.310476  0.359746  1
  K  K2  1  0.472900  0.810476  0.140254  1
  K  K3  1  0.972900  0.689524  0.859746  1
  V  V4  1  0.032201  0.654313  0.437422  1
  V  V5  1  0.532201  0.845687  0.562578  1
  V  V6  1  0.967799  0.154313  0.062578  1
  V  V7  1  0.467799  0.345687  0.937422  1
  S  S8  1  0.533298  0.445979  0.710861  1
  S  S9  1  0.466702  0.945979  0.789139  1
  S  S10  1  0.966702  0.554021  0.210861  1
  S  S11  1  0.033298  0.054021  0.289139  1
  O  O12  1  0.708573  0.370305  0.800006  1
  O  O13  1  0.674327  0.216550  0.008870  1
  O  O14  1  0.791427  0.629695  0.300006  1
  O  O15  1  0.488962  0.853500  0.896383  1
  O  O16  1  0.174327  0.283450  0.991130  1
  O  O17  1  0.197694  0.564194  0.285829  1
  O  O18  1  0.507189  0.509291  0.006047  1
  O  O19  1  0.302306  0.435806  0.785829  1
  O  O20  1  0.697694  0.935806  0.714171  1
  O  O21  1  0.011038  0.146500  0.396383  1
  O  O22  1  0.988962  0.646500  0.103617  1
  O  O23  1  0.802306  0.064194  0.214171  1
  O  O24  1  0.007189  0.990709  0.993953  1
  O  O25  1  0.992811  0.490709  0.506047  1
  O  O26  1  0.325673  0.716550  0.491130  1
  O  O27  1  0.825673  0.783450  0.508870  1
  O  O28  1  0.891989  0.394115  0.192117  1
  O  O29  1  0.511038  0.353500  0.603617  1
  O  O30  1  0.108011  0.894115  0.307883  1
  O  O31  1  0.492811  0.009291  0.493953  1
  O  O32  1  0.608011  0.605885  0.692117  1
  O  O33  1  0.291427  0.870305  0.699994  1
  O  O34  1  0.391989  0.105885  0.807883  1
  O  O35  1  0.208573  0.129695  0.199994  1
