# generated using pymatgen
data_Na3P(SO)2
_symmetry_space_group_name_H-M   'P 1'
_cell_length_a   5.89903937
_cell_length_b   11.42641404
_cell_length_c   17.74190483
_cell_angle_alpha   90.00000000
_cell_angle_beta   90.00000000
_cell_angle_gamma   90.00000000
_symmetry_Int_Tables_number   1
_chemical_formula_structural   Na3P(SO)2
_chemical_formula_sum   'Na24 P8 S16 O16'
_cell_volume   1195.89072262
_cell_formula_units_Z   8
loop_
 _symmetry_equiv_pos_site_id
 _symmetry_equiv_pos_as_xyz
  1  'x, y, z'
loop_
 _atom_site_type_symbol
 _atom_site_label
 _atom_site_symmetry_multiplicity
 _atom_site_fract_x
 _atom_site_fract_y
 _atom_site_fract_z
 _atom_site_occupancy
  Na  Na0  1  0.347673  0.171490  0.946524  1
  Na  Na1  1  0.192253  0.619278  0.736441  1
  Na  Na2  1  0.192253  0.119278  0.763559  1
  Na  Na3  1  0.307747  0.619278  0.236441  1
  Na  Na4  1  0.237296  0.379013  0.591128  1
  Na  Na5  1  0.847673  0.328510  0.946524  1
  Na  Na6  1  0.237296  0.879013  0.908872  1
  Na  Na7  1  0.807747  0.380722  0.263559  1
  Na  Na8  1  0.262704  0.879013  0.408872  1
  Na  Na9  1  0.692253  0.380722  0.763559  1
  Na  Na10  1  0.652327  0.828510  0.053476  1
  Na  Na11  1  0.762704  0.620987  0.408872  1
  Na  Na12  1  0.152327  0.671490  0.053476  1
  Na  Na13  1  0.737296  0.120987  0.591128  1
  Na  Na14  1  0.807747  0.880722  0.236441  1
  Na  Na15  1  0.262704  0.379013  0.091128  1
  Na  Na16  1  0.692253  0.880722  0.736441  1
  Na  Na17  1  0.737296  0.620987  0.908872  1
  Na  Na18  1  0.152327  0.171490  0.446524  1
  Na  Na19  1  0.307747  0.119278  0.263559  1
  Na  Na20  1  0.762704  0.120987  0.091128  1
  Na  Na21  1  0.347673  0.671490  0.553476  1
  Na  Na22  1  0.847673  0.828510  0.553476  1
  Na  Na23  1  0.652327  0.328510  0.446524  1
  P  P24  1  0.823854  0.058562  0.889718  1
  P  P25  1  0.323854  0.941438  0.610282  1
  P  P26  1  0.323854  0.441438  0.889718  1
  P  P27  1  0.676146  0.058562  0.389718  1
  P  P28  1  0.176146  0.941438  0.110282  1
  P  P29  1  0.676146  0.558562  0.110282  1
  P  P30  1  0.823854  0.558562  0.610282  1
  P  P31  1  0.176146  0.441438  0.389718  1
  S  S32  1  0.226084  0.117124  0.602075  1
  S  S33  1  0.311854  0.375919  0.290869  1
  S  S34  1  0.811854  0.124081  0.290869  1
  S  S35  1  0.726084  0.882876  0.897925  1
  S  S36  1  0.726084  0.382876  0.602075  1
  S  S37  1  0.773916  0.882876  0.397925  1
  S  S38  1  0.811854  0.624081  0.209131  1
  S  S39  1  0.226084  0.617124  0.897925  1
  S  S40  1  0.311854  0.875919  0.209131  1
  S  S41  1  0.688146  0.124081  0.790869  1
  S  S42  1  0.188146  0.875919  0.709131  1
  S  S43  1  0.273916  0.117124  0.102075  1
  S  S44  1  0.273916  0.617124  0.397925  1
  S  S45  1  0.688146  0.624081  0.709131  1
  S  S46  1  0.773916  0.382876  0.102075  1
  S  S47  1  0.188146  0.375919  0.790869  1
  O  O48  1  0.585207  0.938164  0.614792  1
  O  O49  1  0.232529  0.869913  0.542808  1
  O  O50  1  0.267471  0.369913  0.457192  1
  O  O51  1  0.267471  0.869913  0.042808  1
  O  O52  1  0.085207  0.061836  0.885208  1
  O  O53  1  0.232529  0.369913  0.957192  1
  O  O54  1  0.585207  0.438164  0.885208  1
  O  O55  1  0.414793  0.061836  0.385208  1
  O  O56  1  0.914793  0.938164  0.114792  1
  O  O57  1  0.414793  0.561836  0.114792  1
  O  O58  1  0.732529  0.130087  0.957192  1
  O  O59  1  0.085207  0.561836  0.614792  1
  O  O60  1  0.914793  0.438164  0.385208  1
  O  O61  1  0.767471  0.130087  0.457192  1
  O  O62  1  0.732529  0.630087  0.542808  1
  O  O63  1  0.767471  0.630087  0.042808  1
