# generated using pymatgen
data_V2NiSe4
_symmetry_space_group_name_H-M   'P 1'
_cell_length_a   3.57333216
_cell_length_b   3.57333216
_cell_length_c   11.91013550
_cell_angle_alpha   88.82408718
_cell_angle_beta   91.17591282
_cell_angle_gamma   119.78848589
_symmetry_Int_Tables_number   1
_chemical_formula_structural   V2NiSe4
_chemical_formula_sum   'V2 Ni1 Se4'
_cell_volume   131.94519315
_cell_formula_units_Z   1
loop_
 _symmetry_equiv_pos_site_id
 _symmetry_equiv_pos_as_xyz
  1  'x, y, z'
loop_
 _atom_site_type_symbol
 _atom_site_label
 _atom_site_symmetry_multiplicity
 _atom_site_fract_x
 _atom_site_fract_y
 _atom_site_fract_z
 _atom_site_occupancy
  V  V0  1  0.988721  0.011279  0.752293  1
  V  V1  1  0.011279  0.988721  0.247707  1
  Ni  Ni2  1  0.000000  0.000000  0.000000  1
  Se  Se3  1  0.660565  0.339435  0.884160  1
  Se  Se4  1  0.339435  0.660565  0.115840  1
  Se  Se5  1  0.316211  0.683789  0.632610  1
  Se  Se6  1  0.683789  0.316211  0.367390  1
