# generated using pymatgen
data_Zr3(Al2C3)2
_symmetry_space_group_name_H-M   'P 1'
_cell_length_a   16.54893901
_cell_length_b   16.54893901
_cell_length_c   16.54893901
_cell_angle_alpha   11.64260867
_cell_angle_beta   11.64260867
_cell_angle_gamma   11.64260867
_symmetry_Int_Tables_number   1
_chemical_formula_structural   Zr3(Al2C3)2
_chemical_formula_sum   'Zr3 Al4 C6'
_cell_volume   160.39929697
_cell_formula_units_Z   1
loop_
 _symmetry_equiv_pos_site_id
 _symmetry_equiv_pos_as_xyz
  1  'x, y, z'
loop_
 _atom_site_type_symbol
 _atom_site_label
 _atom_site_symmetry_multiplicity
 _atom_site_fract_x
 _atom_site_fract_y
 _atom_site_fract_z
 _atom_site_occupancy
  Zr  Zr0  1  0.000000  1.000000  0.000000  1
  Zr  Zr1  1  0.388270  0.388270  0.388270  1
  Zr  Zr2  1  0.611730  0.611730  0.611730  1
  Al  Al3  1  0.852441  0.852441  0.852441  1
  Al  Al4  1  0.768510  0.768510  0.768510  1
  Al  Al5  1  0.231490  0.231490  0.231490  1
  Al  Al6  1  0.147559  0.147559  0.147559  1
  C  C7  1  0.808135  0.808135  0.808135  1
  C  C8  1  0.916282  0.916282  0.916282  1
  C  C9  1  0.191865  0.191865  0.191865  1
  C  C10  1  0.305486  0.305486  0.305486  1
  C  C11  1  0.083718  0.083718  0.083718  1
  C  C12  1  0.694514  0.694514  0.694514  1
