# generated using pymatgen
data_Ba(InAu)2
_symmetry_space_group_name_H-M   'P 1'
_cell_length_a   4.84139579
_cell_length_b   8.94258945
_cell_length_c   12.60150415
_cell_angle_alpha   90.00000000
_cell_angle_beta   90.00000000
_cell_angle_gamma   90.00000000
_symmetry_Int_Tables_number   1
_chemical_formula_structural   Ba(InAu)2
_chemical_formula_sum   'Ba4 In8 Au8'
_cell_volume   545.57726952
_cell_formula_units_Z   4
loop_
 _symmetry_equiv_pos_site_id
 _symmetry_equiv_pos_as_xyz
  1  'x, y, z'
loop_
 _atom_site_type_symbol
 _atom_site_label
 _atom_site_symmetry_multiplicity
 _atom_site_fract_x
 _atom_site_fract_y
 _atom_site_fract_z
 _atom_site_occupancy
  Ba  Ba0  1  0.750000  0.220117  0.166398  1
  Ba  Ba1  1  0.250000  0.279883  0.666398  1
  Ba  Ba2  1  0.250000  0.779883  0.833602  1
  Ba  Ba3  1  0.750000  0.720117  0.333602  1
  In  In4  1  0.250000  0.859440  0.141553  1
  In  In5  1  0.250000  0.359440  0.358447  1
  In  In6  1  0.750000  0.101858  0.450694  1
  In  In7  1  0.750000  0.140560  0.858447  1
  In  In8  1  0.750000  0.640560  0.641553  1
  In  In9  1  0.250000  0.398142  0.950694  1
  In  In10  1  0.750000  0.601858  0.049306  1
  In  In11  1  0.250000  0.898142  0.549306  1
  Au  Au12  1  0.250000  0.589851  0.521058  1
  Au  Au13  1  0.750000  0.973984  0.663880  1
  Au  Au14  1  0.750000  0.473984  0.836120  1
  Au  Au15  1  0.250000  0.026016  0.336120  1
  Au  Au16  1  0.250000  0.526016  0.163880  1
  Au  Au17  1  0.750000  0.410149  0.478942  1
  Au  Au18  1  0.250000  0.089851  0.978942  1
  Au  Au19  1  0.750000  0.910149  0.021058  1
