# generated using pymatgen
data_V4O7
_symmetry_space_group_name_H-M   'P 1'
_cell_length_a   5.67480446
_cell_length_b   6.93168259
_cell_length_c   7.11037012
_cell_angle_alpha   64.44786214
_cell_angle_beta   69.99595655
_cell_angle_gamma   75.06235221
_symmetry_Int_Tables_number   1
_chemical_formula_structural   V4O7
_chemical_formula_sum   'V8 O14'
_cell_volume   235.10097417
_cell_formula_units_Z   2
loop_
 _symmetry_equiv_pos_site_id
 _symmetry_equiv_pos_as_xyz
  1  'x, y, z'
loop_
 _atom_site_type_symbol
 _atom_site_label
 _atom_site_symmetry_multiplicity
 _atom_site_fract_x
 _atom_site_fract_y
 _atom_site_fract_z
 _atom_site_occupancy
  V  V0  1  0.189941  0.095241  0.255097  1
  V  V1  1  0.714766  0.373111  0.416322  1
  V  V2  1  0.285234  0.626889  0.583678  1
  V  V3  1  0.285209  0.620587  0.085285  1
  V  V4  1  0.714791  0.379413  0.914715  1
  V  V5  1  0.183806  0.092499  0.759641  1
  V  V6  1  0.816194  0.907501  0.240359  1
  V  V7  1  0.810059  0.904759  0.744903  1
  O  O8  1  0.800161  0.055550  0.436004  1
  O  O9  1  0.822138  0.222434  0.704779  1
  O  O10  1  0.981694  0.828572  0.975914  1
  O  O11  1  0.082959  0.384602  0.260105  1
  O  O12  1  0.482787  0.888961  0.863696  1
  O  O13  1  0.018306  0.171428  0.024086  1
  O  O14  1  0.400521  0.531984  0.839129  1
  O  O15  1  0.177862  0.777566  0.295221  1
  O  O16  1  0.358441  0.333712  0.589629  1
  O  O17  1  0.917041  0.615398  0.739895  1
  O  O18  1  0.641559  0.666288  0.410371  1
  O  O19  1  0.199839  0.944450  0.563996  1
  O  O20  1  0.517213  0.111039  0.136304  1
  O  O21  1  0.599479  0.468016  0.160871  1
