# generated using pymatgen
data_Cs2NaAl(PO4)2
_symmetry_space_group_name_H-M   'P 1'
_cell_length_a   11.20211887
_cell_length_b   9.35255836
_cell_length_c   19.23402640
_cell_angle_alpha   90.00000000
_cell_angle_beta   90.05949815
_cell_angle_gamma   90.00000000
_symmetry_Int_Tables_number   1
_chemical_formula_structural   Cs2NaAl(PO4)2
_chemical_formula_sum   'Cs16 Na8 Al8 P16 O64'
_cell_volume   2015.11844107
_cell_formula_units_Z   8
loop_
 _symmetry_equiv_pos_site_id
 _symmetry_equiv_pos_as_xyz
  1  'x, y, z'
loop_
 _atom_site_type_symbol
 _atom_site_label
 _atom_site_symmetry_multiplicity
 _atom_site_fract_x
 _atom_site_fract_y
 _atom_site_fract_z
 _atom_site_occupancy
  Cs  Cs0  1  0.915044  0.999785  0.881253  1
  Cs  Cs1  1  0.407282  0.994771  0.397691  1
  Cs  Cs2  1  0.815309  0.541061  0.853766  1
  Cs  Cs3  1  0.815309  0.958939  0.353766  1
  Cs  Cs4  1  0.184691  0.041061  0.646234  1
  Cs  Cs5  1  0.184691  0.458939  0.146234  1
  Cs  Cs6  1  0.592718  0.005229  0.602309  1
  Cs  Cs7  1  0.686548  0.965981  0.133281  1
  Cs  Cs8  1  0.592718  0.494771  0.102309  1
  Cs  Cs9  1  0.084956  0.000215  0.118747  1
  Cs  Cs10  1  0.084956  0.499785  0.618747  1
  Cs  Cs11  1  0.407282  0.505229  0.897691  1
  Cs  Cs12  1  0.313452  0.034019  0.866719  1
  Cs  Cs13  1  0.915044  0.500215  0.381253  1
  Cs  Cs14  1  0.686548  0.534019  0.633281  1
  Cs  Cs15  1  0.313452  0.465981  0.366719  1
  Na  Na16  1  0.089428  0.353026  0.791433  1
  Na  Na17  1  0.397255  0.169658  0.039405  1
  Na  Na18  1  0.602745  0.830342  0.960595  1
  Na  Na19  1  0.397255  0.330342  0.539405  1
  Na  Na20  1  0.910572  0.853026  0.708567  1
  Na  Na21  1  0.910572  0.646974  0.208567  1
  Na  Na22  1  0.602745  0.669658  0.460595  1
  Na  Na23  1  0.089428  0.146974  0.291433  1
  Al  Al24  1  0.615689  0.173527  0.789561  1
  Al  Al25  1  0.118080  0.839911  0.458733  1
  Al  Al26  1  0.881920  0.339911  0.041267  1
  Al  Al27  1  0.384311  0.826473  0.210439  1
  Al  Al28  1  0.881920  0.160089  0.541267  1
  Al  Al29  1  0.384311  0.673527  0.710439  1
  Al  Al30  1  0.118080  0.660089  0.958733  1
  Al  Al31  1  0.615689  0.326473  0.289561  1
  P  P32  1  0.146983  0.770942  0.299041  1
  P  P33  1  0.121422  0.312493  0.960932  1
  P  P34  1  0.878578  0.812493  0.539068  1
  P  P35  1  0.396673  0.174606  0.217996  1
  P  P36  1  0.336807  0.788731  0.047631  1
  P  P37  1  0.603327  0.825394  0.782004  1
  P  P38  1  0.878578  0.687507  0.039068  1
  P  P39  1  0.663193  0.288731  0.452369  1
  P  P40  1  0.146983  0.729058  0.799041  1
  P  P41  1  0.853017  0.270942  0.200959  1
  P  P42  1  0.121422  0.187507  0.460932  1
  P  P43  1  0.663193  0.211269  0.952369  1
  P  P44  1  0.603327  0.674606  0.282004  1
  P  P45  1  0.396673  0.325394  0.717996  1
  P  P46  1  0.336807  0.711269  0.547631  1
  P  P47  1  0.853017  0.229058  0.700959  1
  O  O48  1  0.901303  0.771695  0.105721  1
  O  O49  1  0.423274  0.491735  0.713362  1
  O  O50  1  0.677891  0.277131  0.370252  1
  O  O51  1  0.022254  0.228742  0.516799  1
  O  O52  1  0.098697  0.228305  0.894279  1
  O  O53  1  0.101708  0.476328  0.943854  1
  O  O54  1  0.243389  0.208901  0.493739  1
  O  O55  1  0.717349  0.282185  0.223908  1
  O  O56  1  0.243389  0.291099  0.993739  1
  O  O57  1  0.677891  0.222869  0.870252  1
  O  O58  1  0.423274  0.008265  0.213362  1
  O  O59  1  0.898292  0.976328  0.556146  1
  O  O60  1  0.431313  0.254279  0.649616  1
  O  O61  1  0.158881  0.746234  0.881259  1
  O  O62  1  0.771643  0.307253  0.978337  1
  O  O63  1  0.158881  0.753766  0.381259  1
  O  O64  1  0.322109  0.777131  0.129748  1
  O  O65  1  0.906257  0.132822  0.229521  1
  O  O66  1  0.731976  0.701278  0.259577  1
  O  O67  1  0.093743  0.867178  0.770479  1
  O  O68  1  0.077723  0.905055  0.280508  1
  O  O69  1  0.282651  0.782185  0.276092  1
  O  O70  1  0.679751  0.443366  0.475420  1
  O  O71  1  0.268024  0.298722  0.740423  1
  O  O72  1  0.841119  0.253766  0.118741  1
  O  O73  1  0.898292  0.523672  0.056146  1
  O  O74  1  0.482815  0.227214  0.278790  1
  O  O75  1  0.546031  0.220407  0.475087  1
  O  O76  1  0.101708  0.023672  0.443854  1
  O  O77  1  0.922277  0.094945  0.719492  1
  O  O78  1  0.517185  0.727214  0.221210  1
  O  O79  1  0.320249  0.556634  0.524580  1
  O  O80  1  0.093743  0.632822  0.270479  1
  O  O81  1  0.228357  0.807253  0.521663  1
  O  O82  1  0.977746  0.728742  0.983201  1
  O  O83  1  0.731976  0.798722  0.759577  1
  O  O84  1  0.922277  0.405055  0.219492  1
  O  O85  1  0.320249  0.943366  0.024580  1
  O  O86  1  0.771643  0.192747  0.478337  1
  O  O87  1  0.576726  0.508265  0.286638  1
  O  O88  1  0.453969  0.779593  0.524913  1
  O  O89  1  0.098697  0.271695  0.394279  1
  O  O90  1  0.717349  0.217815  0.723908  1
  O  O91  1  0.282651  0.717815  0.776092  1
  O  O92  1  0.517185  0.772786  0.721210  1
  O  O93  1  0.977746  0.771258  0.483201  1
  O  O94  1  0.431313  0.245721  0.149616  1
  O  O95  1  0.546031  0.279593  0.975087  1
  O  O96  1  0.228357  0.692747  0.021663  1
  O  O97  1  0.568687  0.745721  0.350384  1
  O  O98  1  0.482815  0.272786  0.778790  1
  O  O99  1  0.268024  0.201278  0.240423  1
  O  O100  1  0.756611  0.708901  0.006261  1
  O  O101  1  0.841119  0.246234  0.618741  1
  O  O102  1  0.453969  0.720407  0.024913  1
  O  O103  1  0.077723  0.594945  0.780508  1
  O  O104  1  0.901303  0.728305  0.605721  1
  O  O105  1  0.322109  0.722869  0.629748  1
  O  O106  1  0.576726  0.991735  0.786638  1
  O  O107  1  0.568687  0.754279  0.850384  1
  O  O108  1  0.679751  0.056634  0.975420  1
  O  O109  1  0.756611  0.791099  0.506261  1
  O  O110  1  0.906257  0.367178  0.729521  1
  O  O111  1  0.022254  0.271258  0.016799  1
