# generated using pymatgen
data_K5InPb8
_symmetry_space_group_name_H-M   'P 1'
_cell_length_a   13.60466148
_cell_length_b   13.60466148
_cell_length_c   13.60466148
_cell_angle_alpha   30.11230930
_cell_angle_beta   30.11230930
_cell_angle_gamma   30.11230930
_symmetry_Int_Tables_number   1
_chemical_formula_structural   K5InPb8
_chemical_formula_sum   'K5 In1 Pb8'
_cell_volume   561.49357239
_cell_formula_units_Z   1
loop_
 _symmetry_equiv_pos_site_id
 _symmetry_equiv_pos_as_xyz
  1  'x, y, z'
loop_
 _atom_site_type_symbol
 _atom_site_label
 _atom_site_symmetry_multiplicity
 _atom_site_fract_x
 _atom_site_fract_y
 _atom_site_fract_z
 _atom_site_occupancy
  K  K0  1  0.681921  0.681921  0.681921  1
  K  K1  1  0.500000  0.500000  0.500000  1
  K  K2  1  0.219829  0.219829  0.219829  1
  K  K3  1  0.318079  0.318079  0.318079  1
  K  K4  1  0.780171  0.780171  0.780171  1
  In  In5  1  0.000000  0.000000  0.000000  1
  Pb  Pb6  1  0.224124  0.749513  0.224124  1
  Pb  Pb7  1  0.128420  0.128420  0.128420  1
  Pb  Pb8  1  0.775876  0.775876  0.250487  1
  Pb  Pb9  1  0.749513  0.224124  0.224124  1
  Pb  Pb10  1  0.871580  0.871580  0.871580  1
  Pb  Pb11  1  0.224124  0.224124  0.749513  1
  Pb  Pb12  1  0.250488  0.775876  0.775876  1
  Pb  Pb13  1  0.775876  0.250488  0.775876  1
