# generated using pymatgen
data_KCuPO4
_symmetry_space_group_name_H-M   'P 1'
_cell_length_a   5.08520097
_cell_length_b   9.69380777
_cell_length_c   8.23467497
_cell_angle_alpha   90.00000000
_cell_angle_beta   93.24997113
_cell_angle_gamma   90.00000000
_symmetry_Int_Tables_number   1
_chemical_formula_structural   KCuPO4
_chemical_formula_sum   'K4 Cu4 P4 O16'
_cell_volume   405.27512463
_cell_formula_units_Z   4
loop_
 _symmetry_equiv_pos_site_id
 _symmetry_equiv_pos_as_xyz
  1  'x, y, z'
loop_
 _atom_site_type_symbol
 _atom_site_label
 _atom_site_symmetry_multiplicity
 _atom_site_fract_x
 _atom_site_fract_y
 _atom_site_fract_z
 _atom_site_occupancy
  K  K0  1  0.227504  0.229733  0.258593  1
  K  K1  1  0.772496  0.729733  0.741407  1
  K  K2  1  0.200416  0.386921  0.777786  1
  K  K3  1  0.799584  0.886921  0.222214  1
  Cu  Cu4  1  0.768185  0.089511  0.574185  1
  Cu  Cu5  1  0.231815  0.589511  0.425815  1
  Cu  Cu6  1  0.361034  0.994644  0.905410  1
  Cu  Cu7  1  0.638966  0.494644  0.094590  1
  P  P8  1  0.740745  0.407814  0.459884  1
  P  P9  1  0.259255  0.907814  0.540116  1
  P  P10  1  0.731220  0.189417  0.929486  1
  P  P11  1  0.268780  0.689417  0.070514  1
  O  O12  1  0.441336  0.425655  0.489614  1
  O  O13  1  0.558664  0.925655  0.510386  1
  O  O14  1  0.777765  0.384412  0.275348  1
  O  O15  1  0.222235  0.884412  0.724652  1
  O  O16  1  0.854829  0.280332  0.551304  1
  O  O17  1  0.145171  0.780332  0.448696  1
  O  O18  1  0.100436  0.034104  0.471735  1
  O  O19  1  0.899564  0.534104  0.528265  1
  O  O20  1  0.687938  0.347130  0.927257  1
  O  O21  1  0.312062  0.847130  0.072743  1
  O  O22  1  0.022971  0.153178  0.936541  1
  O  O23  1  0.977029  0.653178  0.063459  1
  O  O24  1  0.575333  0.122419  0.771564  1
  O  O25  1  0.424667  0.622419  0.228436  1
  O  O26  1  0.577093  0.113191  0.062354  1
  O  O27  1  0.422907  0.613191  0.937646  1
