# generated using pymatgen
data_Ba3Ho2Cu2PtO10
_symmetry_space_group_name_H-M   'P 1'
_cell_length_a   6.94151455
_cell_length_b   6.94151455
_cell_length_c   7.48554469
_cell_angle_alpha   75.89043311
_cell_angle_beta   104.10956689
_cell_angle_gamma   130.08357331
_symmetry_Int_Tables_number   1
_chemical_formula_structural   Ba3Ho2Cu2PtO10
_chemical_formula_sum   'Ba3 Ho2 Cu2 Pt1 O10'
_cell_volume   265.80140659
_cell_formula_units_Z   1
loop_
 _symmetry_equiv_pos_site_id
 _symmetry_equiv_pos_as_xyz
  1  'x, y, z'
loop_
 _atom_site_type_symbol
 _atom_site_label
 _atom_site_symmetry_multiplicity
 _atom_site_fract_x
 _atom_site_fract_y
 _atom_site_fract_z
 _atom_site_occupancy
  Ba  Ba0  1  0.152758  0.847242  0.538047  1
  Ba  Ba1  1  0.000000  0.000000  0.000000  1
  Ba  Ba2  1  0.847242  0.152758  0.461953  1
  Ho  Ho3  1  0.688827  0.311173  0.874278  1
  Ho  Ho4  1  0.311173  0.688827  0.125722  1
  Cu  Cu5  1  0.409870  0.590130  0.800473  1
  Cu  Cu6  1  0.590130  0.409870  0.199527  1
  Pt  Pt7  1  0.500000  0.500000  0.500000  1
  O  O8  1  0.738238  0.701924  0.719467  1
  O  O9  1  0.913424  0.545215  0.125035  1
  O  O10  1  0.667315  0.332685  0.551913  1
  O  O11  1  0.454785  0.086576  0.125035  1
  O  O12  1  0.545215  0.913424  0.874965  1
  O  O13  1  0.086576  0.454785  0.874965  1
  O  O14  1  0.261762  0.298076  0.280533  1
  O  O15  1  0.332685  0.667315  0.448087  1
  O  O16  1  0.701924  0.738238  0.280533  1
  O  O17  1  0.298076  0.261762  0.719467  1
