# generated using pymatgen
data_PO2
_symmetry_space_group_name_H-M   'P 1'
_cell_length_a   7.23359108
_cell_length_b   7.23359108
_cell_length_c   7.29814423
_cell_angle_alpha   85.03140226
_cell_angle_beta   94.96859774
_cell_angle_gamma   86.87004504
_symmetry_Int_Tables_number   1
_chemical_formula_structural   PO2
_chemical_formula_sum   'P8 O16'
_cell_volume   378.26702039
_cell_formula_units_Z   8
loop_
 _symmetry_equiv_pos_site_id
 _symmetry_equiv_pos_as_xyz
  1  'x, y, z'
loop_
 _atom_site_type_symbol
 _atom_site_label
 _atom_site_symmetry_multiplicity
 _atom_site_fract_x
 _atom_site_fract_y
 _atom_site_fract_z
 _atom_site_occupancy
  P  P0  1  0.743875  0.021803  0.176389  1
  P  P1  1  0.978197  0.256125  0.676389  1
  P  P2  1  0.646696  0.724837  0.440461  1
  P  P3  1  0.256125  0.978197  0.823611  1
  P  P4  1  0.353304  0.275163  0.559539  1
  P  P5  1  0.724837  0.646696  0.059539  1
  P  P6  1  0.275163  0.353304  0.940461  1
  P  P7  1  0.021803  0.743875  0.323611  1
  O  O8  1  0.618816  0.618816  0.250000  1
  O  O9  1  0.631543  0.948445  0.344686  1
  O  O10  1  0.699877  0.882663  0.021467  1
  O  O11  1  0.959286  0.959286  0.250000  1
  O  O12  1  0.368457  0.051555  0.655314  1
  O  O13  1  0.117337  0.300123  0.521467  1
  O  O14  1  0.040714  0.040714  0.750000  1
  O  O15  1  0.381184  0.381184  0.750000  1
  O  O16  1  0.286255  0.780887  0.885767  1
  O  O17  1  0.051555  0.368457  0.844686  1
  O  O18  1  0.948445  0.631543  0.155314  1
  O  O19  1  0.713745  0.219113  0.114233  1
  O  O20  1  0.219113  0.713745  0.385767  1
  O  O21  1  0.882663  0.699877  0.478533  1
  O  O22  1  0.300123  0.117337  0.978533  1
  O  O23  1  0.780887  0.286255  0.614233  1
