# generated using pymatgen
data_LiCaBO3
_symmetry_space_group_name_H-M   'P 1'
_cell_length_a   6.12726625
_cell_length_b   6.23753383
_cell_length_c   13.34483730
_cell_angle_alpha   90.00000000
_cell_angle_beta   90.00000000
_cell_angle_gamma   90.00000000
_symmetry_Int_Tables_number   1
_chemical_formula_structural   LiCaBO3
_chemical_formula_sum   'Li8 Ca8 B8 O24'
_cell_volume   510.02674405
_cell_formula_units_Z   8
loop_
 _symmetry_equiv_pos_site_id
 _symmetry_equiv_pos_as_xyz
  1  'x, y, z'
loop_
 _atom_site_type_symbol
 _atom_site_label
 _atom_site_symmetry_multiplicity
 _atom_site_fract_x
 _atom_site_fract_y
 _atom_site_fract_z
 _atom_site_occupancy
  Li  Li0  1  0.515594  0.209089  0.751985  1
  Li  Li1  1  0.484406  0.290911  0.251985  1
  Li  Li2  1  0.984406  0.709089  0.248015  1
  Li  Li3  1  0.015594  0.790911  0.748015  1
  Li  Li4  1  0.015594  0.290911  0.751985  1
  Li  Li5  1  0.484406  0.790911  0.248015  1
  Li  Li6  1  0.515594  0.709089  0.748015  1
  Li  Li7  1  0.984406  0.209089  0.251985  1
  Ca  Ca8  1  0.248902  0.509627  0.070268  1
  Ca  Ca9  1  0.751098  0.990373  0.570268  1
  Ca  Ca10  1  0.251098  0.009627  0.929732  1
  Ca  Ca11  1  0.748902  0.990373  0.070268  1
  Ca  Ca12  1  0.251098  0.509627  0.570268  1
  Ca  Ca13  1  0.748902  0.490373  0.429732  1
  Ca  Ca14  1  0.248902  0.009627  0.429732  1
  Ca  Ca15  1  0.751098  0.490373  0.929732  1
  B  B16  1  0.750072  0.482506  0.647823  1
  B  B17  1  0.750072  0.982506  0.852177  1
  B  B18  1  0.250072  0.017494  0.647823  1
  B  B19  1  0.749928  0.482506  0.147823  1
  B  B20  1  0.249928  0.017494  0.147823  1
  B  B21  1  0.250072  0.517494  0.852177  1
  B  B22  1  0.749928  0.982506  0.352177  1
  B  B23  1  0.249928  0.517494  0.352177  1
  O  O24  1  0.398286  0.144252  0.595161  1
  O  O25  1  0.101714  0.644252  0.404839  1
  O  O26  1  0.118066  0.373837  0.904773  1
  O  O27  1  0.618066  0.626163  0.595227  1
  O  O28  1  0.898286  0.855748  0.904839  1
  O  O29  1  0.898286  0.355748  0.595161  1
  O  O30  1  0.266270  0.534791  0.249149  1
  O  O31  1  0.766270  0.965209  0.249149  1
  O  O32  1  0.233730  0.034791  0.750851  1
  O  O33  1  0.733730  0.465209  0.750851  1
  O  O34  1  0.766270  0.465209  0.250851  1
  O  O35  1  0.101714  0.144252  0.095161  1
  O  O36  1  0.118066  0.873837  0.595227  1
  O  O37  1  0.233730  0.534791  0.749149  1
  O  O38  1  0.601714  0.855748  0.404839  1
  O  O39  1  0.266270  0.034791  0.250851  1
  O  O40  1  0.601714  0.355748  0.095161  1
  O  O41  1  0.381934  0.373837  0.404773  1
  O  O42  1  0.381934  0.873837  0.095227  1
  O  O43  1  0.618066  0.126163  0.904773  1
  O  O44  1  0.398286  0.644252  0.904839  1
  O  O45  1  0.881934  0.126163  0.404773  1
  O  O46  1  0.881934  0.626163  0.095227  1
  O  O47  1  0.733730  0.965209  0.749149  1
