# generated using pymatgen
data_Nb3Co2Si
_symmetry_space_group_name_H-M   'P 1'
_cell_length_a   7.91305542
_cell_length_b   7.91305542
_cell_length_c   7.91305542
_cell_angle_alpha   60.00000000
_cell_angle_beta   60.00000000
_cell_angle_gamma   60.00000000
_symmetry_Int_Tables_number   1
_chemical_formula_structural   Nb3Co2Si
_chemical_formula_sum   'Nb12 Co8 Si4'
_cell_volume   350.36250582
_cell_formula_units_Z   4
loop_
 _symmetry_equiv_pos_site_id
 _symmetry_equiv_pos_as_xyz
  1  'x, y, z'
loop_
 _atom_site_type_symbol
 _atom_site_label
 _atom_site_symmetry_multiplicity
 _atom_site_fract_x
 _atom_site_fract_y
 _atom_site_fract_z
 _atom_site_occupancy
  Nb  Nb0  1  0.048580  0.451420  0.451420  1
  Nb  Nb1  1  0.201420  0.798580  0.201420  1
  Nb  Nb2  1  0.798580  0.201420  0.798580  1
  Nb  Nb3  1  0.798580  0.201420  0.201420  1
  Nb  Nb4  1  0.798580  0.798580  0.201420  1
  Nb  Nb5  1  0.201420  0.201420  0.798580  1
  Nb  Nb6  1  0.451420  0.451420  0.048580  1
  Nb  Nb7  1  0.048580  0.451420  0.048580  1
  Nb  Nb8  1  0.451420  0.048580  0.451420  1
  Nb  Nb9  1  0.048580  0.048580  0.451420  1
  Nb  Nb10  1  0.201420  0.798580  0.798580  1
  Nb  Nb11  1  0.451420  0.048580  0.048580  1
  Co  Co12  1  0.417391  0.747826  0.417391  1
  Co  Co13  1  0.832609  0.832609  0.832609  1
  Co  Co14  1  0.832609  0.832609  0.502174  1
  Co  Co15  1  0.502174  0.832609  0.832609  1
  Co  Co16  1  0.417391  0.417391  0.747826  1
  Co  Co17  1  0.747826  0.417391  0.417391  1
  Co  Co18  1  0.417391  0.417391  0.417391  1
  Co  Co19  1  0.832609  0.502174  0.832609  1
  Si  Si20  1  0.625000  0.125000  0.625000  1
  Si  Si21  1  0.625000  0.625000  0.625000  1
  Si  Si22  1  0.625000  0.625000  0.125000  1
  Si  Si23  1  0.125000  0.625000  0.625000  1
