# generated using pymatgen
data_Cu4GeS4
_symmetry_space_group_name_H-M   'P 1'
_cell_length_a   9.82329870
_cell_length_b   13.20522398
_cell_length_c   10.04083716
_cell_angle_alpha   90.00000000
_cell_angle_beta   100.65515616
_cell_angle_gamma   90.00000000
_symmetry_Int_Tables_number   1
_chemical_formula_structural   Cu4GeS4
_chemical_formula_sum   'Cu32 Ge8 S32'
_cell_volume   1280.02823776
_cell_formula_units_Z   8
loop_
 _symmetry_equiv_pos_site_id
 _symmetry_equiv_pos_as_xyz
  1  'x, y, z'
loop_
 _atom_site_type_symbol
 _atom_site_label
 _atom_site_symmetry_multiplicity
 _atom_site_fract_x
 _atom_site_fract_y
 _atom_site_fract_z
 _atom_site_occupancy
  Cu  Cu0  1  0.336937  0.635476  0.075102  1
  Cu  Cu1  1  0.269644  0.411643  0.509290  1
  Cu  Cu2  1  0.428380  0.661346  0.429758  1
  Cu  Cu3  1  0.113808  0.547350  0.971116  1
  Cu  Cu4  1  0.081836  0.186817  0.512350  1
  Cu  Cu5  1  0.804200  0.344057  0.318924  1
  Cu  Cu6  1  0.838857  0.816530  0.218337  1
  Cu  Cu7  1  0.918164  0.813183  0.487650  1
  Cu  Cu8  1  0.678320  0.655976  0.175583  1
  Cu  Cu9  1  0.571620  0.338654  0.570242  1
  Cu  Cu10  1  0.321680  0.344024  0.824417  1
  Cu  Cu11  1  0.161143  0.183470  0.781663  1
  Cu  Cu12  1  0.195800  0.844057  0.181076  1
  Cu  Cu13  1  0.336937  0.864524  0.575102  1
  Cu  Cu14  1  0.571620  0.161346  0.070242  1
  Cu  Cu15  1  0.321680  0.155976  0.324417  1
  Cu  Cu16  1  0.663063  0.364524  0.924898  1
  Cu  Cu17  1  0.195800  0.655943  0.681076  1
  Cu  Cu18  1  0.886192  0.047350  0.528884  1
  Cu  Cu19  1  0.161143  0.316530  0.281663  1
  Cu  Cu20  1  0.730356  0.911643  0.990710  1
  Cu  Cu21  1  0.678320  0.844024  0.675583  1
  Cu  Cu22  1  0.081836  0.313183  0.012350  1
  Cu  Cu23  1  0.838857  0.683470  0.718337  1
  Cu  Cu24  1  0.663063  0.135476  0.424898  1
  Cu  Cu25  1  0.804200  0.155943  0.818924  1
  Cu  Cu26  1  0.428380  0.838654  0.929758  1
  Cu  Cu27  1  0.269644  0.088357  0.009290  1
  Cu  Cu28  1  0.918164  0.686817  0.987650  1
  Cu  Cu29  1  0.886192  0.452650  0.028884  1
  Cu  Cu30  1  0.730356  0.588357  0.490710  1
  Cu  Cu31  1  0.113808  0.952650  0.471116  1
  Ge  Ge32  1  0.939094  0.412921  0.683753  1
  Ge  Ge33  1  0.552095  0.912619  0.306850  1
  Ge  Ge34  1  0.552095  0.587381  0.806850  1
  Ge  Ge35  1  0.060906  0.587079  0.316247  1
  Ge  Ge36  1  0.447905  0.087381  0.693150  1
  Ge  Ge37  1  0.939094  0.087079  0.183753  1
  Ge  Ge38  1  0.060906  0.912921  0.816247  1
  Ge  Ge39  1  0.447905  0.412619  0.193150  1
  S  S40  1  0.867342  0.829672  0.861201  1
  S  S41  1  0.264375  0.415470  0.010881  1
  S  S42  1  0.628697  0.173988  0.634044  1
  S  S43  1  0.497199  0.577451  0.250318  1
  S  S44  1  0.394781  0.175087  0.876958  1
  S  S45  1  0.132658  0.170328  0.138799  1
  S  S46  1  0.011990  0.927746  0.253865  1
  S  S47  1  0.120845  0.824624  0.634586  1
  S  S48  1  0.011990  0.572254  0.753865  1
  S  S49  1  0.867342  0.670328  0.361201  1
  S  S50  1  0.120845  0.675376  0.134586  1
  S  S51  1  0.605219  0.675087  0.623042  1
  S  S52  1  0.879155  0.175376  0.365414  1
  S  S53  1  0.242594  0.918184  0.991782  1
  S  S54  1  0.394781  0.324913  0.376958  1
  S  S55  1  0.735625  0.584530  0.989119  1
  S  S56  1  0.132658  0.329672  0.638799  1
  S  S57  1  0.502801  0.422549  0.749682  1
  S  S58  1  0.988010  0.072254  0.746135  1
  S  S59  1  0.371303  0.673988  0.865956  1
  S  S60  1  0.879155  0.324624  0.865414  1
  S  S61  1  0.988010  0.427746  0.246135  1
  S  S62  1  0.502801  0.077451  0.249682  1
  S  S63  1  0.735625  0.915470  0.489119  1
  S  S64  1  0.371303  0.826012  0.365956  1
  S  S65  1  0.497199  0.922549  0.750318  1
  S  S66  1  0.605219  0.824913  0.123042  1
  S  S67  1  0.264375  0.084530  0.510881  1
  S  S68  1  0.757406  0.081816  0.008218  1
  S  S69  1  0.242594  0.581816  0.491782  1
  S  S70  1  0.628697  0.326012  0.134044  1
  S  S71  1  0.757406  0.418184  0.508218  1
