# generated using pymatgen
data_Yb5Bi3
_symmetry_space_group_name_H-M   'P 1'
_cell_length_a   8.43499500
_cell_length_b   9.78098644
_cell_length_c   12.74977767
_cell_angle_alpha   90.00000000
_cell_angle_beta   90.00000000
_cell_angle_gamma   90.00000000
_symmetry_Int_Tables_number   1
_chemical_formula_structural   Yb5Bi3
_chemical_formula_sum   'Yb20 Bi12'
_cell_volume   1051.88944659
_cell_formula_units_Z   4
loop_
 _symmetry_equiv_pos_site_id
 _symmetry_equiv_pos_as_xyz
  1  'x, y, z'
loop_
 _atom_site_type_symbol
 _atom_site_label
 _atom_site_symmetry_multiplicity
 _atom_site_fract_x
 _atom_site_fract_y
 _atom_site_fract_z
 _atom_site_occupancy
  Yb  Yb0  1  0.804082  0.543668  0.574490  1
  Yb  Yb1  1  0.818054  0.250000  0.269892  1
  Yb  Yb2  1  0.035322  0.750000  0.004824  1
  Yb  Yb3  1  0.348134  0.250000  0.210525  1
  Yb  Yb4  1  0.195918  0.043668  0.425510  1
  Yb  Yb5  1  0.535322  0.250000  0.495176  1
  Yb  Yb6  1  0.848134  0.750000  0.289475  1
  Yb  Yb7  1  0.318054  0.750000  0.230108  1
  Yb  Yb8  1  0.304082  0.456332  0.925510  1
  Yb  Yb9  1  0.681946  0.250000  0.769892  1
  Yb  Yb10  1  0.464678  0.750000  0.504824  1
  Yb  Yb11  1  0.695918  0.543668  0.074490  1
  Yb  Yb12  1  0.964678  0.250000  0.995176  1
  Yb  Yb13  1  0.151866  0.250000  0.710525  1
  Yb  Yb14  1  0.181946  0.750000  0.730108  1
  Yb  Yb15  1  0.195918  0.456332  0.425510  1
  Yb  Yb16  1  0.804082  0.956332  0.574490  1
  Yb  Yb17  1  0.695918  0.956332  0.074490  1
  Yb  Yb18  1  0.304082  0.043668  0.925510  1
  Yb  Yb19  1  0.651866  0.750000  0.789475  1
  Bi  Bi20  1  0.065920  0.012707  0.171258  1
  Bi  Bi21  1  0.934080  0.987293  0.828742  1
  Bi  Bi22  1  0.065920  0.487293  0.171258  1
  Bi  Bi23  1  0.421076  0.750000  0.983237  1
  Bi  Bi24  1  0.565920  0.987293  0.328742  1
  Bi  Bi25  1  0.434080  0.012707  0.671258  1
  Bi  Bi26  1  0.578924  0.250000  0.016763  1
  Bi  Bi27  1  0.434080  0.487293  0.671258  1
  Bi  Bi28  1  0.565920  0.512707  0.328742  1
  Bi  Bi29  1  0.078924  0.750000  0.483237  1
  Bi  Bi30  1  0.921076  0.250000  0.516763  1
  Bi  Bi31  1  0.934080  0.512707  0.828742  1
