# generated using pymatgen
data_Pr3CCl5
_symmetry_space_group_name_H-M   'P 1'
_cell_length_a   8.32508905
_cell_length_b   8.32508905
_cell_length_c   16.00403003
_cell_angle_alpha   83.77838008
_cell_angle_beta   96.22161992
_cell_angle_gamma   116.14740750
_symmetry_Int_Tables_number   1
_chemical_formula_structural   Pr3CCl5
_chemical_formula_sum   'Pr12 C4 Cl20'
_cell_volume   987.53126552
_cell_formula_units_Z   4
loop_
 _symmetry_equiv_pos_site_id
 _symmetry_equiv_pos_as_xyz
  1  'x, y, z'
loop_
 _atom_site_type_symbol
 _atom_site_label
 _atom_site_symmetry_multiplicity
 _atom_site_fract_x
 _atom_site_fract_y
 _atom_site_fract_z
 _atom_site_occupancy
  Pr  Pr0  1  0.909551  0.343610  0.297757  1
  Pr  Pr1  1  0.714213  0.457083  0.937517  1
  Pr  Pr2  1  0.090449  0.656390  0.702243  1
  Pr  Pr3  1  0.457083  0.714213  0.562483  1
  Pr  Pr4  1  0.003728  0.289744  0.545706  1
  Pr  Pr5  1  0.343610  0.909551  0.202243  1
  Pr  Pr6  1  0.289744  0.003728  0.954294  1
  Pr  Pr7  1  0.285787  0.542917  0.062483  1
  Pr  Pr8  1  0.996272  0.710256  0.454294  1
  Pr  Pr9  1  0.542917  0.285787  0.437517  1
  Pr  Pr10  1  0.656390  0.090449  0.797757  1
  Pr  Pr11  1  0.710256  0.996272  0.045706  1
  C  C12  1  0.150398  0.609255  0.570326  1
  C  C13  1  0.609255  0.150398  0.929674  1
  C  C14  1  0.390745  0.849602  0.070326  1
  C  C15  1  0.849602  0.390745  0.429674  1
  Cl  Cl16  1  0.382157  0.347592  0.579052  1
  Cl  Cl17  1  0.617842  0.652408  0.420948  1
  Cl  Cl18  1  0.011059  0.282674  0.734674  1
  Cl  Cl19  1  0.094729  0.152823  0.401044  1
  Cl  Cl20  1  0.905271  0.847177  0.598956  1
  Cl  Cl21  1  0.988941  0.717326  0.265326  1
  Cl  Cl22  1  0.536910  0.278978  0.258279  1
  Cl  Cl23  1  0.098268  0.623357  0.907490  1
  Cl  Cl24  1  0.347592  0.382158  0.920948  1
  Cl  Cl25  1  0.463090  0.721022  0.741721  1
  Cl  Cl26  1  0.721022  0.463090  0.758279  1
  Cl  Cl27  1  0.717326  0.988941  0.234674  1
  Cl  Cl28  1  0.847177  0.905271  0.901044  1
  Cl  Cl29  1  0.152823  0.094729  0.098956  1
  Cl  Cl30  1  0.623357  0.098268  0.592510  1
  Cl  Cl31  1  0.376643  0.901732  0.407490  1
  Cl  Cl32  1  0.278978  0.536910  0.241721  1
  Cl  Cl33  1  0.282674  0.011059  0.765326  1
  Cl  Cl34  1  0.901732  0.376643  0.092510  1
  Cl  Cl35  1  0.652408  0.617843  0.079052  1
