# generated using pymatgen
data_Cs4SiTe4
_symmetry_space_group_name_H-M   'P 1'
_cell_length_a   15.37211570
_cell_length_b   15.37211570
_cell_length_c   15.37211570
_cell_angle_alpha   90.00000000
_cell_angle_beta   90.00000000
_cell_angle_gamma   90.00000000
_symmetry_Int_Tables_number   1
_chemical_formula_structural   Cs4SiTe4
_chemical_formula_sum   'Cs32 Si8 Te32'
_cell_volume   3632.46077863
_cell_formula_units_Z   8
loop_
 _symmetry_equiv_pos_site_id
 _symmetry_equiv_pos_as_xyz
  1  'x, y, z'
loop_
 _atom_site_type_symbol
 _atom_site_label
 _atom_site_symmetry_multiplicity
 _atom_site_fract_x
 _atom_site_fract_y
 _atom_site_fract_z
 _atom_site_occupancy
  Cs  Cs0  1  0.132745  0.912190  0.350515  1
  Cs  Cs1  1  0.412190  0.632745  0.850515  1
  Cs  Cs2  1  0.867255  0.912190  0.649485  1
  Cs  Cs3  1  0.587810  0.632745  0.149485  1
  Cs  Cs4  1  0.587810  0.367255  0.850515  1
  Cs  Cs5  1  0.350515  0.867255  0.087810  1
  Cs  Cs6  1  0.087810  0.350515  0.867255  1
  Cs  Cs7  1  0.649924  0.649924  0.649924  1
  Cs  Cs8  1  0.367255  0.850515  0.587810  1
  Cs  Cs9  1  0.850076  0.850076  0.149924  1
  Cs  Cs10  1  0.632745  0.149485  0.587810  1
  Cs  Cs11  1  0.867255  0.087810  0.350515  1
  Cs  Cs12  1  0.132745  0.087810  0.649485  1
  Cs  Cs13  1  0.850515  0.587810  0.367255  1
  Cs  Cs14  1  0.149924  0.850076  0.850076  1
  Cs  Cs15  1  0.912190  0.649485  0.867255  1
  Cs  Cs16  1  0.649485  0.132745  0.087810  1
  Cs  Cs17  1  0.412190  0.367255  0.149485  1
  Cs  Cs18  1  0.912190  0.350515  0.132745  1
  Cs  Cs19  1  0.350515  0.132745  0.912190  1
  Cs  Cs20  1  0.367255  0.149485  0.412190  1
  Cs  Cs21  1  0.350076  0.649924  0.350076  1
  Cs  Cs22  1  0.850515  0.412190  0.632745  1
  Cs  Cs23  1  0.149924  0.149924  0.149924  1
  Cs  Cs24  1  0.149485  0.587810  0.632745  1
  Cs  Cs25  1  0.149485  0.412190  0.367255  1
  Cs  Cs26  1  0.087810  0.649485  0.132745  1
  Cs  Cs27  1  0.850076  0.149924  0.850076  1
  Cs  Cs28  1  0.632745  0.850515  0.412190  1
  Cs  Cs29  1  0.649485  0.867255  0.912190  1
  Cs  Cs30  1  0.649924  0.350076  0.350076  1
  Cs  Cs31  1  0.350076  0.350076  0.649924  1
  Si  Si32  1  0.000000  0.750000  0.500000  1
  Si  Si33  1  0.500000  0.000000  0.250000  1
  Si  Si34  1  0.750000  0.500000  0.000000  1
  Si  Si35  1  0.500000  0.500000  0.500000  1
  Si  Si36  1  0.250000  0.500000  0.000000  1
  Si  Si37  1  0.000000  0.250000  0.500000  1
  Si  Si38  1  0.500000  0.000000  0.750000  1
  Si  Si39  1  0.000000  0.000000  0.000000  1
  Te  Te40  1  0.604709  0.907934  0.659378  1
  Te  Te41  1  0.840622  0.592066  0.104709  1
  Te  Te42  1  0.340622  0.395291  0.907934  1
  Te  Te43  1  0.659378  0.395291  0.092066  1
  Te  Te44  1  0.840622  0.407934  0.895291  1
  Te  Te45  1  0.104709  0.840622  0.592066  1
  Te  Te46  1  0.604709  0.092066  0.340622  1
  Te  Te47  1  0.592066  0.895291  0.159378  1
  Te  Te48  1  0.404354  0.404354  0.404354  1
  Te  Te49  1  0.159378  0.592066  0.895291  1
  Te  Te50  1  0.895291  0.840622  0.407934  1
  Te  Te51  1  0.092066  0.340622  0.604709  1
  Te  Te52  1  0.159378  0.407934  0.104709  1
  Te  Te53  1  0.395291  0.092066  0.659378  1
  Te  Te54  1  0.407934  0.895291  0.840622  1
  Te  Te55  1  0.592066  0.104709  0.840622  1
  Te  Te56  1  0.095646  0.095646  0.904354  1
  Te  Te57  1  0.595646  0.404354  0.595646  1
  Te  Te58  1  0.340622  0.604709  0.092066  1
  Te  Te59  1  0.404354  0.595646  0.595646  1
  Te  Te60  1  0.092066  0.659378  0.395291  1
  Te  Te61  1  0.907934  0.340622  0.395291  1
  Te  Te62  1  0.895291  0.159378  0.592066  1
  Te  Te63  1  0.595646  0.595646  0.404354  1
  Te  Te64  1  0.104709  0.159378  0.407934  1
  Te  Te65  1  0.904354  0.904354  0.904354  1
  Te  Te66  1  0.095646  0.904354  0.095646  1
  Te  Te67  1  0.407934  0.104709  0.159378  1
  Te  Te68  1  0.904354  0.095646  0.095646  1
  Te  Te69  1  0.659378  0.604709  0.907934  1
  Te  Te70  1  0.395291  0.907934  0.340622  1
  Te  Te71  1  0.907934  0.659378  0.604709  1
