# generated using pymatgen
data_K2Cd(NO2)4
_symmetry_space_group_name_H-M   'P 1'
_cell_length_a   6.69441872
_cell_length_b   12.02671147
_cell_length_c   12.44201309
_cell_angle_alpha   90.00000000
_cell_angle_beta   90.00000000
_cell_angle_gamma   90.00000000
_symmetry_Int_Tables_number   1
_chemical_formula_structural   K2Cd(NO2)4
_chemical_formula_sum   'K8 Cd4 N16 O32'
_cell_volume   1001.72939710
_cell_formula_units_Z   4
loop_
 _symmetry_equiv_pos_site_id
 _symmetry_equiv_pos_as_xyz
  1  'x, y, z'
loop_
 _atom_site_type_symbol
 _atom_site_label
 _atom_site_symmetry_multiplicity
 _atom_site_fract_x
 _atom_site_fract_y
 _atom_site_fract_z
 _atom_site_occupancy
  K  K0  1  0.091078  0.999818  0.352457  1
  K  K1  1  0.091078  0.500182  0.352457  1
  K  K2  1  0.908922  0.499818  0.647543  1
  K  K3  1  0.408922  0.500182  0.852457  1
  K  K4  1  0.591078  0.499818  0.147543  1
  K  K5  1  0.591078  0.000182  0.147543  1
  K  K6  1  0.908922  0.000182  0.647543  1
  K  K7  1  0.408922  0.999818  0.852457  1
  Cd  Cd8  1  0.488703  0.750000  0.516153  1
  Cd  Cd9  1  0.988703  0.250000  0.983847  1
  Cd  Cd10  1  0.511297  0.250000  0.483847  1
  Cd  Cd11  1  0.011297  0.750000  0.016153  1
  N  N12  1  0.077908  0.250000  0.750954  1
  N  N13  1  0.132186  0.068626  0.124374  1
  N  N14  1  0.577908  0.750000  0.749046  1
  N  N15  1  0.632186  0.568626  0.375626  1
  N  N16  1  0.422092  0.250000  0.250954  1
  N  N17  1  0.922092  0.750000  0.249046  1
  N  N18  1  0.059074  0.750000  0.561251  1
  N  N19  1  0.867814  0.568626  0.875626  1
  N  N20  1  0.367814  0.068626  0.624374  1
  N  N21  1  0.440926  0.750000  0.061251  1
  N  N22  1  0.867814  0.931374  0.875626  1
  N  N23  1  0.367814  0.431374  0.624374  1
  N  N24  1  0.632186  0.931374  0.375626  1
  N  N25  1  0.940926  0.250000  0.438749  1
  N  N26  1  0.559074  0.250000  0.938749  1
  N  N27  1  0.132186  0.431374  0.124374  1
  O  O28  1  0.031139  0.616356  0.853316  1
  O  O29  1  0.158782  0.838676  0.547318  1
  O  O30  1  0.531139  0.383644  0.646684  1
  O  O31  1  0.783925  0.897615  0.961222  1
  O  O32  1  0.158782  0.661324  0.547318  1
  O  O33  1  0.938189  0.661281  0.194351  1
  O  O34  1  0.716075  0.897615  0.461222  1
  O  O35  1  0.341218  0.838676  0.047318  1
  O  O36  1  0.841218  0.338676  0.452682  1
  O  O37  1  0.968861  0.116356  0.146684  1
  O  O38  1  0.216075  0.102385  0.038778  1
  O  O39  1  0.061811  0.161281  0.805649  1
  O  O40  1  0.061811  0.338719  0.805649  1
  O  O41  1  0.783925  0.602385  0.961222  1
  O  O42  1  0.468861  0.883644  0.353316  1
  O  O43  1  0.531139  0.116356  0.646684  1
  O  O44  1  0.216075  0.397615  0.038778  1
  O  O45  1  0.658782  0.161324  0.952682  1
  O  O46  1  0.341218  0.661324  0.047318  1
  O  O47  1  0.438189  0.338719  0.305649  1
  O  O48  1  0.938189  0.838719  0.194351  1
  O  O49  1  0.283925  0.102385  0.538778  1
  O  O50  1  0.716075  0.602385  0.461222  1
  O  O51  1  0.283925  0.397615  0.538778  1
  O  O52  1  0.658782  0.338676  0.952682  1
  O  O53  1  0.841218  0.161324  0.452682  1
  O  O54  1  0.468861  0.616356  0.353316  1
  O  O55  1  0.968861  0.383644  0.146684  1
  O  O56  1  0.561811  0.838719  0.694351  1
  O  O57  1  0.561811  0.661281  0.694351  1
  O  O58  1  0.438189  0.161281  0.305649  1
  O  O59  1  0.031139  0.883644  0.853316  1
