# generated using pymatgen
data_K2AgSbS4
_symmetry_space_group_name_H-M   'P 1'
_cell_length_a   8.09565201
_cell_length_b   10.46500798
_cell_length_c   10.69716509
_cell_angle_alpha   90.00000000
_cell_angle_beta   90.00000000
_cell_angle_gamma   90.00000000
_symmetry_Int_Tables_number   1
_chemical_formula_structural   K2AgSbS4
_chemical_formula_sum   'K8 Ag4 Sb4 S16'
_cell_volume   906.27519631
_cell_formula_units_Z   4
loop_
 _symmetry_equiv_pos_site_id
 _symmetry_equiv_pos_as_xyz
  1  'x, y, z'
loop_
 _atom_site_type_symbol
 _atom_site_label
 _atom_site_symmetry_multiplicity
 _atom_site_fract_x
 _atom_site_fract_y
 _atom_site_fract_z
 _atom_site_occupancy
  K  K0  1  0.448570  0.747503  0.269135  1
  K  K1  1  0.948570  0.752497  0.769135  1
  K  K2  1  0.759780  0.000000  0.500000  1
  K  K3  1  0.259780  0.500000  0.000000  1
  K  K4  1  0.948570  0.247503  0.230865  1
  K  K5  1  0.947725  0.500000  0.500000  1
  K  K6  1  0.447725  0.000000  0.000000  1
  K  K7  1  0.448570  0.252497  0.730865  1
  Ag  Ag8  1  0.451905  0.500000  0.500000  1
  Ag  Ag9  1  0.725405  0.500000  0.000000  1
  Ag  Ag10  1  0.225405  0.000000  0.500000  1
  Ag  Ag11  1  0.951905  0.000000  0.000000  1
  Sb  Sb12  1  0.449141  0.726859  0.724104  1
  Sb  Sb13  1  0.949141  0.226859  0.775896  1
  Sb  Sb14  1  0.949141  0.773141  0.224104  1
  Sb  Sb15  1  0.449141  0.273141  0.275896  1
  S  S16  1  0.800392  0.422738  0.782466  1
  S  S17  1  0.300392  0.922738  0.717534  1
  S  S18  1  0.586189  0.715558  0.919884  1
  S  S19  1  0.300392  0.077262  0.282466  1
  S  S20  1  0.800392  0.577262  0.217534  1
  S  S21  1  0.768580  0.951444  0.201998  1
  S  S22  1  0.132921  0.208911  0.948437  1
  S  S23  1  0.632921  0.708911  0.551563  1
  S  S24  1  0.268580  0.548556  0.701998  1
  S  S25  1  0.086189  0.215558  0.580116  1
  S  S26  1  0.768580  0.048556  0.798002  1
  S  S27  1  0.632921  0.291089  0.448437  1
  S  S28  1  0.132921  0.791089  0.051563  1
  S  S29  1  0.086189  0.784442  0.419884  1
  S  S30  1  0.586189  0.284442  0.080116  1
  S  S31  1  0.268580  0.451444  0.298002  1
