# generated using pymatgen
data_Cu10Sn3
_symmetry_space_group_name_H-M   'P 1'
_cell_length_a   7.36170087
_cell_length_b   7.36170087
_cell_length_c   7.93468423
_cell_angle_alpha   90.00000000
_cell_angle_beta   90.00000000
_cell_angle_gamma   120.00000000
_symmetry_Int_Tables_number   1
_chemical_formula_structural   Cu10Sn3
_chemical_formula_sum   'Cu20 Sn6'
_cell_volume   372.40595183
_cell_formula_units_Z   2
loop_
 _symmetry_equiv_pos_site_id
 _symmetry_equiv_pos_as_xyz
  1  'x, y, z'
loop_
 _atom_site_type_symbol
 _atom_site_label
 _atom_site_symmetry_multiplicity
 _atom_site_fract_x
 _atom_site_fract_y
 _atom_site_fract_z
 _atom_site_occupancy
  Cu  Cu0  1  0.666667  0.333333  0.574216  1
  Cu  Cu1  1  0.972316  0.331044  0.413501  1
  Cu  Cu2  1  0.358728  0.027684  0.413501  1
  Cu  Cu3  1  0.641272  0.972316  0.913501  1
  Cu  Cu4  1  0.000000  0.000000  0.488079  1
  Cu  Cu5  1  0.666667  0.333333  0.246745  1
  Cu  Cu6  1  0.027751  0.671010  0.580742  1
  Cu  Cu7  1  0.333333  0.666667  0.746745  1
  Cu  Cu8  1  0.333333  0.666667  0.074216  1
  Cu  Cu9  1  0.333333  0.666667  0.420024  1
  Cu  Cu10  1  0.027684  0.668956  0.913501  1
  Cu  Cu11  1  0.666667  0.333333  0.920024  1
  Cu  Cu12  1  0.643259  0.972249  0.580742  1
  Cu  Cu13  1  0.668956  0.641272  0.413501  1
  Cu  Cu14  1  0.328990  0.356741  0.580742  1
  Cu  Cu15  1  0.356741  0.027751  0.080742  1
  Cu  Cu16  1  0.671010  0.643259  0.080742  1
  Cu  Cu17  1  0.331044  0.358728  0.913501  1
  Cu  Cu18  1  0.972249  0.328990  0.080742  1
  Cu  Cu19  1  0.000000  0.000000  0.988079  1
  Sn  Sn20  1  0.683649  0.976890  0.246802  1
  Sn  Sn21  1  0.023110  0.706760  0.246802  1
  Sn  Sn22  1  0.316351  0.023110  0.746802  1
  Sn  Sn23  1  0.976890  0.293240  0.746802  1
  Sn  Sn24  1  0.293240  0.316351  0.246802  1
  Sn  Sn25  1  0.706760  0.683649  0.746802  1
