# generated using pymatgen
data_As2Pb2O5
_symmetry_space_group_name_H-M   'P 1'
_cell_length_a   8.76315331
_cell_length_b   5.86084330
_cell_length_c   14.01394488
_cell_angle_alpha   90.00000000
_cell_angle_beta   109.41198105
_cell_angle_gamma   90.00000000
_symmetry_Int_Tables_number   1
_chemical_formula_structural   As2Pb2O5
_chemical_formula_sum   'As8 Pb8 O20'
_cell_volume   678.83333020
_cell_formula_units_Z   4
loop_
 _symmetry_equiv_pos_site_id
 _symmetry_equiv_pos_as_xyz
  1  'x, y, z'
loop_
 _atom_site_type_symbol
 _atom_site_label
 _atom_site_symmetry_multiplicity
 _atom_site_fract_x
 _atom_site_fract_y
 _atom_site_fract_z
 _atom_site_occupancy
  As  As0  1  0.383958  0.873506  0.063044  1
  As  As1  1  0.616042  0.373506  0.436956  1
  As  As2  1  0.616042  0.126494  0.936956  1
  As  As3  1  0.383958  0.626494  0.563044  1
  As  As4  1  0.114170  0.122042  0.869202  1
  As  As5  1  0.885830  0.622042  0.630798  1
  As  As6  1  0.885830  0.877958  0.130798  1
  As  As7  1  0.114170  0.377958  0.369202  1
  Pb  Pb8  1  0.144385  0.341597  0.122343  1
  Pb  Pb9  1  0.855615  0.841597  0.377657  1
  Pb  Pb10  1  0.855615  0.658403  0.877657  1
  Pb  Pb11  1  0.144385  0.158403  0.622343  1
  Pb  Pb12  1  0.348087  0.662748  0.796083  1
  Pb  Pb13  1  0.651913  0.162748  0.703917  1
  Pb  Pb14  1  0.651913  0.337252  0.203917  1
  Pb  Pb15  1  0.348087  0.837252  0.296083  1
  O  O16  1  0.346418  0.667417  0.146265  1
  O  O17  1  0.653582  0.167417  0.353735  1
  O  O18  1  0.653582  0.332583  0.853735  1
  O  O19  1  0.346418  0.832583  0.646265  1
  O  O20  1  0.377947  0.123224  0.136936  1
  O  O21  1  0.622053  0.623224  0.363064  1
  O  O22  1  0.622053  0.876776  0.863064  1
  O  O23  1  0.377947  0.376776  0.636936  1
  O  O24  1  0.177224  0.886743  0.965764  1
  O  O25  1  0.822776  0.386743  0.534236  1
  O  O26  1  0.822776  0.113257  0.034236  1
  O  O27  1  0.177224  0.613257  0.465764  1
  O  O28  1  0.238244  0.044543  0.793649  1
  O  O29  1  0.761756  0.544543  0.706351  1
  O  O30  1  0.761756  0.955457  0.206351  1
  O  O31  1  0.238244  0.455457  0.293649  1
  O  O32  1  0.927652  0.993840  0.798702  1
  O  O33  1  0.072348  0.493840  0.701298  1
  O  O34  1  0.072348  0.006160  0.201298  1
  O  O35  1  0.927652  0.506160  0.298702  1
