# generated using pymatgen
data_Na3Ga3(TeO6)2
_symmetry_space_group_name_H-M   'P 1'
_cell_length_a   10.86438261
_cell_length_b   10.86438261
_cell_length_c   10.86438261
_cell_angle_alpha   109.47122063
_cell_angle_beta   109.47122063
_cell_angle_gamma   109.47122063
_symmetry_Int_Tables_number   1
_chemical_formula_structural   Na3Ga3(TeO6)2
_chemical_formula_sum   'Na12 Ga12 Te8 O48'
_cell_volume   987.17299123
_cell_formula_units_Z   4
loop_
 _symmetry_equiv_pos_site_id
 _symmetry_equiv_pos_as_xyz
  1  'x, y, z'
loop_
 _atom_site_type_symbol
 _atom_site_label
 _atom_site_symmetry_multiplicity
 _atom_site_fract_x
 _atom_site_fract_y
 _atom_site_fract_z
 _atom_site_occupancy
  Na  Na0  1  0.250000  0.375000  0.125000  1
  Na  Na1  1  0.875000  0.625000  0.250000  1
  Na  Na2  1  0.750000  0.625000  0.875000  1
  Na  Na3  1  0.375000  0.750000  0.125000  1
  Na  Na4  1  0.125000  0.375000  0.750000  1
  Na  Na5  1  0.375000  0.125000  0.250000  1
  Na  Na6  1  0.625000  0.250000  0.875000  1
  Na  Na7  1  0.250000  0.875000  0.625000  1
  Na  Na8  1  0.875000  0.750000  0.625000  1
  Na  Na9  1  0.125000  0.250000  0.375000  1
  Na  Na10  1  0.625000  0.875000  0.750000  1
  Na  Na11  1  0.750000  0.125000  0.375000  1
  Ga  Ga12  1  0.875000  0.125000  0.750000  1
  Ga  Ga13  1  0.625000  0.750000  0.375000  1
  Ga  Ga14  1  0.250000  0.625000  0.375000  1
  Ga  Ga15  1  0.125000  0.750000  0.875000  1
  Ga  Ga16  1  0.250000  0.125000  0.875000  1
  Ga  Ga17  1  0.875000  0.250000  0.125000  1
  Ga  Ga18  1  0.375000  0.250000  0.625000  1
  Ga  Ga19  1  0.375000  0.625000  0.750000  1
  Ga  Ga20  1  0.625000  0.375000  0.250000  1
  Ga  Ga21  1  0.750000  0.375000  0.625000  1
  Ga  Ga22  1  0.750000  0.875000  0.125000  1
  Ga  Ga23  1  0.125000  0.875000  0.250000  1
  Te  Te24  1  0.000000  0.000000  0.500000  1
  Te  Te25  1  0.500000  1.000000  0.500000  1
  Te  Te26  1  0.500000  0.000000  0.000000  1
  Te  Te27  1  0.000000  0.000000  0.000000  1
  Te  Te28  1  0.000000  0.500000  0.000000  1
  Te  Te29  1  0.000000  0.500000  0.500000  1
  Te  Te30  1  0.500000  0.500000  0.500000  1
  Te  Te31  1  0.500000  0.500000  0.000000  1
  O  O32  1  0.175429  0.483454  0.598849  1
  O  O33  1  0.576580  0.175429  0.191975  1
  O  O34  1  0.191975  0.576580  0.175429  1
  O  O35  1  0.824571  0.516546  0.401151  1
  O  O36  1  0.516546  0.615395  0.691975  1
  O  O37  1  0.076580  0.691975  0.675429  1
  O  O38  1  0.098849  0.615395  0.423420  1
  O  O39  1  0.923420  0.115395  0.598849  1
  O  O40  1  0.016546  0.191975  0.115395  1
  O  O41  1  0.308025  0.483454  0.384605  1
  O  O42  1  0.016546  0.324571  0.901151  1
  O  O43  1  0.675429  0.098849  0.983454  1
  O  O44  1  0.308025  0.324571  0.923420  1
  O  O45  1  0.983454  0.675429  0.098849  1
  O  O46  1  0.076580  0.884605  0.401151  1
  O  O47  1  0.384605  0.308025  0.483454  1
  O  O48  1  0.901151  0.384605  0.576580  1
  O  O49  1  0.901151  0.016546  0.324571  1
  O  O50  1  0.175429  0.191975  0.576580  1
  O  O51  1  0.115395  0.598849  0.923420  1
  O  O52  1  0.576580  0.901151  0.384605  1
  O  O53  1  0.324571  0.901151  0.016546  1
  O  O54  1  0.675429  0.076580  0.691975  1
  O  O55  1  0.115395  0.016546  0.191975  1
  O  O56  1  0.824571  0.808025  0.423420  1
  O  O57  1  0.691975  0.675429  0.076580  1
  O  O58  1  0.884605  0.401151  0.076580  1
  O  O59  1  0.615395  0.691975  0.516546  1
  O  O60  1  0.884605  0.983454  0.808025  1
  O  O61  1  0.483454  0.598849  0.175429  1
  O  O62  1  0.983454  0.808025  0.884605  1
  O  O63  1  0.401151  0.824571  0.516546  1
  O  O64  1  0.483454  0.384605  0.308025  1
  O  O65  1  0.384605  0.576580  0.901151  1
  O  O66  1  0.808025  0.884605  0.983454  1
  O  O67  1  0.615395  0.423420  0.098849  1
  O  O68  1  0.598849  0.923420  0.115395  1
  O  O69  1  0.423420  0.824571  0.808025  1
  O  O70  1  0.324571  0.923420  0.308025  1
  O  O71  1  0.516546  0.401151  0.824571  1
  O  O72  1  0.691975  0.516546  0.615395  1
  O  O73  1  0.423420  0.098849  0.615395  1
  O  O74  1  0.923420  0.308025  0.324571  1
  O  O75  1  0.098849  0.983454  0.675429  1
  O  O76  1  0.598849  0.175429  0.483454  1
  O  O77  1  0.808025  0.423420  0.824571  1
  O  O78  1  0.401151  0.076580  0.884605  1
  O  O79  1  0.191975  0.115395  0.016546  1
