# generated using pymatgen
data_K3GaTe3
_symmetry_space_group_name_H-M   'P 1'
_cell_length_a   8.73295020
_cell_length_b   13.90877172
_cell_length_c   11.40600082
_cell_angle_alpha   90.00000000
_cell_angle_beta   127.57289942
_cell_angle_gamma   90.00000000
_symmetry_Int_Tables_number   1
_chemical_formula_structural   K3GaTe3
_chemical_formula_sum   'K12 Ga4 Te12'
_cell_volume   1098.05793975
_cell_formula_units_Z   4
loop_
 _symmetry_equiv_pos_site_id
 _symmetry_equiv_pos_as_xyz
  1  'x, y, z'
loop_
 _atom_site_type_symbol
 _atom_site_label
 _atom_site_symmetry_multiplicity
 _atom_site_fract_x
 _atom_site_fract_y
 _atom_site_fract_z
 _atom_site_occupancy
  K  K0  1  0.335907  0.906109  0.600391  1
  K  K1  1  0.664093  0.406109  0.899609  1
  K  K2  1  0.664093  0.093891  0.399609  1
  K  K3  1  0.335907  0.593891  0.100391  1
  K  K4  1  0.123004  0.189265  0.409299  1
  K  K5  1  0.876996  0.689265  0.090701  1
  K  K6  1  0.876996  0.810735  0.590701  1
  K  K7  1  0.123004  0.310735  0.909299  1
  K  K8  1  0.364096  0.616245  0.524453  1
  K  K9  1  0.635904  0.116245  0.975547  1
  K  K10  1  0.635904  0.383755  0.475547  1
  K  K11  1  0.364096  0.883755  0.024453  1
  Ga  Ga12  1  0.066465  0.936129  0.165721  1
  Ga  Ga13  1  0.933535  0.436129  0.334279  1
  Ga  Ga14  1  0.933535  0.063871  0.834279  1
  Ga  Ga15  1  0.066465  0.563871  0.665721  1
  Te  Te16  1  0.164844  0.389285  0.628584  1
  Te  Te17  1  0.835156  0.889285  0.871416  1
  Te  Te18  1  0.835156  0.610715  0.371416  1
  Te  Te19  1  0.164844  0.110715  0.128584  1
  Te  Te20  1  0.358193  0.685844  0.815845  1
  Te  Te21  1  0.641807  0.185844  0.684155  1
  Te  Te22  1  0.641807  0.314156  0.184155  1
  Te  Te23  1  0.358193  0.814156  0.315845  1
  Te  Te24  1  0.867606  0.554371  0.768553  1
  Te  Te25  1  0.132394  0.054371  0.731447  1
  Te  Te26  1  0.132394  0.445629  0.231447  1
  Te  Te27  1  0.867606  0.945629  0.268553  1
