# generated using pymatgen
data_K3Na2LiTeO6
_symmetry_space_group_name_H-M   'P 1'
_cell_length_a   7.64216597
_cell_length_b   7.64216597
_cell_length_c   6.88720159
_cell_angle_alpha   87.70050763
_cell_angle_beta   92.29949237
_cell_angle_gamma   75.96835814
_symmetry_Int_Tables_number   1
_chemical_formula_structural   K3Na2LiTeO6
_chemical_formula_sum   'K6 Na4 Li2 Te2 O12'
_cell_volume   389.39923118
_cell_formula_units_Z   2
loop_
 _symmetry_equiv_pos_site_id
 _symmetry_equiv_pos_as_xyz
  1  'x, y, z'
loop_
 _atom_site_type_symbol
 _atom_site_label
 _atom_site_symmetry_multiplicity
 _atom_site_fract_x
 _atom_site_fract_y
 _atom_site_fract_z
 _atom_site_occupancy
  K  K0  1  0.598850  0.382552  0.239570  1
  K  K1  1  0.892098  0.014099  0.573793  1
  K  K2  1  0.296927  0.782719  0.754270  1
  K  K3  1  0.617448  0.401150  0.739570  1
  K  K4  1  0.985901  0.107902  0.073793  1
  K  K5  1  0.217281  0.703073  0.254270  1
  Na  Na6  1  0.389984  0.073710  0.101840  1
  Na  Na7  1  0.926290  0.610016  0.601840  1
  Na  Na8  1  0.570872  0.860498  0.404458  1
  Na  Na9  1  0.139502  0.429128  0.904458  1
  Li  Li10  1  0.526137  0.029667  0.750826  1
  Li  Li11  1  0.970333  0.473863  0.250826  1
  Te  Te12  1  0.756833  0.757111  0.000034  1
  Te  Te13  1  0.242889  0.243167  0.500034  1
  O  O14  1  0.972457  0.322000  0.485772  1
  O  O15  1  0.233883  0.007064  0.399945  1
  O  O16  1  0.519827  0.745070  0.097361  1
  O  O17  1  0.255885  0.142553  0.773527  1
  O  O18  1  0.992936  0.766117  0.899945  1
  O  O19  1  0.857447  0.744115  0.273527  1
  O  O20  1  0.678000  0.027543  0.985772  1
  O  O21  1  0.512164  0.163834  0.503844  1
  O  O22  1  0.836166  0.487836  0.003844  1
  O  O23  1  0.654459  0.766297  0.726962  1
  O  O24  1  0.254930  0.480173  0.597361  1
  O  O25  1  0.233703  0.345541  0.226962  1
