# generated using pymatgen
data_LaSc3(BO3)4
_symmetry_space_group_name_H-M   'P 1'
_cell_length_a   6.23971714
_cell_length_b   6.23971714
_cell_length_c   6.23971714
_cell_angle_alpha   100.91667105
_cell_angle_beta   100.91667105
_cell_angle_gamma   100.91667105
_symmetry_Int_Tables_number   1
_chemical_formula_structural   LaSc3(BO3)4
_chemical_formula_sum   'La1 Sc3 B4 O12'
_cell_volume   227.74280261
_cell_formula_units_Z   1
loop_
 _symmetry_equiv_pos_site_id
 _symmetry_equiv_pos_as_xyz
  1  'x, y, z'
loop_
 _atom_site_type_symbol
 _atom_site_label
 _atom_site_symmetry_multiplicity
 _atom_site_fract_x
 _atom_site_fract_y
 _atom_site_fract_z
 _atom_site_occupancy
  La  La0  1  0.000000  0.000000  0.000000  1
  Sc  Sc1  1  0.000000  0.506255  0.493745  1
  Sc  Sc2  1  0.506255  0.493745  0.000000  1
  Sc  Sc3  1  0.493745  0.000000  0.506255  1
  B  B4  1  0.011544  0.500000  0.988456  1
  B  B5  1  0.500000  0.988456  0.011544  1
  B  B6  1  0.500000  0.500000  0.500000  1
  B  B7  1  0.988456  0.011544  0.500000  1
  O  O8  1  0.003206  0.172923  0.376438  1
  O  O9  1  0.623562  0.827077  0.996794  1
  O  O10  1  0.500000  0.644733  0.355267  1
  O  O11  1  0.172923  0.376438  0.003206  1
  O  O12  1  0.996794  0.623562  0.827077  1
  O  O13  1  0.132774  0.867226  0.500000  1
  O  O14  1  0.500000  0.132774  0.867226  1
  O  O15  1  0.644733  0.355267  0.500000  1
  O  O16  1  0.827077  0.996794  0.623562  1
  O  O17  1  0.376438  0.003206  0.172923  1
  O  O18  1  0.867226  0.500000  0.132774  1
  O  O19  1  0.355267  0.500000  0.644733  1
