# generated using pymatgen
data_Dy2(WO4)3
_symmetry_space_group_name_H-M   'P 1'
_cell_length_a   6.92719505
_cell_length_b   6.92719505
_cell_length_c   11.40896609
_cell_angle_alpha   79.23485335
_cell_angle_beta   100.76514665
_cell_angle_gamma   68.12453313
_symmetry_Int_Tables_number   1
_chemical_formula_structural   Dy2(WO4)3
_chemical_formula_sum   'Dy4 W6 O24'
_cell_volume   478.96736191
_cell_formula_units_Z   2
loop_
 _symmetry_equiv_pos_site_id
 _symmetry_equiv_pos_as_xyz
  1  'x, y, z'
loop_
 _atom_site_type_symbol
 _atom_site_label
 _atom_site_symmetry_multiplicity
 _atom_site_fract_x
 _atom_site_fract_y
 _atom_site_fract_z
 _atom_site_occupancy
  Dy  Dy0  1  0.458241  0.788231  0.407200  1
  Dy  Dy1  1  0.788231  0.458241  0.092800  1
  Dy  Dy2  1  0.541759  0.211769  0.592800  1
  Dy  Dy3  1  0.211769  0.541759  0.907200  1
  W  W4  1  0.368241  0.368241  0.250000  1
  W  W5  1  0.631759  0.631759  0.750000  1
  W  W6  1  0.253155  0.959853  0.050083  1
  W  W7  1  0.959853  0.253155  0.449917  1
  W  W8  1  0.746845  0.040147  0.949917  1
  W  W9  1  0.040147  0.746845  0.550083  1
  O  O10  1  0.893592  0.029292  0.573693  1
  O  O11  1  0.029292  0.893592  0.926307  1
  O  O12  1  0.106408  0.970708  0.426307  1
  O  O13  1  0.970708  0.106408  0.073693  1
  O  O14  1  0.269858  0.167043  0.938757  1
  O  O15  1  0.167043  0.269858  0.561243  1
  O  O16  1  0.730142  0.832957  0.061243  1
  O  O17  1  0.832957  0.730142  0.438757  1
  O  O18  1  0.041594  0.599953  0.701893  1
  O  O19  1  0.599953  0.041594  0.798107  1
  O  O20  1  0.422654  0.160544  0.394843  1
  O  O21  1  0.160544  0.422654  0.105157  1
  O  O22  1  0.577346  0.839456  0.605157  1
  O  O23  1  0.839456  0.577346  0.894843  1
  O  O24  1  0.291303  0.629240  0.279623  1
  O  O25  1  0.629240  0.291303  0.220377  1
  O  O26  1  0.708697  0.370760  0.720377  1
  O  O27  1  0.958406  0.400047  0.298107  1
  O  O28  1  0.681053  0.420234  0.459985  1
  O  O29  1  0.420234  0.681053  0.040015  1
  O  O30  1  0.318947  0.579766  0.540015  1
  O  O31  1  0.579766  0.318947  0.959985  1
  O  O32  1  0.400047  0.958406  0.201893  1
  O  O33  1  0.370760  0.708697  0.779623  1
