# generated using pymatgen
data_Na2Mn(PO3)5
_symmetry_space_group_name_H-M   'P 1'
_cell_length_a   5.29794754
_cell_length_b   13.74256921
_cell_length_c   8.91649689
_cell_angle_alpha   90.00000000
_cell_angle_beta   103.11537323
_cell_angle_gamma   90.00000000
_symmetry_Int_Tables_number   1
_chemical_formula_structural   Na2Mn(PO3)5
_chemical_formula_sum   'Na4 Mn2 P10 O30'
_cell_volume   632.25308414
_cell_formula_units_Z   2
loop_
 _symmetry_equiv_pos_site_id
 _symmetry_equiv_pos_as_xyz
  1  'x, y, z'
loop_
 _atom_site_type_symbol
 _atom_site_label
 _atom_site_symmetry_multiplicity
 _atom_site_fract_x
 _atom_site_fract_y
 _atom_site_fract_z
 _atom_site_occupancy
  Na  Na0  1  0.925447  0.110097  0.372254  1
  Na  Na1  1  0.925447  0.389903  0.372254  1
  Na  Na2  1  0.074553  0.889903  0.627746  1
  Na  Na3  1  0.074553  0.610097  0.627746  1
  Mn  Mn4  1  0.500000  0.500000  0.000000  1
  Mn  Mn5  1  0.500000  0.000000  0.000000  1
  P  P6  1  0.541101  0.750000  0.503661  1
  P  P7  1  0.983000  0.859700  0.013146  1
  P  P8  1  0.345395  0.579076  0.308108  1
  P  P9  1  0.017000  0.140300  0.986854  1
  P  P10  1  0.654605  0.079076  0.691892  1
  P  P11  1  0.458899  0.250000  0.496339  1
  P  P12  1  0.345395  0.920924  0.308108  1
  P  P13  1  0.017000  0.359700  0.986854  1
  P  P14  1  0.983000  0.640300  0.013146  1
  P  P15  1  0.654605  0.420924  0.691892  1
  O  O16  1  0.863254  0.144672  0.811352  1
  O  O17  1  0.552833  0.659079  0.384828  1
  O  O18  1  0.487198  0.986740  0.215915  1
  O  O19  1  0.136746  0.644672  0.188648  1
  O  O20  1  0.447167  0.340921  0.615172  1
  O  O21  1  0.786786  0.030695  0.581909  1
  O  O22  1  0.512802  0.013260  0.784085  1
  O  O23  1  0.878279  0.078724  0.082060  1
  O  O24  1  0.121721  0.578724  0.917940  1
  O  O25  1  0.698683  0.621245  0.007467  1
  O  O26  1  0.301317  0.121245  0.992533  1
  O  O27  1  0.712258  0.250000  0.449977  1
  O  O28  1  0.213214  0.969305  0.418091  1
  O  O29  1  0.863254  0.355328  0.811352  1
  O  O30  1  0.301317  0.378755  0.992533  1
  O  O31  1  0.698683  0.878755  0.007467  1
  O  O32  1  0.206223  0.250000  0.381886  1
  O  O33  1  0.447167  0.159079  0.615172  1
  O  O34  1  0.878279  0.421276  0.082060  1
  O  O35  1  0.786786  0.469305  0.581909  1
  O  O36  1  0.213214  0.530695  0.418091  1
  O  O37  1  0.793777  0.750000  0.618114  1
  O  O38  1  0.512802  0.486740  0.784085  1
  O  O39  1  0.996773  0.250000  0.040827  1
  O  O40  1  0.121721  0.921276  0.917940  1
  O  O41  1  0.136746  0.855328  0.188648  1
  O  O42  1  0.487198  0.513260  0.215915  1
  O  O43  1  0.552833  0.840921  0.384828  1
  O  O44  1  0.287742  0.750000  0.550023  1
  O  O45  1  0.003227  0.750000  0.959173  1
