# generated using pymatgen
data_Cu3BiSe2ClO8
_symmetry_space_group_name_H-M   'P 1'
_cell_length_a   6.42135639
_cell_length_b   7.32124977
_cell_length_c   9.75914609
_cell_angle_alpha   90.00000000
_cell_angle_beta   90.00000000
_cell_angle_gamma   90.00000000
_symmetry_Int_Tables_number   1
_chemical_formula_structural   Cu3BiSe2ClO8
_chemical_formula_sum   'Cu6 Bi2 Se4 Cl2 O16'
_cell_volume   458.80043066
_cell_formula_units_Z   2
loop_
 _symmetry_equiv_pos_site_id
 _symmetry_equiv_pos_as_xyz
  1  'x, y, z'
loop_
 _atom_site_type_symbol
 _atom_site_label
 _atom_site_symmetry_multiplicity
 _atom_site_fract_x
 _atom_site_fract_y
 _atom_site_fract_z
 _atom_site_occupancy
  Cu  Cu0  1  0.750000  0.000000  0.750000  1
  Cu  Cu1  1  0.250000  0.000000  0.750000  1
  Cu  Cu2  1  0.250000  0.000000  0.250000  1
  Cu  Cu3  1  0.750000  0.000000  0.250000  1
  Cu  Cu4  1  0.500000  0.793507  0.500000  1
  Cu  Cu5  1  0.000000  0.206493  0.000000  1
  Bi  Bi6  1  0.500000  0.247610  0.500000  1
  Bi  Bi7  1  0.000000  0.752390  0.000000  1
  Se  Se8  1  0.500000  0.608940  0.192810  1
  Se  Se9  1  0.000000  0.391060  0.307190  1
  Se  Se10  1  0.500000  0.608940  0.807190  1
  Se  Se11  1  0.000000  0.391060  0.692810  1
  Cl  Cl12  1  0.500000  0.151157  0.000000  1
  Cl  Cl13  1  0.000000  0.848843  0.500000  1
  O  O14  1  0.500000  0.991242  0.636357  1
  O  O15  1  0.000000  0.008758  0.863643  1
  O  O16  1  0.500000  0.991242  0.363643  1
  O  O17  1  0.000000  0.008758  0.136357  1
  O  O18  1  0.711375  0.754662  0.165916  1
  O  O19  1  0.211375  0.245338  0.334084  1
  O  O20  1  0.288625  0.754662  0.834084  1
  O  O21  1  0.788625  0.245338  0.665916  1
  O  O22  1  0.788625  0.245338  0.334084  1
  O  O23  1  0.288625  0.754662  0.165916  1
  O  O24  1  0.211375  0.245338  0.665916  1
  O  O25  1  0.711375  0.754662  0.834084  1
  O  O26  1  0.500000  0.587636  0.632065  1
  O  O27  1  0.000000  0.412364  0.867935  1
  O  O28  1  0.500000  0.587636  0.367935  1
  O  O29  1  0.000000  0.412364  0.132065  1
