# generated using pymatgen
data_BaLa4Cu5O12
_symmetry_space_group_name_H-M   'P 1'
_cell_length_a   8.72316873
_cell_length_b   8.72316873
_cell_length_c   3.88443271
_cell_angle_alpha   90.00000000
_cell_angle_beta   90.00000000
_cell_angle_gamma   90.00000000
_symmetry_Int_Tables_number   1
_chemical_formula_structural   BaLa4Cu5O12
_chemical_formula_sum   'Ba1 La4 Cu5 O12'
_cell_volume   295.58075120
_cell_formula_units_Z   1
loop_
 _symmetry_equiv_pos_site_id
 _symmetry_equiv_pos_as_xyz
  1  'x, y, z'
loop_
 _atom_site_type_symbol
 _atom_site_label
 _atom_site_symmetry_multiplicity
 _atom_site_fract_x
 _atom_site_fract_y
 _atom_site_fract_z
 _atom_site_occupancy
  Ba  Ba0  1  0.500000  0.500000  0.500000  1
  La  La1  1  0.126081  0.701379  0.500000  1
  La  La2  1  0.873919  0.298621  0.500000  1
  La  La3  1  0.701379  0.873919  0.500000  1
  La  La4  1  0.298621  0.126081  0.500000  1
  Cu  Cu5  1  0.834374  0.593961  0.000000  1
  Cu  Cu6  1  0.000000  0.000000  0.000000  1
  Cu  Cu7  1  0.593961  0.165626  0.000000  1
  Cu  Cu8  1  0.406039  0.834374  0.000000  1
  Cu  Cu9  1  0.165626  0.406039  0.000000  1
  O  O10  1  0.589767  0.151816  0.500000  1
  O  O11  1  0.265996  0.604969  0.000000  1
  O  O12  1  0.787112  0.054892  0.000000  1
  O  O13  1  0.212888  0.945108  0.000000  1
  O  O14  1  0.604969  0.734004  0.000000  1
  O  O15  1  0.054892  0.212888  0.000000  1
  O  O16  1  0.734004  0.395031  0.000000  1
  O  O17  1  0.848184  0.589767  0.500000  1
  O  O18  1  0.410233  0.848184  0.500000  1
  O  O19  1  0.151816  0.410233  0.500000  1
  O  O20  1  0.395031  0.265996  0.000000  1
  O  O21  1  0.945108  0.787112  0.000000  1
