# generated using pymatgen
data_Ge5Ir4
_symmetry_space_group_name_H-M   'P 1'
_cell_length_a   5.69136472
_cell_length_b   5.69136472
_cell_length_c   18.56880916
_cell_angle_alpha   90.00000000
_cell_angle_beta   90.00000000
_cell_angle_gamma   90.00000000
_symmetry_Int_Tables_number   1
_chemical_formula_structural   Ge5Ir4
_chemical_formula_sum   'Ge20 Ir16'
_cell_volume   601.47403997
_cell_formula_units_Z   4
loop_
 _symmetry_equiv_pos_site_id
 _symmetry_equiv_pos_as_xyz
  1  'x, y, z'
loop_
 _atom_site_type_symbol
 _atom_site_label
 _atom_site_symmetry_multiplicity
 _atom_site_fract_x
 _atom_site_fract_y
 _atom_site_fract_z
 _atom_site_occupancy
  Ge  Ge0  1  0.677580  0.322420  0.250000  1
  Ge  Ge1  1  0.322420  0.322420  0.750000  1
  Ge  Ge2  1  0.677580  0.677580  0.750000  1
  Ge  Ge3  1  0.322420  0.677580  0.250000  1
  Ge  Ge4  1  0.802267  0.342680  0.055076  1
  Ge  Ge5  1  0.342680  0.197733  0.944924  1
  Ge  Ge6  1  0.657320  0.802267  0.944924  1
  Ge  Ge7  1  0.197733  0.657320  0.055076  1
  Ge  Ge8  1  0.657320  0.197733  0.444924  1
  Ge  Ge9  1  0.342680  0.802267  0.444924  1
  Ge  Ge10  1  0.802267  0.657320  0.555076  1
  Ge  Ge11  1  0.197733  0.342680  0.555076  1
  Ge  Ge12  1  0.775747  0.854931  0.144620  1
  Ge  Ge13  1  0.854931  0.224253  0.855380  1
  Ge  Ge14  1  0.145069  0.775747  0.855380  1
  Ge  Ge15  1  0.224253  0.145069  0.144620  1
  Ge  Ge16  1  0.145069  0.224253  0.355380  1
  Ge  Ge17  1  0.854931  0.775747  0.355380  1
  Ge  Ge18  1  0.775747  0.145069  0.644620  1
  Ge  Ge19  1  0.224253  0.854931  0.644620  1
  Ir  Ir20  1  0.000000  0.000000  0.250000  1
  Ir  Ir21  1  0.000000  0.000000  0.750000  1
  Ir  Ir22  1  0.000000  0.000000  0.000000  1
  Ir  Ir23  1  0.000000  0.000000  0.500000  1
  Ir  Ir24  1  0.500000  0.500000  0.135953  1
  Ir  Ir25  1  0.500000  0.500000  0.864047  1
  Ir  Ir26  1  0.500000  0.500000  0.364047  1
  Ir  Ir27  1  0.500000  0.500000  0.635953  1
  Ir  Ir28  1  0.500000  0.000000  0.055578  1
  Ir  Ir29  1  0.000000  0.500000  0.944422  1
  Ir  Ir30  1  0.000000  0.500000  0.444422  1
  Ir  Ir31  1  0.500000  0.000000  0.555578  1
  Ir  Ir32  1  0.500000  0.000000  0.323325  1
  Ir  Ir33  1  0.000000  0.500000  0.676675  1
  Ir  Ir34  1  0.000000  0.500000  0.176675  1
  Ir  Ir35  1  0.500000  0.000000  0.823325  1
