# generated using pymatgen
data_CsPr(PO3)4
_symmetry_space_group_name_H-M   'P 1'
_cell_length_a   10.67484319
_cell_length_b   9.19967572
_cell_length_c   13.20229761
_cell_angle_alpha   90.00000000
_cell_angle_beta   124.17999227
_cell_angle_gamma   90.00000000
_symmetry_Int_Tables_number   1
_chemical_formula_structural   CsPr(PO3)4
_chemical_formula_sum   'Cs4 Pr4 P16 O48'
_cell_volume   1072.59159424
_cell_formula_units_Z   4
loop_
 _symmetry_equiv_pos_site_id
 _symmetry_equiv_pos_as_xyz
  1  'x, y, z'
loop_
 _atom_site_type_symbol
 _atom_site_label
 _atom_site_symmetry_multiplicity
 _atom_site_fract_x
 _atom_site_fract_y
 _atom_site_fract_z
 _atom_site_occupancy
  Cs  Cs0  1  0.226149  0.566015  0.539258  1
  Cs  Cs1  1  0.773851  0.066015  0.960742  1
  Cs  Cs2  1  0.773851  0.433985  0.460742  1
  Cs  Cs3  1  0.226149  0.933985  0.039258  1
  Pr  Pr4  1  0.683326  0.725760  0.181751  1
  Pr  Pr5  1  0.316674  0.225760  0.318249  1
  Pr  Pr6  1  0.683326  0.774240  0.681751  1
  Pr  Pr7  1  0.316674  0.274240  0.818249  1
  P  P8  1  0.199837  0.397647  0.024737  1
  P  P9  1  0.966934  0.030888  0.715667  1
  P  P10  1  0.966934  0.469112  0.215667  1
  P  P11  1  0.384355  0.593445  0.240645  1
  P  P12  1  0.323804  0.675553  0.862680  1
  P  P13  1  0.615645  0.093445  0.259355  1
  P  P14  1  0.323804  0.824447  0.362680  1
  P  P15  1  0.033066  0.969112  0.284333  1
  P  P16  1  0.615645  0.406555  0.759355  1
  P  P17  1  0.676196  0.324447  0.137320  1
  P  P18  1  0.384355  0.906555  0.740645  1
  P  P19  1  0.199837  0.102353  0.524737  1
  P  P20  1  0.033066  0.530888  0.784333  1
  P  P21  1  0.800163  0.897647  0.475263  1
  P  P22  1  0.800163  0.602353  0.975263  1
  P  P23  1  0.676196  0.175553  0.637320  1
  O  O24  1  0.046634  0.461951  0.903699  1
  O  O25  1  0.511936  0.676728  0.251390  1
  O  O26  1  0.633693  0.037052  0.670582  1
  O  O27  1  0.159517  0.840100  0.343193  1
  O  O28  1  0.953366  0.538049  0.096301  1
  O  O29  1  0.421464  0.035745  0.822351  1
  O  O30  1  0.159517  0.659900  0.843193  1
  O  O31  1  0.264556  0.550057  0.099254  1
  O  O32  1  0.300153  0.343447  0.986880  1
  O  O33  1  0.366307  0.537052  0.829418  1
  O  O34  1  0.838298  0.794747  0.407993  1
  O  O35  1  0.075316  0.079266  0.223957  1
  O  O36  1  0.511936  0.823272  0.751390  1
  O  O37  1  0.277401  0.705914  0.255180  1
  O  O38  1  0.075316  0.420734  0.723957  1
  O  O39  1  0.735444  0.449943  0.900746  1
  O  O40  1  0.161702  0.205253  0.592007  1
  O  O41  1  0.421464  0.464255  0.322351  1
  O  O42  1  0.161702  0.294747  0.092007  1
  O  O43  1  0.488064  0.323272  0.748610  1
  O  O44  1  0.699847  0.656553  0.013120  1
  O  O45  1  0.264556  0.949943  0.599254  1
  O  O46  1  0.366307  0.962948  0.329418  1
  O  O47  1  0.722599  0.294086  0.744820  1
  O  O48  1  0.735444  0.050057  0.400746  1
  O  O49  1  0.633693  0.462948  0.170582  1
  O  O50  1  0.699847  0.843447  0.513120  1
  O  O51  1  0.488064  0.176728  0.248610  1
  O  O52  1  0.879198  0.598344  0.706572  1
  O  O53  1  0.120802  0.401656  0.293428  1
  O  O54  1  0.120802  0.098344  0.793428  1
  O  O55  1  0.573236  0.255505  0.014194  1
  O  O56  1  0.578536  0.964255  0.177649  1
  O  O57  1  0.953366  0.961951  0.596301  1
  O  O58  1  0.840483  0.159900  0.656807  1
  O  O59  1  0.838298  0.705253  0.907993  1
  O  O60  1  0.924684  0.920734  0.776043  1
  O  O61  1  0.879198  0.901656  0.206572  1
  O  O62  1  0.300153  0.156553  0.486880  1
  O  O63  1  0.573236  0.244495  0.514194  1
  O  O64  1  0.840483  0.340100  0.156807  1
  O  O65  1  0.426764  0.755505  0.485806  1
  O  O66  1  0.277401  0.794086  0.755180  1
  O  O67  1  0.924684  0.579266  0.276043  1
  O  O68  1  0.426764  0.744495  0.985806  1
  O  O69  1  0.578536  0.535745  0.677649  1
  O  O70  1  0.722599  0.205914  0.244820  1
  O  O71  1  0.046634  0.038049  0.403699  1
