# generated using pymatgen
data_KUCuSe3
_symmetry_space_group_name_H-M   'P 1'
_cell_length_a   7.66130379
_cell_length_b   7.66130379
_cell_length_c   10.69996262
_cell_angle_alpha   90.00000000
_cell_angle_beta   90.00000000
_cell_angle_gamma   148.92135472
_symmetry_Int_Tables_number   1
_chemical_formula_structural   KUCuSe3
_chemical_formula_sum   'K2 U2 Cu2 Se6'
_cell_volume   324.20337797
_cell_formula_units_Z   2
loop_
 _symmetry_equiv_pos_site_id
 _symmetry_equiv_pos_as_xyz
  1  'x, y, z'
loop_
 _atom_site_type_symbol
 _atom_site_label
 _atom_site_symmetry_multiplicity
 _atom_site_fract_x
 _atom_site_fract_y
 _atom_site_fract_z
 _atom_site_occupancy
  K  K0  1  0.253488  0.746512  0.750000  1
  K  K1  1  0.746512  0.253488  0.250000  1
  U  U2  1  0.000000  0.000000  0.500000  1
  U  U3  1  0.000000  0.000000  0.000000  1
  Cu  Cu4  1  0.467370  0.532630  0.250000  1
  Cu  Cu5  1  0.532630  0.467370  0.750000  1
  Se  Se6  1  0.065067  0.934933  0.250000  1
  Se  Se7  1  0.626260  0.373740  0.938286  1
  Se  Se8  1  0.373740  0.626260  0.061714  1
  Se  Se9  1  0.626260  0.373740  0.561714  1
  Se  Se10  1  0.373740  0.626260  0.438286  1
  Se  Se11  1  0.934933  0.065067  0.750000  1
