# generated using pymatgen
data_In3Au10
_symmetry_space_group_name_H-M   'P 1'
_cell_length_a   10.90776601
_cell_length_b   10.90776601
_cell_length_c   4.79678230
_cell_angle_alpha   90.00000000
_cell_angle_beta   90.00000000
_cell_angle_gamma   120.00000000
_symmetry_Int_Tables_number   1
_chemical_formula_structural   In3Au10
_chemical_formula_sum   'In6 Au20'
_cell_volume   494.25635995
_cell_formula_units_Z   2
loop_
 _symmetry_equiv_pos_site_id
 _symmetry_equiv_pos_as_xyz
  1  'x, y, z'
loop_
 _atom_site_type_symbol
 _atom_site_label
 _atom_site_symmetry_multiplicity
 _atom_site_fract_x
 _atom_site_fract_y
 _atom_site_fract_z
 _atom_site_occupancy
  In  In0  1  0.638446  0.894456  0.750000  1
  In  In1  1  0.256010  0.361554  0.750000  1
  In  In2  1  0.105544  0.743990  0.750000  1
  In  In3  1  0.361554  0.105544  0.250000  1
  In  In4  1  0.743990  0.638446  0.250000  1
  In  In5  1  0.894456  0.256010  0.250000  1
  Au  Au6  1  0.877321  0.819196  0.750000  1
  Au  Au7  1  0.941875  0.122679  0.750000  1
  Au  Au8  1  0.180804  0.058125  0.750000  1
  Au  Au9  1  0.122679  0.180804  0.250000  1
  Au  Au10  1  0.058125  0.877321  0.250000  1
  Au  Au11  1  0.819196  0.941875  0.250000  1
  Au  Au12  1  0.564340  0.590121  0.750000  1
  Au  Au13  1  0.025782  0.435660  0.750000  1
  Au  Au14  1  0.409879  0.974218  0.750000  1
  Au  Au15  1  0.435660  0.409879  0.250000  1
  Au  Au16  1  0.974218  0.564340  0.250000  1
  Au  Au17  1  0.590121  0.025782  0.250000  1
  Au  Au18  1  0.795812  0.511382  0.750000  1
  Au  Au19  1  0.715570  0.204188  0.750000  1
  Au  Au20  1  0.488618  0.284430  0.750000  1
  Au  Au21  1  0.204188  0.488618  0.250000  1
  Au  Au22  1  0.284430  0.795812  0.250000  1
  Au  Au23  1  0.511382  0.715570  0.250000  1
  Au  Au24  1  0.666667  0.333333  0.250000  1
  Au  Au25  1  0.333333  0.666667  0.750000  1
