# generated using pymatgen
data_Li2Ca2Si5O13
_symmetry_space_group_name_H-M   'P 1'
_cell_length_a   7.58673946
_cell_length_b   7.85068403
_cell_length_c   10.30638500
_cell_angle_alpha   83.21769481
_cell_angle_beta   68.82670127
_cell_angle_gamma   75.76770574
_symmetry_Int_Tables_number   1
_chemical_formula_structural   Li2Ca2Si5O13
_chemical_formula_sum   'Li4 Ca4 Si10 O26'
_cell_volume   554.55842730
_cell_formula_units_Z   2
loop_
 _symmetry_equiv_pos_site_id
 _symmetry_equiv_pos_as_xyz
  1  'x, y, z'
loop_
 _atom_site_type_symbol
 _atom_site_label
 _atom_site_symmetry_multiplicity
 _atom_site_fract_x
 _atom_site_fract_y
 _atom_site_fract_z
 _atom_site_occupancy
  Li  Li0  1  0.162270  0.407493  0.747677  1
  Li  Li1  1  0.837730  0.592507  0.252323  1
  Li  Li2  1  0.177387  0.078271  0.872660  1
  Li  Li3  1  0.822613  0.921729  0.127340  1
  Ca  Ca4  1  0.450945  0.852446  0.391279  1
  Ca  Ca5  1  0.549055  0.147554  0.608721  1
  Ca  Ca6  1  0.976108  0.832953  0.393990  1
  Ca  Ca7  1  0.023892  0.167047  0.606010  1
  Si  Si8  1  0.735262  0.231944  0.266051  1
  Si  Si9  1  0.635633  0.698870  0.038873  1
  Si  Si10  1  0.782105  0.307569  0.962091  1
  Si  Si11  1  0.264738  0.768056  0.733949  1
  Si  Si12  1  0.684763  0.550805  0.591868  1
  Si  Si13  1  0.364367  0.301130  0.961127  1
  Si  Si14  1  0.315237  0.449195  0.408132  1
  Si  Si15  1  0.853920  0.771421  0.736035  1
  Si  Si16  1  0.146080  0.228579  0.263965  1
  Si  Si17  1  0.217895  0.692431  0.037909  1
  O  O18  1  0.288979  0.178463  0.103629  1
  O  O19  1  0.778901  0.501964  0.006645  1
  O  O20  1  0.076539  0.691435  0.741169  1
  O  O21  1  0.297696  0.942410  0.635966  1
  O  O22  1  0.745856  0.340450  0.577435  1
  O  O23  1  0.781592  0.175419  0.103229  1
  O  O24  1  0.652751  0.774413  0.170735  1
  O  O25  1  0.347249  0.225587  0.829265  1
  O  O26  1  0.923461  0.308565  0.258831  1
  O  O27  1  0.028049  0.764404  0.167346  1
  O  O28  1  0.841205  0.941630  0.631948  1
  O  O29  1  0.702304  0.057590  0.364034  1
  O  O30  1  0.711021  0.821537  0.896371  1
  O  O31  1  0.254144  0.659550  0.422565  1
  O  O32  1  0.971951  0.235596  0.832654  1
  O  O33  1  0.218408  0.824581  0.896771  1
  O  O34  1  0.414272  0.688156  0.067153  1
  O  O35  1  0.196022  0.394608  0.316230  1
  O  O36  1  0.449139  0.602148  0.688638  1
  O  O37  1  0.158795  0.058370  0.368052  1
  O  O38  1  0.803978  0.605392  0.683770  1
  O  O39  1  0.585728  0.311844  0.932847  1
  O  O40  1  0.277153  0.329162  0.551898  1
  O  O41  1  0.722847  0.670838  0.448102  1
  O  O42  1  0.550861  0.397852  0.311362  1
  O  O43  1  0.221099  0.498036  0.993355  1
