# generated using pymatgen
data_Ge4PbO9
_symmetry_space_group_name_H-M   'P 1'
_cell_length_a   11.55887022
_cell_length_b   11.55887022
_cell_length_c   4.82870594
_cell_angle_alpha   90.00000000
_cell_angle_beta   90.00000000
_cell_angle_gamma   120.00000000
_symmetry_Int_Tables_number   1
_chemical_formula_structural   Ge4PbO9
_chemical_formula_sum   'Ge12 Pb3 O27'
_cell_volume   558.71735988
_cell_formula_units_Z   3
loop_
 _symmetry_equiv_pos_site_id
 _symmetry_equiv_pos_as_xyz
  1  'x, y, z'
loop_
 _atom_site_type_symbol
 _atom_site_label
 _atom_site_symmetry_multiplicity
 _atom_site_fract_x
 _atom_site_fract_y
 _atom_site_fract_z
 _atom_site_occupancy
  Ge  Ge0  1  0.149177  0.490586  0.398377  1
  Ge  Ge1  1  0.509414  0.658590  0.398377  1
  Ge  Ge2  1  0.341410  0.850823  0.398377  1
  Ge  Ge3  1  0.658590  0.509414  0.601623  1
  Ge  Ge4  1  0.850823  0.341410  0.601623  1
  Ge  Ge5  1  0.490586  0.149177  0.601623  1
  Ge  Ge6  1  0.180299  0.000000  0.500000  1
  Ge  Ge7  1  0.000000  0.180299  0.500000  1
  Ge  Ge8  1  0.819701  0.819701  0.500000  1
  Ge  Ge9  1  0.333333  0.666667  0.888383  1
  Ge  Ge10  1  0.666667  0.333333  0.111617  1
  Ge  Ge11  1  0.000000  0.000000  0.000000  1
  Pb  Pb12  1  0.673888  0.000000  0.000000  1
  Pb  Pb13  1  0.000000  0.673888  0.000000  1
  Pb  Pb14  1  0.326112  0.326112  0.000000  1
  O  O15  1  0.093752  0.154359  0.762288  1
  O  O16  1  0.845641  0.939393  0.762288  1
  O  O17  1  0.060607  0.906248  0.762288  1
  O  O18  1  0.939393  0.845641  0.237712  1
  O  O19  1  0.906248  0.060607  0.237712  1
  O  O20  1  0.154359  0.093752  0.237712  1
  O  O21  1  0.108604  0.324882  0.292999  1
  O  O22  1  0.675118  0.783722  0.292999  1
  O  O23  1  0.216278  0.891396  0.292999  1
  O  O24  1  0.783722  0.675118  0.707001  1
  O  O25  1  0.891396  0.216278  0.707001  1
  O  O26  1  0.324882  0.108604  0.707001  1
  O  O27  1  0.262157  0.511260  0.665922  1
  O  O28  1  0.488740  0.750898  0.665922  1
  O  O29  1  0.249102  0.737843  0.665922  1
  O  O30  1  0.750898  0.488740  0.334078  1
  O  O31  1  0.737843  0.249102  0.334078  1
  O  O32  1  0.511260  0.262157  0.334078  1
  O  O33  1  0.179525  0.600642  0.117827  1
  O  O34  1  0.399358  0.578883  0.117827  1
  O  O35  1  0.421117  0.820475  0.117827  1
  O  O36  1  0.578883  0.399358  0.882173  1
  O  O37  1  0.820475  0.421117  0.882173  1
  O  O38  1  0.600642  0.179525  0.882173  1
  O  O39  1  0.488239  0.000000  0.500000  1
  O  O40  1  0.000000  0.488239  0.500000  1
  O  O41  1  0.511761  0.511761  0.500000  1
