# generated using pymatgen
data_KNa9In2O8
_symmetry_space_group_name_H-M   'P 1'
_cell_length_a   7.36590340
_cell_length_b   9.20003544
_cell_length_c   18.22382348
_cell_angle_alpha   90.00000000
_cell_angle_beta   90.00000000
_cell_angle_gamma   90.00000000
_symmetry_Int_Tables_number   1
_chemical_formula_structural   KNa9In2O8
_chemical_formula_sum   'K4 Na36 In8 O32'
_cell_volume   1234.96605194
_cell_formula_units_Z   4
loop_
 _symmetry_equiv_pos_site_id
 _symmetry_equiv_pos_as_xyz
  1  'x, y, z'
loop_
 _atom_site_type_symbol
 _atom_site_label
 _atom_site_symmetry_multiplicity
 _atom_site_fract_x
 _atom_site_fract_y
 _atom_site_fract_z
 _atom_site_occupancy
  K  K0  1  0.750000  0.858870  0.032344  1
  K  K1  1  0.250000  0.358870  0.467656  1
  K  K2  1  0.250000  0.141130  0.967656  1
  K  K3  1  0.750000  0.641130  0.532344  1
  Na  Na4  1  0.250000  0.153286  0.613834  1
  Na  Na5  1  0.750000  0.177281  0.803085  1
  Na  Na6  1  0.750000  0.653286  0.886166  1
  Na  Na7  1  0.750000  0.176457  0.646553  1
  Na  Na8  1  0.250000  0.346714  0.113834  1
  Na  Na9  1  0.995659  0.900744  0.881530  1
  Na  Na10  1  0.750000  0.846714  0.386166  1
  Na  Na11  1  0.750000  0.322719  0.303085  1
  Na  Na12  1  0.250000  0.676457  0.853447  1
  Na  Na13  1  0.495659  0.400744  0.618470  1
  Na  Na14  1  0.036871  0.044703  0.429098  1
  Na  Na15  1  0.750000  0.323543  0.146553  1
  Na  Na16  1  0.504341  0.900744  0.881530  1
  Na  Na17  1  0.495659  0.099256  0.118470  1
  Na  Na18  1  0.457702  0.950762  0.725060  1
  Na  Na19  1  0.250000  0.823543  0.353447  1
  Na  Na20  1  0.542298  0.049238  0.274940  1
  Na  Na21  1  0.963129  0.544703  0.070902  1
  Na  Na22  1  0.957702  0.049238  0.274940  1
  Na  Na23  1  0.536871  0.955297  0.570902  1
  Na  Na24  1  0.542298  0.450762  0.774940  1
  Na  Na25  1  0.036871  0.455297  0.929098  1
  Na  Na26  1  0.463129  0.044703  0.429098  1
  Na  Na27  1  0.250000  0.677281  0.696915  1
  Na  Na28  1  0.963129  0.955297  0.570902  1
  Na  Na29  1  0.042298  0.950762  0.725060  1
  Na  Na30  1  0.995659  0.599256  0.381530  1
  Na  Na31  1  0.504341  0.599256  0.381530  1
  Na  Na32  1  0.463129  0.455297  0.929098  1
  Na  Na33  1  0.536871  0.544703  0.070902  1
  Na  Na34  1  0.250000  0.822719  0.196915  1
  Na  Na35  1  0.457702  0.549238  0.225060  1
  Na  Na36  1  0.004341  0.400744  0.618470  1
  Na  Na37  1  0.042298  0.549238  0.225060  1
  Na  Na38  1  0.004341  0.099256  0.118470  1
  Na  Na39  1  0.957702  0.450762  0.774940  1
  In  In40  1  0.750000  0.783780  0.215692  1
  In  In41  1  0.250000  0.216220  0.784308  1
  In  In42  1  0.750000  0.257326  0.467096  1
  In  In43  1  0.750000  0.716220  0.715692  1
  In  In44  1  0.250000  0.757326  0.032904  1
  In  In45  1  0.750000  0.242674  0.967096  1
  In  In46  1  0.250000  0.283780  0.284308  1
  In  In47  1  0.250000  0.742674  0.532904  1
  O  O48  1  0.516707  0.783358  0.283085  1
  O  O49  1  0.250000  0.412699  0.842234  1
  O  O50  1  0.016707  0.216642  0.716915  1
  O  O51  1  0.750000  0.510499  0.666762  1
  O  O52  1  0.750000  0.989501  0.166762  1
  O  O53  1  0.022679  0.701213  0.967686  1
  O  O54  1  0.250000  0.896187  0.622509  1
  O  O55  1  0.477321  0.701213  0.967686  1
  O  O56  1  0.483293  0.216642  0.716915  1
  O  O57  1  0.750000  0.040863  0.915027  1
  O  O58  1  0.983293  0.716642  0.783085  1
  O  O59  1  0.022679  0.798787  0.467686  1
  O  O60  1  0.250000  0.489501  0.333238  1
  O  O61  1  0.522679  0.201213  0.532314  1
  O  O62  1  0.250000  0.010499  0.833238  1
  O  O63  1  0.750000  0.587301  0.157766  1
  O  O64  1  0.483293  0.283358  0.216915  1
  O  O65  1  0.750000  0.396187  0.877491  1
  O  O66  1  0.522679  0.298787  0.032314  1
  O  O67  1  0.977321  0.201213  0.532314  1
  O  O68  1  0.250000  0.959137  0.084973  1
  O  O69  1  0.750000  0.103813  0.377491  1
  O  O70  1  0.250000  0.087301  0.342234  1
  O  O71  1  0.750000  0.912699  0.657766  1
  O  O72  1  0.983293  0.783358  0.283085  1
  O  O73  1  0.750000  0.459137  0.415027  1
  O  O74  1  0.250000  0.603813  0.122509  1
  O  O75  1  0.250000  0.540863  0.584973  1
  O  O76  1  0.016707  0.283358  0.216915  1
  O  O77  1  0.977321  0.298787  0.032314  1
  O  O78  1  0.477321  0.798787  0.467686  1
  O  O79  1  0.516707  0.716642  0.783085  1
