# generated using pymatgen
data_Sb3C2N(OF8)2
_symmetry_space_group_name_H-M   'P 1'
_cell_length_a   9.87351021
_cell_length_b   7.56718772
_cell_length_c   21.55840018
_cell_angle_alpha   90.00000000
_cell_angle_beta   94.58202257
_cell_angle_gamma   90.00000000
_symmetry_Int_Tables_number   1
_chemical_formula_structural   Sb3C2N(OF8)2
_chemical_formula_sum   'Sb12 C8 N4 O8 F64'
_cell_volume   1605.58161149
_cell_formula_units_Z   4
loop_
 _symmetry_equiv_pos_site_id
 _symmetry_equiv_pos_as_xyz
  1  'x, y, z'
loop_
 _atom_site_type_symbol
 _atom_site_label
 _atom_site_symmetry_multiplicity
 _atom_site_fract_x
 _atom_site_fract_y
 _atom_site_fract_z
 _atom_site_occupancy
  Sb  Sb0  1  0.328699  0.249943  0.984398  1
  Sb  Sb1  1  0.233278  0.273306  0.748037  1
  Sb  Sb2  1  0.671301  0.749943  0.515602  1
  Sb  Sb3  1  0.671301  0.750057  0.015602  1
  Sb  Sb4  1  0.796728  0.108241  0.898248  1
  Sb  Sb5  1  0.233278  0.226694  0.248037  1
  Sb  Sb6  1  0.766722  0.773306  0.751963  1
  Sb  Sb7  1  0.796728  0.391759  0.398248  1
  Sb  Sb8  1  0.766722  0.726694  0.251963  1
  Sb  Sb9  1  0.328699  0.250057  0.484398  1
  Sb  Sb10  1  0.203272  0.891759  0.101752  1
  Sb  Sb11  1  0.203272  0.608241  0.601752  1
  C  C12  1  0.690666  0.242359  0.139429  1
  C  C13  1  0.112167  0.652410  0.900020  1
  C  C14  1  0.887833  0.152410  0.599980  1
  C  C15  1  0.112167  0.847590  0.400020  1
  C  C16  1  0.690666  0.257641  0.639429  1
  C  C17  1  0.309334  0.757641  0.860571  1
  C  C18  1  0.887833  0.347590  0.099980  1
  C  C19  1  0.309334  0.742359  0.360571  1
  N  N20  1  0.199264  0.761018  0.885239  1
  N  N21  1  0.800736  0.238982  0.114761  1
  N  N22  1  0.800736  0.261018  0.614761  1
  N  N23  1  0.199264  0.738982  0.385239  1
  O  O24  1  0.973306  0.065094  0.583817  1
  O  O25  1  0.026694  0.934906  0.416183  1
  O  O26  1  0.973306  0.434906  0.083817  1
  O  O27  1  0.026694  0.565094  0.916183  1
  O  O28  1  0.410465  0.729768  0.338041  1
  O  O29  1  0.410465  0.770232  0.838041  1
  O  O30  1  0.589535  0.229768  0.161959  1
  O  O31  1  0.589535  0.270232  0.661959  1
  F  F32  1  0.902890  0.250769  0.348900  1
  F  F33  1  0.206983  0.104723  0.811041  1
  F  F34  1  0.183270  0.475090  0.794811  1
  F  F35  1  0.267965  0.465704  0.678409  1
  F  F36  1  0.670680  0.580508  0.080991  1
  F  F37  1  0.853060  0.820259  0.038226  1
  F  F38  1  0.068061  0.067348  0.088305  1
  F  F39  1  0.284944  0.106959  0.688817  1
  F  F40  1  0.931939  0.567348  0.411695  1
  F  F41  1  0.050947  0.265432  0.712145  1
  F  F42  1  0.510622  0.289623  0.016736  1
  F  F43  1  0.949053  0.765432  0.787855  1
  F  F44  1  0.329320  0.419492  0.919009  1
  F  F45  1  0.816730  0.975090  0.705189  1
  F  F46  1  0.097110  0.750769  0.151100  1
  F  F47  1  0.324110  0.436853  0.557958  1
  F  F48  1  0.610831  0.941423  0.063338  1
  F  F49  1  0.610831  0.558577  0.563338  1
  F  F50  1  0.324110  0.063147  0.057958  1
  F  F51  1  0.734005  0.912969  0.457781  1
  F  F52  1  0.841533  0.280886  0.475724  1
  F  F53  1  0.715056  0.606959  0.811183  1
  F  F54  1  0.489378  0.710377  0.983264  1
  F  F55  1  0.206983  0.395277  0.311041  1
  F  F56  1  0.732035  0.965704  0.821591  1
  F  F57  1  0.265995  0.412969  0.042219  1
  F  F58  1  0.068061  0.432652  0.588305  1
  F  F59  1  0.636172  0.237846  0.880422  1
  F  F60  1  0.582596  0.680124  0.225903  1
  F  F61  1  0.183270  0.024910  0.294811  1
  F  F62  1  0.158467  0.719114  0.524276  1
  F  F63  1  0.284944  0.393041  0.188817  1
  F  F64  1  0.670680  0.919492  0.580991  1
  F  F65  1  0.636172  0.262154  0.380422  1
  F  F66  1  0.267965  0.034296  0.178409  1
  F  F67  1  0.389169  0.441423  0.436662  1
  F  F68  1  0.793017  0.895277  0.188959  1
  F  F69  1  0.417404  0.180124  0.274097  1
  F  F70  1  0.050947  0.234568  0.212145  1
  F  F71  1  0.734005  0.587031  0.957781  1
  F  F72  1  0.816730  0.524910  0.205189  1
  F  F73  1  0.146940  0.179741  0.961774  1
  F  F74  1  0.732035  0.534296  0.321591  1
  F  F75  1  0.363828  0.762154  0.119578  1
  F  F76  1  0.265995  0.087031  0.542219  1
  F  F77  1  0.146940  0.320259  0.461774  1
  F  F78  1  0.715056  0.893041  0.311183  1
  F  F79  1  0.902890  0.249231  0.848900  1
  F  F80  1  0.949053  0.734568  0.287855  1
  F  F81  1  0.417404  0.319876  0.774097  1
  F  F82  1  0.329320  0.080508  0.419009  1
  F  F83  1  0.853060  0.679741  0.538226  1
  F  F84  1  0.582596  0.819876  0.725903  1
  F  F85  1  0.793017  0.604723  0.688959  1
  F  F86  1  0.489378  0.789623  0.483264  1
  F  F87  1  0.675890  0.936853  0.942042  1
  F  F88  1  0.510622  0.210377  0.516736  1
  F  F89  1  0.158467  0.780886  0.024276  1
  F  F90  1  0.675890  0.563147  0.442042  1
  F  F91  1  0.931939  0.932652  0.911695  1
  F  F92  1  0.841533  0.219114  0.975724  1
  F  F93  1  0.389169  0.058577  0.936662  1
  F  F94  1  0.097110  0.749231  0.651100  1
  F  F95  1  0.363828  0.737846  0.619578  1
