# generated using pymatgen
data_Rb2Tb3AlF16
_symmetry_space_group_name_H-M   'P 1'
_cell_length_a   7.81081340
_cell_length_b   7.81081340
_cell_length_c   12.76574649
_cell_angle_alpha   90.00000000
_cell_angle_beta   90.00000000
_cell_angle_gamma   120.00000000
_symmetry_Int_Tables_number   1
_chemical_formula_structural   Rb2Tb3AlF16
_chemical_formula_sum   'Rb4 Tb6 Al2 F32'
_cell_volume   674.48045965
_cell_formula_units_Z   2
loop_
 _symmetry_equiv_pos_site_id
 _symmetry_equiv_pos_as_xyz
  1  'x, y, z'
loop_
 _atom_site_type_symbol
 _atom_site_label
 _atom_site_symmetry_multiplicity
 _atom_site_fract_x
 _atom_site_fract_y
 _atom_site_fract_z
 _atom_site_occupancy
  Rb  Rb0  1  0.333333  0.666667  0.435792  1
  Rb  Rb1  1  0.666667  0.333333  0.564208  1
  Rb  Rb2  1  0.666667  0.333333  0.935792  1
  Rb  Rb3  1  0.333333  0.666667  0.064208  1
  Tb  Tb4  1  0.167180  0.832820  0.750000  1
  Tb  Tb5  1  0.832820  0.167180  0.250000  1
  Tb  Tb6  1  0.167180  0.334359  0.750000  1
  Tb  Tb7  1  0.334359  0.167180  0.250000  1
  Tb  Tb8  1  0.665641  0.832820  0.750000  1
  Tb  Tb9  1  0.832820  0.665641  0.250000  1
  Al  Al10  1  0.000000  0.000000  0.000000  1
  Al  Al11  1  0.000000  0.000000  0.500000  1
  F  F12  1  0.182686  0.817314  0.250000  1
  F  F13  1  0.549924  0.099848  0.154309  1
  F  F14  1  0.099848  0.549924  0.654309  1
  F  F15  1  0.224234  0.112117  0.079852  1
  F  F16  1  0.224234  0.112117  0.420148  1
  F  F17  1  0.182686  0.365373  0.250000  1
  F  F18  1  0.450076  0.900152  0.654309  1
  F  F19  1  0.549924  0.450076  0.345691  1
  F  F20  1  0.112117  0.224234  0.579852  1
  F  F21  1  0.775766  0.887883  0.579852  1
  F  F22  1  0.817314  0.182686  0.750000  1
  F  F23  1  0.887883  0.112117  0.420148  1
  F  F24  1  0.549924  0.099848  0.345691  1
  F  F25  1  0.900152  0.450076  0.345691  1
  F  F26  1  0.112117  0.887883  0.579852  1
  F  F27  1  0.112117  0.887883  0.920148  1
  F  F28  1  0.634627  0.817314  0.250000  1
  F  F29  1  0.900152  0.450076  0.154309  1
  F  F30  1  0.775766  0.887883  0.920148  1
  F  F31  1  0.112117  0.224234  0.920148  1
  F  F32  1  0.450076  0.549924  0.845691  1
  F  F33  1  0.887883  0.775766  0.079852  1
  F  F34  1  0.099848  0.549924  0.845691  1
  F  F35  1  0.450076  0.900152  0.845691  1
  F  F36  1  0.450076  0.549924  0.654309  1
  F  F37  1  0.365373  0.182686  0.750000  1
  F  F38  1  0.887883  0.112117  0.079852  1
  F  F39  1  0.549924  0.450076  0.154309  1
  F  F40  1  0.817314  0.634627  0.750000  1
  F  F41  1  0.000000  0.000000  0.750000  1
  F  F42  1  0.887883  0.775766  0.420148  1
  F  F43  1  0.000000  0.000000  0.250000  1
