# generated using pymatgen
data_B3Pb6ClO10
_symmetry_space_group_name_H-M   'P 1'
_cell_length_a   7.18993141
_cell_length_b   11.26638776
_cell_length_c   17.50918020
_cell_angle_alpha   90.00000000
_cell_angle_beta   90.00000000
_cell_angle_gamma   90.00000000
_symmetry_Int_Tables_number   1
_chemical_formula_structural   B3Pb6ClO10
_chemical_formula_sum   'B12 Pb24 Cl4 O40'
_cell_volume   1418.32335459
_cell_formula_units_Z   4
loop_
 _symmetry_equiv_pos_site_id
 _symmetry_equiv_pos_as_xyz
  1  'x, y, z'
loop_
 _atom_site_type_symbol
 _atom_site_label
 _atom_site_symmetry_multiplicity
 _atom_site_fract_x
 _atom_site_fract_y
 _atom_site_fract_z
 _atom_site_occupancy
  B  B0  1  0.277822  0.497372  0.996214  1
  B  B1  1  0.722178  0.502628  0.003786  1
  B  B2  1  0.722178  0.497372  0.496214  1
  B  B3  1  0.295901  0.250000  0.724890  1
  B  B4  1  0.722178  0.997372  0.003786  1
  B  B5  1  0.277822  0.997372  0.503786  1
  B  B6  1  0.722178  0.002628  0.496214  1
  B  B7  1  0.704099  0.750000  0.275110  1
  B  B8  1  0.295901  0.750000  0.775110  1
  B  B9  1  0.277822  0.502628  0.503786  1
  B  B10  1  0.704099  0.250000  0.224890  1
  B  B11  1  0.277822  0.002628  0.996214  1
  Pb  Pb12  1  0.972132  0.917529  0.160549  1
  Pb  Pb13  1  0.027868  0.917529  0.660549  1
  Pb  Pb14  1  0.972132  0.082471  0.339451  1
  Pb  Pb15  1  0.527088  0.566625  0.844928  1
  Pb  Pb16  1  0.972132  0.582471  0.160549  1
  Pb  Pb17  1  0.472912  0.066625  0.155072  1
  Pb  Pb18  1  0.924637  0.250000  0.027297  1
  Pb  Pb19  1  0.590230  0.250000  0.438865  1
  Pb  Pb20  1  0.075363  0.250000  0.527297  1
  Pb  Pb21  1  0.590230  0.750000  0.061135  1
  Pb  Pb22  1  0.027868  0.417529  0.839451  1
  Pb  Pb23  1  0.924637  0.750000  0.472703  1
  Pb  Pb24  1  0.527088  0.433375  0.655072  1
  Pb  Pb25  1  0.409770  0.750000  0.561135  1
  Pb  Pb26  1  0.972132  0.417529  0.339451  1
  Pb  Pb27  1  0.472912  0.433375  0.155072  1
  Pb  Pb28  1  0.527088  0.066625  0.655072  1
  Pb  Pb29  1  0.409770  0.250000  0.938865  1
  Pb  Pb30  1  0.027868  0.582471  0.660549  1
  Pb  Pb31  1  0.075363  0.750000  0.972703  1
  Pb  Pb32  1  0.472912  0.566625  0.344928  1
  Pb  Pb33  1  0.472912  0.933375  0.344928  1
  Pb  Pb34  1  0.527088  0.933375  0.844928  1
  Pb  Pb35  1  0.027868  0.082471  0.839451  1
  Cl  Cl36  1  0.800389  0.750000  0.763168  1
  Cl  Cl37  1  0.199611  0.250000  0.236832  1
  Cl  Cl38  1  0.199611  0.750000  0.263168  1
  Cl  Cl39  1  0.800389  0.250000  0.736832  1
  O  O40  1  0.666189  0.393776  0.533693  1
  O  O41  1  0.912260  0.750000  0.090026  1
  O  O42  1  0.274543  0.505833  0.583910  1
  O  O43  1  0.087740  0.250000  0.909974  1
  O  O44  1  0.265429  0.359606  0.756660  1
  O  O45  1  0.265429  0.140394  0.756660  1
  O  O46  1  0.666189  0.893776  0.966307  1
  O  O47  1  0.772122  0.902880  0.536566  1
  O  O48  1  0.274543  0.005833  0.916090  1
  O  O49  1  0.614580  0.250000  0.151424  1
  O  O50  1  0.265429  0.859606  0.743340  1
  O  O51  1  0.385420  0.250000  0.651424  1
  O  O52  1  0.227878  0.097120  0.463434  1
  O  O53  1  0.333811  0.393776  0.033693  1
  O  O54  1  0.227878  0.902880  0.036566  1
  O  O55  1  0.227878  0.402880  0.463434  1
  O  O56  1  0.274543  0.494167  0.916090  1
  O  O57  1  0.666189  0.606224  0.966307  1
  O  O58  1  0.274543  0.994167  0.583910  1
  O  O59  1  0.087740  0.750000  0.590026  1
  O  O60  1  0.734571  0.140394  0.256660  1
  O  O61  1  0.772122  0.597120  0.536566  1
  O  O62  1  0.772122  0.402880  0.963434  1
  O  O63  1  0.385420  0.750000  0.848576  1
  O  O64  1  0.333811  0.893776  0.466307  1
  O  O65  1  0.772122  0.097120  0.963434  1
  O  O66  1  0.725457  0.994167  0.083910  1
  O  O67  1  0.734571  0.859606  0.243340  1
  O  O68  1  0.725457  0.005833  0.416090  1
  O  O69  1  0.912260  0.250000  0.409974  1
  O  O70  1  0.725457  0.494167  0.416090  1
  O  O71  1  0.614580  0.750000  0.348576  1
  O  O72  1  0.725457  0.505833  0.083910  1
  O  O73  1  0.333811  0.606224  0.466307  1
  O  O74  1  0.333811  0.106224  0.033693  1
  O  O75  1  0.734571  0.640394  0.243340  1
  O  O76  1  0.265429  0.640394  0.743340  1
  O  O77  1  0.734571  0.359606  0.256660  1
  O  O78  1  0.227878  0.597120  0.036566  1
  O  O79  1  0.666189  0.106224  0.533693  1
