# generated using pymatgen
data_Li2Ta2(OF2)3
_symmetry_space_group_name_H-M   'P 1'
_cell_length_a   5.67194093
_cell_length_b   5.67194093
_cell_length_c   21.27847564
_cell_angle_alpha   90.00000000
_cell_angle_beta   90.00000000
_cell_angle_gamma   120.00000000
_symmetry_Int_Tables_number   1
_chemical_formula_structural   Li2Ta2(OF2)3
_chemical_formula_sum   'Li6 Ta6 O9 F18'
_cell_volume   592.83596426
_cell_formula_units_Z   3
loop_
 _symmetry_equiv_pos_site_id
 _symmetry_equiv_pos_as_xyz
  1  'x, y, z'
loop_
 _atom_site_type_symbol
 _atom_site_label
 _atom_site_symmetry_multiplicity
 _atom_site_fract_x
 _atom_site_fract_y
 _atom_site_fract_z
 _atom_site_occupancy
  Li  Li0  1  0.447003  0.452868  0.141993  1
  Li  Li1  1  0.994136  0.547132  0.524673  1
  Li  Li2  1  0.452868  0.447003  0.858007  1
  Li  Li3  1  0.547132  0.994136  0.475327  1
  Li  Li4  1  0.552997  0.005864  0.191340  1
  Li  Li5  1  0.005864  0.552997  0.808660  1
  Ta  Ta6  1  0.780064  0.112050  0.045588  1
  Ta  Ta7  1  0.668014  0.887950  0.621079  1
  Ta  Ta8  1  0.219936  0.331986  0.287746  1
  Ta  Ta9  1  0.887950  0.668014  0.378921  1
  Ta  Ta10  1  0.331986  0.219936  0.712254  1
  Ta  Ta11  1  0.112050  0.780064  0.954412  1
  O  O12  1  0.097952  0.000000  0.333333  1
  O  O13  1  0.902048  0.902048  0.000000  1
  O  O14  1  0.506284  0.580747  0.675129  1
  O  O15  1  0.580747  0.506284  0.324871  1
  O  O16  1  0.419253  0.925537  0.008463  1
  O  O17  1  0.000000  0.097952  0.666667  1
  O  O18  1  0.925537  0.419253  0.991537  1
  O  O19  1  0.074463  0.493716  0.341796  1
  O  O20  1  0.493716  0.074463  0.658204  1
  F  F21  1  0.363041  0.706148  0.557994  1
  F  F22  1  0.158524  0.879261  0.761793  1
  F  F23  1  0.279264  0.120739  0.904874  1
  F  F24  1  0.832482  0.634996  0.883215  1
  F  F25  1  0.656893  0.293852  0.108673  1
  F  F26  1  0.634996  0.832482  0.116785  1
  F  F27  1  0.197486  0.365004  0.783452  1
  F  F28  1  0.167518  0.802514  0.450118  1
  F  F29  1  0.636959  0.343107  0.775339  1
  F  F30  1  0.720736  0.841476  0.428460  1
  F  F31  1  0.365004  0.197486  0.216548  1
  F  F32  1  0.120739  0.279264  0.095126  1
  F  F33  1  0.879261  0.158524  0.238207  1
  F  F34  1  0.343107  0.636959  0.224661  1
  F  F35  1  0.293852  0.656893  0.891327  1
  F  F36  1  0.706148  0.363041  0.442006  1
  F  F37  1  0.802514  0.167518  0.549882  1
  F  F38  1  0.841476  0.720736  0.571540  1
