# generated using pymatgen
data_Fe2BO4
_symmetry_space_group_name_H-M   'P 1'
_cell_length_a   3.17446274
_cell_length_b   9.48519172
_cell_length_c   9.57727498
_cell_angle_alpha   90.00000000
_cell_angle_beta   90.00000000
_cell_angle_gamma   90.00000000
_symmetry_Int_Tables_number   1
_chemical_formula_structural   Fe2BO4
_chemical_formula_sum   'Fe8 B4 O16'
_cell_volume   288.37546235
_cell_formula_units_Z   4
loop_
 _symmetry_equiv_pos_site_id
 _symmetry_equiv_pos_as_xyz
  1  'x, y, z'
loop_
 _atom_site_type_symbol
 _atom_site_label
 _atom_site_symmetry_multiplicity
 _atom_site_fract_x
 _atom_site_fract_y
 _atom_site_fract_z
 _atom_site_occupancy
  Fe  Fe0  1  0.750000  0.601551  0.185399  1
  Fe  Fe1  1  0.750000  0.618354  0.566460  1
  Fe  Fe2  1  0.250000  0.898449  0.685399  1
  Fe  Fe3  1  0.750000  0.118354  0.933540  1
  Fe  Fe4  1  0.250000  0.381646  0.433540  1
  Fe  Fe5  1  0.250000  0.881646  0.066460  1
  Fe  Fe6  1  0.750000  0.101551  0.314601  1
  Fe  Fe7  1  0.250000  0.398449  0.814601  1
  B  B8  1  0.250000  0.331905  0.129585  1
  B  B9  1  0.250000  0.831905  0.370415  1
  B  B10  1  0.750000  0.668095  0.870415  1
  B  B11  1  0.750000  0.168095  0.629585  1
  O  O12  1  0.250000  0.474281  0.127678  1
  O  O13  1  0.750000  0.525719  0.872322  1
  O  O14  1  0.750000  0.005629  0.113229  1
  O  O15  1  0.750000  0.505629  0.386771  1
  O  O16  1  0.250000  0.494371  0.613229  1
  O  O17  1  0.250000  0.757989  0.243666  1
  O  O18  1  0.250000  0.994371  0.886771  1
  O  O19  1  0.750000  0.025719  0.627678  1
  O  O20  1  0.250000  0.257989  0.256334  1
  O  O21  1  0.750000  0.742011  0.743666  1
  O  O22  1  0.250000  0.755856  0.497568  1
  O  O23  1  0.750000  0.242011  0.756334  1
  O  O24  1  0.250000  0.255856  0.002432  1
  O  O25  1  0.750000  0.244144  0.502432  1
  O  O26  1  0.750000  0.744144  0.997568  1
  O  O27  1  0.250000  0.974281  0.372322  1
