# generated using pymatgen
data_Na3Fe5O9
_symmetry_space_group_name_H-M   'P 1'
_cell_length_a   9.18325894
_cell_length_b   9.18325894
_cell_length_c   5.41239585
_cell_angle_alpha   89.54249917
_cell_angle_beta   90.45750083
_cell_angle_gamma   95.99607910
_symmetry_Int_Tables_number   1
_chemical_formula_structural   Na3Fe5O9
_chemical_formula_sum   'Na6 Fe10 O18'
_cell_volume   453.91612638
_cell_formula_units_Z   2
loop_
 _symmetry_equiv_pos_site_id
 _symmetry_equiv_pos_as_xyz
  1  'x, y, z'
loop_
 _atom_site_type_symbol
 _atom_site_label
 _atom_site_symmetry_multiplicity
 _atom_site_fract_x
 _atom_site_fract_y
 _atom_site_fract_z
 _atom_site_occupancy
  Na  Na0  1  0.162781  0.681246  0.263969  1
  Na  Na1  1  0.681246  0.162781  0.236031  1
  Na  Na2  1  0.837219  0.318754  0.736031  1
  Na  Na3  1  0.318754  0.837219  0.763969  1
  Na  Na4  1  0.408841  0.408841  0.250000  1
  Na  Na5  1  0.591159  0.591159  0.750000  1
  Fe  Fe6  1  0.797272  0.565338  0.284996  1
  Fe  Fe7  1  0.565338  0.797272  0.215004  1
  Fe  Fe8  1  0.202728  0.434662  0.715004  1
  Fe  Fe9  1  0.434662  0.202728  0.784996  1
  Fe  Fe10  1  0.020414  0.300153  0.217880  1
  Fe  Fe11  1  0.300153  0.020414  0.282120  1
  Fe  Fe12  1  0.979586  0.699847  0.782120  1
  Fe  Fe13  1  0.699847  0.979586  0.717880  1
  Fe  Fe14  1  0.936106  0.936106  0.250000  1
  Fe  Fe15  1  0.063894  0.063894  0.750000  1
  O  O16  1  0.914943  0.723108  0.119372  1
  O  O17  1  0.723108  0.914943  0.380628  1
  O  O18  1  0.085057  0.276892  0.880628  1
  O  O19  1  0.276892  0.085057  0.619372  1
  O  O20  1  0.165318  0.432526  0.367741  1
  O  O21  1  0.432526  0.165318  0.132259  1
  O  O22  1  0.834682  0.567474  0.632259  1
  O  O23  1  0.567474  0.834682  0.867741  1
  O  O24  1  0.836119  0.377982  0.174871  1
  O  O25  1  0.377982  0.836119  0.325129  1
  O  O26  1  0.163881  0.622018  0.825129  1
  O  O27  1  0.622018  0.163881  0.674871  1
  O  O28  1  0.970519  0.133975  0.429132  1
  O  O29  1  0.133975  0.970519  0.070868  1
  O  O30  1  0.029481  0.866025  0.570868  1
  O  O31  1  0.866025  0.029481  0.929132  1
  O  O32  1  0.595291  0.595291  0.250000  1
  O  O33  1  0.404709  0.404709  0.750000  1
