# generated using pymatgen
data_NaTi2Al5O12
_symmetry_space_group_name_H-M   'P 1'
_cell_length_a   2.94123227
_cell_length_b   9.16175532
_cell_length_c   15.54520152
_cell_angle_alpha   90.00000000
_cell_angle_beta   90.00000000
_cell_angle_gamma   90.00000000
_symmetry_Int_Tables_number   1
_chemical_formula_structural   NaTi2Al5O12
_chemical_formula_sum   'Na2 Ti4 Al10 O24'
_cell_volume   418.89421975
_cell_formula_units_Z   2
loop_
 _symmetry_equiv_pos_site_id
 _symmetry_equiv_pos_as_xyz
  1  'x, y, z'
loop_
 _atom_site_type_symbol
 _atom_site_label
 _atom_site_symmetry_multiplicity
 _atom_site_fract_x
 _atom_site_fract_y
 _atom_site_fract_z
 _atom_site_occupancy
  Na  Na0  1  0.500000  0.500000  0.000000  1
  Na  Na1  1  0.500000  0.000000  0.500000  1
  Ti  Ti2  1  0.500000  0.729137  0.356110  1
  Ti  Ti3  1  0.500000  0.270863  0.643890  1
  Ti  Ti4  1  0.500000  0.770863  0.856110  1
  Ti  Ti5  1  0.500000  0.229137  0.143890  1
  Al  Al6  1  0.000000  0.000000  0.000000  1
  Al  Al7  1  0.000000  0.490577  0.800906  1
  Al  Al8  1  0.000000  0.009423  0.300906  1
  Al  Al9  1  0.000000  0.509423  0.199094  1
  Al  Al10  1  0.500000  0.191599  0.854053  1
  Al  Al11  1  0.500000  0.808401  0.145947  1
  Al  Al12  1  0.000000  0.990577  0.699094  1
  Al  Al13  1  0.500000  0.691599  0.645947  1
  Al  Al14  1  0.500000  0.308401  0.354053  1
  Al  Al15  1  0.000000  0.500000  0.500000  1
  O  O16  1  0.500000  0.394780  0.551439  1
  O  O17  1  0.000000  0.136227  0.907169  1
  O  O18  1  0.500000  0.113329  0.351997  1
  O  O19  1  0.000000  0.363155  0.705155  1
  O  O20  1  0.500000  0.386671  0.851997  1
  O  O21  1  0.500000  0.613329  0.148003  1
  O  O22  1  0.500000  0.105220  0.051439  1
  O  O23  1  0.000000  0.863773  0.092831  1
  O  O24  1  0.000000  0.636227  0.592831  1
  O  O25  1  0.000000  0.863155  0.794845  1
  O  O26  1  0.000000  0.136845  0.205155  1
  O  O27  1  0.000000  0.134782  0.606535  1
  O  O28  1  0.500000  0.608993  0.751835  1
  O  O29  1  0.000000  0.865218  0.393465  1
  O  O30  1  0.000000  0.636845  0.294845  1
  O  O31  1  0.000000  0.634782  0.893465  1
  O  O32  1  0.500000  0.894780  0.948561  1
  O  O33  1  0.500000  0.108993  0.748165  1
  O  O34  1  0.500000  0.605220  0.448561  1
  O  O35  1  0.500000  0.891007  0.251835  1
  O  O36  1  0.000000  0.363773  0.407169  1
  O  O37  1  0.500000  0.391007  0.248165  1
  O  O38  1  0.000000  0.365218  0.106535  1
  O  O39  1  0.500000  0.886671  0.648003  1
