# generated using pymatgen
data_CsGeB3O7
_symmetry_space_group_name_H-M   'P 1'
_cell_length_a   7.10363514
_cell_length_b   9.68492228
_cell_length_c   10.06314949
_cell_angle_alpha   90.00000000
_cell_angle_beta   90.00000000
_cell_angle_gamma   90.00000000
_symmetry_Int_Tables_number   1
_chemical_formula_structural   CsGeB3O7
_chemical_formula_sum   'Cs4 Ge4 B12 O28'
_cell_volume   692.32611072
_cell_formula_units_Z   4
loop_
 _symmetry_equiv_pos_site_id
 _symmetry_equiv_pos_as_xyz
  1  'x, y, z'
loop_
 _atom_site_type_symbol
 _atom_site_label
 _atom_site_symmetry_multiplicity
 _atom_site_fract_x
 _atom_site_fract_y
 _atom_site_fract_z
 _atom_site_occupancy
  Cs  Cs0  1  0.006341  0.999409  0.673185  1
  Cs  Cs1  1  0.506341  0.500591  0.173185  1
  Cs  Cs2  1  0.006341  0.499409  0.826815  1
  Cs  Cs3  1  0.506341  0.000591  0.326815  1
  Ge  Ge4  1  0.493035  0.771732  0.889858  1
  Ge  Ge5  1  0.993035  0.228268  0.110142  1
  Ge  Ge6  1  0.493035  0.271732  0.610142  1
  Ge  Ge7  1  0.993035  0.728268  0.389858  1
  B  B8  1  0.865618  0.825574  0.011463  1
  B  B9  1  0.195862  0.345361  0.435770  1
  B  B10  1  0.961534  0.457726  0.283880  1
  B  B11  1  0.961534  0.957726  0.216120  1
  B  B12  1  0.365618  0.174426  0.988537  1
  B  B13  1  0.865618  0.325574  0.488537  1
  B  B14  1  0.461534  0.042274  0.783880  1
  B  B15  1  0.365618  0.674426  0.511463  1
  B  B16  1  0.195862  0.845361  0.064230  1
  B  B17  1  0.695862  0.654639  0.564230  1
  B  B18  1  0.695862  0.154639  0.935770  1
  B  B19  1  0.461534  0.542274  0.716120  1
  O  O20  1  0.939510  0.608138  0.265585  1
  O  O21  1  0.423574  0.103486  0.651593  1
  O  O22  1  0.319830  0.594537  0.617211  1
  O  O23  1  0.555310  0.201752  0.021360  1
  O  O24  1  0.423574  0.603486  0.848407  1
  O  O25  1  0.055310  0.298248  0.521360  1
  O  O26  1  0.154708  0.423348  0.327587  1
  O  O27  1  0.055310  0.798248  0.978640  1
  O  O28  1  0.239140  0.236786  0.073639  1
  O  O29  1  0.882577  0.190153  0.954758  1
  O  O30  1  0.382577  0.809847  0.045242  1
  O  O31  1  0.319830  0.094537  0.882789  1
  O  O32  1  0.439510  0.391862  0.734415  1
  O  O33  1  0.739140  0.763214  0.926361  1
  O  O34  1  0.882577  0.690153  0.545242  1
  O  O35  1  0.654708  0.576652  0.672413  1
  O  O36  1  0.923574  0.396514  0.151593  1
  O  O37  1  0.654708  0.076652  0.827587  1
  O  O38  1  0.819830  0.405463  0.382789  1
  O  O39  1  0.382577  0.309847  0.454758  1
  O  O40  1  0.819830  0.905463  0.117211  1
  O  O41  1  0.939510  0.108138  0.234415  1
  O  O42  1  0.923574  0.896514  0.348407  1
  O  O43  1  0.239140  0.736786  0.426361  1
  O  O44  1  0.154708  0.923348  0.172413  1
  O  O45  1  0.439510  0.891862  0.765585  1
  O  O46  1  0.555310  0.701752  0.478640  1
  O  O47  1  0.739140  0.263214  0.573639  1
