# generated using pymatgen
data_Ga(BiCl)4
_symmetry_space_group_name_H-M   'P 1'
_cell_length_a   18.29661303
_cell_length_b   18.29661303
_cell_length_c   13.49375612
_cell_angle_alpha   90.00000000
_cell_angle_beta   90.00000000
_cell_angle_gamma   120.00000000
_symmetry_Int_Tables_number   1
_chemical_formula_structural   Ga(BiCl)4
_chemical_formula_sum   'Ga12 Bi48 Cl48'
_cell_volume   3912.05448053
_cell_formula_units_Z   12
loop_
 _symmetry_equiv_pos_site_id
 _symmetry_equiv_pos_as_xyz
  1  'x, y, z'
loop_
 _atom_site_type_symbol
 _atom_site_label
 _atom_site_symmetry_multiplicity
 _atom_site_fract_x
 _atom_site_fract_y
 _atom_site_fract_z
 _atom_site_occupancy
  Ga  Ga0  1  0.666667  0.333333  0.732174  1
  Ga  Ga1  1  0.333333  0.666667  0.232174  1
  Ga  Ga2  1  0.666667  0.333333  0.199299  1
  Ga  Ga3  1  0.639465  0.694717  0.007642  1
  Ga  Ga4  1  0.360535  0.305283  0.507642  1
  Ga  Ga5  1  0.305283  0.944748  0.007642  1
  Ga  Ga6  1  0.000000  0.000000  0.291421  1
  Ga  Ga7  1  0.000000  0.000000  0.791421  1
  Ga  Ga8  1  0.944748  0.639465  0.507642  1
  Ga  Ga9  1  0.333333  0.666667  0.699299  1
  Ga  Ga10  1  0.694717  0.055252  0.507642  1
  Ga  Ga11  1  0.055252  0.360535  0.007642  1
  Bi  Bi12  1  0.626017  0.769111  0.649398  1
  Bi  Bi13  1  0.632177  0.777377  0.420781  1
  Bi  Bi14  1  0.956678  0.538976  0.910124  1
  Bi  Bi15  1  0.854800  0.632177  0.920781  1
  Bi  Bi16  1  0.769111  0.143094  0.149398  1
  Bi  Bi17  1  0.461024  0.417702  0.910124  1
  Bi  Bi18  1  0.367823  0.222623  0.920781  1
  Bi  Bi19  1  0.336068  0.461038  0.026036  1
  Bi  Bi20  1  0.264255  0.315243  0.872154  1
  Bi  Bi21  1  0.230889  0.856906  0.649398  1
  Bi  Bi22  1  0.272757  0.327052  0.192185  1
  Bi  Bi23  1  0.958087  0.532065  0.139979  1
  Bi  Bi24  1  0.222623  0.854800  0.420781  1
  Bi  Bi25  1  0.124970  0.663932  0.026036  1
  Bi  Bi26  1  0.538962  0.875030  0.026036  1
  Bi  Bi27  1  0.019703  0.201386  0.539066  1
  Bi  Bi28  1  0.143094  0.373983  0.649398  1
  Bi  Bi29  1  0.426021  0.958087  0.639979  1
  Bi  Bi30  1  0.538976  0.582298  0.410124  1
  Bi  Bi31  1  0.054295  0.727243  0.192185  1
  Bi  Bi32  1  0.727243  0.672948  0.692185  1
  Bi  Bi33  1  0.684757  0.949012  0.872154  1
  Bi  Bi34  1  0.582298  0.043322  0.910124  1
  Bi  Bi35  1  0.315243  0.050988  0.372154  1
  Bi  Bi36  1  0.949012  0.264255  0.372154  1
  Bi  Bi37  1  0.818317  0.019703  0.039066  1
  Bi  Bi38  1  0.980297  0.798614  0.039066  1
  Bi  Bi39  1  0.672948  0.945705  0.192185  1
  Bi  Bi40  1  0.041913  0.467935  0.639979  1
  Bi  Bi41  1  0.856906  0.626017  0.149398  1
  Bi  Bi42  1  0.145200  0.367823  0.420781  1
  Bi  Bi43  1  0.573979  0.041913  0.139979  1
  Bi  Bi44  1  0.461038  0.124970  0.526036  1
  Bi  Bi45  1  0.050988  0.735745  0.872154  1
  Bi  Bi46  1  0.875030  0.336068  0.526036  1
  Bi  Bi47  1  0.417702  0.956678  0.410124  1
  Bi  Bi48  1  0.777377  0.145200  0.920781  1
  Bi  Bi49  1  0.467935  0.426021  0.139979  1
  Bi  Bi50  1  0.043322  0.461024  0.410124  1
  Bi  Bi51  1  0.201386  0.181683  0.039066  1
  Bi  Bi52  1  0.945705  0.272757  0.692185  1
  Bi  Bi53  1  0.532065  0.573979  0.639979  1
  Bi  Bi54  1  0.373983  0.230889  0.149398  1
  Bi  Bi55  1  0.798614  0.818317  0.539066  1
  Bi  Bi56  1  0.663932  0.538962  0.526036  1
  Bi  Bi57  1  0.735745  0.684757  0.372154  1
  Bi  Bi58  1  0.327052  0.054295  0.692185  1
  Bi  Bi59  1  0.181683  0.980297  0.539066  1
  Cl  Cl60  1  0.868430  0.543715  0.396239  1
  Cl  Cl61  1  0.072615  0.653300  0.516431  1
  Cl  Cl62  1  0.783944  0.339001  0.253811  1
  Cl  Cl63  1  0.543715  0.675284  0.896239  1
  Cl  Cl64  1  0.660999  0.444943  0.253811  1
  Cl  Cl65  1  0.555938  0.215553  0.786153  1
  Cl  Cl66  1  0.763107  0.800638  0.965652  1
  Cl  Cl67  1  0.784447  0.340385  0.786153  1
  Cl  Cl68  1  0.199362  0.962470  0.965652  1
  Cl  Cl69  1  0.456285  0.324716  0.396239  1
  Cl  Cl70  1  0.116848  0.405313  0.152629  1
  Cl  Cl71  1  0.333333  0.666667  0.069038  1
  Cl  Cl72  1  0.927385  0.346700  0.016431  1
  Cl  Cl73  1  0.659615  0.444062  0.786153  1
  Cl  Cl74  1  0.324716  0.868430  0.896239  1
  Cl  Cl75  1  0.675284  0.131570  0.396239  1
  Cl  Cl76  1  0.037530  0.236893  0.965652  1
  Cl  Cl77  1  0.216056  0.660999  0.753811  1
  Cl  Cl78  1  0.236893  0.199362  0.465652  1
  Cl  Cl79  1  0.419315  0.072615  0.016431  1
  Cl  Cl80  1  0.339001  0.555057  0.753811  1
  Cl  Cl81  1  0.444062  0.784447  0.286153  1
  Cl  Cl82  1  0.123196  0.101432  0.737343  1
  Cl  Cl83  1  0.131570  0.456285  0.896239  1
  Cl  Cl84  1  0.580685  0.927385  0.516431  1
  Cl  Cl85  1  0.555057  0.216056  0.253811  1
  Cl  Cl86  1  0.653300  0.580685  0.016431  1
  Cl  Cl87  1  0.876804  0.898568  0.237343  1
  Cl  Cl88  1  0.978236  0.876804  0.737343  1
  Cl  Cl89  1  0.711535  0.116848  0.652629  1
  Cl  Cl90  1  0.333333  0.666667  0.537939  1
  Cl  Cl91  1  0.800638  0.037530  0.465652  1
  Cl  Cl92  1  0.000000  0.000000  0.955581  1
  Cl  Cl93  1  0.444943  0.783944  0.753811  1
  Cl  Cl94  1  0.000000  0.000000  0.455581  1
  Cl  Cl95  1  0.898568  0.021764  0.737343  1
  Cl  Cl96  1  0.405313  0.288465  0.652629  1
  Cl  Cl97  1  0.346700  0.419315  0.516431  1
  Cl  Cl98  1  0.288465  0.883152  0.152629  1
  Cl  Cl99  1  0.666667  0.333333  0.037939  1
  Cl  Cl100  1  0.021764  0.123196  0.237343  1
  Cl  Cl101  1  0.666667  0.333333  0.569038  1
  Cl  Cl102  1  0.594687  0.711535  0.152629  1
  Cl  Cl103  1  0.962470  0.763107  0.465652  1
  Cl  Cl104  1  0.215553  0.659615  0.286153  1
  Cl  Cl105  1  0.883152  0.594687  0.652629  1
  Cl  Cl106  1  0.340385  0.555938  0.286153  1
  Cl  Cl107  1  0.101432  0.978236  0.237343  1
