# generated using pymatgen
data_Ba7Sn3Se13
_symmetry_space_group_name_H-M   'P 1'
_cell_length_a   9.42361861
_cell_length_b   12.91534519
_cell_length_c   25.41887950
_cell_angle_alpha   90.00000000
_cell_angle_beta   90.00000000
_cell_angle_gamma   90.00000000
_symmetry_Int_Tables_number   1
_chemical_formula_structural   Ba7Sn3Se13
_chemical_formula_sum   'Ba28 Sn12 Se52'
_cell_volume   3093.71370758
_cell_formula_units_Z   4
loop_
 _symmetry_equiv_pos_site_id
 _symmetry_equiv_pos_as_xyz
  1  'x, y, z'
loop_
 _atom_site_type_symbol
 _atom_site_label
 _atom_site_symmetry_multiplicity
 _atom_site_fract_x
 _atom_site_fract_y
 _atom_site_fract_z
 _atom_site_occupancy
  Ba  Ba0  1  0.896635  0.343447  0.843406  1
  Ba  Ba1  1  0.913448  0.024306  0.158661  1
  Ba  Ba2  1  0.603365  0.843447  0.656594  1
  Ba  Ba3  1  0.880021  0.312568  0.030290  1
  Ba  Ba4  1  0.103365  0.656553  0.156594  1
  Ba  Ba5  1  0.913448  0.024306  0.341339  1
  Ba  Ba6  1  0.396635  0.156553  0.343406  1
  Ba  Ba7  1  0.586552  0.524306  0.341339  1
  Ba  Ba8  1  0.119979  0.687432  0.530290  1
  Ba  Ba9  1  0.602122  0.146169  0.750000  1
  Ba  Ba10  1  0.397878  0.853831  0.250000  1
  Ba  Ba11  1  0.896635  0.343447  0.656594  1
  Ba  Ba12  1  0.396635  0.156553  0.156594  1
  Ba  Ba13  1  0.102122  0.353831  0.250000  1
  Ba  Ba14  1  0.380021  0.187432  0.530290  1
  Ba  Ba15  1  0.880021  0.312568  0.469710  1
  Ba  Ba16  1  0.086552  0.975694  0.841339  1
  Ba  Ba17  1  0.413448  0.475694  0.658661  1
  Ba  Ba18  1  0.619979  0.812568  0.030290  1
  Ba  Ba19  1  0.619979  0.812568  0.469710  1
  Ba  Ba20  1  0.603365  0.843447  0.843406  1
  Ba  Ba21  1  0.413448  0.475694  0.841339  1
  Ba  Ba22  1  0.119979  0.687432  0.969710  1
  Ba  Ba23  1  0.103365  0.656553  0.343406  1
  Ba  Ba24  1  0.086552  0.975694  0.658661  1
  Ba  Ba25  1  0.897878  0.646169  0.750000  1
  Ba  Ba26  1  0.586552  0.524306  0.158661  1
  Ba  Ba27  1  0.380021  0.187432  0.969710  1
  Sn  Sn28  1  0.800651  0.049344  0.947592  1
  Sn  Sn29  1  0.800651  0.049344  0.552408  1
  Sn  Sn30  1  0.806251  0.742979  0.250000  1
  Sn  Sn31  1  0.199349  0.950656  0.447592  1
  Sn  Sn32  1  0.300651  0.450656  0.447592  1
  Sn  Sn33  1  0.693749  0.242979  0.250000  1
  Sn  Sn34  1  0.193749  0.257021  0.750000  1
  Sn  Sn35  1  0.699349  0.549344  0.552408  1
  Sn  Sn36  1  0.199349  0.950656  0.052408  1
  Sn  Sn37  1  0.699349  0.549344  0.947592  1
  Sn  Sn38  1  0.306251  0.757021  0.750000  1
  Sn  Sn39  1  0.300651  0.450656  0.052408  1
  Se  Se40  1  0.333153  0.216370  0.832148  1
  Se  Se41  1  0.166847  0.716370  0.832148  1
  Se  Se42  1  0.833153  0.283630  0.332148  1
  Se  Se43  1  0.012803  0.166277  0.572762  1
  Se  Se44  1  0.689083  0.079115  0.461760  1
  Se  Se45  1  0.639876  0.358920  0.927281  1
  Se  Se46  1  0.360124  0.641080  0.427281  1
  Se  Se47  1  0.535537  0.649851  0.750000  1
  Se  Se48  1  0.189083  0.420885  0.538240  1
  Se  Se49  1  0.512803  0.333723  0.427238  1
  Se  Se50  1  0.358651  0.953101  0.750000  1
  Se  Se51  1  0.512803  0.333723  0.072762  1
  Se  Se52  1  0.987197  0.833723  0.427238  1
  Se  Se53  1  0.833153  0.283630  0.167852  1
  Se  Se54  1  0.360124  0.641080  0.072719  1
  Se  Se55  1  0.641349  0.046899  0.250000  1
  Se  Se56  1  0.668616  0.395729  0.750000  1
  Se  Se57  1  0.168616  0.104271  0.250000  1
  Se  Se58  1  0.666847  0.783630  0.167852  1
  Se  Se59  1  0.831384  0.895729  0.750000  1
  Se  Se60  1  0.189083  0.420885  0.961760  1
  Se  Se61  1  0.109120  0.408016  0.120892  1
  Se  Se62  1  0.639876  0.358920  0.572719  1
  Se  Se63  1  0.390880  0.908016  0.120892  1
  Se  Se64  1  0.166847  0.716370  0.667852  1
  Se  Se65  1  0.333153  0.216370  0.667852  1
  Se  Se66  1  0.609120  0.091984  0.879108  1
  Se  Se67  1  0.858651  0.546899  0.250000  1
  Se  Se68  1  0.331384  0.604271  0.250000  1
  Se  Se69  1  0.666847  0.783630  0.332148  1
  Se  Se70  1  0.890880  0.591984  0.620892  1
  Se  Se71  1  0.860124  0.858920  0.927281  1
  Se  Se72  1  0.310917  0.920885  0.538240  1
  Se  Se73  1  0.487197  0.666277  0.572762  1
  Se  Se74  1  0.964463  0.149851  0.750000  1
  Se  Se75  1  0.487197  0.666277  0.927238  1
  Se  Se76  1  0.689083  0.079115  0.038240  1
  Se  Se77  1  0.141349  0.453101  0.750000  1
  Se  Se78  1  0.860124  0.858920  0.572719  1
  Se  Se79  1  0.890880  0.591984  0.879108  1
  Se  Se80  1  0.810917  0.579115  0.461760  1
  Se  Se81  1  0.310917  0.920885  0.961760  1
  Se  Se82  1  0.609120  0.091984  0.620892  1
  Se  Se83  1  0.810917  0.579115  0.038240  1
  Se  Se84  1  0.035537  0.850149  0.250000  1
  Se  Se85  1  0.987197  0.833723  0.072762  1
  Se  Se86  1  0.464463  0.350149  0.250000  1
  Se  Se87  1  0.139876  0.141080  0.072719  1
  Se  Se88  1  0.390880  0.908016  0.379108  1
  Se  Se89  1  0.012803  0.166277  0.927238  1
  Se  Se90  1  0.109120  0.408016  0.379108  1
  Se  Se91  1  0.139876  0.141080  0.427281  1
