# generated using pymatgen
data_Mg2B2O5
_symmetry_space_group_name_H-M   'P 1'
_cell_length_a   9.31891472
_cell_length_b   3.15678763
_cell_length_c   12.48226156
_cell_angle_alpha   90.00000000
_cell_angle_beta   105.08303958
_cell_angle_gamma   90.00000000
_symmetry_Int_Tables_number   1
_chemical_formula_structural   Mg2B2O5
_chemical_formula_sum   'Mg8 B8 O20'
_cell_volume   354.55091988
_cell_formula_units_Z   4
loop_
 _symmetry_equiv_pos_site_id
 _symmetry_equiv_pos_as_xyz
  1  'x, y, z'
loop_
 _atom_site_type_symbol
 _atom_site_label
 _atom_site_symmetry_multiplicity
 _atom_site_fract_x
 _atom_site_fract_y
 _atom_site_fract_z
 _atom_site_occupancy
  Mg  Mg0  1  0.854043  0.216239  0.355845  1
  Mg  Mg1  1  0.145957  0.783761  0.644155  1
  Mg  Mg2  1  0.854043  0.283761  0.855845  1
  Mg  Mg3  1  0.602392  0.751732  0.436895  1
  Mg  Mg4  1  0.397608  0.248268  0.563105  1
  Mg  Mg5  1  0.602392  0.748268  0.936895  1
  Mg  Mg6  1  0.145957  0.716239  0.144155  1
  Mg  Mg7  1  0.397608  0.251732  0.063105  1
  B  B8  1  0.856747  0.180544  0.091050  1
  B  B9  1  0.856747  0.319456  0.591050  1
  B  B10  1  0.143253  0.819456  0.908950  1
  B  B11  1  0.331443  0.170107  0.809837  1
  B  B12  1  0.668557  0.829893  0.190163  1
  B  B13  1  0.668557  0.670107  0.690163  1
  B  B14  1  0.331443  0.329893  0.309837  1
  B  B15  1  0.143253  0.680544  0.408950  1
  O  O16  1  0.679282  0.726324  0.297987  1
  O  O17  1  0.797745  0.441505  0.681053  1
  O  O18  1  0.679282  0.773676  0.797987  1
  O  O19  1  0.797745  0.058495  0.181053  1
  O  O20  1  0.994215  0.716393  0.387393  1
  O  O21  1  0.445549  0.250402  0.401876  1
  O  O22  1  0.005785  0.216393  0.112607  1
  O  O23  1  0.758885  0.250079  0.489000  1
  O  O24  1  0.320718  0.273676  0.702013  1
  O  O25  1  0.994215  0.783607  0.887393  1
  O  O26  1  0.202255  0.558495  0.318947  1
  O  O27  1  0.758885  0.249921  0.989000  1
  O  O28  1  0.554451  0.749598  0.598124  1
  O  O29  1  0.202255  0.941505  0.818947  1
  O  O30  1  0.445549  0.249598  0.901876  1
  O  O31  1  0.241115  0.750079  0.011000  1
  O  O32  1  0.554451  0.750402  0.098124  1
  O  O33  1  0.320718  0.226324  0.202013  1
  O  O34  1  0.005785  0.283607  0.612607  1
  O  O35  1  0.241115  0.749921  0.511000  1
