# generated using pymatgen
data_K6U5V2O23
_symmetry_space_group_name_H-M   'P 1'
_cell_length_a   7.09126406
_cell_length_b   25.03073570
_cell_length_c   7.21707765
_cell_angle_alpha   90.00000000
_cell_angle_beta   98.78712521
_cell_angle_gamma   90.00000000
_symmetry_Int_Tables_number   1
_chemical_formula_structural   K6U5V2O23
_chemical_formula_sum   'K12 U10 V4 O46'
_cell_volume   1265.99231423
_cell_formula_units_Z   2
loop_
 _symmetry_equiv_pos_site_id
 _symmetry_equiv_pos_as_xyz
  1  'x, y, z'
loop_
 _atom_site_type_symbol
 _atom_site_label
 _atom_site_symmetry_multiplicity
 _atom_site_fract_x
 _atom_site_fract_y
 _atom_site_fract_z
 _atom_site_occupancy
  K  K0  1  0.950824  0.039347  0.235284  1
  K  K1  1  0.869451  0.386646  0.228259  1
  K  K2  1  0.950824  0.460653  0.735284  1
  K  K3  1  0.235192  0.707277  0.286243  1
  K  K4  1  0.235192  0.792723  0.786243  1
  K  K5  1  0.130549  0.886646  0.271741  1
  K  K6  1  0.049176  0.960653  0.764716  1
  K  K7  1  0.764808  0.207277  0.213757  1
  K  K8  1  0.049176  0.539347  0.264716  1
  K  K9  1  0.869451  0.113354  0.728259  1
  K  K10  1  0.764808  0.292723  0.713757  1
  K  K11  1  0.130549  0.613354  0.771741  1
  U  U12  1  0.347491  0.357819  0.972221  1
  U  U13  1  0.407922  0.418741  0.485397  1
  U  U14  1  0.407922  0.081259  0.985397  1
  U  U15  1  0.592078  0.581259  0.514603  1
  U  U16  1  0.500000  0.500000  0.000000  1
  U  U17  1  0.652509  0.642181  0.027779  1
  U  U18  1  0.347491  0.142181  0.472221  1
  U  U19  1  0.652509  0.857819  0.527779  1
  U  U20  1  0.592078  0.918741  0.014603  1
  U  U21  1  0.500000  0.000000  0.500000  1
  V  V22  1  0.786395  0.796800  0.045473  1
  V  V23  1  0.213605  0.296800  0.454527  1
  V  V24  1  0.786395  0.703200  0.545473  1
  V  V25  1  0.213605  0.203200  0.954527  1
  O  O26  1  0.242529  0.978709  0.471617  1
  O  O27  1  0.310909  0.266428  0.965147  1
  O  O28  1  0.658512  0.392393  0.531593  1
  O  O29  1  0.341488  0.607607  0.468407  1
  O  O30  1  0.151725  0.058758  0.941305  1
  O  O31  1  0.436312  0.429347  0.173208  1
  O  O32  1  0.913243  0.872468  0.567095  1
  O  O33  1  0.563688  0.929347  0.326792  1
  O  O34  1  0.436312  0.070653  0.673208  1
  O  O35  1  0.086757  0.372468  0.932905  1
  O  O36  1  0.409920  0.068093  0.301392  1
  O  O37  1  0.151725  0.441242  0.441305  1
  O  O38  1  0.293439  0.338031  0.282604  1
  O  O39  1  0.757471  0.021291  0.528383  1
  O  O40  1  0.293439  0.161969  0.782604  1
  O  O41  1  0.409920  0.431907  0.801392  1
  O  O42  1  0.690113  0.663300  0.349855  1
  O  O43  1  0.590080  0.931907  0.698608  1
  O  O44  1  0.972057  0.292731  0.424304  1
  O  O45  1  0.689091  0.766428  0.534853  1
  O  O46  1  0.396583  0.661811  0.000241  1
  O  O47  1  0.658512  0.107607  0.031593  1
  O  O48  1  0.590080  0.568093  0.198608  1
  O  O49  1  0.690113  0.836700  0.849855  1
  O  O50  1  0.027943  0.792731  0.075696  1
  O  O51  1  0.027943  0.707269  0.575696  1
  O  O52  1  0.242529  0.521291  0.971617  1
  O  O53  1  0.706561  0.661969  0.717396  1
  O  O54  1  0.757471  0.478709  0.028383  1
  O  O55  1  0.848275  0.558758  0.558695  1
  O  O56  1  0.086757  0.127532  0.432905  1
  O  O57  1  0.848275  0.941242  0.058695  1
  O  O58  1  0.396583  0.838189  0.500241  1
  O  O59  1  0.603417  0.338189  0.999759  1
  O  O60  1  0.913243  0.627532  0.067095  1
  O  O61  1  0.309887  0.163300  0.150145  1
  O  O62  1  0.603417  0.161811  0.499759  1
  O  O63  1  0.309887  0.336700  0.650145  1
  O  O64  1  0.972057  0.207269  0.924304  1
  O  O65  1  0.563688  0.570653  0.826792  1
  O  O66  1  0.689091  0.733572  0.034853  1
  O  O67  1  0.341488  0.892393  0.968407  1
  O  O68  1  0.706561  0.838031  0.217396  1
  O  O69  1  0.500000  0.000000  0.000000  1
  O  O70  1  0.500000  0.500000  0.500000  1
  O  O71  1  0.310909  0.233572  0.465147  1
