# generated using pymatgen
data_Nb6Co16Si7
_symmetry_space_group_name_H-M   'P 1'
_cell_length_a   7.91088898
_cell_length_b   7.91088898
_cell_length_c   7.91088898
_cell_angle_alpha   60.00000000
_cell_angle_beta   60.00000000
_cell_angle_gamma   60.00000000
_symmetry_Int_Tables_number   1
_chemical_formula_structural   Nb6Co16Si7
_chemical_formula_sum   'Nb6 Co16 Si7'
_cell_volume   350.07481782
_cell_formula_units_Z   1
loop_
 _symmetry_equiv_pos_site_id
 _symmetry_equiv_pos_as_xyz
  1  'x, y, z'
loop_
 _atom_site_type_symbol
 _atom_site_label
 _atom_site_symmetry_multiplicity
 _atom_site_fract_x
 _atom_site_fract_y
 _atom_site_fract_z
 _atom_site_occupancy
  Nb  Nb0  1  0.796745  0.203255  0.203255  1
  Nb  Nb1  1  0.203255  0.796745  0.203255  1
  Nb  Nb2  1  0.796745  0.203255  0.796745  1
  Nb  Nb3  1  0.796745  0.796745  0.203255  1
  Nb  Nb4  1  0.203255  0.203255  0.796745  1
  Nb  Nb5  1  0.203255  0.796745  0.796745  1
  Co  Co6  1  0.833472  0.499585  0.833472  1
  Co  Co7  1  0.166528  0.166528  0.166528  1
  Co  Co8  1  0.166528  0.166528  0.500415  1
  Co  Co9  1  0.500415  0.166528  0.166528  1
  Co  Co10  1  0.833472  0.833472  0.499585  1
  Co  Co11  1  0.499585  0.833472  0.833472  1
  Co  Co12  1  0.833472  0.833472  0.833472  1
  Co  Co13  1  0.166528  0.500415  0.166528  1
  Co  Co14  1  0.618765  0.143705  0.618765  1
  Co  Co15  1  0.381235  0.381235  0.381235  1
  Co  Co16  1  0.381235  0.381235  0.856295  1
  Co  Co17  1  0.856295  0.381235  0.381235  1
  Co  Co18  1  0.618765  0.618765  0.143705  1
  Co  Co19  1  0.143705  0.618765  0.618765  1
  Co  Co20  1  0.618765  0.618765  0.618765  1
  Co  Co21  1  0.381235  0.856295  0.381235  1
  Si  Si22  1  0.500000  0.500000  0.500000  1
  Si  Si23  1  0.000000  0.500000  0.500000  1
  Si  Si24  1  0.000000  0.500000  1.000000  1
  Si  Si25  1  0.500000  0.000000  0.500000  1
  Si  Si26  1  0.500000  0.000000  0.000000  1
  Si  Si27  1  0.500000  0.500000  0.000000  1
  Si  Si28  1  1.000000  1.000000  0.500000  1
