# generated using pymatgen
data_AsCSCl2F9
_symmetry_space_group_name_H-M   'P 1'
_cell_length_a   7.86676136
_cell_length_b   9.67577072
_cell_length_c   12.45882878
_cell_angle_alpha   90.00000000
_cell_angle_beta   100.93358183
_cell_angle_gamma   90.00000000
_symmetry_Int_Tables_number   1
_chemical_formula_structural   AsCSCl2F9
_chemical_formula_sum   'As4 C4 S4 Cl8 F36'
_cell_volume   931.11408196
_cell_formula_units_Z   4
loop_
 _symmetry_equiv_pos_site_id
 _symmetry_equiv_pos_as_xyz
  1  'x, y, z'
loop_
 _atom_site_type_symbol
 _atom_site_label
 _atom_site_symmetry_multiplicity
 _atom_site_fract_x
 _atom_site_fract_y
 _atom_site_fract_z
 _atom_site_occupancy
  As  As0  1  0.194520  0.254839  0.070338  1
  As  As1  1  0.805480  0.745161  0.929662  1
  As  As2  1  0.194520  0.245161  0.570338  1
  As  As3  1  0.805480  0.754839  0.429662  1
  C  C4  1  0.621235  0.330548  0.382160  1
  C  C5  1  0.378765  0.830548  0.117840  1
  C  C6  1  0.378765  0.669452  0.617840  1
  C  C7  1  0.621235  0.169452  0.882160  1
  S  S8  1  0.172676  0.671757  0.694313  1
  S  S9  1  0.827324  0.328243  0.305687  1
  S  S10  1  0.827324  0.171757  0.805687  1
  S  S11  1  0.172676  0.828243  0.194313  1
  Cl  Cl12  1  0.264950  0.562560  0.826911  1
  Cl  Cl13  1  0.264950  0.937440  0.326911  1
  Cl  Cl14  1  0.735050  0.437440  0.173089  1
  Cl  Cl15  1  0.735050  0.062560  0.673089  1
  Cl  Cl16  1  0.184039  0.866125  0.743239  1
  Cl  Cl17  1  0.815961  0.133875  0.256761  1
  Cl  Cl18  1  0.184039  0.633875  0.243239  1
  Cl  Cl19  1  0.815961  0.366125  0.756761  1
  F  F20  1  0.017799  0.696239  0.998094  1
  F  F21  1  0.890921  0.591230  0.398922  1
  F  F22  1  0.982201  0.303761  0.001906  1
  F  F23  1  0.570470  0.201284  0.392021  1
  F  F24  1  0.502607  0.906589  0.176025  1
  F  F25  1  0.852980  0.677877  0.805740  1
  F  F26  1  0.429530  0.798716  0.607979  1
  F  F27  1  0.680829  0.386691  0.479322  1
  F  F28  1  0.722168  0.582398  0.959155  1
  F  F29  1  0.109079  0.408770  0.601078  1
  F  F30  1  0.680829  0.113309  0.979322  1
  F  F31  1  0.497393  0.406589  0.323975  1
  F  F32  1  0.017799  0.803761  0.498094  1
  F  F33  1  0.402544  0.202519  0.139041  1
  F  F34  1  0.497393  0.093411  0.823975  1
  F  F35  1  0.277832  0.082398  0.540845  1
  F  F36  1  0.319171  0.886691  0.020678  1
  F  F37  1  0.429530  0.701284  0.107979  1
  F  F38  1  0.235423  0.312358  0.445808  1
  F  F39  1  0.235423  0.187642  0.945808  1
  F  F40  1  0.147020  0.322123  0.194260  1
  F  F41  1  0.319171  0.613309  0.520678  1
  F  F42  1  0.597456  0.702519  0.360959  1
  F  F43  1  0.852980  0.822123  0.305740  1
  F  F44  1  0.597456  0.797481  0.860959  1
  F  F45  1  0.402544  0.297481  0.639041  1
  F  F46  1  0.764577  0.687642  0.554192  1
  F  F47  1  0.277832  0.417602  0.040845  1
  F  F48  1  0.147020  0.177877  0.694260  1
  F  F49  1  0.982201  0.196239  0.501906  1
  F  F50  1  0.502607  0.593411  0.676025  1
  F  F51  1  0.570470  0.298716  0.892021  1
  F  F52  1  0.764577  0.812358  0.054192  1
  F  F53  1  0.722168  0.917602  0.459155  1
  F  F54  1  0.890921  0.908770  0.898922  1
  F  F55  1  0.109079  0.091230  0.101078  1
