# generated using pymatgen
data_TcSb(OF4)2
_symmetry_space_group_name_H-M   'P 1'
_cell_length_a   7.55426629
_cell_length_b   10.73213871
_cell_length_c   11.98165364
_cell_angle_alpha   90.00000000
_cell_angle_beta   125.99110467
_cell_angle_gamma   90.00000000
_symmetry_Int_Tables_number   1
_chemical_formula_structural   TcSb(OF4)2
_chemical_formula_sum   'Tc4 Sb4 O8 F32'
_cell_volume   785.96272856
_cell_formula_units_Z   4
loop_
 _symmetry_equiv_pos_site_id
 _symmetry_equiv_pos_as_xyz
  1  'x, y, z'
loop_
 _atom_site_type_symbol
 _atom_site_label
 _atom_site_symmetry_multiplicity
 _atom_site_fract_x
 _atom_site_fract_y
 _atom_site_fract_z
 _atom_site_occupancy
  Tc  Tc0  1  0.531469  0.672787  0.162394  1
  Tc  Tc1  1  0.468531  0.172787  0.337606  1
  Tc  Tc2  1  0.468531  0.327213  0.837606  1
  Tc  Tc3  1  0.531469  0.827213  0.662394  1
  Sb  Sb4  1  0.095689  0.021962  0.812725  1
  Sb  Sb5  1  0.904311  0.521962  0.687275  1
  Sb  Sb6  1  0.095689  0.478038  0.312725  1
  Sb  Sb7  1  0.904311  0.978038  0.187275  1
  O  O8  1  0.474249  0.530001  0.190240  1
  O  O9  1  0.525751  0.469999  0.809760  1
  O  O10  1  0.711737  0.254760  0.925425  1
  O  O11  1  0.474249  0.969999  0.690240  1
  O  O12  1  0.711737  0.245240  0.425425  1
  O  O13  1  0.525751  0.030001  0.309760  1
  O  O14  1  0.288263  0.754760  0.574575  1
  O  O15  1  0.288263  0.745240  0.074575  1
  F  F16  1  0.219477  0.013155  0.003415  1
  F  F17  1  0.553400  0.637988  0.019718  1
  F  F18  1  0.335856  0.244254  0.166116  1
  F  F19  1  0.028417  0.969831  0.378477  1
  F  F20  1  0.219477  0.486845  0.503415  1
  F  F21  1  0.446600  0.362012  0.980282  1
  F  F22  1  0.028417  0.530169  0.878477  1
  F  F23  1  0.309548  0.346952  0.350923  1
  F  F24  1  0.887084  0.887734  0.776601  1
  F  F25  1  0.335856  0.255746  0.666116  1
  F  F26  1  0.971583  0.469831  0.121523  1
  F  F27  1  0.664144  0.755746  0.833884  1
  F  F28  1  0.294614  0.602106  0.337010  1
  F  F29  1  0.780523  0.513155  0.496585  1
  F  F30  1  0.112916  0.387734  0.723399  1
  F  F31  1  0.887084  0.612266  0.276601  1
  F  F32  1  0.893823  0.355778  0.287329  1
  F  F33  1  0.971583  0.030169  0.621523  1
  F  F34  1  0.106177  0.855778  0.212671  1
  F  F35  1  0.705386  0.397894  0.662990  1
  F  F36  1  0.780523  0.986845  0.996585  1
  F  F37  1  0.309548  0.153048  0.850923  1
  F  F38  1  0.446600  0.137988  0.480282  1
  F  F39  1  0.705386  0.102106  0.162990  1
  F  F40  1  0.106177  0.644222  0.712671  1
  F  F41  1  0.112916  0.112266  0.223399  1
  F  F42  1  0.690452  0.846952  0.149077  1
  F  F43  1  0.664144  0.744254  0.333884  1
  F  F44  1  0.893823  0.144222  0.787329  1
  F  F45  1  0.553400  0.862012  0.519718  1
  F  F46  1  0.294614  0.897894  0.837010  1
  F  F47  1  0.690452  0.653048  0.649077  1
