# generated using pymatgen
data_RhF5
_symmetry_space_group_name_H-M   'P 1'
_cell_length_a   5.69259024
_cell_length_b   10.14192622
_cell_length_c   12.64043538
_cell_angle_alpha   90.00000000
_cell_angle_beta   101.09965729
_cell_angle_gamma   90.00000000
_symmetry_Int_Tables_number   1
_chemical_formula_structural   RhF5
_chemical_formula_sum   'Rh8 F40'
_cell_volume   716.12933660
_cell_formula_units_Z   8
loop_
 _symmetry_equiv_pos_site_id
 _symmetry_equiv_pos_as_xyz
  1  'x, y, z'
loop_
 _atom_site_type_symbol
 _atom_site_label
 _atom_site_symmetry_multiplicity
 _atom_site_fract_x
 _atom_site_fract_y
 _atom_site_fract_z
 _atom_site_occupancy
  Rh  Rh0  1  0.995225  0.249163  0.503832  1
  Rh  Rh1  1  0.004775  0.749163  0.996168  1
  Rh  Rh2  1  0.004775  0.750837  0.496168  1
  Rh  Rh3  1  0.995225  0.250837  0.003832  1
  Rh  Rh4  1  0.699767  0.498768  0.300535  1
  Rh  Rh5  1  0.300233  0.998768  0.199465  1
  Rh  Rh6  1  0.300233  0.501232  0.699465  1
  Rh  Rh7  1  0.699767  0.001232  0.800535  1
  F  F8  1  0.092780  0.169760  0.638375  1
  F  F9  1  0.907220  0.669760  0.861625  1
  F  F10  1  0.907220  0.830240  0.361625  1
  F  F11  1  0.092780  0.330240  0.138375  1
  F  F12  1  0.814749  0.100677  0.453473  1
  F  F13  1  0.185251  0.600677  0.046527  1
  F  F14  1  0.185251  0.899323  0.546527  1
  F  F15  1  0.814749  0.399323  0.953473  1
  F  F16  1  0.735016  0.330085  0.546647  1
  F  F17  1  0.264984  0.830085  0.953353  1
  F  F18  1  0.264984  0.669915  0.453353  1
  F  F19  1  0.735016  0.169915  0.046647  1
  F  F20  1  0.260579  0.186332  0.453780  1
  F  F21  1  0.739421  0.686332  0.046220  1
  F  F22  1  0.739421  0.813668  0.546220  1
  F  F23  1  0.260579  0.313668  0.953780  1
  F  F24  1  0.889897  0.334534  0.355877  1
  F  F25  1  0.110103  0.834534  0.144123  1
  F  F26  1  0.110103  0.665466  0.644123  1
  F  F27  1  0.889897  0.165466  0.855877  1
  F  F28  1  0.191671  0.413328  0.553028  1
  F  F29  1  0.808329  0.913328  0.946972  1
  F  F30  1  0.808329  0.586672  0.446972  1
  F  F31  1  0.191671  0.086672  0.053028  1
  F  F32  1  0.525092  0.648351  0.247749  1
  F  F33  1  0.474908  0.148351  0.252251  1
  F  F34  1  0.474908  0.351649  0.752251  1
  F  F35  1  0.525092  0.851649  0.747749  1
  F  F36  1  0.443353  0.430476  0.354808  1
  F  F37  1  0.556647  0.930476  0.145192  1
  F  F38  1  0.556647  0.569524  0.645192  1
  F  F39  1  0.443353  0.069524  0.854808  1
  F  F40  1  0.603304  0.413318  0.168425  1
  F  F41  1  0.396696  0.913318  0.331575  1
  F  F42  1  0.396696  0.586682  0.831575  1
  F  F43  1  0.603304  0.086682  0.668425  1
  F  F44  1  0.976459  0.563321  0.260955  1
  F  F45  1  0.023541  0.063321  0.239045  1
  F  F46  1  0.023541  0.436679  0.739045  1
  F  F47  1  0.976459  0.936679  0.760955  1
