# generated using pymatgen
data_TiNb3Cl7O2
_symmetry_space_group_name_H-M   'P 1'
_cell_length_a   9.80830400
_cell_length_b   9.80830400
_cell_length_c   12.75043940
_cell_angle_alpha   86.25212093
_cell_angle_beta   93.74787907
_cell_angle_gamma   81.70318656
_symmetry_Int_Tables_number   1
_chemical_formula_structural   TiNb3Cl7O2
_chemical_formula_sum   'Ti4 Nb12 Cl28 O8'
_cell_volume   1207.71420722
_cell_formula_units_Z   4
loop_
 _symmetry_equiv_pos_site_id
 _symmetry_equiv_pos_as_xyz
  1  'x, y, z'
loop_
 _atom_site_type_symbol
 _atom_site_label
 _atom_site_symmetry_multiplicity
 _atom_site_fract_x
 _atom_site_fract_y
 _atom_site_fract_z
 _atom_site_occupancy
  Ti  Ti0  1  0.889731  0.889731  0.250000  1
  Ti  Ti1  1  0.000000  1.000000  0.500000  1
  Ti  Ti2  1  0.110269  0.110269  0.750000  1
  Ti  Ti3  1  0.000000  0.000000  0.000000  1
  Nb  Nb4  1  0.553450  0.826047  0.108094  1
  Nb  Nb5  1  0.904676  0.634825  0.607542  1
  Nb  Nb6  1  0.665140  0.074183  0.060999  1
  Nb  Nb7  1  0.173953  0.446550  0.608094  1
  Nb  Nb8  1  0.925817  0.334860  0.560999  1
  Nb  Nb9  1  0.074183  0.665140  0.439001  1
  Nb  Nb10  1  0.446550  0.173953  0.891906  1
  Nb  Nb11  1  0.095324  0.365175  0.392458  1
  Nb  Nb12  1  0.826047  0.553450  0.391906  1
  Nb  Nb13  1  0.365175  0.095324  0.107542  1
  Nb  Nb14  1  0.334860  0.925817  0.939001  1
  Nb  Nb15  1  0.634825  0.904676  0.892458  1
  Cl  Cl16  1  0.682961  0.704107  0.503124  1
  Cl  Cl17  1  0.384680  0.384680  0.750000  1
  Cl  Cl18  1  0.581365  0.087190  0.749166  1
  Cl  Cl19  1  0.360916  0.702453  0.047721  1
  Cl  Cl20  1  0.876632  0.093958  0.648607  1
  Cl  Cl21  1  0.702453  0.360916  0.452279  1
  Cl  Cl22  1  0.450166  0.791532  0.802660  1
  Cl  Cl23  1  0.615320  0.615320  0.250000  1
  Cl  Cl24  1  0.791532  0.450166  0.697340  1
  Cl  Cl25  1  0.017807  0.784593  0.111060  1
  Cl  Cl26  1  0.639084  0.297547  0.952279  1
  Cl  Cl27  1  0.208468  0.549834  0.302660  1
  Cl  Cl28  1  0.792011  0.792011  0.750000  1
  Cl  Cl29  1  0.784593  0.017807  0.388940  1
  Cl  Cl30  1  0.704107  0.682961  0.996876  1
  Cl  Cl31  1  0.906042  0.123368  0.148607  1
  Cl  Cl32  1  0.982193  0.215407  0.888940  1
  Cl  Cl33  1  0.295893  0.317039  0.003124  1
  Cl  Cl34  1  0.087190  0.581365  0.750834  1
  Cl  Cl35  1  0.418635  0.912810  0.250834  1
  Cl  Cl36  1  0.912810  0.418635  0.249166  1
  Cl  Cl37  1  0.093958  0.876632  0.851393  1
  Cl  Cl38  1  0.549834  0.208468  0.197340  1
  Cl  Cl39  1  0.123368  0.906042  0.351393  1
  Cl  Cl40  1  0.297547  0.639084  0.547721  1
  Cl  Cl41  1  0.215407  0.982193  0.611060  1
  Cl  Cl42  1  0.317039  0.295893  0.496876  1
  Cl  Cl43  1  0.207989  0.207989  0.250000  1
  O  O44  1  0.197261  0.017896  0.041577  1
  O  O45  1  0.982104  0.802739  0.541577  1
  O  O46  1  0.097529  0.278560  0.670348  1
  O  O47  1  0.278560  0.097529  0.829652  1
  O  O48  1  0.721440  0.902471  0.170348  1
  O  O49  1  0.017896  0.197261  0.458423  1
  O  O50  1  0.902471  0.721440  0.329652  1
  O  O51  1  0.802739  0.982104  0.958423  1
