# generated using pymatgen
data_CoP2O7
_symmetry_space_group_name_H-M   'P 1'
_cell_length_a   6.14724138
_cell_length_b   6.14724138
_cell_length_c   12.92903893
_cell_angle_alpha   75.27262150
_cell_angle_beta   104.72737850
_cell_angle_gamma   99.05284882
_symmetry_Int_Tables_number   1
_chemical_formula_structural   CoP2O7
_chemical_formula_sum   'Co4 P8 O28'
_cell_volume   454.74409530
_cell_formula_units_Z   4
loop_
 _symmetry_equiv_pos_site_id
 _symmetry_equiv_pos_as_xyz
  1  'x, y, z'
loop_
 _atom_site_type_symbol
 _atom_site_label
 _atom_site_symmetry_multiplicity
 _atom_site_fract_x
 _atom_site_fract_y
 _atom_site_fract_z
 _atom_site_occupancy
  Co  Co0  1  0.414352  0.122154  0.143828  1
  Co  Co1  1  0.122154  0.414352  0.356172  1
  Co  Co2  1  0.877846  0.585648  0.643828  1
  Co  Co3  1  0.585648  0.877846  0.856172  1
  P  P4  1  0.079125  0.751209  0.861781  1
  P  P5  1  0.248791  0.920875  0.361781  1
  P  P6  1  0.414290  0.667576  0.069445  1
  P  P7  1  0.332424  0.585710  0.569445  1
  P  P8  1  0.667576  0.414290  0.430555  1
  P  P9  1  0.920875  0.248791  0.138219  1
  P  P10  1  0.751209  0.079125  0.638219  1
  P  P11  1  0.585710  0.332424  0.930555  1
  O  O12  1  0.805802  0.394409  0.019498  1
  O  O13  1  0.354712  0.810590  0.137808  1
  O  O14  1  0.189410  0.645288  0.637808  1
  O  O15  1  0.599740  0.795280  0.007480  1
  O  O16  1  0.568592  0.966494  0.703491  1
  O  O17  1  0.440912  0.479003  0.354209  1
  O  O18  1  0.033506  0.431408  0.203491  1
  O  O19  1  0.520997  0.559088  0.854209  1
  O  O20  1  0.810590  0.354712  0.362192  1
  O  O21  1  0.114202  0.090751  0.381150  1
  O  O22  1  0.729460  0.084120  0.179012  1
  O  O23  1  0.090751  0.114202  0.118850  1
  O  O24  1  0.885798  0.909249  0.618850  1
  O  O25  1  0.559088  0.520997  0.645791  1
  O  O26  1  0.966494  0.568592  0.796509  1
  O  O27  1  0.915880  0.270540  0.679012  1
  O  O28  1  0.795280  0.599740  0.492520  1
  O  O29  1  0.645288  0.189410  0.862192  1
  O  O30  1  0.394409  0.805802  0.480502  1
  O  O31  1  0.194198  0.605591  0.980502  1
  O  O32  1  0.479003  0.440912  0.145791  1
  O  O33  1  0.909249  0.885798  0.881150  1
  O  O34  1  0.204720  0.400260  0.507480  1
  O  O35  1  0.084120  0.729460  0.320988  1
  O  O36  1  0.270540  0.915880  0.820988  1
  O  O37  1  0.400260  0.204720  0.992520  1
  O  O38  1  0.431408  0.033506  0.296509  1
  O  O39  1  0.605591  0.194198  0.519498  1
