# generated using pymatgen
data_SiO2
_symmetry_space_group_name_H-M   'P 1'
_cell_length_a   5.11086894
_cell_length_b   5.11086894
_cell_length_c   8.62666413
_cell_angle_alpha   90.00000000
_cell_angle_beta   90.00000000
_cell_angle_gamma   120.00000000
_symmetry_Int_Tables_number   1
_chemical_formula_structural   SiO2
_chemical_formula_sum   'Si4 O8'
_cell_volume   195.14750789
_cell_formula_units_Z   4
loop_
 _symmetry_equiv_pos_site_id
 _symmetry_equiv_pos_as_xyz
  1  'x, y, z'
loop_
 _atom_site_type_symbol
 _atom_site_label
 _atom_site_symmetry_multiplicity
 _atom_site_fract_x
 _atom_site_fract_y
 _atom_site_fract_z
 _atom_site_occupancy
  Si  Si0  1  0.666667  0.333333  0.937195  1
  Si  Si1  1  0.666667  0.333333  0.562805  1
  Si  Si2  1  0.333333  0.666667  0.062805  1
  Si  Si3  1  0.333333  0.666667  0.437195  1
  O  O4  1  0.000000  0.420636  0.000000  1
  O  O5  1  0.420636  0.420636  0.500000  1
  O  O6  1  0.579364  0.000000  0.500000  1
  O  O7  1  0.579364  0.579364  0.000000  1
  O  O8  1  0.000000  0.579364  0.500000  1
  O  O9  1  0.666667  0.333333  0.750000  1
  O  O10  1  0.333333  0.666667  0.250000  1
  O  O11  1  0.420636  0.000000  0.000000  1
