# generated using pymatgen
data_SbI(OF4)2
_symmetry_space_group_name_H-M   'P 1'
_cell_length_a   5.90337468
_cell_length_b   10.24871220
_cell_length_c   12.95598377
_cell_angle_alpha   90.00000000
_cell_angle_beta   102.54716367
_cell_angle_gamma   90.00000000
_symmetry_Int_Tables_number   1
_chemical_formula_structural   SbI(OF4)2
_chemical_formula_sum   'Sb4 I4 O8 F32'
_cell_volume   765.14218237
_cell_formula_units_Z   4
loop_
 _symmetry_equiv_pos_site_id
 _symmetry_equiv_pos_as_xyz
  1  'x, y, z'
loop_
 _atom_site_type_symbol
 _atom_site_label
 _atom_site_symmetry_multiplicity
 _atom_site_fract_x
 _atom_site_fract_y
 _atom_site_fract_z
 _atom_site_occupancy
  Sb  Sb0  1  0.497738  0.748478  0.509369  1
  Sb  Sb1  1  0.502262  0.248478  0.990631  1
  Sb  Sb2  1  0.497738  0.751522  0.009369  1
  Sb  Sb3  1  0.502262  0.251522  0.490631  1
  I  I4  1  0.226635  0.991098  0.318638  1
  I  I5  1  0.773365  0.008902  0.681362  1
  I  I6  1  0.773365  0.491098  0.181362  1
  I  I7  1  0.226635  0.508902  0.818638  1
  O  O8  1  0.700532  0.584916  0.057691  1
  O  O9  1  0.700532  0.915084  0.557691  1
  O  O10  1  0.594607  0.153598  0.635433  1
  O  O11  1  0.594607  0.346402  0.135433  1
  O  O12  1  0.299468  0.084916  0.442309  1
  O  O13  1  0.299468  0.415084  0.942309  1
  O  O14  1  0.405393  0.653598  0.864567  1
  O  O15  1  0.405393  0.846402  0.364567  1
  F  F16  1  0.389907  0.171985  0.856270  1
  F  F17  1  0.128836  0.905897  0.190106  1
  F  F18  1  0.752503  0.332300  0.946618  1
  F  F19  1  0.311086  0.605930  0.450568  1
  F  F20  1  0.460232  0.062155  0.260194  1
  F  F21  1  0.962810  0.874510  0.747522  1
  F  F22  1  0.311086  0.894070  0.950568  1
  F  F23  1  0.752503  0.167700  0.446618  1
  F  F24  1  0.962810  0.625490  0.247522  1
  F  F25  1  0.962290  0.575203  0.855711  1
  F  F26  1  0.128836  0.594103  0.690106  1
  F  F27  1  0.460232  0.437845  0.760194  1
  F  F28  1  0.247637  0.306325  0.546804  1
  F  F29  1  0.539768  0.562155  0.239806  1
  F  F30  1  0.688914  0.394070  0.549432  1
  F  F31  1  0.752363  0.693675  0.453196  1
  F  F32  1  0.610093  0.828015  0.143730  1
  F  F33  1  0.539768  0.937845  0.739806  1
  F  F34  1  0.247497  0.667700  0.053382  1
  F  F35  1  0.247497  0.832300  0.553382  1
  F  F36  1  0.247637  0.193675  0.046804  1
  F  F37  1  0.752363  0.806325  0.953196  1
  F  F38  1  0.962290  0.924797  0.355711  1
  F  F39  1  0.037710  0.075203  0.644289  1
  F  F40  1  0.871164  0.094103  0.809894  1
  F  F41  1  0.389907  0.328015  0.356270  1
  F  F42  1  0.037710  0.424797  0.144289  1
  F  F43  1  0.871164  0.405897  0.309894  1
  F  F44  1  0.037190  0.374510  0.752478  1
  F  F45  1  0.037190  0.125490  0.252478  1
  F  F46  1  0.610093  0.671985  0.643730  1
  F  F47  1  0.688914  0.105930  0.049432  1
