# generated using pymatgen
data_K2ZrSi2O7
_symmetry_space_group_name_H-M   'P 1'
_cell_length_a   9.70797753
_cell_length_b   5.64516322
_cell_length_c   14.35567650
_cell_angle_alpha   90.00000000
_cell_angle_beta   116.86653289
_cell_angle_gamma   90.00000000
_symmetry_Int_Tables_number   1
_chemical_formula_structural   K2ZrSi2O7
_chemical_formula_sum   'K8 Zr4 Si8 O28'
_cell_volume   701.81686139
_cell_formula_units_Z   4
loop_
 _symmetry_equiv_pos_site_id
 _symmetry_equiv_pos_as_xyz
  1  'x, y, z'
loop_
 _atom_site_type_symbol
 _atom_site_label
 _atom_site_symmetry_multiplicity
 _atom_site_fract_x
 _atom_site_fract_y
 _atom_site_fract_z
 _atom_site_occupancy
  K  K0  1  0.036974  0.753633  0.428620  1
  K  K1  1  0.516658  0.243135  0.401530  1
  K  K2  1  0.963026  0.253633  0.071380  1
  K  K3  1  0.036974  0.746367  0.928620  1
  K  K4  1  0.963026  0.246367  0.571380  1
  K  K5  1  0.483342  0.756865  0.598470  1
  K  K6  1  0.483342  0.743135  0.098470  1
  K  K7  1  0.516658  0.256865  0.901530  1
  Zr  Zr8  1  0.765156  0.243425  0.770367  1
  Zr  Zr9  1  0.234844  0.743425  0.729633  1
  Zr  Zr10  1  0.234844  0.756575  0.229633  1
  Zr  Zr11  1  0.765156  0.256575  0.270367  1
  Si  Si12  1  0.825386  0.736435  0.629333  1
  Si  Si13  1  0.825386  0.763565  0.129333  1
  Si  Si14  1  0.174614  0.236435  0.870667  1
  Si  Si15  1  0.174614  0.263565  0.370667  1
  Si  Si16  1  0.664403  0.748365  0.386270  1
  Si  Si17  1  0.664403  0.751635  0.886270  1
  Si  Si18  1  0.335597  0.251635  0.613730  1
  Si  Si19  1  0.335597  0.248365  0.113730  1
  O  O20  1  0.685579  0.782480  0.507843  1
  O  O21  1  0.742656  0.003569  0.880283  1
  O  O22  1  0.251741  0.474786  0.137521  1
  O  O23  1  0.008012  0.250680  0.872268  1
  O  O24  1  0.748259  0.525214  0.862479  1
  O  O25  1  0.742656  0.496431  0.380283  1
  O  O26  1  0.251741  0.025214  0.637521  1
  O  O27  1  0.008012  0.249320  0.372268  1
  O  O28  1  0.476975  0.745761  0.814947  1
  O  O29  1  0.314421  0.282480  0.992157  1
  O  O30  1  0.257344  0.503569  0.619717  1
  O  O31  1  0.748259  0.974786  0.362479  1
  O  O32  1  0.797748  0.948080  0.696267  1
  O  O33  1  0.523025  0.254239  0.185053  1
  O  O34  1  0.314421  0.217520  0.492157  1
  O  O35  1  0.476975  0.754239  0.314947  1
  O  O36  1  0.209027  0.976095  0.835468  1
  O  O37  1  0.202252  0.051920  0.303733  1
  O  O38  1  0.790973  0.476095  0.664532  1
  O  O39  1  0.991988  0.749320  0.127732  1
  O  O40  1  0.523025  0.245761  0.685053  1
  O  O41  1  0.991988  0.750680  0.627732  1
  O  O42  1  0.685579  0.717520  0.007843  1
  O  O43  1  0.790973  0.023905  0.164532  1
  O  O44  1  0.209027  0.523905  0.335468  1
  O  O45  1  0.797748  0.551920  0.196267  1
  O  O46  1  0.257344  0.996431  0.119717  1
  O  O47  1  0.202252  0.448080  0.803733  1
