# generated using pymatgen
data_CsSb2F11
_symmetry_space_group_name_H-M   'P 1'
_cell_length_a   7.92522752
_cell_length_b   14.64633032
_cell_length_c   9.90593558
_cell_angle_alpha   90.00000000
_cell_angle_beta   114.49950182
_cell_angle_gamma   90.00000000
_symmetry_Int_Tables_number   1
_chemical_formula_structural   CsSb2F11
_chemical_formula_sum   'Cs4 Sb8 F44'
_cell_volume   1046.31076153
_cell_formula_units_Z   4
loop_
 _symmetry_equiv_pos_site_id
 _symmetry_equiv_pos_as_xyz
  1  'x, y, z'
loop_
 _atom_site_type_symbol
 _atom_site_label
 _atom_site_symmetry_multiplicity
 _atom_site_fract_x
 _atom_site_fract_y
 _atom_site_fract_z
 _atom_site_occupancy
  Cs  Cs0  1  0.742146  0.627797  0.725725  1
  Cs  Cs1  1  0.257854  0.372203  0.274275  1
  Cs  Cs2  1  0.742146  0.872203  0.225725  1
  Cs  Cs3  1  0.257854  0.127797  0.774275  1
  Sb  Sb4  1  0.732791  0.949820  0.756657  1
  Sb  Sb5  1  0.267209  0.050180  0.243343  1
  Sb  Sb6  1  0.732791  0.550180  0.256657  1
  Sb  Sb7  1  0.279327  0.805353  0.690602  1
  Sb  Sb8  1  0.720673  0.194647  0.309398  1
  Sb  Sb9  1  0.720673  0.305353  0.809398  1
  Sb  Sb10  1  0.279327  0.694647  0.190602  1
  Sb  Sb11  1  0.267209  0.449820  0.743343  1
  F  F12  1  0.879989  0.358322  0.994168  1
  F  F13  1  0.416310  0.950311  0.349061  1
  F  F14  1  0.048472  0.521362  0.659665  1
  F  F15  1  0.086639  0.742858  0.718152  1
  F  F16  1  0.913361  0.257142  0.281848  1
  F  F17  1  0.490443  0.872682  0.656189  1
  F  F18  1  0.086639  0.757142  0.218152  1
  F  F19  1  0.330016  0.794112  0.089498  1
  F  F20  1  0.913361  0.242858  0.781848  1
  F  F21  1  0.951528  0.478638  0.340335  1
  F  F22  1  0.669984  0.205888  0.910502  1
  F  F23  1  0.157590  0.338945  0.645354  1
  F  F24  1  0.416310  0.549689  0.849061  1
  F  F25  1  0.879989  0.141678  0.494168  1
  F  F26  1  0.476476  0.735731  0.368966  1
  F  F27  1  0.523524  0.235731  0.131034  1
  F  F28  1  0.583690  0.450311  0.150939  1
  F  F29  1  0.654075  0.972957  0.911497  1
  F  F30  1  0.743134  0.413802  0.712297  1
  F  F31  1  0.669984  0.294112  0.410502  1
  F  F32  1  0.780013  0.585900  0.090879  1
  F  F33  1  0.345925  0.027043  0.088503  1
  F  F34  1  0.157590  0.161055  0.145354  1
  F  F35  1  0.120011  0.858322  0.505832  1
  F  F36  1  0.330016  0.705888  0.589498  1
  F  F37  1  0.490443  0.627318  0.156189  1
  F  F38  1  0.219987  0.085900  0.409121  1
  F  F39  1  0.048472  0.978638  0.159665  1
  F  F40  1  0.120011  0.641678  0.005832  1
  F  F41  1  0.256866  0.586198  0.287703  1
  F  F42  1  0.780013  0.914100  0.590879  1
  F  F43  1  0.476476  0.764269  0.868966  1
  F  F44  1  0.583690  0.049689  0.650939  1
  F  F45  1  0.509557  0.372682  0.843811  1
  F  F46  1  0.523524  0.264269  0.631034  1
  F  F47  1  0.345925  0.472957  0.588503  1
  F  F48  1  0.219987  0.414100  0.909121  1
  F  F49  1  0.654075  0.527043  0.411497  1
  F  F50  1  0.951528  0.021362  0.840335  1
  F  F51  1  0.842410  0.661055  0.354646  1
  F  F52  1  0.842410  0.838945  0.854646  1
  F  F53  1  0.256866  0.913802  0.787703  1
  F  F54  1  0.509557  0.127318  0.343811  1
  F  F55  1  0.743134  0.086198  0.212297  1
