# generated using pymatgen
data_Pr10(B3C4)3
_symmetry_space_group_name_H-M   'P 1'
_cell_length_a   8.54892004
_cell_length_b   8.54892004
_cell_length_c   25.40062105
_cell_angle_alpha   90.00000000
_cell_angle_beta   90.00000000
_cell_angle_gamma   90.00000000
_symmetry_Int_Tables_number   1
_chemical_formula_structural   Pr10(B3C4)3
_chemical_formula_sum   'Pr40 B36 C48'
_cell_volume   1856.37984864
_cell_formula_units_Z   4
loop_
 _symmetry_equiv_pos_site_id
 _symmetry_equiv_pos_as_xyz
  1  'x, y, z'
loop_
 _atom_site_type_symbol
 _atom_site_label
 _atom_site_symmetry_multiplicity
 _atom_site_fract_x
 _atom_site_fract_y
 _atom_site_fract_z
 _atom_site_occupancy
  Pr  Pr0  1  0.714461  0.197427  0.821594  1
  Pr  Pr1  1  0.415340  0.695572  0.946172  1
  Pr  Pr2  1  0.901472  0.014816  0.060660  1
  Pr  Pr3  1  0.396554  0.093890  0.209594  1
  Pr  Pr4  1  0.401472  0.485184  0.689340  1
  Pr  Pr5  1  0.603446  0.906110  0.709594  1
  Pr  Pr6  1  0.485184  0.401472  0.310660  1
  Pr  Pr7  1  0.915340  0.804428  0.803828  1
  Pr  Pr8  1  0.014816  0.901472  0.939340  1
  Pr  Pr9  1  0.012750  0.682500  0.667176  1
  Pr  Pr10  1  0.598528  0.514816  0.189340  1
  Pr  Pr11  1  0.512750  0.817500  0.082824  1
  Pr  Pr12  1  0.987250  0.317500  0.167176  1
  Pr  Pr13  1  0.593890  0.103446  0.959594  1
  Pr  Pr14  1  0.098528  0.985184  0.560660  1
  Pr  Pr15  1  0.695572  0.415340  0.053828  1
  Pr  Pr16  1  0.804428  0.915340  0.196172  1
  Pr  Pr17  1  0.584660  0.304428  0.446172  1
  Pr  Pr18  1  0.317500  0.987250  0.832824  1
  Pr  Pr19  1  0.906110  0.603446  0.290406  1
  Pr  Pr20  1  0.697427  0.785539  0.571594  1
  Pr  Pr21  1  0.896554  0.406110  0.540406  1
  Pr  Pr22  1  0.802573  0.285539  0.678406  1
  Pr  Pr23  1  0.682500  0.012750  0.332824  1
  Pr  Pr24  1  0.093890  0.396554  0.790406  1
  Pr  Pr25  1  0.195572  0.084660  0.696172  1
  Pr  Pr26  1  0.514816  0.598528  0.810660  1
  Pr  Pr27  1  0.103446  0.593890  0.040406  1
  Pr  Pr28  1  0.985184  0.098528  0.439340  1
  Pr  Pr29  1  0.084660  0.195572  0.303828  1
  Pr  Pr30  1  0.197427  0.714461  0.178406  1
  Pr  Pr31  1  0.406110  0.896554  0.459594  1
  Pr  Pr32  1  0.785539  0.697427  0.428406  1
  Pr  Pr33  1  0.304428  0.584660  0.553828  1
  Pr  Pr34  1  0.214461  0.302573  0.928406  1
  Pr  Pr35  1  0.302573  0.214461  0.071594  1
  Pr  Pr36  1  0.487250  0.182500  0.582824  1
  Pr  Pr37  1  0.285539  0.802573  0.321594  1
  Pr  Pr38  1  0.182500  0.487250  0.417176  1
  Pr  Pr39  1  0.817500  0.512750  0.917176  1
  B  B40  1  0.142505  0.636528  0.883293  1
  B  B41  1  0.624034  0.488806  0.607252  1
  B  B42  1  0.080580  0.919420  0.250000  1
  B  B43  1  0.281424  0.203665  0.475168  1
  B  B44  1  0.703665  0.218576  0.225168  1
  B  B45  1  0.863472  0.642505  0.133293  1
  B  B46  1  0.357495  0.136528  0.366707  1
  B  B47  1  0.296335  0.781424  0.725168  1
  B  B48  1  0.857495  0.363472  0.383293  1
  B  B49  1  0.988806  0.875966  0.357252  1
  B  B50  1  0.124034  0.011194  0.142748  1
  B  B51  1  0.875966  0.988806  0.642748  1
  B  B52  1  0.636528  0.142505  0.116707  1
  B  B53  1  0.419420  0.419420  0.000000  1
  B  B54  1  0.203665  0.281424  0.524832  1
  B  B55  1  0.412749  0.301446  0.842615  1
  B  B56  1  0.580580  0.580580  0.500000  1
  B  B57  1  0.087251  0.801446  0.407385  1
  B  B58  1  0.363472  0.857495  0.616707  1
  B  B59  1  0.912749  0.198554  0.907385  1
  B  B60  1  0.642505  0.863472  0.866707  1
  B  B61  1  0.698554  0.587251  0.657385  1
  B  B62  1  0.781424  0.296335  0.274832  1
  B  B63  1  0.218576  0.703665  0.774832  1
  B  B64  1  0.511194  0.375966  0.892748  1
  B  B65  1  0.301446  0.412749  0.157385  1
  B  B66  1  0.011194  0.124034  0.857252  1
  B  B67  1  0.796335  0.718576  0.024832  1
  B  B68  1  0.801446  0.087251  0.592615  1
  B  B69  1  0.136528  0.357495  0.633293  1
  B  B70  1  0.587251  0.698554  0.342615  1
  B  B71  1  0.488806  0.624034  0.392748  1
  B  B72  1  0.919420  0.080580  0.750000  1
  B  B73  1  0.375966  0.511194  0.107252  1
  B  B74  1  0.718576  0.796335  0.975168  1
  B  B75  1  0.198554  0.912749  0.092615  1
  C  C76  1  0.972580  0.287860  0.011503  1
  C  C77  1  0.615297  0.893163  0.810898  1
  C  C78  1  0.712140  0.027420  0.488497  1
  C  C79  1  0.510586  0.402671  0.950683  1
  C  C80  1  0.179927  0.296969  0.581625  1
  C  C81  1  0.494485  0.189505  0.686202  1
  C  C82  1  0.073953  0.783203  0.465931  1
  C  C83  1  0.606837  0.115297  0.060898  1
  C  C84  1  0.573953  0.716797  0.284069  1
  C  C85  1  0.216797  0.926047  0.034069  1
  C  C86  1  0.106837  0.384703  0.689102  1
  C  C87  1  0.287860  0.972580  0.988497  1
  C  C88  1  0.893163  0.615297  0.189102  1
  C  C89  1  0.679927  0.203031  0.168375  1
  C  C90  1  0.787860  0.527420  0.761503  1
  C  C91  1  0.115297  0.606837  0.939102  1
  C  C92  1  0.203031  0.679927  0.831625  1
  C  C93  1  0.426047  0.283203  0.784069  1
  C  C94  1  0.189505  0.494485  0.313798  1
  C  C95  1  0.994485  0.310495  0.063798  1
  C  C96  1  0.783203  0.073953  0.534069  1
  C  C97  1  0.796969  0.320073  0.331625  1
  C  C98  1  0.820073  0.703031  0.081625  1
  C  C99  1  0.212140  0.472580  0.261503  1
  C  C100  1  0.716797  0.573953  0.715931  1
  C  C101  1  0.472580  0.212140  0.738497  1
  C  C102  1  0.989414  0.902671  0.299317  1
  C  C103  1  0.097329  0.010586  0.200683  1
  C  C104  1  0.703031  0.820073  0.918375  1
  C  C105  1  0.402671  0.510586  0.049317  1
  C  C106  1  0.320073  0.796969  0.668375  1
  C  C107  1  0.505515  0.810495  0.186202  1
  C  C108  1  0.027420  0.712140  0.511503  1
  C  C109  1  0.884703  0.393163  0.439102  1
  C  C110  1  0.527420  0.787860  0.238497  1
  C  C111  1  0.283203  0.426047  0.215931  1
  C  C112  1  0.597329  0.489414  0.549317  1
  C  C113  1  0.010586  0.097329  0.799317  1
  C  C114  1  0.926047  0.216797  0.965931  1
  C  C115  1  0.902671  0.989414  0.700683  1
  C  C116  1  0.296969  0.179927  0.418375  1
  C  C117  1  0.310495  0.994485  0.936202  1
  C  C118  1  0.393163  0.884703  0.560898  1
  C  C119  1  0.689505  0.005515  0.436202  1
  C  C120  1  0.810495  0.505515  0.813798  1
  C  C121  1  0.384703  0.106837  0.310898  1
  C  C122  1  0.489414  0.597329  0.450683  1
  C  C123  1  0.005515  0.689505  0.563798  1
