# generated using pymatgen
data_Li2ZnGe
_symmetry_space_group_name_H-M   'P 1'
_cell_length_a   4.31201612
_cell_length_b   4.31201612
_cell_length_c   16.54539626
_cell_angle_alpha   90.00000000
_cell_angle_beta   90.00000000
_cell_angle_gamma   120.00000000
_symmetry_Int_Tables_number   1
_chemical_formula_structural   Li2ZnGe
_chemical_formula_sum   'Li8 Zn4 Ge4'
_cell_volume   266.42106201
_cell_formula_units_Z   4
loop_
 _symmetry_equiv_pos_site_id
 _symmetry_equiv_pos_as_xyz
  1  'x, y, z'
loop_
 _atom_site_type_symbol
 _atom_site_label
 _atom_site_symmetry_multiplicity
 _atom_site_fract_x
 _atom_site_fract_y
 _atom_site_fract_z
 _atom_site_occupancy
  Li  Li0  1  0.333333  0.666667  0.209502  1
  Li  Li1  1  0.333333  0.666667  0.042606  1
  Li  Li2  1  0.666667  0.333333  0.790498  1
  Li  Li3  1  0.666667  0.333333  0.458428  1
  Li  Li4  1  0.666667  0.333333  0.292178  1
  Li  Li5  1  0.333333  0.666667  0.707822  1
  Li  Li6  1  0.666667  0.333333  0.957394  1
  Li  Li7  1  0.333333  0.666667  0.541572  1
  Zn  Zn8  1  0.000000  0.000000  0.130610  1
  Zn  Zn9  1  0.000000  0.000000  0.620362  1
  Zn  Zn10  1  0.000000  0.000000  0.379638  1
  Zn  Zn11  1  0.000000  0.000000  0.869390  1
  Ge  Ge12  1  0.666667  0.333333  0.624680  1
  Ge  Ge13  1  0.666667  0.333333  0.125447  1
  Ge  Ge14  1  0.333333  0.666667  0.874553  1
  Ge  Ge15  1  0.333333  0.666667  0.375320  1
