# generated using pymatgen
data_K2Ce(Si2O5)3
_symmetry_space_group_name_H-M   'P 1'
_cell_length_a   9.96865218
_cell_length_b   9.96865218
_cell_length_c   12.01320499
_cell_angle_alpha   52.99235308
_cell_angle_beta   127.00764692
_cell_angle_gamma   127.37340348
_symmetry_Int_Tables_number   1
_chemical_formula_structural   K2Ce(Si2O5)3
_chemical_formula_sum   'K4 Ce2 Si12 O30'
_cell_volume   702.99771861
_cell_formula_units_Z   2
loop_
 _symmetry_equiv_pos_site_id
 _symmetry_equiv_pos_as_xyz
  1  'x, y, z'
loop_
 _atom_site_type_symbol
 _atom_site_label
 _atom_site_symmetry_multiplicity
 _atom_site_fract_x
 _atom_site_fract_y
 _atom_site_fract_z
 _atom_site_occupancy
  K  K0  1  0.746045  0.902808  0.498733  1
  K  K1  1  0.902808  0.746045  0.001267  1
  K  K2  1  0.253955  0.097192  0.501267  1
  K  K3  1  0.097192  0.253955  0.998733  1
  Ce  Ce4  1  0.167169  0.167169  0.750000  1
  Ce  Ce5  1  0.832831  0.832831  0.250000  1
  Si  Si6  1  0.803388  0.253499  0.122886  1
  Si  Si7  1  0.253499  0.803388  0.377114  1
  Si  Si8  1  0.372462  0.563530  0.225798  1
  Si  Si9  1  0.627538  0.436470  0.774202  1
  Si  Si10  1  0.098714  0.426623  0.355544  1
  Si  Si11  1  0.746501  0.196612  0.622886  1
  Si  Si12  1  0.436470  0.627538  0.725798  1
  Si  Si13  1  0.901286  0.573377  0.644456  1
  Si  Si14  1  0.563530  0.372462  0.274202  1
  Si  Si15  1  0.573377  0.901286  0.855544  1
  Si  Si16  1  0.196612  0.746501  0.877114  1
  Si  Si17  1  0.426623  0.098714  0.144456  1
  O  O18  1  0.225143  0.627463  0.055446  1
  O  O19  1  0.468671  0.278012  0.156540  1
  O  O20  1  0.531329  0.721988  0.843460  1
  O  O21  1  0.606976  0.606976  0.750000  1
  O  O22  1  0.278012  0.468671  0.343460  1
  O  O23  1  0.078241  0.593433  0.801411  1
  O  O24  1  0.393024  0.393024  0.250000  1
  O  O25  1  0.133346  0.605524  0.360615  1
  O  O26  1  0.432996  0.272518  0.743382  1
  O  O27  1  0.866654  0.394476  0.639385  1
  O  O28  1  0.272518  0.432996  0.756618  1
  O  O29  1  0.921759  0.406567  0.198589  1
  O  O30  1  0.593433  0.078241  0.698589  1
  O  O31  1  0.091847  0.876528  0.795032  1
  O  O32  1  0.627463  0.225143  0.444554  1
  O  O33  1  0.372537  0.774857  0.555446  1
  O  O34  1  0.721988  0.531329  0.656540  1
  O  O35  1  0.394476  0.866654  0.860615  1
  O  O36  1  0.062025  0.242421  0.498525  1
  O  O37  1  0.727482  0.567004  0.243382  1
  O  O38  1  0.908153  0.123472  0.204968  1
  O  O39  1  0.242421  0.062025  0.001475  1
  O  O40  1  0.876528  0.091847  0.704968  1
  O  O41  1  0.123472  0.908153  0.295032  1
  O  O42  1  0.757579  0.937975  0.998525  1
  O  O43  1  0.406567  0.921759  0.301411  1
  O  O44  1  0.567004  0.727482  0.256618  1
  O  O45  1  0.937975  0.757579  0.501475  1
  O  O46  1  0.605524  0.133346  0.139385  1
  O  O47  1  0.774857  0.372537  0.944554  1
