# generated using pymatgen
data_Rb3As7
_symmetry_space_group_name_H-M   'P 1'
_cell_length_a   7.79721983
_cell_length_b   13.39777007
_cell_length_c   27.57310606
_cell_angle_alpha   90.00000000
_cell_angle_beta   91.82430840
_cell_angle_gamma   90.00000000
_symmetry_Int_Tables_number   1
_chemical_formula_structural   Rb3As7
_chemical_formula_sum   'Rb24 As56'
_cell_volume   2878.97444258
_cell_formula_units_Z   8
loop_
 _symmetry_equiv_pos_site_id
 _symmetry_equiv_pos_as_xyz
  1  'x, y, z'
loop_
 _atom_site_type_symbol
 _atom_site_label
 _atom_site_symmetry_multiplicity
 _atom_site_fract_x
 _atom_site_fract_y
 _atom_site_fract_z
 _atom_site_occupancy
  Rb  Rb0  1  0.104926  0.950611  0.900459  1
  Rb  Rb1  1  0.185392  0.105037  0.735812  1
  Rb  Rb2  1  0.187111  0.551885  0.048241  1
  Rb  Rb3  1  0.187111  0.948115  0.548241  1
  Rb  Rb4  1  0.290346  0.978604  0.373261  1
  Rb  Rb5  1  0.586692  0.621438  0.295166  1
  Rb  Rb6  1  0.814608  0.894963  0.264188  1
  Rb  Rb7  1  0.390397  0.841309  0.065831  1
  Rb  Rb8  1  0.895074  0.450611  0.599541  1
  Rb  Rb9  1  0.814608  0.605037  0.764188  1
  Rb  Rb10  1  0.812889  0.051885  0.451759  1
  Rb  Rb11  1  0.104926  0.549389  0.400459  1
  Rb  Rb12  1  0.895074  0.049389  0.099541  1
  Rb  Rb13  1  0.609603  0.158691  0.934169  1
  Rb  Rb14  1  0.709654  0.021396  0.626739  1
  Rb  Rb15  1  0.413308  0.121438  0.204834  1
  Rb  Rb16  1  0.609603  0.341309  0.434169  1
  Rb  Rb17  1  0.812889  0.448115  0.951759  1
  Rb  Rb18  1  0.586692  0.878562  0.795166  1
  Rb  Rb19  1  0.290346  0.521396  0.873261  1
  Rb  Rb20  1  0.185392  0.394963  0.235812  1
  Rb  Rb21  1  0.413308  0.378562  0.704834  1
  Rb  Rb22  1  0.390397  0.658691  0.565831  1
  Rb  Rb23  1  0.709654  0.478604  0.126739  1
  As  As24  1  0.810585  0.392925  0.311723  1
  As  As25  1  0.983016  0.802402  0.421014  1
  As  As26  1  0.721362  0.841151  0.532163  1
  As  As27  1  0.260548  0.687565  0.770584  1
  As  As28  1  0.189415  0.892925  0.188277  1
  As  As29  1  0.306222  0.196265  0.609326  1
  As  As30  1  0.693778  0.803735  0.390674  1
  As  As31  1  0.544159  0.283335  0.301774  1
  As  As32  1  0.739452  0.187565  0.729416  1
  As  As33  1  0.452411  0.158265  0.067432  1
  As  As34  1  0.278638  0.341151  0.967837  1
  As  As35  1  0.059926  0.868068  0.686247  1
  As  As36  1  0.919974  0.331721  0.726519  1
  As  As37  1  0.977488  0.791017  0.149410  1
  As  As38  1  0.634878  0.124778  0.332229  1
  As  As39  1  0.765360  0.582894  0.482853  1
  As  As40  1  0.455841  0.716665  0.698226  1
  As  As41  1  0.810585  0.107075  0.811723  1
  As  As42  1  0.016984  0.302402  0.078986  1
  As  As43  1  0.306222  0.303735  0.109326  1
  As  As44  1  0.765360  0.917106  0.982853  1
  As  As45  1  0.943213  0.770333  0.001477  1
  As  As46  1  0.977488  0.708983  0.649410  1
  As  As47  1  0.022512  0.208983  0.850590  1
  As  As48  1  0.693778  0.696265  0.890674  1
  As  As49  1  0.940074  0.131932  0.313753  1
  As  As50  1  0.059926  0.631932  0.186247  1
  As  As51  1  0.547589  0.841735  0.932568  1
  As  As52  1  0.022512  0.291017  0.350590  1
  As  As53  1  0.189415  0.607075  0.688277  1
  As  As54  1  0.080026  0.831721  0.773481  1
  As  As55  1  0.365122  0.875222  0.667771  1
  As  As56  1  0.260548  0.812435  0.270584  1
  As  As57  1  0.080026  0.668279  0.273481  1
  As  As58  1  0.452411  0.341735  0.567432  1
  As  As59  1  0.365122  0.624778  0.167771  1
  As  As60  1  0.234640  0.417106  0.517147  1
  As  As61  1  0.547589  0.658265  0.432568  1
  As  As62  1  0.634878  0.375222  0.832229  1
  As  As63  1  0.234640  0.082894  0.017147  1
  As  As64  1  0.056787  0.229667  0.998523  1
  As  As65  1  0.483988  0.334958  0.033231  1
  As  As66  1  0.016984  0.197598  0.578986  1
  As  As67  1  0.544159  0.216665  0.801774  1
  As  As68  1  0.919974  0.168279  0.226519  1
  As  As69  1  0.739452  0.312435  0.229416  1
  As  As70  1  0.516012  0.665042  0.966769  1
  As  As71  1  0.721362  0.658849  0.032163  1
  As  As72  1  0.056787  0.270333  0.498523  1
  As  As73  1  0.278638  0.158849  0.467837  1
  As  As74  1  0.943213  0.729667  0.501477  1
  As  As75  1  0.983016  0.697598  0.921014  1
  As  As76  1  0.940074  0.368068  0.813753  1
  As  As77  1  0.483988  0.165042  0.533231  1
  As  As78  1  0.516012  0.834958  0.466769  1
  As  As79  1  0.455841  0.783335  0.198226  1
