# generated using pymatgen
data_SrCu2Te2(ClO3)2
_symmetry_space_group_name_H-M   'P 1'
_cell_length_a   7.30303773
_cell_length_b   7.37437872
_cell_length_c   8.38358528
_cell_angle_alpha   90.00000000
_cell_angle_beta   96.73247792
_cell_angle_gamma   90.00000000
_symmetry_Int_Tables_number   1
_chemical_formula_structural   SrCu2Te2(ClO3)2
_chemical_formula_sum   'Sr2 Cu4 Te4 Cl4 O12'
_cell_volume   448.38766346
_cell_formula_units_Z   2
loop_
 _symmetry_equiv_pos_site_id
 _symmetry_equiv_pos_as_xyz
  1  'x, y, z'
loop_
 _atom_site_type_symbol
 _atom_site_label
 _atom_site_symmetry_multiplicity
 _atom_site_fract_x
 _atom_site_fract_y
 _atom_site_fract_z
 _atom_site_occupancy
  Sr  Sr0  1  0.374345  0.953727  0.440128  1
  Sr  Sr1  1  0.625655  0.453727  0.559872  1
  Cu  Cu2  1  0.180723  0.943705  0.915043  1
  Cu  Cu3  1  0.139421  0.461716  0.413223  1
  Cu  Cu4  1  0.819277  0.443705  0.084957  1
  Cu  Cu5  1  0.860579  0.961716  0.586777  1
  Te  Te6  1  0.368693  0.595819  0.115216  1
  Te  Te7  1  0.148502  0.321079  0.732823  1
  Te  Te8  1  0.631307  0.095819  0.884784  1
  Te  Te9  1  0.851498  0.821079  0.267177  1
  Cl  Cl10  1  0.600518  0.203895  0.268393  1
  Cl  Cl11  1  0.952550  0.728208  0.883678  1
  Cl  Cl12  1  0.047450  0.228208  0.116322  1
  Cl  Cl13  1  0.399482  0.703895  0.731607  1
  O  O14  1  0.962196  0.401629  0.564729  1
  O  O15  1  0.297869  0.293597  0.557782  1
  O  O16  1  0.038009  0.082979  0.743078  1
  O  O17  1  0.037804  0.901629  0.435271  1
  O  O18  1  0.359122  0.578677  0.342055  1
  O  O19  1  0.308441  0.846692  0.115024  1
  O  O20  1  0.629289  0.630665  0.124024  1
  O  O21  1  0.961991  0.582979  0.256922  1
  O  O22  1  0.691559  0.346692  0.884976  1
  O  O23  1  0.640878  0.078677  0.657945  1
  O  O24  1  0.370711  0.130665  0.875976  1
  O  O25  1  0.702131  0.793597  0.442218  1
