# generated using pymatgen
data_Ba(BiPd)2
_symmetry_space_group_name_H-M   'P 1'
_cell_length_a   5.00686529
_cell_length_b   4.93026927
_cell_length_c   11.07051657
_cell_angle_alpha   90.00000000
_cell_angle_beta   91.48975267
_cell_angle_gamma   90.00000000
_symmetry_Int_Tables_number   1
_chemical_formula_structural   Ba(BiPd)2
_chemical_formula_sum   'Ba2 Bi4 Pd4'
_cell_volume   273.18547982
_cell_formula_units_Z   2
loop_
 _symmetry_equiv_pos_site_id
 _symmetry_equiv_pos_as_xyz
  1  'x, y, z'
loop_
 _atom_site_type_symbol
 _atom_site_label
 _atom_site_symmetry_multiplicity
 _atom_site_fract_x
 _atom_site_fract_y
 _atom_site_fract_z
 _atom_site_occupancy
  Ba  Ba0  1  0.257995  0.750000  0.758922  1
  Ba  Ba1  1  0.742005  0.250000  0.241078  1
  Bi  Bi2  1  0.213636  0.750000  0.118554  1
  Bi  Bi3  1  0.248842  0.250000  0.500911  1
  Bi  Bi4  1  0.751158  0.750000  0.499089  1
  Bi  Bi5  1  0.786364  0.250000  0.881446  1
  Pd  Pd6  1  0.753333  0.250000  0.626576  1
  Pd  Pd7  1  0.303697  0.250000  0.000803  1
  Pd  Pd8  1  0.246667  0.750000  0.373424  1
  Pd  Pd9  1  0.696303  0.750000  0.999197  1
