# generated using pymatgen
data_Na2TbMoPO8
_symmetry_space_group_name_H-M   'P 1'
_cell_length_a   11.48613992
_cell_length_b   11.48613992
_cell_length_c   11.48613992
_cell_angle_alpha   144.45240793
_cell_angle_beta   115.45148932
_cell_angle_gamma   75.91390471
_symmetry_Int_Tables_number   1
_chemical_formula_structural   Na2TbMoPO8
_chemical_formula_sum   'Na8 Tb4 Mo4 P4 O32'
_cell_volume   779.03632339
_cell_formula_units_Z   4
loop_
 _symmetry_equiv_pos_site_id
 _symmetry_equiv_pos_as_xyz
  1  'x, y, z'
loop_
 _atom_site_type_symbol
 _atom_site_label
 _atom_site_symmetry_multiplicity
 _atom_site_fract_x
 _atom_site_fract_y
 _atom_site_fract_z
 _atom_site_occupancy
  Na  Na0  1  0.697886  0.665266  0.553556  1
  Na  Na1  1  0.111710  0.644330  0.946444  1
  Na  Na2  1  0.302114  0.334734  0.446444  1
  Na  Na3  1  0.802114  0.855670  0.467380  1
  Na  Na4  1  0.888290  0.355670  0.053556  1
  Na  Na5  1  0.611710  0.165266  0.967380  1
  Na  Na6  1  0.388290  0.834734  0.032620  1
  Na  Na7  1  0.197886  0.144330  0.532620  1
  Tb  Tb8  1  0.678268  0.250000  0.428268  1
  Tb  Tb9  1  0.321732  0.750000  0.571732  1
  Tb  Tb10  1  0.821732  0.750000  0.071732  1
  Tb  Tb11  1  0.178268  0.250000  0.928268  1
  Mo  Mo12  1  0.070131  0.820131  0.750000  1
  Mo  Mo13  1  0.570131  0.320131  0.750000  1
  Mo  Mo14  1  0.929869  0.179869  0.250000  1
  Mo  Mo15  1  0.429869  0.679869  0.250000  1
  P  P16  1  0.569281  0.750000  0.819281  1
  P  P17  1  0.430719  0.250000  0.180719  1
  P  P18  1  0.930719  0.250000  0.680719  1
  P  P19  1  0.069281  0.750000  0.319281  1
  O  O20  1  0.137384  0.803890  0.907943  1
  O  O21  1  0.844685  0.068726  0.428494  1
  O  O22  1  0.348867  0.415605  0.020287  1
  O  O23  1  0.344685  0.416191  0.275959  1
  O  O24  1  0.655315  0.583809  0.724041  1
  O  O25  1  0.359768  0.083809  0.928494  1
  O  O26  1  0.604053  0.696110  0.333494  1
  O  O27  1  0.395318  0.828580  0.479713  1
  O  O28  1  0.395947  0.303890  0.666506  1
  O  O29  1  0.362616  0.770559  0.166506  1
  O  O30  1  0.640232  0.916191  0.071506  1
  O  O31  1  0.862616  0.196110  0.092057  1
  O  O32  1  0.425081  0.669508  0.731348  1
  O  O33  1  0.859768  0.431274  0.775959  1
  O  O34  1  0.895947  0.729441  0.592057  1
  O  O35  1  0.651133  0.584395  0.979713  1
  O  O36  1  0.938160  0.193733  0.768652  1
  O  O37  1  0.074919  0.306267  0.744427  1
  O  O38  1  0.574919  0.330492  0.268652  1
  O  O39  1  0.438160  0.169508  0.244427  1
  O  O40  1  0.061840  0.806267  0.231348  1
  O  O41  1  0.848867  0.328580  0.433262  1
  O  O42  1  0.155315  0.931274  0.571506  1
  O  O43  1  0.140232  0.568726  0.224041  1
  O  O44  1  0.561840  0.830492  0.755573  1
  O  O45  1  0.104682  0.084395  0.933262  1
  O  O46  1  0.925081  0.693733  0.255573  1
  O  O47  1  0.895318  0.915605  0.066738  1
  O  O48  1  0.151133  0.671420  0.566738  1
  O  O49  1  0.104053  0.270559  0.407943  1
  O  O50  1  0.637384  0.229441  0.833494  1
  O  O51  1  0.604682  0.171420  0.520287  1
