# generated using pymatgen
data_Ca4P6O19
_symmetry_space_group_name_H-M   'P 1'
_cell_length_a   6.95365102
_cell_length_b   9.27378602
_cell_length_c   12.99320026
_cell_angle_alpha   109.50578828
_cell_angle_beta   99.83895741
_cell_angle_gamma   91.86738516
_symmetry_Int_Tables_number   1
_chemical_formula_structural   Ca4P6O19
_chemical_formula_sum   'Ca8 P12 O38'
_cell_volume   774.55015539
_cell_formula_units_Z   2
loop_
 _symmetry_equiv_pos_site_id
 _symmetry_equiv_pos_as_xyz
  1  'x, y, z'
loop_
 _atom_site_type_symbol
 _atom_site_label
 _atom_site_symmetry_multiplicity
 _atom_site_fract_x
 _atom_site_fract_y
 _atom_site_fract_z
 _atom_site_occupancy
  Ca  Ca0  1  0.808220  0.992839  0.366437  1
  Ca  Ca1  1  0.644713  0.131641  0.878083  1
  Ca  Ca2  1  0.355287  0.868359  0.121917  1
  Ca  Ca3  1  0.901605  0.350766  0.666657  1
  Ca  Ca4  1  0.972667  0.817785  0.852315  1
  Ca  Ca5  1  0.098395  0.649234  0.333343  1
  Ca  Ca6  1  0.027333  0.182215  0.147685  1
  Ca  Ca7  1  0.191780  0.007161  0.633563  1
  P  P8  1  0.125515  0.188571  0.880432  1
  P  P9  1  0.874485  0.811429  0.119568  1
  P  P10  1  0.795343  0.370790  0.378926  1
  P  P11  1  0.729924  0.947114  0.625157  1
  P  P12  1  0.626751  0.670127  0.416980  1
  P  P13  1  0.287840  0.460101  0.093491  1
  P  P14  1  0.204657  0.629210  0.621074  1
  P  P15  1  0.270076  0.052886  0.374843  1
  P  P16  1  0.373249  0.329873  0.583020  1
  P  P17  1  0.463551  0.759961  0.848631  1
  P  P18  1  0.712160  0.539899  0.906509  1
  P  P19  1  0.536449  0.240039  0.151369  1
  O  O20  1  0.246243  0.347863  0.967446  1
  O  O21  1  0.219339  0.266113  0.630066  1
  O  O22  1  0.005321  0.769146  0.208779  1
  O  O23  1  0.994679  0.230854  0.791221  1
  O  O24  1  0.576202  0.376489  0.649066  1
  O  O25  1  0.161445  0.722250  0.546009  1
  O  O26  1  0.693789  0.186939  0.084248  1
  O  O27  1  0.613734  0.784410  0.537119  1
  O  O28  1  0.661408  0.382031  0.904217  1
  O  O29  1  0.613384  0.272289  0.281705  1
  O  O30  1  0.292341  0.477334  0.552276  1
  O  O31  1  0.108012  0.095650  0.297813  1
  O  O32  1  0.891988  0.904350  0.702187  1
  O  O33  1  0.707659  0.522666  0.447724  1
  O  O34  1  0.780661  0.733887  0.369934  1
  O  O35  1  0.352603  0.132058  0.121908  1
  O  O36  1  0.287027  0.090355  0.835255  1
  O  O37  1  0.491176  0.404106  0.144895  1
  O  O38  1  0.870154  0.569862  0.847538  1
  O  O39  1  0.178140  0.967204  0.440729  1
  O  O40  1  0.002675  0.117000  0.943171  1
  O  O41  1  0.647397  0.867942  0.878092  1
  O  O42  1  0.753757  0.652137  0.032554  1
  O  O43  1  0.951568  0.408817  0.322288  1
  O  O44  1  0.386616  0.727711  0.718295  1
  O  O45  1  0.712973  0.909645  0.164745  1
  O  O46  1  0.434210  0.974188  0.319098  1
  O  O47  1  0.565790  0.025812  0.680902  1
  O  O48  1  0.338592  0.617969  0.095783  1
  O  O49  1  0.423798  0.623511  0.350934  1
  O  O50  1  0.997325  0.883000  0.056829  1
  O  O51  1  0.838555  0.277750  0.453991  1
  O  O52  1  0.048432  0.591183  0.677712  1
  O  O53  1  0.821860  0.032796  0.559271  1
  O  O54  1  0.386266  0.215590  0.462881  1
  O  O55  1  0.129846  0.430138  0.152462  1
  O  O56  1  0.508824  0.595894  0.855105  1
  O  O57  1  0.306211  0.813061  0.915752  1
