# generated using pymatgen
data_Ba(BrO3)2
_symmetry_space_group_name_H-M   'P 1'
_cell_length_a   7.49282469
_cell_length_b   7.49282469
_cell_length_c   8.68961030
_cell_angle_alpha   57.76600256
_cell_angle_beta   122.23399744
_cell_angle_gamma   114.03929058
_symmetry_Int_Tables_number   1
_chemical_formula_structural   Ba(BrO3)2
_chemical_formula_sum   'Ba2 Br4 O12'
_cell_volume   343.87912591
_cell_formula_units_Z   2
loop_
 _symmetry_equiv_pos_site_id
 _symmetry_equiv_pos_as_xyz
  1  'x, y, z'
loop_
 _atom_site_type_symbol
 _atom_site_label
 _atom_site_symmetry_multiplicity
 _atom_site_fract_x
 _atom_site_fract_y
 _atom_site_fract_z
 _atom_site_occupancy
  Ba  Ba0  1  0.148393  0.148393  0.250000  1
  Ba  Ba1  1  0.851607  0.851607  0.750000  1
  Br  Br2  1  0.700533  0.318210  0.184147  1
  Br  Br3  1  0.299467  0.681790  0.815853  1
  Br  Br4  1  0.681790  0.299467  0.684147  1
  Br  Br5  1  0.318210  0.700533  0.315853  1
  O  O6  1  0.196593  0.911397  0.652200  1
  O  O7  1  0.911397  0.196593  0.847800  1
  O  O8  1  0.803407  0.088603  0.347800  1
  O  O9  1  0.403741  0.780620  0.497320  1
  O  O10  1  0.761135  0.565791  0.585165  1
  O  O11  1  0.088603  0.803407  0.152200  1
  O  O12  1  0.596259  0.219380  0.502680  1
  O  O13  1  0.780620  0.403741  0.002680  1
  O  O14  1  0.219380  0.596259  0.997320  1
  O  O15  1  0.434209  0.238865  0.085165  1
  O  O16  1  0.238865  0.434209  0.414835  1
  O  O17  1  0.565791  0.761135  0.914835  1
