# generated using pymatgen
data_LaCN2F
_symmetry_space_group_name_H-M   'P 1'
_cell_length_a   4.80140638
_cell_length_b   4.80140638
_cell_length_c   7.86634930
_cell_angle_alpha   90.00000000
_cell_angle_beta   90.00000000
_cell_angle_gamma   132.10195808
_symmetry_Int_Tables_number   1
_chemical_formula_structural   LaCN2F
_chemical_formula_sum   'La2 C2 N4 F2'
_cell_volume   134.55087046
_cell_formula_units_Z   2
loop_
 _symmetry_equiv_pos_site_id
 _symmetry_equiv_pos_as_xyz
  1  'x, y, z'
loop_
 _atom_site_type_symbol
 _atom_site_label
 _atom_site_symmetry_multiplicity
 _atom_site_fract_x
 _atom_site_fract_y
 _atom_site_fract_z
 _atom_site_occupancy
  La  La0  1  0.222184  0.777816  0.250000  1
  La  La1  1  0.777816  0.222184  0.750000  1
  C  C2  1  0.500000  0.500000  0.500000  1
  C  C3  1  0.500000  0.500000  1.000000  1
  N  N4  1  0.632076  0.367924  0.052619  1
  N  N5  1  0.367924  0.632076  0.552619  1
  N  N6  1  0.632076  0.367924  0.447381  1
  N  N7  1  0.367924  0.632076  0.947381  1
  F  F8  1  0.081190  0.918810  0.750000  1
  F  F9  1  0.918810  0.081190  0.250000  1
