# generated using pymatgen
data_V2Co3O8
_symmetry_space_group_name_H-M   'P 1'
_cell_length_a   6.56909104
_cell_length_b   6.56909104
_cell_length_c   8.43496384
_cell_angle_alpha   90.00000000
_cell_angle_beta   90.00000000
_cell_angle_gamma   125.03540129
_symmetry_Int_Tables_number   1
_chemical_formula_structural   V2Co3O8
_chemical_formula_sum   'V4 Co6 O16'
_cell_volume   298.03707412
_cell_formula_units_Z   2
loop_
 _symmetry_equiv_pos_site_id
 _symmetry_equiv_pos_as_xyz
  1  'x, y, z'
loop_
 _atom_site_type_symbol
 _atom_site_label
 _atom_site_symmetry_multiplicity
 _atom_site_fract_x
 _atom_site_fract_y
 _atom_site_fract_z
 _atom_site_occupancy
  V  V0  1  0.124032  0.875968  0.381958  1
  V  V1  1  0.375968  0.624032  0.881958  1
  V  V2  1  0.875968  0.124032  0.618042  1
  V  V3  1  0.624032  0.375968  0.118042  1
  Co  Co4  1  0.378174  0.121826  0.750000  1
  Co  Co5  1  0.878174  0.621826  0.750000  1
  Co  Co6  1  0.121826  0.378174  0.250000  1
  Co  Co7  1  0.621826  0.878174  0.250000  1
  Co  Co8  1  0.000000  0.000000  0.000000  1
  Co  Co9  1  0.500000  0.500000  0.500000  1
  O  O10  1  0.752967  0.247033  0.225403  1
  O  O11  1  0.651323  0.885999  0.497161  1
  O  O12  1  0.885999  0.651323  0.502839  1
  O  O13  1  0.997350  0.002650  0.754753  1
  O  O14  1  0.151323  0.385999  0.002839  1
  O  O15  1  0.502650  0.497350  0.254753  1
  O  O16  1  0.002650  0.997350  0.245247  1
  O  O17  1  0.614001  0.848677  0.002839  1
  O  O18  1  0.385999  0.151323  0.997161  1
  O  O19  1  0.247033  0.752967  0.774597  1
  O  O20  1  0.497350  0.502650  0.745247  1
  O  O21  1  0.114001  0.348677  0.497161  1
  O  O22  1  0.252967  0.747033  0.274597  1
  O  O23  1  0.348677  0.114001  0.502839  1
  O  O24  1  0.747033  0.252967  0.725403  1
  O  O25  1  0.848677  0.614001  0.997161  1
