# generated using pymatgen
data_K2CuS(ClO2)2
_symmetry_space_group_name_H-M   'P 1'
_cell_length_a   6.21931648
_cell_length_b   7.85065383
_cell_length_c   16.53370934
_cell_angle_alpha   90.00000000
_cell_angle_beta   90.00000000
_cell_angle_gamma   90.00000000
_symmetry_Int_Tables_number   1
_chemical_formula_structural   K2CuS(ClO2)2
_chemical_formula_sum   'K8 Cu4 S4 Cl8 O16'
_cell_volume   807.26994442
_cell_formula_units_Z   4
loop_
 _symmetry_equiv_pos_site_id
 _symmetry_equiv_pos_as_xyz
  1  'x, y, z'
loop_
 _atom_site_type_symbol
 _atom_site_label
 _atom_site_symmetry_multiplicity
 _atom_site_fract_x
 _atom_site_fract_y
 _atom_site_fract_z
 _atom_site_occupancy
  K  K0  1  0.250000  0.380082  0.093762  1
  K  K1  1  0.250000  0.882736  0.783058  1
  K  K2  1  0.750000  0.617264  0.283058  1
  K  K3  1  0.750000  0.619918  0.906238  1
  K  K4  1  0.750000  0.119918  0.593762  1
  K  K5  1  0.250000  0.382736  0.716942  1
  K  K6  1  0.750000  0.117264  0.216942  1
  K  K7  1  0.250000  0.880082  0.406238  1
  Cu  Cu8  1  0.250000  0.378979  0.462340  1
  Cu  Cu9  1  0.750000  0.621021  0.537660  1
  Cu  Cu10  1  0.250000  0.878979  0.037660  1
  Cu  Cu11  1  0.750000  0.121021  0.962340  1
  S  S12  1  0.250000  0.370037  0.302664  1
  S  S13  1  0.750000  0.629963  0.697336  1
  S  S14  1  0.750000  0.129963  0.802664  1
  S  S15  1  0.250000  0.870037  0.197336  1
  Cl  Cl16  1  0.250000  0.162012  0.552314  1
  Cl  Cl17  1  0.250000  0.598848  0.548295  1
  Cl  Cl18  1  0.750000  0.401152  0.451705  1
  Cl  Cl19  1  0.250000  0.098848  0.951705  1
  Cl  Cl20  1  0.750000  0.837988  0.447686  1
  Cl  Cl21  1  0.750000  0.901152  0.048295  1
  Cl  Cl22  1  0.750000  0.337988  0.052314  1
  Cl  Cl23  1  0.250000  0.662012  0.947686  1
  O  O24  1  0.750000  0.775991  0.636864  1
  O  O25  1  0.250000  0.724009  0.136864  1
  O  O26  1  0.945281  0.132880  0.752122  1
  O  O27  1  0.750000  0.275991  0.863136  1
  O  O28  1  0.554719  0.132880  0.752122  1
  O  O29  1  0.250000  0.024694  0.141644  1
  O  O30  1  0.054719  0.867120  0.247878  1
  O  O31  1  0.750000  0.475306  0.641644  1
  O  O32  1  0.750000  0.975306  0.858356  1
  O  O33  1  0.445281  0.867120  0.247878  1
  O  O34  1  0.554719  0.632880  0.747878  1
  O  O35  1  0.250000  0.224009  0.363136  1
  O  O36  1  0.054719  0.367120  0.252122  1
  O  O37  1  0.445281  0.367120  0.252122  1
  O  O38  1  0.945281  0.632880  0.747878  1
  O  O39  1  0.250000  0.524694  0.358356  1
