# generated using pymatgen
data_AlBiO3
_symmetry_space_group_name_H-M   'P 1'
_cell_length_a   5.45999954
_cell_length_b   5.45999954
_cell_length_c   5.45999954
_cell_angle_alpha   59.45710621
_cell_angle_beta   59.45710621
_cell_angle_gamma   59.45710621
_symmetry_Int_Tables_number   1
_chemical_formula_structural   AlBiO3
_chemical_formula_sum   'Al2 Bi2 O6'
_cell_volume   113.67523407
_cell_formula_units_Z   2
loop_
 _symmetry_equiv_pos_site_id
 _symmetry_equiv_pos_as_xyz
  1  'x, y, z'
loop_
 _atom_site_type_symbol
 _atom_site_label
 _atom_site_symmetry_multiplicity
 _atom_site_fract_x
 _atom_site_fract_y
 _atom_site_fract_z
 _atom_site_occupancy
  Al  Al0  1  0.278610  0.278610  0.278610  1
  Al  Al1  1  0.778610  0.778610  0.778610  1
  Bi  Bi2  1  0.005584  0.005584  0.005584  1
  Bi  Bi3  1  0.505584  0.505584  0.505584  1
  O  O4  1  0.084381  0.985051  0.549874  1
  O  O5  1  0.485051  0.584381  0.049874  1
  O  O6  1  0.549874  0.084381  0.985051  1
  O  O7  1  0.584381  0.049874  0.485051  1
  O  O8  1  0.049874  0.485051  0.584381  1
  O  O9  1  0.985051  0.549874  0.084381  1
