# generated using pymatgen
data_Ba3V4PbO14
_symmetry_space_group_name_H-M   'P 1'
_cell_length_a   7.45353469
_cell_length_b   7.50747841
_cell_length_c   13.56790263
_cell_angle_alpha   99.41202135
_cell_angle_beta   93.24025994
_cell_angle_gamma   92.09227785
_symmetry_Int_Tables_number   1
_chemical_formula_structural   Ba3V4PbO14
_chemical_formula_sum   'Ba6 V8 Pb2 O28'
_cell_volume   746.99714333
_cell_formula_units_Z   2
loop_
 _symmetry_equiv_pos_site_id
 _symmetry_equiv_pos_as_xyz
  1  'x, y, z'
loop_
 _atom_site_type_symbol
 _atom_site_label
 _atom_site_symmetry_multiplicity
 _atom_site_fract_x
 _atom_site_fract_y
 _atom_site_fract_z
 _atom_site_occupancy
  Ba  Ba0  1  0.770393  0.742949  0.341000  1
  Ba  Ba1  1  0.920974  0.164782  0.159166  1
  Ba  Ba2  1  0.338257  0.792448  0.138578  1
  Ba  Ba3  1  0.079026  0.835218  0.840834  1
  Ba  Ba4  1  0.661743  0.207552  0.861422  1
  Ba  Ba5  1  0.229607  0.257051  0.659000  1
  V  V6  1  0.564970  0.687491  0.881789  1
  V  V7  1  0.156565  0.313608  0.920780  1
  V  V8  1  0.843435  0.686392  0.079220  1
  V  V9  1  0.176937  0.706222  0.584319  1
  V  V10  1  0.234564  0.918223  0.392335  1
  V  V11  1  0.765436  0.081777  0.607665  1
  V  V12  1  0.823063  0.293778  0.415681  1
  V  V13  1  0.435030  0.312509  0.118211  1
  Pb  Pb14  1  0.650402  0.615325  0.627892  1
  Pb  Pb15  1  0.349598  0.384675  0.372108  1
  O  O16  1  0.405352  0.790178  0.346058  1
  O  O17  1  0.994989  0.385124  0.357827  1
  O  O18  1  0.476669  0.518960  0.788949  1
  O  O19  1  0.600465  0.195525  0.058006  1
  O  O20  1  0.287065  0.169420  0.846006  1
  O  O21  1  0.298610  0.170912  0.173753  1
  O  O22  1  0.670187  0.464061  0.449230  1
  O  O23  1  0.701349  0.573465  0.968572  1
  O  O24  1  0.090856  0.934111  0.291858  1
  O  O25  1  0.701390  0.829088  0.826247  1
  O  O26  1  0.298651  0.426535  0.031428  1
  O  O27  1  0.011707  0.822760  0.043734  1
  O  O28  1  0.687437  0.869220  0.546841  1
  O  O29  1  0.523331  0.481040  0.211051  1
  O  O30  1  0.594648  0.209822  0.653942  1
  O  O31  1  0.312563  0.130780  0.453159  1
  O  O32  1  0.005011  0.614876  0.642173  1
  O  O33  1  0.063725  0.456851  0.849567  1
  O  O34  1  0.329813  0.535939  0.550770  1
  O  O35  1  0.712935  0.830580  0.153994  1
  O  O36  1  0.099037  0.799916  0.473635  1
  O  O37  1  0.715432  0.130348  0.330526  1
  O  O38  1  0.936275  0.543149  0.150433  1
  O  O39  1  0.399535  0.804475  0.941994  1
  O  O40  1  0.988293  0.177240  0.956266  1
  O  O41  1  0.909144  0.065889  0.708142  1
  O  O42  1  0.900963  0.200084  0.526365  1
  O  O43  1  0.284568  0.869652  0.669474  1
