# generated using pymatgen
data_Ag2Bi2S3Cl2
_symmetry_space_group_name_H-M   'P 1'
_cell_length_a   7.31741932
_cell_length_b   11.18092444
_cell_length_c   11.42075478
_cell_angle_alpha   104.92426347
_cell_angle_beta   89.65925465
_cell_angle_gamma   91.87502440
_symmetry_Int_Tables_number   1
_chemical_formula_structural   Ag2Bi2S3Cl2
_chemical_formula_sum   'Ag8 Bi8 S12 Cl8'
_cell_volume   902.38866099
_cell_formula_units_Z   4
loop_
 _symmetry_equiv_pos_site_id
 _symmetry_equiv_pos_as_xyz
  1  'x, y, z'
loop_
 _atom_site_type_symbol
 _atom_site_label
 _atom_site_symmetry_multiplicity
 _atom_site_fract_x
 _atom_site_fract_y
 _atom_site_fract_z
 _atom_site_occupancy
  Ag  Ag0  1  0.513642  0.709712  0.300421  1
  Ag  Ag1  1  0.983156  0.309268  0.204361  1
  Ag  Ag2  1  0.254817  0.505414  0.352074  1
  Ag  Ag3  1  0.745183  0.494586  0.647926  1
  Ag  Ag4  1  0.255879  0.494460  0.851982  1
  Ag  Ag5  1  0.744121  0.505540  0.148018  1
  Ag  Ag6  1  0.016844  0.690732  0.795639  1
  Ag  Ag7  1  0.486358  0.290288  0.699579  1
  Bi  Bi8  1  0.926682  0.798700  0.487106  1
  Bi  Bi9  1  0.109881  0.797952  0.158105  1
  Bi  Bi10  1  0.388313  0.205481  0.015672  1
  Bi  Bi11  1  0.611687  0.794519  0.984328  1
  Bi  Bi12  1  0.890119  0.202048  0.841895  1
  Bi  Bi13  1  0.073318  0.201300  0.512894  1
  Bi  Bi14  1  0.572902  0.200328  0.340331  1
  Bi  Bi15  1  0.427098  0.799672  0.659669  1
  S  S16  1  0.992994  0.366851  0.717983  1
  S  S17  1  0.381233  0.340643  0.513948  1
  S  S18  1  0.097401  0.346972  0.013404  1
  S  S19  1  0.007006  0.633149  0.282017  1
  S  S20  1  0.403867  0.654917  0.089049  1
  S  S21  1  0.874969  0.343420  0.414810  1
  S  S22  1  0.494058  0.369202  0.220776  1
  S  S23  1  0.596133  0.345083  0.910951  1
  S  S24  1  0.505942  0.630798  0.779224  1
  S  S25  1  0.902599  0.653028  0.986596  1
  S  S26  1  0.618767  0.659357  0.486052  1
  S  S27  1  0.125031  0.656580  0.585190  1
  Cl  Cl28  1  0.786758  0.894784  0.763432  1
  Cl  Cl29  1  0.722161  0.093131  0.567226  1
  Cl  Cl30  1  0.213242  0.105216  0.236568  1
  Cl  Cl31  1  0.736597  0.101858  0.059538  1
  Cl  Cl32  1  0.234692  0.095600  0.739025  1
  Cl  Cl33  1  0.263403  0.898142  0.940462  1
  Cl  Cl34  1  0.765308  0.904400  0.260975  1
  Cl  Cl35  1  0.277839  0.906869  0.432774  1
