# generated using pymatgen
data_Fe(PO3)3
_symmetry_space_group_name_H-M   'P 1'
_cell_length_a   6.75551606
_cell_length_b   6.88493045
_cell_length_c   7.36015550
_cell_angle_alpha   100.58958439
_cell_angle_beta   93.62038915
_cell_angle_gamma   93.89291599
_symmetry_Int_Tables_number   1
_chemical_formula_structural   Fe(PO3)3
_chemical_formula_sum   'Fe2 P6 O18'
_cell_volume   334.72377950
_cell_formula_units_Z   2
loop_
 _symmetry_equiv_pos_site_id
 _symmetry_equiv_pos_as_xyz
  1  'x, y, z'
loop_
 _atom_site_type_symbol
 _atom_site_label
 _atom_site_symmetry_multiplicity
 _atom_site_fract_x
 _atom_site_fract_y
 _atom_site_fract_z
 _atom_site_occupancy
  Fe  Fe0  1  0.829442  0.910626  0.145950  1
  Fe  Fe1  1  0.170558  0.089374  0.854050  1
  P  P2  1  0.848337  0.805646  0.561545  1
  P  P3  1  0.668379  0.124549  0.799126  1
  P  P4  1  0.654212  0.566328  0.806845  1
  P  P5  1  0.345788  0.433672  0.193155  1
  P  P6  1  0.331621  0.875451  0.200874  1
  P  P7  1  0.151663  0.194354  0.438455  1
  O  O8  1  0.958864  0.149018  0.317537  1
  O  O9  1  0.863777  0.764575  0.355185  1
  O  O10  1  0.828083  0.086963  0.942124  1
  O  O11  1  0.809868  0.672206  0.957624  1
  O  O12  1  0.710331  0.990426  0.604106  1
  O  O13  1  0.721090  0.623516  0.610881  1
  O  O14  1  0.711653  0.337583  0.756554  1
  O  O15  1  0.558864  0.412746  0.175645  1
  O  O16  1  0.544444  0.925015  0.169272  1
  O  O17  1  0.455556  0.074985  0.830728  1
  O  O18  1  0.441136  0.587254  0.824355  1
  O  O19  1  0.288347  0.662417  0.243446  1
  O  O20  1  0.278910  0.376484  0.389119  1
  O  O21  1  0.289669  0.009574  0.395894  1
  O  O22  1  0.190132  0.327794  0.042376  1
  O  O23  1  0.171917  0.913037  0.057876  1
  O  O24  1  0.136223  0.235425  0.644815  1
  O  O25  1  0.041136  0.850982  0.682463  1
