# generated using pymatgen
data_Fe4P7O24
_symmetry_space_group_name_H-M   'P 1'
_cell_length_a   10.28635889
_cell_length_b   10.36158242
_cell_length_c   10.77242216
_cell_angle_alpha   108.74546842
_cell_angle_beta   111.50916526
_cell_angle_gamma   104.93879213
_symmetry_Int_Tables_number   1
_chemical_formula_structural   Fe4P7O24
_chemical_formula_sum   'Fe8 P14 O48'
_cell_volume   914.99448633
_cell_formula_units_Z   2
loop_
 _symmetry_equiv_pos_site_id
 _symmetry_equiv_pos_as_xyz
  1  'x, y, z'
loop_
 _atom_site_type_symbol
 _atom_site_label
 _atom_site_symmetry_multiplicity
 _atom_site_fract_x
 _atom_site_fract_y
 _atom_site_fract_z
 _atom_site_occupancy
  Fe  Fe0  1  0.499557  0.098935  0.260116  1
  Fe  Fe1  1  0.999260  0.618963  0.922761  1
  Fe  Fe2  1  0.488641  0.336457  0.115155  1
  Fe  Fe3  1  0.012420  0.174104  0.587466  1
  Fe  Fe4  1  0.987580  0.825896  0.412534  1
  Fe  Fe5  1  0.511359  0.663543  0.884845  1
  Fe  Fe6  1  0.000740  0.381037  0.077239  1
  Fe  Fe7  1  0.500443  0.901065  0.739884  1
  P  P8  1  0.750918  0.539634  0.049157  1
  P  P9  1  0.249082  0.460366  0.950843  1
  P  P10  1  0.270780  0.823240  0.884543  1
  P  P11  1  0.748860  0.607775  0.476246  1
  P  P12  1  0.729220  0.176760  0.115457  1
  P  P13  1  0.740325  0.965397  0.241728  1
  P  P14  1  0.804647  0.059392  0.739289  1
  P  P15  1  0.807027  0.377882  0.566920  1
  P  P16  1  0.770064  0.780110  0.770591  1
  P  P17  1  0.192973  0.622118  0.433080  1
  P  P18  1  0.195353  0.940608  0.260711  1
  P  P19  1  0.259675  0.034603  0.758272  1
  P  P20  1  0.251140  0.392225  0.523754  1
  P  P21  1  0.229936  0.219890  0.229409  1
  O  O22  1  0.882492  0.741092  0.867564  1
  O  O23  1  0.119685  0.791925  0.120453  1
  O  O24  1  0.370584  0.014905  0.334414  1
  O  O25  1  0.361266  0.938844  0.048328  1
  O  O26  1  0.635852  0.276892  0.460155  1
  O  O27  1  0.843348  0.442604  0.730349  1
  O  O28  1  0.346663  0.431589  0.077049  1
  O  O29  1  0.364604  0.217494  0.199608  1
  O  O30  1  0.880315  0.208075  0.879547  1
  O  O31  1  0.629416  0.985095  0.665586  1
  O  O32  1  0.638734  0.061156  0.951672  1
  O  O33  1  0.117508  0.258908  0.132436  1
  O  O34  1  0.364148  0.723108  0.539845  1
  O  O35  1  0.156652  0.557396  0.269651  1
  O  O36  1  0.653337  0.568411  0.922951  1
  O  O37  1  0.635396  0.782506  0.800392  1
  O  O38  1  0.152036  0.477001  0.467020  1
  O  O39  1  0.369569  0.003918  0.701639  1
  O  O40  1  0.310576  0.338361  0.404648  1
  O  O41  1  0.137159  0.058991  0.208896  1
  O  O42  1  0.141989  0.928421  0.371512  1
  O  O43  1  0.392789  0.498703  0.673711  1
  O  O44  1  0.873532  0.499821  0.010734  1
  O  O45  1  0.087325  0.693372  0.460115  1
  O  O46  1  0.862824  0.316111  0.155236  1
  O  O47  1  0.339908  0.175663  0.906699  1
  O  O48  1  0.186421  0.895565  0.786200  1
  O  O49  1  0.147131  0.251275  0.511334  1
  O  O50  1  0.117500  0.024562  0.630427  1
  O  O51  1  0.380595  0.783236  0.824882  1
  O  O52  1  0.362553  0.588993  0.948860  1
  O  O53  1  0.839943  0.677509  0.204539  1
  O  O54  1  0.160057  0.322491  0.795461  1
  O  O55  1  0.637447  0.411007  0.051140  1
  O  O56  1  0.619405  0.216764  0.175118  1
  O  O57  1  0.882500  0.975438  0.369573  1
  O  O58  1  0.852869  0.748725  0.488666  1
  O  O59  1  0.813579  0.104435  0.213800  1
  O  O60  1  0.660092  0.824337  0.093301  1
  O  O61  1  0.137176  0.683889  0.844764  1
  O  O62  1  0.912675  0.306628  0.539885  1
  O  O63  1  0.126468  0.500179  0.989266  1
  O  O64  1  0.607211  0.501297  0.326289  1
  O  O65  1  0.858011  0.071579  0.628488  1
  O  O66  1  0.862841  0.941009  0.791104  1
  O  O67  1  0.847964  0.522999  0.532980  1
  O  O68  1  0.630431  0.996082  0.298361  1
  O  O69  1  0.689424  0.661639  0.595352  1
