# generated using pymatgen
data_La2WO6
_symmetry_space_group_name_H-M   'P 1'
_cell_length_a   7.56026507
_cell_length_b   10.53587358
_cell_length_c   12.89918437
_cell_angle_alpha   90.00000000
_cell_angle_beta   90.00000000
_cell_angle_gamma   90.00000000
_symmetry_Int_Tables_number   1
_chemical_formula_structural   La2WO6
_chemical_formula_sum   'La16 W8 O48'
_cell_volume   1027.47159322
_cell_formula_units_Z   8
loop_
 _symmetry_equiv_pos_site_id
 _symmetry_equiv_pos_as_xyz
  1  'x, y, z'
loop_
 _atom_site_type_symbol
 _atom_site_label
 _atom_site_symmetry_multiplicity
 _atom_site_fract_x
 _atom_site_fract_y
 _atom_site_fract_z
 _atom_site_occupancy
  La  La0  1  0.262421  0.553146  0.634435  1
  La  La1  1  0.262299  0.044115  0.825471  1
  La  La2  1  0.568228  0.584152  0.416323  1
  La  La3  1  0.068228  0.915848  0.583677  1
  La  La4  1  0.519590  0.724737  0.915353  1
  La  La5  1  0.237701  0.955885  0.325471  1
  La  La6  1  0.980410  0.275263  0.415353  1
  La  La7  1  0.480410  0.224737  0.584647  1
  La  La8  1  0.762299  0.455885  0.174529  1
  La  La9  1  0.237579  0.446854  0.134435  1
  La  La10  1  0.431772  0.084152  0.083677  1
  La  La11  1  0.737579  0.053146  0.865565  1
  La  La12  1  0.762421  0.946854  0.365565  1
  La  La13  1  0.019590  0.775263  0.084647  1
  La  La14  1  0.737701  0.544115  0.674529  1
  La  La15  1  0.931772  0.415848  0.916323  1
  W  W16  1  0.943137  0.771901  0.816791  1
  W  W17  1  0.035406  0.621616  0.370315  1
  W  W18  1  0.535406  0.878384  0.629685  1
  W  W19  1  0.964594  0.121616  0.129685  1
  W  W20  1  0.056863  0.271901  0.683209  1
  W  W21  1  0.556863  0.228099  0.316791  1
  W  W22  1  0.464594  0.378384  0.870315  1
  W  W23  1  0.443137  0.728099  0.183209  1
  O  O24  1  0.748280  0.090889  0.053109  1
  O  O25  1  0.477437  0.555427  0.231065  1
  O  O26  1  0.448977  0.545814  0.794996  1
  O  O27  1  0.319274  0.853166  0.705654  1
  O  O28  1  0.003204  0.706542  0.681518  1
  O  O29  1  0.850666  0.253387  0.610306  1
  O  O30  1  0.996796  0.206542  0.818482  1
  O  O31  1  0.321381  0.884178  0.148893  1
  O  O32  1  0.972131  0.298696  0.082359  1
  O  O33  1  0.971268  0.556806  0.071652  1
  O  O34  1  0.977437  0.944573  0.768935  1
  O  O35  1  0.503204  0.793458  0.318482  1
  O  O36  1  0.350666  0.246613  0.389694  1
  O  O37  1  0.471268  0.943194  0.928348  1
  O  O38  1  0.251720  0.590889  0.446891  1
  O  O39  1  0.398286  0.945396  0.516464  1
  O  O40  1  0.680726  0.353166  0.794346  1
  O  O41  1  0.551023  0.045814  0.705004  1
  O  O42  1  0.323919  0.656159  0.062771  1
  O  O43  1  0.676081  0.156159  0.437229  1
  O  O44  1  0.898286  0.554604  0.483536  1
  O  O45  1  0.323430  0.305146  0.749226  1
  O  O46  1  0.051023  0.454186  0.294996  1
  O  O47  1  0.028732  0.056806  0.428348  1
  O  O48  1  0.178619  0.115822  0.648893  1
  O  O49  1  0.176081  0.343841  0.562771  1
  O  O50  1  0.176570  0.694854  0.249226  1
  O  O51  1  0.751720  0.909111  0.553109  1
  O  O52  1  0.601714  0.445396  0.983536  1
  O  O53  1  0.149334  0.753387  0.889694  1
  O  O54  1  0.948977  0.954186  0.205004  1
  O  O55  1  0.496796  0.293458  0.181518  1
  O  O56  1  0.821381  0.615822  0.851107  1
  O  O57  1  0.527869  0.701304  0.582359  1
  O  O58  1  0.472131  0.201304  0.917641  1
  O  O59  1  0.819274  0.646834  0.294346  1
  O  O60  1  0.180726  0.146834  0.205654  1
  O  O61  1  0.101714  0.054604  0.016464  1
  O  O62  1  0.649334  0.746613  0.110306  1
  O  O63  1  0.248280  0.409111  0.946891  1
  O  O64  1  0.022563  0.444573  0.731065  1
  O  O65  1  0.676570  0.805146  0.750774  1
  O  O66  1  0.823430  0.194854  0.250774  1
  O  O67  1  0.528732  0.443194  0.571652  1
  O  O68  1  0.522563  0.055427  0.268935  1
  O  O69  1  0.027869  0.798696  0.417641  1
  O  O70  1  0.823919  0.843841  0.937229  1
  O  O71  1  0.678619  0.384178  0.351107  1
