# generated using pymatgen
data_Ca4TiN4
_symmetry_space_group_name_H-M   'P 1'
_cell_length_a   6.00383859
_cell_length_b   6.03935765
_cell_length_c   9.00325389
_cell_angle_alpha   71.67344664
_cell_angle_beta   79.50433236
_cell_angle_gamma   68.00648266
_symmetry_Int_Tables_number   1
_chemical_formula_structural   Ca4TiN4
_chemical_formula_sum   'Ca8 Ti2 N8'
_cell_volume   286.57181403
_cell_formula_units_Z   2
loop_
 _symmetry_equiv_pos_site_id
 _symmetry_equiv_pos_as_xyz
  1  'x, y, z'
loop_
 _atom_site_type_symbol
 _atom_site_label
 _atom_site_symmetry_multiplicity
 _atom_site_fract_x
 _atom_site_fract_y
 _atom_site_fract_z
 _atom_site_occupancy
  Ca  Ca0  1  0.235923  0.954550  0.606570  1
  Ca  Ca1  1  0.774236  0.578426  0.176528  1
  Ca  Ca2  1  0.737578  0.228019  0.981719  1
  Ca  Ca3  1  0.270822  0.519553  0.427136  1
  Ca  Ca4  1  0.764077  0.045450  0.393430  1
  Ca  Ca5  1  0.225764  0.421574  0.823472  1
  Ca  Ca6  1  0.729178  0.480447  0.572864  1
  Ca  Ca7  1  0.262422  0.771981  0.018281  1
  Ti  Ti8  1  0.715823  0.847582  0.756212  1
  Ti  Ti9  1  0.284177  0.152418  0.243788  1
  N  N10  1  0.969807  0.709311  0.609177  1
  N  N11  1  0.511768  0.176015  0.636689  1
  N  N12  1  0.030193  0.290689  0.390823  1
  N  N13  1  0.518048  0.634281  0.803981  1
  N  N14  1  0.115767  0.168503  0.072737  1
  N  N15  1  0.488232  0.823985  0.363311  1
  N  N16  1  0.481952  0.365719  0.196019  1
  N  N17  1  0.884233  0.831497  0.927263  1
