# generated using pymatgen
data_Mg2SiO4
_symmetry_space_group_name_H-M   'P 1'
_cell_length_a   6.01454276
_cell_length_b   6.01454276
_cell_length_c   4.82891715
_cell_angle_alpha   90.00000000
_cell_angle_beta   90.00000000
_cell_angle_gamma   120.00000000
_symmetry_Int_Tables_number   1
_chemical_formula_structural   Mg2SiO4
_chemical_formula_sum   'Mg4 Si2 O8'
_cell_volume   151.28142956
_cell_formula_units_Z   2
loop_
 _symmetry_equiv_pos_site_id
 _symmetry_equiv_pos_as_xyz
  1  'x, y, z'
loop_
 _atom_site_type_symbol
 _atom_site_label
 _atom_site_symmetry_multiplicity
 _atom_site_fract_x
 _atom_site_fract_y
 _atom_site_fract_z
 _atom_site_occupancy
  Mg  Mg0  1  0.500000  0.500000  0.500000  1
  Mg  Mg1  1  0.500000  0.000000  0.500000  1
  Mg  Mg2  1  0.000000  0.000000  0.000000  1
  Mg  Mg3  1  0.000000  0.500000  0.500000  1
  Si  Si4  1  0.333333  0.666667  0.926838  1
  Si  Si5  1  0.666667  0.333333  0.073162  1
  O  O6  1  0.333333  0.666667  0.264727  1
  O  O7  1  0.377080  0.188540  0.223244  1
  O  O8  1  0.666667  0.333333  0.735273  1
  O  O9  1  0.811460  0.188540  0.223244  1
  O  O10  1  0.811460  0.622920  0.223244  1
  O  O11  1  0.622920  0.811460  0.776756  1
  O  O12  1  0.188540  0.811460  0.776756  1
  O  O13  1  0.188540  0.377080  0.776756  1
