# generated using pymatgen
data_Li7Ti16O32
_symmetry_space_group_name_H-M   'P 1'
_cell_length_a   10.36601100
_cell_length_b   10.36601100
_cell_length_c   10.36601100
_cell_angle_alpha   131.81131944
_cell_angle_beta   131.81131944
_cell_angle_gamma   70.52719105
_symmetry_Int_Tables_number   1
_chemical_formula_structural   Li7Ti16O32
_chemical_formula_sum   'Li7 Ti16 O32'
_cell_volume   606.29688546
_cell_formula_units_Z   1
loop_
 _symmetry_equiv_pos_site_id
 _symmetry_equiv_pos_as_xyz
  1  'x, y, z'
loop_
 _atom_site_type_symbol
 _atom_site_label
 _atom_site_symmetry_multiplicity
 _atom_site_fract_x
 _atom_site_fract_y
 _atom_site_fract_z
 _atom_site_occupancy
  Li  Li0  1  0.250000  0.750000  0.500000  1
  Li  Li1  1  0.624696  0.126255  1.000000  1
  Li  Li2  1  0.873745  0.873745  0.498441  1
  Li  Li3  1  0.750000  0.250000  0.500000  1
  Li  Li4  1  0.126255  0.624696  0.000000  1
  Li  Li5  1  0.000000  0.000000  0.000000  1
  Li  Li6  1  0.375304  0.375304  0.501559  1
  Ti  Ti7  1  0.188819  0.188819  0.750351  1
  Ti  Ti8  1  0.313838  0.065739  0.503794  1
  Ti  Ti9  1  0.686162  0.189956  0.751901  1
  Ti  Ti10  1  0.561945  0.810044  0.496206  1
  Ti  Ti11  1  0.688219  0.688219  0.750624  1
  Ti  Ti12  1  0.810044  0.561945  0.496206  1
  Ti  Ti13  1  0.189956  0.686162  0.751901  1
  Ti  Ti14  1  0.934261  0.438055  0.248099  1
  Ti  Ti15  1  0.065739  0.313838  0.503794  1
  Ti  Ti16  1  0.062405  0.311781  0.000000  1
  Ti  Ti17  1  0.438467  0.438467  0.249649  1
  Ti  Ti18  1  0.311781  0.062405  1.000000  1
  Ti  Ti19  1  0.438055  0.934261  0.248099  1
  Ti  Ti20  1  0.561533  0.811181  0.000000  1
  Ti  Ti21  1  0.937595  0.937595  0.249376  1
  Ti  Ti22  1  0.811181  0.561533  0.000000  1
  O  O23  1  0.819220  0.318432  0.774917  1
  O  O24  1  0.193506  0.418155  0.000000  1
  O  O25  1  0.081554  0.081554  0.775463  1
  O  O26  1  0.180780  0.955697  0.499212  1
  O  O27  1  0.418155  0.193506  1.000000  1
  O  O28  1  0.318432  0.819220  0.774917  1
  O  O29  1  0.556052  0.055720  0.724096  1
  O  O30  1  0.331625  0.831957  0.275904  1
  O  O31  1  0.668375  0.944280  0.500332  1
  O  O32  1  0.456485  0.681568  0.500788  1
  O  O33  1  0.693908  0.918446  0.000000  1
  O  O34  1  0.570591  0.570591  0.282490  1
  O  O35  1  0.581845  0.581845  0.775351  1
  O  O36  1  0.793975  0.793975  0.725590  1
  O  O37  1  0.681568  0.456485  0.500788  1
  O  O38  1  0.918446  0.693908  0.000000  1
  O  O39  1  0.711899  0.429409  0.000000  1
  O  O40  1  0.944280  0.668375  0.500332  1
  O  O41  1  0.055720  0.556052  0.724096  1
  O  O42  1  0.831957  0.331625  0.275904  1
  O  O43  1  0.044303  0.543515  0.225083  1
  O  O44  1  0.931615  0.206025  0.000000  1
  O  O45  1  0.168043  0.443948  0.499668  1
  O  O46  1  0.955697  0.180780  0.499212  1
  O  O47  1  0.068385  0.068385  0.274410  1
  O  O48  1  0.288101  0.288101  0.717510  1
  O  O49  1  0.306092  0.306092  0.224537  1
  O  O50  1  0.443948  0.168043  0.499668  1
  O  O51  1  0.206025  0.931615  1.000000  1
  O  O52  1  0.543515  0.044303  0.225083  1
  O  O53  1  0.429409  0.711899  1.000000  1
  O  O54  1  0.806494  0.806494  0.224649  1
