# generated using pymatgen
data_LaAlSi2
_symmetry_space_group_name_H-M   'P 1'
_cell_length_a   4.18310351
_cell_length_b   4.18310351
_cell_length_c   11.46073631
_cell_angle_alpha   90.00000000
_cell_angle_beta   90.00000000
_cell_angle_gamma   120.00000000
_symmetry_Int_Tables_number   1
_chemical_formula_structural   LaAlSi2
_chemical_formula_sum   'La2 Al2 Si4'
_cell_volume   173.67622673
_cell_formula_units_Z   2
loop_
 _symmetry_equiv_pos_site_id
 _symmetry_equiv_pos_as_xyz
  1  'x, y, z'
loop_
 _atom_site_type_symbol
 _atom_site_label
 _atom_site_symmetry_multiplicity
 _atom_site_fract_x
 _atom_site_fract_y
 _atom_site_fract_z
 _atom_site_occupancy
  La  La0  1  0.000000  0.000000  0.817278  1
  La  La1  1  0.000000  0.000000  0.182722  1
  Al  Al2  1  0.333333  0.666667  0.581974  1
  Al  Al3  1  0.666667  0.333333  0.418026  1
  Si  Si4  1  0.666667  0.333333  0.642774  1
  Si  Si5  1  0.333333  0.666667  0.357226  1
  Si  Si6  1  0.333333  0.666667  0.994100  1
  Si  Si7  1  0.666667  0.333333  0.005900  1
