# generated using pymatgen
data_Ba5Ru2Br2O9
_symmetry_space_group_name_H-M   'P 1'
_cell_length_a   5.93661620
_cell_length_b   5.93661620
_cell_length_c   25.92824842
_cell_angle_alpha   90.00000000
_cell_angle_beta   90.00000000
_cell_angle_gamma   120.00000000
_symmetry_Int_Tables_number   1
_chemical_formula_structural   Ba5Ru2Br2O9
_chemical_formula_sum   'Ba10 Ru4 Br4 O18'
_cell_volume   791.37396121
_cell_formula_units_Z   2
loop_
 _symmetry_equiv_pos_site_id
 _symmetry_equiv_pos_as_xyz
  1  'x, y, z'
loop_
 _atom_site_type_symbol
 _atom_site_label
 _atom_site_symmetry_multiplicity
 _atom_site_fract_x
 _atom_site_fract_y
 _atom_site_fract_z
 _atom_site_occupancy
  Ba  Ba0  1  0.333333  0.666667  0.913706  1
  Ba  Ba1  1  0.666667  0.333333  0.413706  1
  Ba  Ba2  1  0.666667  0.333333  0.086294  1
  Ba  Ba3  1  0.333333  0.666667  0.173507  1
  Ba  Ba4  1  0.666667  0.333333  0.673507  1
  Ba  Ba5  1  0.333333  0.666667  0.326493  1
  Ba  Ba6  1  0.666667  0.333333  0.826493  1
  Ba  Ba7  1  0.666667  0.333333  0.250000  1
  Ba  Ba8  1  0.333333  0.666667  0.586294  1
  Ba  Ba9  1  0.333333  0.666667  0.750000  1
  Ru  Ru10  1  0.000000  0.000000  0.805119  1
  Ru  Ru11  1  0.000000  0.000000  0.305119  1
  Ru  Ru12  1  0.000000  0.000000  0.694881  1
  Ru  Ru13  1  0.000000  0.000000  0.194881  1
  Br  Br14  1  0.333333  0.666667  0.454019  1
  Br  Br15  1  0.333333  0.666667  0.045981  1
  Br  Br16  1  0.666667  0.333333  0.545981  1
  Br  Br17  1  0.666667  0.333333  0.954019  1
  O  O18  1  0.159846  0.840154  0.657946  1
  O  O19  1  0.680309  0.840154  0.842054  1
  O  O20  1  0.159846  0.319691  0.657946  1
  O  O21  1  0.849059  0.150941  0.750000  1
  O  O22  1  0.301882  0.150941  0.750000  1
  O  O23  1  0.150941  0.301882  0.250000  1
  O  O24  1  0.150941  0.849059  0.250000  1
  O  O25  1  0.698118  0.849059  0.250000  1
  O  O26  1  0.840154  0.159846  0.342054  1
  O  O27  1  0.319691  0.159846  0.157946  1
  O  O28  1  0.849059  0.698118  0.750000  1
  O  O29  1  0.840154  0.680309  0.157946  1
  O  O30  1  0.319691  0.159846  0.342054  1
  O  O31  1  0.840154  0.159846  0.157946  1
  O  O32  1  0.159846  0.319691  0.842054  1
  O  O33  1  0.840154  0.680309  0.342054  1
  O  O34  1  0.680309  0.840154  0.657946  1
  O  O35  1  0.159846  0.840154  0.842054  1
