# generated using pymatgen
data_CdSeO3
_symmetry_space_group_name_H-M   'P 1'
_cell_length_a   5.84040242
_cell_length_b   13.15029924
_cell_length_c   8.83237728
_cell_angle_alpha   90.00000000
_cell_angle_beta   101.09061512
_cell_angle_gamma   90.00000000
_symmetry_Int_Tables_number   1
_chemical_formula_structural   CdSeO3
_chemical_formula_sum   'Cd8 Se8 O24'
_cell_volume   665.68461859
_cell_formula_units_Z   8
loop_
 _symmetry_equiv_pos_site_id
 _symmetry_equiv_pos_as_xyz
  1  'x, y, z'
loop_
 _atom_site_type_symbol
 _atom_site_label
 _atom_site_symmetry_multiplicity
 _atom_site_fract_x
 _atom_site_fract_y
 _atom_site_fract_z
 _atom_site_occupancy
  Cd  Cd0  1  0.621830  0.755577  0.148775  1
  Cd  Cd1  1  0.181547  0.577127  0.886705  1
  Cd  Cd2  1  0.378170  0.255577  0.351225  1
  Cd  Cd3  1  0.818453  0.077127  0.613295  1
  Cd  Cd4  1  0.378170  0.244423  0.851225  1
  Cd  Cd5  1  0.181547  0.922873  0.386705  1
  Cd  Cd6  1  0.621830  0.744423  0.648775  1
  Cd  Cd7  1  0.818453  0.422873  0.113295  1
  Se  Se8  1  0.413487  0.974936  0.764458  1
  Se  Se9  1  0.970937  0.330401  0.518845  1
  Se  Se10  1  0.413487  0.525064  0.264458  1
  Se  Se11  1  0.029063  0.830401  0.981155  1
  Se  Se12  1  0.970937  0.169599  0.018845  1
  Se  Se13  1  0.586513  0.474936  0.735542  1
  Se  Se14  1  0.586513  0.025064  0.235542  1
  Se  Se15  1  0.029063  0.669599  0.481155  1
  O  O16  1  0.034084  0.349747  0.337221  1
  O  O17  1  0.756210  0.236741  0.496542  1
  O  O18  1  0.157392  0.980345  0.630167  1
  O  O19  1  0.965916  0.849747  0.162779  1
  O  O20  1  0.157392  0.519655  0.130167  1
  O  O21  1  0.538094  0.405005  0.272339  1
  O  O22  1  0.842608  0.019655  0.369833  1
  O  O23  1  0.597483  0.579258  0.153986  1
  O  O24  1  0.842608  0.480345  0.869833  1
  O  O25  1  0.775877  0.762287  0.914301  1
  O  O26  1  0.775877  0.737713  0.414301  1
  O  O27  1  0.243790  0.736741  0.003458  1
  O  O28  1  0.243790  0.763259  0.503458  1
  O  O29  1  0.597483  0.920742  0.653986  1
  O  O30  1  0.461906  0.594995  0.727661  1
  O  O31  1  0.538094  0.094995  0.772339  1
  O  O32  1  0.461906  0.905005  0.227661  1
  O  O33  1  0.402517  0.420742  0.846014  1
  O  O34  1  0.224123  0.237713  0.085699  1
  O  O35  1  0.756210  0.263259  0.996542  1
  O  O36  1  0.034084  0.150253  0.837221  1
  O  O37  1  0.965916  0.650253  0.662779  1
  O  O38  1  0.224123  0.262287  0.585699  1
  O  O39  1  0.402517  0.079258  0.346014  1
