# generated using pymatgen
data_KUP3O11
_symmetry_space_group_name_H-M   'P 1'
_cell_length_a   8.60006764
_cell_length_b   15.35773199
_cell_length_c   15.05504588
_cell_angle_alpha   90.00000000
_cell_angle_beta   91.88195771
_cell_angle_gamma   90.00000000
_symmetry_Int_Tables_number   1
_chemical_formula_structural   KUP3O11
_chemical_formula_sum   'K8 U8 P24 O88'
_cell_volume   1987.36078424
_cell_formula_units_Z   8
loop_
 _symmetry_equiv_pos_site_id
 _symmetry_equiv_pos_as_xyz
  1  'x, y, z'
loop_
 _atom_site_type_symbol
 _atom_site_label
 _atom_site_symmetry_multiplicity
 _atom_site_fract_x
 _atom_site_fract_y
 _atom_site_fract_z
 _atom_site_occupancy
  K  K0  1  0.159827  0.250000  0.237496  1
  K  K1  1  0.385168  0.750000  0.811971  1
  K  K2  1  0.179431  0.750000  0.274168  1
  K  K3  1  0.820569  0.250000  0.725832  1
  K  K4  1  0.614832  0.250000  0.188029  1
  K  K5  1  0.311827  0.250000  0.676812  1
  K  K6  1  0.840173  0.750000  0.762504  1
  K  K7  1  0.688173  0.750000  0.323188  1
  U  U8  1  0.412963  0.505739  0.259451  1
  U  U9  1  0.350541  0.250000  0.963923  1
  U  U10  1  0.649459  0.750000  0.036077  1
  U  U11  1  0.587037  0.005739  0.740549  1
  U  U12  1  0.587037  0.494261  0.740549  1
  U  U13  1  0.412963  0.994261  0.259451  1
  U  U14  1  0.091601  0.750000  0.551128  1
  U  U15  1  0.908399  0.250000  0.448872  1
  P  P16  1  0.213470  0.526709  0.602134  1
  P  P17  1  0.922556  0.250000  0.980763  1
  P  P18  1  0.786530  0.473291  0.397866  1
  P  P19  1  0.757726  0.980895  0.110696  1
  P  P20  1  0.740748  0.605145  0.541918  1
  P  P21  1  0.303546  0.892559  0.036027  1
  P  P22  1  0.303546  0.607441  0.036027  1
  P  P23  1  0.259252  0.105145  0.458082  1
  P  P24  1  0.740748  0.894855  0.541918  1
  P  P25  1  0.022772  0.442850  0.743384  1
  P  P26  1  0.213470  0.973291  0.602134  1
  P  P27  1  0.786530  0.026709  0.397866  1
  P  P28  1  0.077444  0.750000  0.019237  1
  P  P29  1  0.977228  0.557150  0.256616  1
  P  P30  1  0.696454  0.107441  0.963973  1
  P  P31  1  0.022772  0.057150  0.743384  1
  P  P32  1  0.517678  0.750000  0.551629  1
  P  P33  1  0.482322  0.250000  0.448371  1
  P  P34  1  0.696454  0.392559  0.963973  1
  P  P35  1  0.757726  0.519105  0.110696  1
  P  P36  1  0.242274  0.480895  0.889304  1
  P  P37  1  0.242274  0.019105  0.889304  1
  P  P38  1  0.977228  0.942850  0.256616  1
  P  P39  1  0.259252  0.394855  0.458082  1
  O  O40  1  0.396232  0.168244  0.497407  1
  O  O41  1  0.396232  0.331756  0.497407  1
  O  O42  1  0.676312  0.533562  0.597401  1
  O  O43  1  0.362053  0.395333  0.227438  1
  O  O44  1  0.868974  0.660735  0.582246  1
  O  O45  1  0.458234  0.882129  0.289635  1
  O  O46  1  0.794263  0.445694  0.038458  1
  O  O47  1  0.689967  0.750000  0.918569  1
  O  O48  1  0.205737  0.554306  0.961542  1
  O  O49  1  0.429259  0.658932  0.992278  1
  O  O50  1  0.900749  0.250000  0.078179  1
  O  O51  1  0.269427  0.104006  0.936286  1
  O  O52  1  0.370933  0.965243  0.646958  1
  O  O53  1  0.162696  0.899717  0.541930  1
  O  O54  1  0.570741  0.341068  0.007722  1
  O  O55  1  0.541766  0.117871  0.710365  1
  O  O56  1  0.868974  0.839265  0.582246  1
  O  O57  1  0.362053  0.104667  0.227438  1
  O  O58  1  0.541766  0.382129  0.710365  1
  O  O59  1  0.099251  0.750000  0.921821  1
  O  O60  1  0.800399  0.934749  0.450122  1
  O  O61  1  0.080499  0.250000  0.940583  1
  O  O62  1  0.096712  0.142997  0.729932  1
  O  O63  1  0.370933  0.534757  0.646958  1
  O  O64  1  0.354313  0.750000  0.511220  1
  O  O65  1  0.140268  0.750000  0.670040  1
  O  O66  1  0.800399  0.565251  0.450122  1
  O  O67  1  0.847541  0.448298  0.739537  1
  O  O68  1  0.413531  0.250000  0.850541  1
  O  O69  1  0.637121  0.486589  0.172687  1
  O  O70  1  0.918923  0.015865  0.326162  1
  O  O71  1  0.131026  0.339265  0.417754  1
  O  O72  1  0.730573  0.604006  0.063714  1
  O  O73  1  0.965061  0.250000  0.565648  1
  O  O74  1  0.847541  0.051702  0.739537  1
  O  O75  1  0.429259  0.841068  0.992278  1
  O  O76  1  0.205737  0.945694  0.961542  1
  O  O77  1  0.794263  0.054306  0.038458  1
  O  O78  1  0.458234  0.617871  0.289635  1
  O  O79  1  0.645687  0.250000  0.488780  1
  O  O80  1  0.546966  0.750000  0.649106  1
  O  O81  1  0.676312  0.966438  0.597401  1
  O  O82  1  0.919501  0.750000  0.059417  1
  O  O83  1  0.831468  0.330182  0.929383  1
  O  O84  1  0.831468  0.169818  0.929383  1
  O  O85  1  0.269427  0.395994  0.936286  1
  O  O86  1  0.096712  0.357003  0.729932  1
  O  O87  1  0.925897  0.984772  0.161083  1
  O  O88  1  0.074103  0.484772  0.838917  1
  O  O89  1  0.637947  0.895333  0.772562  1
  O  O90  1  0.603768  0.831756  0.502593  1
  O  O91  1  0.349138  0.549020  0.112004  1
  O  O92  1  0.323688  0.033562  0.402599  1
  O  O93  1  0.168532  0.830182  0.070617  1
  O  O94  1  0.629067  0.465243  0.353042  1
  O  O95  1  0.034939  0.750000  0.434352  1
  O  O96  1  0.837304  0.100283  0.458070  1
  O  O97  1  0.323688  0.466438  0.402599  1
  O  O98  1  0.918923  0.484135  0.326162  1
  O  O99  1  0.570741  0.158932  0.007722  1
  O  O100  1  0.903288  0.857003  0.270068  1
  O  O101  1  0.310033  0.250000  0.081431  1
  O  O102  1  0.074103  0.015228  0.838917  1
  O  O103  1  0.152459  0.551702  0.260463  1
  O  O104  1  0.081077  0.984135  0.673838  1
  O  O105  1  0.730573  0.895994  0.063714  1
  O  O106  1  0.650862  0.049020  0.887996  1
  O  O107  1  0.603768  0.668244  0.502593  1
  O  O108  1  0.362879  0.513411  0.827313  1
  O  O109  1  0.629067  0.034757  0.353042  1
  O  O110  1  0.362879  0.986589  0.827313  1
  O  O111  1  0.081077  0.515865  0.673838  1
  O  O112  1  0.152459  0.948298  0.260463  1
  O  O113  1  0.637121  0.013411  0.172687  1
  O  O114  1  0.903288  0.642997  0.270068  1
  O  O115  1  0.199601  0.434749  0.549878  1
  O  O116  1  0.837304  0.399717  0.458070  1
  O  O117  1  0.650862  0.450980  0.887996  1
  O  O118  1  0.168532  0.669818  0.070617  1
  O  O119  1  0.859732  0.250000  0.329960  1
  O  O120  1  0.131026  0.160735  0.417754  1
  O  O121  1  0.199601  0.065251  0.549878  1
  O  O122  1  0.349138  0.950980  0.112004  1
  O  O123  1  0.453034  0.250000  0.350894  1
  O  O124  1  0.637947  0.604667  0.772562  1
  O  O125  1  0.925897  0.515228  0.161083  1
  O  O126  1  0.162696  0.600283  0.541930  1
  O  O127  1  0.586469  0.750000  0.149459  1
