# generated using pymatgen
data_Sr4Cr3O9
_symmetry_space_group_name_H-M   'P 1'
_cell_length_a   9.74735391
_cell_length_b   9.74735391
_cell_length_c   7.94132111
_cell_angle_alpha   90.00000000
_cell_angle_beta   90.00000000
_cell_angle_gamma   120.00000000
_symmetry_Int_Tables_number   1
_chemical_formula_structural   Sr4Cr3O9
_chemical_formula_sum   'Sr12 Cr9 O27'
_cell_volume   653.42667280
_cell_formula_units_Z   3
loop_
 _symmetry_equiv_pos_site_id
 _symmetry_equiv_pos_as_xyz
  1  'x, y, z'
loop_
 _atom_site_type_symbol
 _atom_site_label
 _atom_site_symmetry_multiplicity
 _atom_site_fract_x
 _atom_site_fract_y
 _atom_site_fract_z
 _atom_site_occupancy
  Sr  Sr0  1  0.694192  0.664309  0.002990  1
  Sr  Sr1  1  0.026134  0.693586  0.756107  1
  Sr  Sr2  1  0.340453  0.347568  0.250542  1
  Sr  Sr3  1  0.652432  0.992885  0.250542  1
  Sr  Sr4  1  0.667452  0.973866  0.756107  1
  Sr  Sr5  1  0.007115  0.659547  0.250542  1
  Sr  Sr6  1  0.335691  0.029883  0.002990  1
  Sr  Sr7  1  0.970117  0.305808  0.002990  1
  Sr  Sr8  1  0.355114  0.999037  0.510367  1
  Sr  Sr9  1  0.306414  0.332548  0.756107  1
  Sr  Sr10  1  0.000963  0.356077  0.510367  1
  Sr  Sr11  1  0.643923  0.644886  0.510367  1
  Cr  Cr12  1  0.000000  0.000000  0.866034  1
  Cr  Cr13  1  0.666667  0.333333  0.421559  1
  Cr  Cr14  1  0.333333  0.666667  0.334313  1
  Cr  Cr15  1  0.666667  0.333333  0.761888  1
  Cr  Cr16  1  0.000000  0.000000  0.193961  1
  Cr  Cr17  1  0.333333  0.666667  0.656815  1
  Cr  Cr18  1  0.000000  0.000000  0.526370  1
  Cr  Cr19  1  0.666667  0.333333  0.098413  1
  Cr  Cr20  1  0.333333  0.666667  0.997783  1
  O  O21  1  0.674614  0.495601  0.264392  1
  O  O22  1  0.174295  0.673353  0.497014  1
  O  O23  1  0.829881  0.876400  0.346811  1
  O  O24  1  0.046519  0.170119  0.346811  1
  O  O25  1  0.835060  0.477112  0.939088  1
  O  O26  1  0.157858  0.160735  0.029837  1
  O  O27  1  0.341182  0.824718  0.822458  1
  O  O28  1  0.335304  0.820189  0.167329  1
  O  O29  1  0.002877  0.842142  0.029837  1
  O  O30  1  0.504399  0.179013  0.264392  1
  O  O31  1  0.522888  0.357949  0.939088  1
  O  O32  1  0.123600  0.953481  0.346811  1
  O  O33  1  0.642051  0.164940  0.939088  1
  O  O34  1  0.179811  0.515115  0.167329  1
  O  O35  1  0.839265  0.997123  0.029837  1
  O  O36  1  0.499059  0.825705  0.497014  1
  O  O37  1  0.484885  0.664696  0.167329  1
  O  O38  1  0.854024  0.831664  0.705739  1
  O  O39  1  0.505420  0.317401  0.575949  1
  O  O40  1  0.977640  0.145976  0.705739  1
  O  O41  1  0.811981  0.494580  0.575949  1
  O  O42  1  0.820987  0.325386  0.264392  1
  O  O43  1  0.175282  0.516464  0.822458  1
  O  O44  1  0.483536  0.658818  0.822458  1
  O  O45  1  0.682599  0.188019  0.575949  1
  O  O46  1  0.326647  0.500941  0.497014  1
  O  O47  1  0.168336  0.022360  0.705739  1
