# generated using pymatgen
data_NaCaAlF6
_symmetry_space_group_name_H-M   'P 1'
_cell_length_a   8.86052636
_cell_length_b   5.26066932
_cell_length_c   20.59777213
_cell_angle_alpha   90.00000000
_cell_angle_beta   91.69113162
_cell_angle_gamma   90.00000000
_symmetry_Int_Tables_number   1
_chemical_formula_structural   NaCaAlF6
_chemical_formula_sum   'Na8 Ca8 Al8 F48'
_cell_volume   959.69133132
_cell_formula_units_Z   8
loop_
 _symmetry_equiv_pos_site_id
 _symmetry_equiv_pos_as_xyz
  1  'x, y, z'
loop_
 _atom_site_type_symbol
 _atom_site_label
 _atom_site_symmetry_multiplicity
 _atom_site_fract_x
 _atom_site_fract_y
 _atom_site_fract_z
 _atom_site_occupancy
  Na  Na0  1  0.976328  0.758166  0.682209  1
  Na  Na1  1  0.023672  0.258166  0.817791  1
  Na  Na2  1  0.023672  0.241834  0.317791  1
  Na  Na3  1  0.041627  0.208174  0.062498  1
  Na  Na4  1  0.041627  0.291826  0.562498  1
  Na  Na5  1  0.976328  0.741834  0.182209  1
  Na  Na6  1  0.958373  0.708174  0.437502  1
  Na  Na7  1  0.958373  0.791826  0.937502  1
  Ca  Ca8  1  0.637810  0.760102  0.311406  1
  Ca  Ca9  1  0.633900  0.812076  0.064242  1
  Ca  Ca10  1  0.366100  0.187924  0.935758  1
  Ca  Ca11  1  0.362190  0.239898  0.688594  1
  Ca  Ca12  1  0.637810  0.739898  0.811406  1
  Ca  Ca13  1  0.366100  0.312076  0.435758  1
  Ca  Ca14  1  0.362190  0.260102  0.188594  1
  Ca  Ca15  1  0.633900  0.687924  0.564242  1
  Al  Al16  1  0.256371  0.752135  0.819530  1
  Al  Al17  1  0.743629  0.252135  0.680470  1
  Al  Al18  1  0.744720  0.190938  0.428019  1
  Al  Al19  1  0.255280  0.690938  0.071981  1
  Al  Al20  1  0.255280  0.809062  0.571981  1
  Al  Al21  1  0.256371  0.747865  0.319530  1
  Al  Al22  1  0.744720  0.309062  0.928019  1
  Al  Al23  1  0.743629  0.247865  0.180470  1
  F  F24  1  0.756397  0.521250  0.127136  1
  F  F25  1  0.254964  0.461005  0.269681  1
  F  F26  1  0.392966  0.909793  0.265956  1
  F  F27  1  0.734538  0.590128  0.981150  1
  F  F28  1  0.080400  0.716712  0.533238  1
  F  F29  1  0.095053  0.863357  0.274825  1
  F  F30  1  0.625878  0.126496  0.982773  1
  F  F31  1  0.904947  0.136643  0.725175  1
  F  F32  1  0.840138  0.508916  0.868444  1
  F  F33  1  0.846419  0.056008  0.119728  1
  F  F34  1  0.265462  0.090128  0.518850  1
  F  F35  1  0.756397  0.978750  0.627136  1
  F  F36  1  0.734538  0.909872  0.481150  1
  F  F37  1  0.254964  0.038995  0.769681  1
  F  F38  1  0.095053  0.636643  0.774825  1
  F  F39  1  0.567210  0.098247  0.386177  1
  F  F40  1  0.234106  0.535237  0.627019  1
  F  F41  1  0.765894  0.464763  0.372981  1
  F  F42  1  0.243603  0.021250  0.372864  1
  F  F43  1  0.374122  0.626496  0.517227  1
  F  F44  1  0.840138  0.991084  0.368444  1
  F  F45  1  0.265462  0.409872  0.018850  1
  F  F46  1  0.428708  0.877304  0.863223  1
  F  F47  1  0.625878  0.373504  0.482773  1
  F  F48  1  0.374122  0.873504  0.017227  1
  F  F49  1  0.153581  0.556008  0.380272  1
  F  F50  1  0.243603  0.478750  0.872864  1
  F  F51  1  0.765894  0.035237  0.872981  1
  F  F52  1  0.428708  0.622696  0.363223  1
  F  F53  1  0.432790  0.901753  0.613823  1
  F  F54  1  0.571292  0.122696  0.136777  1
  F  F55  1  0.432790  0.598247  0.113823  1
  F  F56  1  0.607034  0.409793  0.234044  1
  F  F57  1  0.919600  0.216712  0.966762  1
  F  F58  1  0.745036  0.961005  0.230319  1
  F  F59  1  0.745036  0.538995  0.730319  1
  F  F60  1  0.571292  0.377304  0.636777  1
  F  F61  1  0.153581  0.943992  0.880272  1
  F  F62  1  0.904947  0.363357  0.225175  1
  F  F63  1  0.919600  0.283288  0.466762  1
  F  F64  1  0.567210  0.401753  0.886177  1
  F  F65  1  0.392966  0.590207  0.765956  1
  F  F66  1  0.234106  0.964763  0.127019  1
  F  F67  1  0.080400  0.783288  0.033238  1
  F  F68  1  0.159862  0.491084  0.131556  1
  F  F69  1  0.607034  0.090207  0.734044  1
  F  F70  1  0.846419  0.443992  0.619728  1
  F  F71  1  0.159862  0.008916  0.631556  1
