# generated using pymatgen
data_Pd(Se4Cl)2
_symmetry_space_group_name_H-M   'P 1'
_cell_length_a   9.21510999
_cell_length_b   10.26084766
_cell_length_c   14.46839856
_cell_angle_alpha   90.00000000
_cell_angle_beta   90.00000000
_cell_angle_gamma   90.00000000
_symmetry_Int_Tables_number   1
_chemical_formula_structural   Pd(Se4Cl)2
_chemical_formula_sum   'Pd4 Se32 Cl8'
_cell_volume   1368.05710768
_cell_formula_units_Z   4
loop_
 _symmetry_equiv_pos_site_id
 _symmetry_equiv_pos_as_xyz
  1  'x, y, z'
loop_
 _atom_site_type_symbol
 _atom_site_label
 _atom_site_symmetry_multiplicity
 _atom_site_fract_x
 _atom_site_fract_y
 _atom_site_fract_z
 _atom_site_occupancy
  Pd  Pd0  1  0.500000  0.000000  0.000000  1
  Pd  Pd1  1  0.500000  0.500000  0.500000  1
  Pd  Pd2  1  0.000000  0.500000  0.000000  1
  Pd  Pd3  1  0.000000  0.000000  0.500000  1
  Se  Se4  1  0.305175  0.030963  0.886592  1
  Se  Se5  1  0.130224  0.153732  0.972901  1
  Se  Se6  1  0.923209  0.622922  0.622476  1
  Se  Se7  1  0.194825  0.530963  0.113408  1
  Se  Se8  1  0.576791  0.122922  0.377524  1
  Se  Se9  1  0.869776  0.846268  0.027099  1
  Se  Se10  1  0.369776  0.653732  0.027099  1
  Se  Se11  1  0.694825  0.969037  0.113408  1
  Se  Se12  1  0.087774  0.194249  0.282353  1
  Se  Se13  1  0.194825  0.030963  0.386592  1
  Se  Se14  1  0.923209  0.122922  0.877524  1
  Se  Se15  1  0.305175  0.530963  0.613408  1
  Se  Se16  1  0.912226  0.805751  0.717647  1
  Se  Se17  1  0.630224  0.346268  0.972901  1
  Se  Se18  1  0.412226  0.194249  0.782353  1
  Se  Se19  1  0.869776  0.346268  0.472901  1
  Se  Se20  1  0.805175  0.969037  0.613408  1
  Se  Se21  1  0.412226  0.694249  0.717647  1
  Se  Se22  1  0.912226  0.305751  0.782353  1
  Se  Se23  1  0.076791  0.377078  0.377524  1
  Se  Se24  1  0.423209  0.877078  0.622476  1
  Se  Se25  1  0.576791  0.622922  0.122476  1
  Se  Se26  1  0.694825  0.469037  0.386592  1
  Se  Se27  1  0.587774  0.305751  0.282353  1
  Se  Se28  1  0.423209  0.377078  0.877524  1
  Se  Se29  1  0.087774  0.694249  0.217647  1
  Se  Se30  1  0.076791  0.877078  0.122476  1
  Se  Se31  1  0.369776  0.153732  0.472901  1
  Se  Se32  1  0.130224  0.653732  0.527099  1
  Se  Se33  1  0.805175  0.469037  0.886592  1
  Se  Se34  1  0.630224  0.846268  0.527099  1
  Se  Se35  1  0.587774  0.805751  0.217647  1
  Cl  Cl36  1  0.908775  0.344521  0.102487  1
  Cl  Cl37  1  0.908775  0.844521  0.397513  1
  Cl  Cl38  1  0.091225  0.155479  0.602487  1
  Cl  Cl39  1  0.408775  0.155479  0.102487  1
  Cl  Cl40  1  0.591225  0.344521  0.602487  1
  Cl  Cl41  1  0.091225  0.655479  0.897513  1
  Cl  Cl42  1  0.408775  0.655479  0.397513  1
  Cl  Cl43  1  0.591225  0.844521  0.897513  1
