# generated using pymatgen
data_Na2Th(PO4)2
_symmetry_space_group_name_H-M   'P 1'
_cell_length_a   7.11375403
_cell_length_b   22.01863877
_cell_length_c   9.26446970
_cell_angle_alpha   90.00000000
_cell_angle_beta   111.50913648
_cell_angle_gamma   90.00000000
_symmetry_Int_Tables_number   1
_chemical_formula_structural   Na2Th(PO4)2
_chemical_formula_sum   'Na16 Th8 P16 O64'
_cell_volume   1350.08307465
_cell_formula_units_Z   8
loop_
 _symmetry_equiv_pos_site_id
 _symmetry_equiv_pos_as_xyz
  1  'x, y, z'
loop_
 _atom_site_type_symbol
 _atom_site_label
 _atom_site_symmetry_multiplicity
 _atom_site_fract_x
 _atom_site_fract_y
 _atom_site_fract_z
 _atom_site_occupancy
  Na  Na0  1  0.147869  0.939083  0.539240  1
  Na  Na1  1  0.852131  0.060917  0.460760  1
  Na  Na2  1  0.356966  0.560011  0.457730  1
  Na  Na3  1  0.852131  0.439083  0.960760  1
  Na  Na4  1  0.629290  0.687018  0.495489  1
  Na  Na5  1  0.119658  0.312908  0.012782  1
  Na  Na6  1  0.880342  0.687092  0.987218  1
  Na  Na7  1  0.370710  0.312982  0.504511  1
  Na  Na8  1  0.370710  0.187018  0.004511  1
  Na  Na9  1  0.147869  0.560917  0.039240  1
  Na  Na10  1  0.356966  0.939989  0.957730  1
  Na  Na11  1  0.119658  0.187092  0.512782  1
  Na  Na12  1  0.880342  0.812908  0.487218  1
  Na  Na13  1  0.629290  0.812982  0.995488  1
  Na  Na14  1  0.643034  0.060011  0.042270  1
  Na  Na15  1  0.643034  0.439989  0.542270  1
  Th  Th16  1  0.242563  0.046492  0.247149  1
  Th  Th17  1  0.744767  0.321309  0.256062  1
  Th  Th18  1  0.757437  0.546492  0.252851  1
  Th  Th19  1  0.744767  0.178691  0.756062  1
  Th  Th20  1  0.255233  0.678691  0.743938  1
  Th  Th21  1  0.255233  0.821309  0.243938  1
  Th  Th22  1  0.242563  0.453508  0.747149  1
  Th  Th23  1  0.757437  0.953508  0.752851  1
  P  P24  1  0.926593  0.183293  0.127087  1
  P  P25  1  0.557890  0.315418  0.885515  1
  P  P26  1  0.434259  0.441301  0.149092  1
  P  P27  1  0.073407  0.683293  0.372913  1
  P  P28  1  0.565741  0.558699  0.850908  1
  P  P29  1  0.442110  0.815418  0.614485  1
  P  P30  1  0.557890  0.184582  0.385515  1
  P  P31  1  0.434259  0.058699  0.649092  1
  P  P32  1  0.069653  0.062471  0.855423  1
  P  P33  1  0.073407  0.816707  0.872913  1
  P  P34  1  0.565741  0.941301  0.350908  1
  P  P35  1  0.930347  0.937529  0.144577  1
  P  P36  1  0.926593  0.316707  0.627087  1
  P  P37  1  0.442110  0.684582  0.114485  1
  P  P38  1  0.069653  0.437529  0.355423  1
  P  P39  1  0.930347  0.562471  0.644577  1
  O  O40  1  0.221799  0.831748  0.509005  1
  O  O41  1  0.895023  0.444807  0.419332  1
  O  O42  1  0.459744  0.370898  0.780868  1
  O  O43  1  0.460229  0.383105  0.246979  1
  O  O44  1  0.895023  0.055193  0.919332  1
  O  O45  1  0.548102  0.700139  0.999233  1
  O  O46  1  0.460229  0.116895  0.746979  1
  O  O47  1  0.539771  0.883105  0.253021  1
  O  O48  1  0.706753  0.332288  0.518790  1
  O  O49  1  0.725558  0.937344  0.004859  1
  O  O50  1  0.274442  0.437344  0.495141  1
  O  O51  1  0.947777  0.505721  0.749675  1
  O  O52  1  0.551145  0.999285  0.250097  1
  O  O53  1  0.551145  0.500715  0.750097  1
  O  O54  1  0.451898  0.200139  0.500767  1
  O  O55  1  0.767413  0.940130  0.493524  1
  O  O56  1  0.052223  0.005721  0.750325  1
  O  O57  1  0.540256  0.870898  0.719132  1
  O  O58  1  0.038853  0.121622  0.760842  1
  O  O59  1  0.448855  0.499285  0.249903  1
  O  O60  1  0.036344  0.301146  0.514224  1
  O  O61  1  0.947777  0.994279  0.249675  1
  O  O62  1  0.459744  0.129102  0.280868  1
  O  O63  1  0.052223  0.494279  0.250325  1
  O  O64  1  0.725558  0.562656  0.504859  1
  O  O65  1  0.539771  0.616895  0.753021  1
  O  O66  1  0.778201  0.331748  0.990995  1
  O  O67  1  0.038853  0.378378  0.260842  1
  O  O68  1  0.232587  0.059870  0.506476  1
  O  O69  1  0.706753  0.167712  0.018790  1
  O  O70  1  0.104977  0.944807  0.080668  1
  O  O71  1  0.221799  0.668252  0.009005  1
  O  O72  1  0.938681  0.262596  0.736586  1
  O  O73  1  0.778201  0.168252  0.490995  1
  O  O74  1  0.382968  0.552851  0.905673  1
  O  O75  1  0.938681  0.237404  0.236586  1
  O  O76  1  0.617032  0.447149  0.094327  1
  O  O77  1  0.448855  0.000715  0.749903  1
  O  O78  1  0.617032  0.052851  0.594327  1
  O  O79  1  0.451898  0.299861  0.000767  1
  O  O80  1  0.274442  0.062656  0.995141  1
  O  O81  1  0.232587  0.440130  0.006476  1
  O  O82  1  0.019539  0.372927  0.730851  1
  O  O83  1  0.545415  0.261078  0.776612  1
  O  O84  1  0.961147  0.878378  0.239158  1
  O  O85  1  0.548102  0.799861  0.499233  1
  O  O86  1  0.104977  0.555193  0.580668  1
  O  O87  1  0.293247  0.667712  0.481210  1
  O  O88  1  0.963656  0.801146  0.985776  1
  O  O89  1  0.980461  0.872927  0.769149  1
  O  O90  1  0.382968  0.947149  0.405673  1
  O  O91  1  0.963656  0.698854  0.485776  1
  O  O92  1  0.293247  0.832288  0.981210  1
  O  O93  1  0.061319  0.762596  0.763414  1
  O  O94  1  0.036344  0.198854  0.014224  1
  O  O95  1  0.540256  0.629102  0.219132  1
  O  O96  1  0.454585  0.738922  0.223388  1
  O  O97  1  0.061319  0.737404  0.263414  1
  O  O98  1  0.454585  0.761078  0.723388  1
  O  O99  1  0.961147  0.621622  0.739158  1
  O  O100  1  0.767413  0.559870  0.993524  1
  O  O101  1  0.980461  0.627073  0.269149  1
  O  O102  1  0.019539  0.127073  0.230851  1
  O  O103  1  0.545415  0.238922  0.276612  1
