# generated using pymatgen
data_KCeH2S2O9
_symmetry_space_group_name_H-M   'P 1'
_cell_length_a   10.20701644
_cell_length_b   8.76965585
_cell_length_c   10.52291453
_cell_angle_alpha   90.00000000
_cell_angle_beta   118.65753941
_cell_angle_gamma   90.00000000
_symmetry_Int_Tables_number   1
_chemical_formula_structural   KCeH2S2O9
_chemical_formula_sum   'K4 Ce4 H8 S8 O36'
_cell_volume   826.54295043
_cell_formula_units_Z   4
loop_
 _symmetry_equiv_pos_site_id
 _symmetry_equiv_pos_as_xyz
  1  'x, y, z'
loop_
 _atom_site_type_symbol
 _atom_site_label
 _atom_site_symmetry_multiplicity
 _atom_site_fract_x
 _atom_site_fract_y
 _atom_site_fract_z
 _atom_site_occupancy
  K  K0  1  0.284234  0.313124  0.804196  1
  K  K1  1  0.715766  0.813124  0.695804  1
  K  K2  1  0.715766  0.686876  0.195804  1
  K  K3  1  0.284234  0.186876  0.304196  1
  Ce  Ce4  1  0.235484  0.660717  0.467053  1
  Ce  Ce5  1  0.764516  0.160717  0.032947  1
  Ce  Ce6  1  0.764516  0.339283  0.532947  1
  Ce  Ce7  1  0.235484  0.839283  0.967053  1
  H  H8  1  0.223332  0.984478  0.568919  1
  H  H9  1  0.776668  0.484478  0.931081  1
  H  H10  1  0.776668  0.015522  0.431081  1
  H  H11  1  0.223332  0.515522  0.068919  1
  H  H12  1  0.101451  0.015851  0.408210  1
  H  H13  1  0.898549  0.515851  0.091790  1
  H  H14  1  0.898549  0.984149  0.591790  1
  H  H15  1  0.101451  0.484149  0.908210  1
  S  S16  1  0.981886  0.316216  0.389644  1
  S  S17  1  0.018114  0.816216  0.110356  1
  S  S18  1  0.018114  0.683784  0.610356  1
  S  S19  1  0.981886  0.183784  0.889644  1
  S  S20  1  0.451883  0.870081  0.824149  1
  S  S21  1  0.548117  0.370081  0.675851  1
  S  S22  1  0.548117  0.129919  0.175851  1
  S  S23  1  0.451883  0.629919  0.324149  1
  O  O24  1  0.196147  0.961364  0.467636  1
  O  O25  1  0.803853  0.461364  0.032364  1
  O  O26  1  0.803853  0.038636  0.532364  1
  O  O27  1  0.196147  0.538636  0.967636  1
  O  O28  1  0.832180  0.390709  0.332895  1
  O  O29  1  0.167820  0.890709  0.167105  1
  O  O30  1  0.167820  0.609291  0.667105  1
  O  O31  1  0.832180  0.109291  0.832895  1
  O  O32  1  0.453275  0.759240  0.933180  1
  O  O33  1  0.546725  0.259240  0.566820  1
  O  O34  1  0.546725  0.240760  0.066820  1
  O  O35  1  0.453275  0.740760  0.433180  1
  O  O36  1  0.323144  0.975538  0.788741  1
  O  O37  1  0.676856  0.475538  0.711259  1
  O  O38  1  0.676856  0.024462  0.211259  1
  O  O39  1  0.323144  0.524462  0.288741  1
  O  O40  1  0.596240  0.952932  0.885605  1
  O  O41  1  0.403760  0.452932  0.614395  1
  O  O42  1  0.403760  0.047068  0.114395  1
  O  O43  1  0.596240  0.547068  0.385605  1
  O  O44  1  0.432003  0.790033  0.691732  1
  O  O45  1  0.567997  0.290033  0.808268  1
  O  O46  1  0.567997  0.209967  0.308268  1
  O  O47  1  0.432003  0.709967  0.191732  1
  O  O48  1  0.970699  0.185338  0.293125  1
  O  O49  1  0.029301  0.685338  0.206875  1
  O  O50  1  0.029301  0.814662  0.706875  1
  O  O51  1  0.970699  0.314662  0.793125  1
  O  O52  1  0.024115  0.260471  0.537546  1
  O  O53  1  0.975885  0.760471  0.962454  1
  O  O54  1  0.975885  0.739529  0.462454  1
  O  O55  1  0.024115  0.239529  0.037546  1
  O  O56  1  0.094233  0.423301  0.389807  1
  O  O57  1  0.905767  0.923301  0.110193  1
  O  O58  1  0.905767  0.576699  0.610193  1
  O  O59  1  0.094233  0.076699  0.889807  1
