# generated using pymatgen
data_Ni3(SnS)2
_symmetry_space_group_name_H-M   'P 1'
_cell_length_a   5.43680917
_cell_length_b   5.43680917
_cell_length_c   5.43680917
_cell_angle_alpha   61.25181222
_cell_angle_beta   61.25181222
_cell_angle_gamma   61.25181222
_symmetry_Int_Tables_number   1
_chemical_formula_structural   Ni3(SnS)2
_chemical_formula_sum   'Ni3 Sn2 S2'
_cell_volume   116.83503821
_cell_formula_units_Z   1
loop_
 _symmetry_equiv_pos_site_id
 _symmetry_equiv_pos_as_xyz
  1  'x, y, z'
loop_
 _atom_site_type_symbol
 _atom_site_label
 _atom_site_symmetry_multiplicity
 _atom_site_fract_x
 _atom_site_fract_y
 _atom_site_fract_z
 _atom_site_occupancy
  Ni  Ni0  1  1.000000  0.500000  0.500000  1
  Ni  Ni1  1  0.500000  0.000000  0.500000  1
  Ni  Ni2  1  0.500000  0.500000  0.000000  1
  Sn  Sn3  1  0.000000  1.000000  0.000000  1
  Sn  Sn4  1  0.500000  0.500000  0.500000  1
  S  S5  1  0.779378  0.779378  0.779378  1
  S  S6  1  0.220622  0.220622  0.220622  1
