# generated using pymatgen
data_Te2MoCl4O
_symmetry_space_group_name_H-M   'P 1'
_cell_length_a   10.97079025
_cell_length_b   7.19012792
_cell_length_c   16.30634561
_cell_angle_alpha   90.00000000
_cell_angle_beta   131.44635992
_cell_angle_gamma   90.00000000
_symmetry_Int_Tables_number   1
_chemical_formula_structural   Te2MoCl4O
_chemical_formula_sum   'Te8 Mo4 Cl16 O4'
_cell_volume   964.15462971
_cell_formula_units_Z   4
loop_
 _symmetry_equiv_pos_site_id
 _symmetry_equiv_pos_as_xyz
  1  'x, y, z'
loop_
 _atom_site_type_symbol
 _atom_site_label
 _atom_site_symmetry_multiplicity
 _atom_site_fract_x
 _atom_site_fract_y
 _atom_site_fract_z
 _atom_site_occupancy
  Te  Te0  1  0.000074  0.713230  0.927161  1
  Te  Te1  1  0.000074  0.786770  0.427161  1
  Te  Te2  1  0.792586  0.426744  0.864341  1
  Te  Te3  1  0.207414  0.926744  0.635659  1
  Te  Te4  1  0.792586  0.073256  0.364341  1
  Te  Te5  1  0.999926  0.213230  0.572839  1
  Te  Te6  1  0.207414  0.573256  0.135659  1
  Te  Te7  1  0.999926  0.286770  0.072839  1
  Mo  Mo8  1  0.319687  0.185567  0.954290  1
  Mo  Mo9  1  0.680313  0.814433  0.045710  1
  Mo  Mo10  1  0.319687  0.314433  0.454290  1
  Mo  Mo11  1  0.680313  0.685567  0.545710  1
  Cl  Cl12  1  0.668785  0.721807  0.183231  1
  Cl  Cl13  1  0.313584  0.007722  0.078206  1
  Cl  Cl14  1  0.045146  0.099966  0.811510  1
  Cl  Cl15  1  0.382090  0.831675  0.913200  1
  Cl  Cl16  1  0.686416  0.507722  0.421794  1
  Cl  Cl17  1  0.668785  0.778193  0.683231  1
  Cl  Cl18  1  0.382090  0.668325  0.413200  1
  Cl  Cl19  1  0.954854  0.599966  0.688490  1
  Cl  Cl20  1  0.331215  0.221807  0.316769  1
  Cl  Cl21  1  0.045146  0.400034  0.311510  1
  Cl  Cl22  1  0.331215  0.278193  0.816769  1
  Cl  Cl23  1  0.617910  0.168325  0.086800  1
  Cl  Cl24  1  0.686416  0.992278  0.921794  1
  Cl  Cl25  1  0.617910  0.331675  0.586800  1
  Cl  Cl26  1  0.313584  0.492278  0.578206  1
  Cl  Cl27  1  0.954854  0.900034  0.188490  1
  O  O28  1  0.304896  0.401008  0.989423  1
  O  O29  1  0.695104  0.901008  0.510577  1
  O  O30  1  0.304896  0.098992  0.489423  1
  O  O31  1  0.695104  0.598992  0.010577  1
