# generated using pymatgen
data_Hg9(AsO4)4
_symmetry_space_group_name_H-M   'P 1'
_cell_length_a   10.57428526
_cell_length_b   10.57428526
_cell_length_c   10.57428526
_cell_angle_alpha   108.37494099
_cell_angle_beta   108.37494099
_cell_angle_gamma   108.37494099
_symmetry_Int_Tables_number   1
_chemical_formula_structural   Hg9(AsO4)4
_chemical_formula_sum   'Hg18 As8 O32'
_cell_volume   945.32711696
_cell_formula_units_Z   2
loop_
 _symmetry_equiv_pos_site_id
 _symmetry_equiv_pos_as_xyz
  1  'x, y, z'
loop_
 _atom_site_type_symbol
 _atom_site_label
 _atom_site_symmetry_multiplicity
 _atom_site_fract_x
 _atom_site_fract_y
 _atom_site_fract_z
 _atom_site_occupancy
  Hg  Hg0  1  0.181369  0.451964  0.402556  1
  Hg  Hg1  1  0.451964  0.402556  0.181369  1
  Hg  Hg2  1  0.402556  0.181369  0.451964  1
  Hg  Hg3  1  0.681369  0.902556  0.951964  1
  Hg  Hg4  1  0.902556  0.951964  0.681369  1
  Hg  Hg5  1  0.951964  0.681369  0.902556  1
  Hg  Hg6  1  0.641034  0.273841  0.196842  1
  Hg  Hg7  1  0.273841  0.196842  0.641034  1
  Hg  Hg8  1  0.196842  0.641034  0.273841  1
  Hg  Hg9  1  0.141034  0.696842  0.773841  1
  Hg  Hg10  1  0.696842  0.773841  0.141034  1
  Hg  Hg11  1  0.773841  0.141034  0.696842  1
  Hg  Hg12  1  0.108513  0.966171  0.351458  1
  Hg  Hg13  1  0.966171  0.351458  0.108513  1
  Hg  Hg14  1  0.351458  0.108513  0.966171  1
  Hg  Hg15  1  0.608513  0.851458  0.466171  1
  Hg  Hg16  1  0.851458  0.466171  0.608513  1
  Hg  Hg17  1  0.466171  0.608513  0.851458  1
  As  As18  1  0.884855  0.164874  0.382769  1
  As  As19  1  0.164874  0.382769  0.884855  1
  As  As20  1  0.382769  0.884855  0.164874  1
  As  As21  1  0.384855  0.882769  0.664874  1
  As  As22  1  0.882769  0.664874  0.384855  1
  As  As23  1  0.664874  0.384855  0.882769  1
  As  As24  1  0.062557  0.062557  0.062557  1
  As  As25  1  0.562557  0.562557  0.562557  1
  O  O26  1  0.994078  0.909212  0.096196  1
  O  O27  1  0.909212  0.096196  0.994078  1
  O  O28  1  0.096196  0.994078  0.909212  1
  O  O29  1  0.494078  0.596196  0.409212  1
  O  O30  1  0.596196  0.409212  0.494078  1
  O  O31  1  0.409212  0.494078  0.596196  1
  O  O32  1  0.782431  0.151043  0.209052  1
  O  O33  1  0.151043  0.209052  0.782431  1
  O  O34  1  0.209052  0.782431  0.151043  1
  O  O35  1  0.282431  0.709052  0.651043  1
  O  O36  1  0.709052  0.651043  0.282431  1
  O  O37  1  0.651043  0.282431  0.709052  1
  O  O38  1  0.074554  0.280944  0.463409  1
  O  O39  1  0.280944  0.463409  0.074554  1
  O  O40  1  0.463409  0.074554  0.280944  1
  O  O41  1  0.574554  0.963409  0.780944  1
  O  O42  1  0.963409  0.780944  0.574554  1
  O  O43  1  0.780944  0.574554  0.963409  1
  O  O44  1  0.875031  0.991430  0.361812  1
  O  O45  1  0.991430  0.361812  0.875031  1
  O  O46  1  0.361812  0.875031  0.991430  1
  O  O47  1  0.375031  0.861812  0.491430  1
  O  O48  1  0.861812  0.491430  0.375031  1
  O  O49  1  0.491430  0.375031  0.861812  1
  O  O50  1  0.000375  0.724785  0.310817  1
  O  O51  1  0.724785  0.310817  0.000375  1
  O  O52  1  0.310817  0.000375  0.724785  1
  O  O53  1  0.500375  0.810817  0.224785  1
  O  O54  1  0.810817  0.224785  0.500375  1
  O  O55  1  0.224785  0.500375  0.810817  1
  O  O56  1  0.214807  0.214807  0.214807  1
  O  O57  1  0.714807  0.714807  0.714807  1
