# generated using pymatgen
data_SiMoP3O11
_symmetry_space_group_name_H-M   'P 1'
_cell_length_a   14.46380694
_cell_length_b   14.46380694
_cell_length_c   14.46380694
_cell_angle_alpha   34.73695034
_cell_angle_beta   34.73695034
_cell_angle_gamma   34.73695034
_symmetry_Int_Tables_number   1
_chemical_formula_structural   SiMoP3O11
_chemical_formula_sum   'Si4 Mo4 P12 O44'
_cell_volume   876.81159768
_cell_formula_units_Z   4
loop_
 _symmetry_equiv_pos_site_id
 _symmetry_equiv_pos_as_xyz
  1  'x, y, z'
loop_
 _atom_site_type_symbol
 _atom_site_label
 _atom_site_symmetry_multiplicity
 _atom_site_fract_x
 _atom_site_fract_y
 _atom_site_fract_z
 _atom_site_occupancy
  Si  Si0  1  0.960754  0.960754  0.960754  1
  Si  Si1  1  0.460754  0.460754  0.460754  1
  Si  Si2  1  0.539246  0.539246  0.539246  1
  Si  Si3  1  0.039246  0.039246  0.039246  1
  Mo  Mo4  1  0.840508  0.840508  0.840508  1
  Mo  Mo5  1  0.659492  0.659492  0.659492  1
  Mo  Mo6  1  0.159492  0.159492  0.159492  1
  Mo  Mo7  1  0.340508  0.340508  0.340508  1
  P  P8  1  0.911213  0.219464  0.511387  1
  P  P9  1  0.411213  0.011387  0.719464  1
  P  P10  1  0.219464  0.511387  0.911213  1
  P  P11  1  0.988613  0.280536  0.588787  1
  P  P12  1  0.588787  0.988613  0.280536  1
  P  P13  1  0.280536  0.588787  0.988613  1
  P  P14  1  0.511387  0.911213  0.219464  1
  P  P15  1  0.011387  0.719464  0.411213  1
  P  P16  1  0.488613  0.088787  0.780536  1
  P  P17  1  0.088787  0.780536  0.488613  1
  P  P18  1  0.780536  0.488613  0.088787  1
  P  P19  1  0.719464  0.411213  0.011387  1
  O  O20  1  0.152471  0.527038  0.438927  1
  O  O21  1  0.331107  0.960399  0.281027  1
  O  O22  1  0.027038  0.652471  0.938927  1
  O  O23  1  0.668893  0.039601  0.718973  1
  O  O24  1  0.708119  0.357979  0.592021  1
  O  O25  1  0.972962  0.347529  0.061073  1
  O  O26  1  0.061073  0.972962  0.347529  1
  O  O27  1  0.847529  0.472962  0.561073  1
  O  O28  1  0.960399  0.281027  0.331107  1
  O  O29  1  0.750000  0.527888  0.972112  1
  O  O30  1  0.142021  0.791881  0.907979  1
  O  O31  1  0.250000  0.472112  0.027888  1
  O  O32  1  0.527038  0.438927  0.152471  1
  O  O33  1  0.438927  0.152471  0.527038  1
  O  O34  1  0.291881  0.642021  0.407979  1
  O  O35  1  0.938927  0.027038  0.652471  1
  O  O36  1  0.208119  0.092021  0.857979  1
  O  O37  1  0.642021  0.407979  0.291881  1
  O  O38  1  0.781027  0.460399  0.831107  1
  O  O39  1  0.218973  0.539601  0.168893  1
  O  O40  1  0.281027  0.331107  0.960399  1
  O  O41  1  0.027888  0.250000  0.472112  1
  O  O42  1  0.092021  0.857979  0.208119  1
  O  O43  1  0.039601  0.718973  0.668893  1
  O  O44  1  0.472962  0.561073  0.847529  1
  O  O45  1  0.831107  0.781027  0.460399  1
  O  O46  1  0.652471  0.938927  0.027038  1
  O  O47  1  0.527888  0.972112  0.750000  1
  O  O48  1  0.407979  0.291881  0.642021  1
  O  O49  1  0.718973  0.668893  0.039601  1
  O  O50  1  0.168893  0.218973  0.539601  1
  O  O51  1  0.972112  0.750000  0.527888  1
  O  O52  1  0.539601  0.168893  0.218973  1
  O  O53  1  0.472112  0.027888  0.250000  1
  O  O54  1  0.000000  1.000000  1.000000  1
  O  O55  1  0.460399  0.831107  0.781027  1
  O  O56  1  0.592021  0.708119  0.357979  1
  O  O57  1  0.857979  0.208119  0.092021  1
  O  O58  1  0.357979  0.592021  0.708119  1
  O  O59  1  0.907979  0.142021  0.791881  1
  O  O60  1  0.791881  0.907979  0.142021  1
  O  O61  1  0.500000  0.500000  0.500000  1
  O  O62  1  0.347529  0.061073  0.972962  1
  O  O63  1  0.561073  0.847529  0.472962  1
