# generated using pymatgen
data_HoB4
_symmetry_space_group_name_H-M   'P 1'
_cell_length_a   7.08618638
_cell_length_b   7.08618638
_cell_length_c   4.00815286
_cell_angle_alpha   90.00000000
_cell_angle_beta   90.00000000
_cell_angle_gamma   90.00000000
_symmetry_Int_Tables_number   1
_chemical_formula_structural   HoB4
_chemical_formula_sum   'Ho4 B16'
_cell_volume   201.26553767
_cell_formula_units_Z   4
loop_
 _symmetry_equiv_pos_site_id
 _symmetry_equiv_pos_as_xyz
  1  'x, y, z'
loop_
 _atom_site_type_symbol
 _atom_site_label
 _atom_site_symmetry_multiplicity
 _atom_site_fract_x
 _atom_site_fract_y
 _atom_site_fract_z
 _atom_site_occupancy
  Ho  Ho0  1  0.317664  0.182336  0.000000  1
  Ho  Ho1  1  0.682336  0.817664  0.000000  1
  Ho  Ho2  1  0.182336  0.682336  0.000000  1
  Ho  Ho3  1  0.817664  0.317664  0.000000  1
  B  B4  1  0.500000  0.500000  0.797284  1
  B  B5  1  0.086933  0.413067  0.500000  1
  B  B6  1  0.586933  0.086933  0.500000  1
  B  B7  1  0.676375  0.538546  0.500000  1
  B  B8  1  0.913067  0.586933  0.500000  1
  B  B9  1  0.461454  0.676375  0.500000  1
  B  B10  1  0.000000  0.000000  0.202716  1
  B  B11  1  0.500000  0.500000  0.202716  1
  B  B12  1  0.000000  0.000000  0.797284  1
  B  B13  1  0.823625  0.038546  0.500000  1
  B  B14  1  0.413067  0.913067  0.500000  1
  B  B15  1  0.961454  0.823625  0.500000  1
  B  B16  1  0.323625  0.461454  0.500000  1
  B  B17  1  0.538546  0.323625  0.500000  1
  B  B18  1  0.038546  0.176375  0.500000  1
  B  B19  1  0.176375  0.961454  0.500000  1
