# generated using pymatgen
data_K2LaH4N5O17
_symmetry_space_group_name_H-M   'P 1'
_cell_length_a   12.56790936
_cell_length_b   12.32255387
_cell_length_c   8.46533051
_cell_angle_alpha   71.68643832
_cell_angle_beta   68.56261488
_cell_angle_gamma   39.75094680
_symmetry_Int_Tables_number   1
_chemical_formula_structural   K2LaH4N5O17
_chemical_formula_sum   'K4 La2 H8 N10 O34'
_cell_volume   779.11661845
_cell_formula_units_Z   2
loop_
 _symmetry_equiv_pos_site_id
 _symmetry_equiv_pos_as_xyz
  1  'x, y, z'
loop_
 _atom_site_type_symbol
 _atom_site_label
 _atom_site_symmetry_multiplicity
 _atom_site_fract_x
 _atom_site_fract_y
 _atom_site_fract_z
 _atom_site_occupancy
  K  K0  1  0.680589  0.523869  0.355941  1
  K  K1  1  0.355941  0.439601  0.680589  1
  K  K2  1  0.810399  0.894059  0.726131  1
  K  K3  1  0.726131  0.569411  0.810399  1
  La  La4  1  0.997697  0.002303  0.997697  1
  La  La5  1  0.247697  0.252303  0.247697  1
  H  H6  1  0.150478  0.142542  0.930443  1
  H  H7  1  0.930443  0.776538  0.150478  1
  H  H8  1  0.473462  0.319557  0.107458  1
  H  H9  1  0.107458  0.099522  0.473462  1
  H  H10  1  0.168969  0.113136  0.753619  1
  H  H11  1  0.753619  0.964275  0.168969  1
  H  H12  1  0.285725  0.496381  0.136864  1
  H  H13  1  0.136864  0.081031  0.285725  1
  N  N14  1  0.209066  0.809109  0.668991  1
  N  N15  1  0.668991  0.312834  0.209066  1
  N  N16  1  0.937166  0.581009  0.440891  1
  N  N17  1  0.440891  0.040934  0.937166  1
  N  N18  1  0.341000  0.808108  0.077580  1
  N  N19  1  0.077580  0.773312  0.341000  1
  N  N20  1  0.476688  0.172420  0.441892  1
  N  N21  1  0.441892  0.909000  0.476688  1
  N  N22  1  0.744736  0.255264  0.744736  1
  N  N23  1  0.994736  0.505264  0.994736  1
  O  O24  1  0.140128  0.956928  0.673489  1
  O  O25  1  0.673489  0.229454  0.140128  1
  O  O26  1  0.020546  0.576511  0.293072  1
  O  O27  1  0.293072  0.109872  0.020546  1
  O  O28  1  0.168039  0.754620  0.804954  1
  O  O29  1  0.804954  0.272388  0.168039  1
  O  O30  1  0.977612  0.445046  0.495380  1
  O  O31  1  0.495380  0.081961  0.977612  1
  O  O32  1  0.308486  0.724838  0.541666  1
  O  O33  1  0.541666  0.425011  0.308486  1
  O  O34  1  0.824989  0.708334  0.525162  1
  O  O35  1  0.525162  0.941514  0.824989  1
  O  O36  1  0.343644  0.771441  0.950615  1
  O  O37  1  0.950615  0.934299  0.343644  1
  O  O38  1  0.315701  0.299385  0.478559  1
  O  O39  1  0.478559  0.906356  0.315701  1
  O  O40  1  0.195016  0.928719  0.166916  1
  O  O41  1  0.166916  0.709350  0.195016  1
  O  O42  1  0.540650  0.083084  0.321281  1
  O  O43  1  0.321281  0.054984  0.540650  1
  O  O44  1  0.475115  0.730485  0.112890  1
  O  O45  1  0.112890  0.681510  0.475115  1
  O  O46  1  0.568490  0.137110  0.519514  1
  O  O47  1  0.519515  0.774885  0.568490  1
  O  O48  1  0.792723  0.116556  0.803525  1
  O  O49  1  0.803525  0.287196  0.792723  1
  O  O50  1  0.962804  0.446475  0.133444  1
  O  O51  1  0.133444  0.457277  0.962804  1
  O  O52  1  0.644584  0.355416  0.644584  1
  O  O53  1  0.894584  0.605416  0.894584  1
  O  O54  1  0.089959  0.156021  0.864862  1
  O  O55  1  0.864862  0.889158  0.089959  1
  O  O56  1  0.360842  0.385138  0.093979  1
  O  O57  1  0.093979  0.160041  0.360842  1
