# generated using pymatgen
data_SbCNCl4O
_symmetry_space_group_name_H-M   'P 1'
_cell_length_a   12.05733903
_cell_length_b   12.05733903
_cell_length_c   10.53633922
_cell_angle_alpha   90.00000000
_cell_angle_beta   90.00000000
_cell_angle_gamma   120.00000000
_symmetry_Int_Tables_number   1
_chemical_formula_structural   SbCNCl4O
_chemical_formula_sum   'Sb6 C6 N6 Cl24 O6'
_cell_volume   1326.54907538
_cell_formula_units_Z   6
loop_
 _symmetry_equiv_pos_site_id
 _symmetry_equiv_pos_as_xyz
  1  'x, y, z'
loop_
 _atom_site_type_symbol
 _atom_site_label
 _atom_site_symmetry_multiplicity
 _atom_site_fract_x
 _atom_site_fract_y
 _atom_site_fract_z
 _atom_site_occupancy
  Sb  Sb0  1  0.634114  0.952708  0.250000  1
  Sb  Sb1  1  0.318594  0.365886  0.250000  1
  Sb  Sb2  1  0.952708  0.318594  0.750000  1
  Sb  Sb3  1  0.047292  0.681406  0.250000  1
  Sb  Sb4  1  0.681406  0.634114  0.750000  1
  Sb  Sb5  1  0.365886  0.047292  0.750000  1
  C  C6  1  0.296721  0.755917  0.250000  1
  C  C7  1  0.755917  0.459196  0.750000  1
  C  C8  1  0.703279  0.244083  0.750000  1
  C  C9  1  0.459196  0.703279  0.250000  1
  C  C10  1  0.244083  0.540804  0.250000  1
  C  C11  1  0.540804  0.296721  0.750000  1
  N  N12  1  0.371677  0.577785  0.250000  1
  N  N13  1  0.793892  0.371677  0.750000  1
  N  N14  1  0.577785  0.206108  0.750000  1
  N  N15  1  0.206108  0.628323  0.250000  1
  N  N16  1  0.422215  0.793892  0.250000  1
  N  N17  1  0.628323  0.422215  0.750000  1
  Cl  Cl18  1  0.814886  0.855912  0.750000  1
  Cl  Cl19  1  0.958974  0.814886  0.250000  1
  Cl  Cl20  1  0.687240  0.620017  0.527065  1
  Cl  Cl21  1  0.855912  0.041026  0.250000  1
  Cl  Cl22  1  0.620017  0.932778  0.472935  1
  Cl  Cl23  1  0.379983  0.067222  0.972935  1
  Cl  Cl24  1  0.395159  0.869392  0.750000  1
  Cl  Cl25  1  0.312760  0.379983  0.472935  1
  Cl  Cl26  1  0.067222  0.687240  0.027065  1
  Cl  Cl27  1  0.932778  0.312760  0.527065  1
  Cl  Cl28  1  0.130608  0.525767  0.750000  1
  Cl  Cl29  1  0.604841  0.130608  0.250000  1
  Cl  Cl30  1  0.620017  0.932778  0.027065  1
  Cl  Cl31  1  0.932778  0.312760  0.972935  1
  Cl  Cl32  1  0.067222  0.687240  0.472935  1
  Cl  Cl33  1  0.379983  0.067222  0.527065  1
  Cl  Cl34  1  0.869392  0.474233  0.250000  1
  Cl  Cl35  1  0.185114  0.144088  0.250000  1
  Cl  Cl36  1  0.144088  0.958974  0.750000  1
  Cl  Cl37  1  0.687240  0.620017  0.972935  1
  Cl  Cl38  1  0.312760  0.379983  0.027065  1
  Cl  Cl39  1  0.474233  0.604841  0.750000  1
  Cl  Cl40  1  0.041026  0.185114  0.750000  1
  Cl  Cl41  1  0.525767  0.395159  0.250000  1
  O  O42  1  0.250965  0.831605  0.250000  1
  O  O43  1  0.168395  0.419359  0.250000  1
  O  O44  1  0.419359  0.250965  0.750000  1
  O  O45  1  0.580641  0.749035  0.250000  1
  O  O46  1  0.749035  0.168395  0.750000  1
  O  O47  1  0.831605  0.580641  0.750000  1
