# generated using pymatgen
data_OsF5
_symmetry_space_group_name_H-M   'P 1'
_cell_length_a   5.69757523
_cell_length_b   10.30245119
_cell_length_c   12.87873428
_cell_angle_alpha   90.00000000
_cell_angle_beta   100.21505210
_cell_angle_gamma   90.00000000
_symmetry_Int_Tables_number   1
_chemical_formula_structural   OsF5
_chemical_formula_sum   'Os8 F40'
_cell_volume   743.98588295
_cell_formula_units_Z   8
loop_
 _symmetry_equiv_pos_site_id
 _symmetry_equiv_pos_as_xyz
  1  'x, y, z'
loop_
 _atom_site_type_symbol
 _atom_site_label
 _atom_site_symmetry_multiplicity
 _atom_site_fract_x
 _atom_site_fract_y
 _atom_site_fract_z
 _atom_site_occupancy
  Os  Os0  1  0.008506  0.747813  0.000755  1
  Os  Os1  1  0.991494  0.247813  0.499245  1
  Os  Os2  1  0.991494  0.252187  0.999245  1
  Os  Os3  1  0.008506  0.752187  0.500755  1
  Os  Os4  1  0.701811  0.994679  0.800701  1
  Os  Os5  1  0.298189  0.494679  0.699299  1
  Os  Os6  1  0.298189  0.005321  0.199299  1
  Os  Os7  1  0.701811  0.505321  0.300701  1
  F  F8  1  0.814847  0.909968  0.945434  1
  F  F9  1  0.185153  0.409968  0.554566  1
  F  F10  1  0.185153  0.090032  0.054566  1
  F  F11  1  0.814847  0.590032  0.445434  1
  F  F12  1  0.911806  0.669129  0.870334  1
  F  F13  1  0.088194  0.169129  0.629666  1
  F  F14  1  0.088194  0.330871  0.129666  1
  F  F15  1  0.911806  0.830871  0.370334  1
  F  F16  1  0.610897  0.080733  0.673278  1
  F  F17  1  0.389103  0.580733  0.826722  1
  F  F18  1  0.389103  0.919267  0.326722  1
  F  F19  1  0.610897  0.419267  0.173278  1
  F  F20  1  0.532702  0.844914  0.755879  1
  F  F21  1  0.467298  0.344914  0.744121  1
  F  F22  1  0.467298  0.155086  0.244121  1
  F  F23  1  0.532702  0.655086  0.255879  1
  F  F24  1  0.187157  0.606301  0.058245  1
  F  F25  1  0.812843  0.106301  0.441755  1
  F  F26  1  0.812843  0.393699  0.941755  1
  F  F27  1  0.187157  0.893699  0.558245  1
  F  F28  1  0.099490  0.845300  0.141507  1
  F  F29  1  0.900510  0.345300  0.358493  1
  F  F30  1  0.900510  0.154700  0.858493  1
  F  F31  1  0.099490  0.654700  0.641507  1
  F  F32  1  0.274867  0.825678  0.956967  1
  F  F33  1  0.725133  0.325678  0.543033  1
  F  F34  1  0.725133  0.174322  0.043033  1
  F  F35  1  0.274867  0.674322  0.456967  1
  F  F36  1  0.443085  0.065441  0.854899  1
  F  F37  1  0.556915  0.565441  0.645101  1
  F  F38  1  0.556915  0.934559  0.145101  1
  F  F39  1  0.443085  0.434559  0.354899  1
  F  F40  1  0.980841  0.928608  0.759600  1
  F  F41  1  0.019159  0.428608  0.740400  1
  F  F42  1  0.019159  0.071392  0.240400  1
  F  F43  1  0.980841  0.571392  0.259600  1
  F  F44  1  0.735230  0.687654  0.049696  1
  F  F45  1  0.264770  0.187654  0.450304  1
  F  F46  1  0.264770  0.312346  0.950304  1
  F  F47  1  0.735230  0.812346  0.549696  1
