# generated using pymatgen
data_CsHg2
_symmetry_space_group_name_H-M   'P 1'
_cell_length_a   7.15942474
_cell_length_b   7.15942474
_cell_length_c   7.15942474
_cell_angle_alpha   132.32732325
_cell_angle_beta   102.15900824
_cell_angle_gamma   96.66184844
_symmetry_Int_Tables_number   1
_chemical_formula_structural   CsHg2
_chemical_formula_sum   'Cs2 Hg4'
_cell_volume   247.76846161
_cell_formula_units_Z   2
loop_
 _symmetry_equiv_pos_site_id
 _symmetry_equiv_pos_as_xyz
  1  'x, y, z'
loop_
 _atom_site_type_symbol
 _atom_site_label
 _atom_site_symmetry_multiplicity
 _atom_site_fract_x
 _atom_site_fract_y
 _atom_site_fract_z
 _atom_site_occupancy
  Cs  Cs0  1  0.189984  0.939984  0.750000  1
  Cs  Cs1  1  0.810016  0.060016  0.250000  1
  Hg  Hg2  1  0.237875  0.665892  0.071982  1
  Hg  Hg3  1  0.762125  0.334108  0.928018  1
  Hg  Hg4  1  0.593910  0.665892  0.428018  1
  Hg  Hg5  1  0.406090  0.334108  0.571982  1
