# generated using pymatgen
data_Ce4MnSe6O
_symmetry_space_group_name_H-M   'P 1'
_cell_length_a   9.66467236
_cell_length_b   9.66467236
_cell_length_c   7.06773999
_cell_angle_alpha   90.00000000
_cell_angle_beta   90.00000000
_cell_angle_gamma   120.00000000
_symmetry_Int_Tables_number   1
_chemical_formula_structural   Ce4MnSe6O
_chemical_formula_sum   'Ce8 Mn2 Se12 O2'
_cell_volume   571.72274121
_cell_formula_units_Z   2
loop_
 _symmetry_equiv_pos_site_id
 _symmetry_equiv_pos_as_xyz
  1  'x, y, z'
loop_
 _atom_site_type_symbol
 _atom_site_label
 _atom_site_symmetry_multiplicity
 _atom_site_fract_x
 _atom_site_fract_y
 _atom_site_fract_z
 _atom_site_occupancy
  Ce  Ce0  1  0.666667  0.333333  0.709934  1
  Ce  Ce1  1  0.596634  0.798317  0.658996  1
  Ce  Ce2  1  0.798317  0.201683  0.158996  1
  Ce  Ce3  1  0.403366  0.201683  0.158996  1
  Ce  Ce4  1  0.798317  0.596634  0.158996  1
  Ce  Ce5  1  0.333333  0.666667  0.209934  1
  Ce  Ce6  1  0.201683  0.403366  0.658996  1
  Ce  Ce7  1  0.201683  0.798317  0.658996  1
  Mn  Mn8  1  0.000000  0.000000  0.995899  1
  Mn  Mn9  1  0.000000  0.000000  0.495899  1
  Se  Se10  1  0.127709  0.872291  0.261675  1
  Se  Se11  1  0.127709  0.255417  0.261675  1
  Se  Se12  1  0.872291  0.127709  0.761675  1
  Se  Se13  1  0.529517  0.470483  0.445372  1
  Se  Se14  1  0.059034  0.529517  0.945372  1
  Se  Se15  1  0.255417  0.127709  0.761675  1
  Se  Se16  1  0.470483  0.529517  0.945372  1
  Se  Se17  1  0.470483  0.940966  0.945372  1
  Se  Se18  1  0.744583  0.872291  0.261675  1
  Se  Se19  1  0.872291  0.744583  0.761675  1
  Se  Se20  1  0.940966  0.470483  0.445372  1
  Se  Se21  1  0.529517  0.059034  0.445372  1
  O  O22  1  0.666667  0.333333  0.048702  1
  O  O23  1  0.333333  0.666667  0.548702  1
