# generated using pymatgen
data_La3SiPd5
_symmetry_space_group_name_H-M   'P 1'
_cell_length_a   8.54081713
_cell_length_b   8.54081713
_cell_length_c   8.54081713
_cell_angle_alpha   127.51361923
_cell_angle_beta   126.35937815
_cell_angle_gamma   78.35787488
_symmetry_Int_Tables_number   1
_chemical_formula_structural   La3SiPd5
_chemical_formula_sum   'La6 Si2 Pd10'
_cell_volume   385.41038456
_cell_formula_units_Z   2
loop_
 _symmetry_equiv_pos_site_id
 _symmetry_equiv_pos_as_xyz
  1  'x, y, z'
loop_
 _atom_site_type_symbol
 _atom_site_label
 _atom_site_symmetry_multiplicity
 _atom_site_fract_x
 _atom_site_fract_y
 _atom_site_fract_z
 _atom_site_occupancy
  La  La0  1  0.278820  0.548837  0.229982  1
  La  La1  1  0.681145  0.951163  0.229982  1
  La  La2  1  0.721180  0.451163  0.770018  1
  La  La3  1  0.113993  0.750000  0.863993  1
  La  La4  1  0.318855  0.048837  0.770018  1
  La  La5  1  0.886007  0.250000  0.136007  1
  Si  Si6  1  0.289814  0.250000  0.539814  1
  Si  Si7  1  0.710187  0.750000  0.460187  1
  Pd  Pd8  1  0.953948  0.089265  0.760834  1
  Pd  Pd9  1  0.671569  0.806886  0.760834  1
  Pd  Pd10  1  0.328431  0.589265  0.635317  1
  Pd  Pd11  1  0.953948  0.693114  0.364683  1
  Pd  Pd12  1  0.046052  0.910735  0.239166  1
  Pd  Pd13  1  0.328431  0.193114  0.239166  1
  Pd  Pd14  1  0.671569  0.410735  0.364683  1
  Pd  Pd15  1  0.046052  0.306886  0.635317  1
  Pd  Pd16  1  0.500000  0.500000  0.000000  1
  Pd  Pd17  1  0.500000  1.000000  0.500000  1
