# generated using pymatgen
data_KBi(WO4)2
_symmetry_space_group_name_H-M   'P 1'
_cell_length_a   7.78853175
_cell_length_b   7.78853175
_cell_length_c   7.53203144
_cell_angle_alpha   62.27824608
_cell_angle_beta   117.72175392
_cell_angle_gamma   91.10623994
_symmetry_Int_Tables_number   1
_chemical_formula_structural   KBi(WO4)2
_chemical_formula_sum   'K2 Bi2 W4 O16'
_cell_volume   346.52391376
_cell_formula_units_Z   2
loop_
 _symmetry_equiv_pos_site_id
 _symmetry_equiv_pos_as_xyz
  1  'x, y, z'
loop_
 _atom_site_type_symbol
 _atom_site_label
 _atom_site_symmetry_multiplicity
 _atom_site_fract_x
 _atom_site_fract_y
 _atom_site_fract_z
 _atom_site_occupancy
  K  K0  1  0.713324  0.713324  0.250000  1
  K  K1  1  0.286676  0.286676  0.750000  1
  Bi  Bi2  1  0.719737  0.719737  0.750000  1
  Bi  Bi3  1  0.280263  0.280263  0.250000  1
  W  W4  1  0.801034  0.189765  0.785962  1
  W  W5  1  0.810235  0.198966  0.285962  1
  W  W6  1  0.189765  0.801034  0.714038  1
  W  W7  1  0.198966  0.810235  0.214038  1
  O  O8  1  0.726998  0.456648  0.683863  1
  O  O9  1  0.456648  0.726998  0.816137  1
  O  O10  1  0.273002  0.543352  0.316137  1
  O  O11  1  0.543352  0.273002  0.183863  1
  O  O12  1  0.559834  0.134258  0.633667  1
  O  O13  1  0.134258  0.559834  0.866333  1
  O  O14  1  0.440166  0.865742  0.366333  1
  O  O15  1  0.865742  0.440166  0.133667  1
  O  O16  1  0.754014  0.130023  0.057123  1
  O  O17  1  0.130023  0.754014  0.442877  1
  O  O18  1  0.245986  0.869977  0.942877  1
  O  O19  1  0.869977  0.245986  0.557123  1
  O  O20  1  0.124406  0.092317  0.471894  1
  O  O21  1  0.092317  0.124406  0.028106  1
  O  O22  1  0.875594  0.907683  0.528106  1
  O  O23  1  0.907683  0.875594  0.971894  1
