# generated using pymatgen
data_SiO2
_symmetry_space_group_name_H-M   'P 1'
_cell_length_a   18.88696398
_cell_length_b   18.88696398
_cell_length_c   18.88696398
_cell_angle_alpha   148.06054310
_cell_angle_beta   148.06054310
_cell_angle_gamma   45.79599995
_symmetry_Int_Tables_number   1
_chemical_formula_structural   SiO2
_chemical_formula_sum   'Si32 O64'
_cell_volume   1879.20451665
_cell_formula_units_Z   32
loop_
 _symmetry_equiv_pos_site_id
 _symmetry_equiv_pos_as_xyz
  1  'x, y, z'
loop_
 _atom_site_type_symbol
 _atom_site_label
 _atom_site_symmetry_multiplicity
 _atom_site_fract_x
 _atom_site_fract_y
 _atom_site_fract_z
 _atom_site_occupancy
  Si  Si0  1  0.687316  0.840542  0.846774  1
  Si  Si1  1  0.993768  0.840542  0.153226  1
  Si  Si2  1  0.156648  0.125000  0.531648  1
  Si  Si3  1  0.156648  0.625000  0.031648  1
  Si  Si4  1  0.590542  0.243768  0.653226  1
  Si  Si5  1  0.042391  0.756732  0.285659  1
  Si  Si6  1  0.243268  0.957609  0.714341  1
  Si  Si7  1  0.221630  0.570369  0.651260  1
  Si  Si8  1  0.278927  0.493268  0.785659  1
  Si  Si9  1  0.506732  0.721073  0.214341  1
  Si  Si10  1  0.875000  0.843352  0.468352  1
  Si  Si11  1  0.919109  0.570369  0.348740  1
  Si  Si12  1  0.429631  0.080891  0.651260  1
  Si  Si13  1  0.506732  0.292391  0.785659  1
  Si  Si14  1  0.062684  0.409458  0.653226  1
  Si  Si15  1  0.159458  0.006232  0.846774  1
  Si  Si16  1  0.593352  0.125000  0.968352  1
  Si  Si17  1  0.830891  0.679631  0.151260  1
  Si  Si18  1  0.590542  0.937316  0.346774  1
  Si  Si19  1  0.320369  0.471630  0.151260  1
  Si  Si20  1  0.159458  0.312684  0.153226  1
  Si  Si21  1  0.707609  0.493268  0.214341  1
  Si  Si22  1  0.429631  0.778370  0.348740  1
  Si  Si23  1  0.756232  0.409458  0.346774  1
  Si  Si24  1  0.471073  0.756732  0.714341  1
  Si  Si25  1  0.243268  0.528927  0.285659  1
  Si  Si26  1  0.528370  0.679631  0.848740  1
  Si  Si27  1  0.375000  0.406648  0.531648  1
  Si  Si28  1  0.375000  0.843352  0.968352  1
  Si  Si29  1  0.593352  0.625000  0.468352  1
  Si  Si30  1  0.875000  0.406648  0.031648  1
  Si  Si31  1  0.320369  0.169109  0.848740  1
  O  O32  1  0.442824  0.533909  0.652332  1
  O  O33  1  0.674052  0.992590  0.936383  1
  O  O34  1  0.283909  0.692824  0.152332  1
  O  O35  1  0.121919  0.621919  0.243839  1
  O  O36  1  0.307176  0.716091  0.847668  1
  O  O37  1  0.075948  0.257410  0.563617  1
  O  O38  1  0.540492  0.692824  0.408915  1
  O  O39  1  0.418264  0.918264  0.500000  1
  O  O40  1  0.628081  0.371919  0.000000  1
  O  O41  1  0.028492  0.799827  0.228664  1
  O  O42  1  0.832599  0.832599  0.000000  1
  O  O43  1  0.571163  0.799827  0.771336  1
  O  O44  1  0.200173  0.428837  0.228664  1
  O  O45  1  0.273911  0.106861  0.832951  1
  O  O46  1  0.190960  0.523911  0.667049  1
  O  O47  1  0.628081  0.628081  0.256161  1
  O  O48  1  0.442824  0.790492  0.908915  1
  O  O49  1  0.917401  0.417401  0.500000  1
  O  O50  1  0.178837  0.450173  0.728664  1
  O  O51  1  0.209508  0.118423  0.652332  1
  O  O52  1  0.307176  0.459509  0.591085  1
  O  O53  1  0.200173  0.971508  0.771336  1
  O  O54  1  0.121919  0.878081  0.500000  1
  O  O55  1  0.881577  0.533909  0.091085  1
  O  O56  1  0.487669  0.306207  0.563617  1
  O  O57  1  0.868423  0.716091  0.408915  1
  O  O58  1  0.262331  0.325948  0.318538  1
  O  O59  1  0.167401  0.167401  0.000000  1
  O  O60  1  0.378081  0.878081  0.756161  1
  O  O61  1  0.856861  0.523911  0.332951  1
  O  O62  1  0.693793  0.257410  0.181462  1
  O  O63  1  0.549827  0.278492  0.728664  1
  O  O64  1  0.549827  0.821163  0.271336  1
  O  O65  1  0.075948  0.512331  0.818538  1
  O  O66  1  0.893139  0.726089  0.167049  1
  O  O67  1  0.582599  0.082599  0.500000  1
  O  O68  1  0.868423  0.459508  0.152332  1
  O  O69  1  0.331736  0.331736  0.000000  1
  O  O70  1  0.007410  0.943793  0.681462  1
  O  O71  1  0.487669  0.924052  0.181462  1
  O  O72  1  0.273911  0.440960  0.167049  1
  O  O73  1  0.056207  0.737669  0.063617  1
  O  O74  1  0.693793  0.512331  0.436383  1
  O  O75  1  0.262331  0.943793  0.936383  1
  O  O76  1  0.056207  0.992590  0.318538  1
  O  O77  1  0.371919  0.371919  0.743839  1
  O  O78  1  0.209508  0.557176  0.091085  1
  O  O79  1  0.742590  0.306207  0.818538  1
  O  O80  1  0.674052  0.737669  0.681462  1
  O  O81  1  0.742590  0.924052  0.436383  1
  O  O82  1  0.371919  0.628081  0.000000  1
  O  O83  1  0.466091  0.118423  0.908915  1
  O  O84  1  0.476089  0.143139  0.667049  1
  O  O85  1  0.721508  0.450173  0.271336  1
  O  O86  1  0.559040  0.726089  0.832951  1
  O  O87  1  0.081736  0.581736  0.500000  1
  O  O88  1  0.283909  0.131577  0.591085  1
  O  O89  1  0.007410  0.325948  0.063617  1
  O  O90  1  0.378081  0.621919  0.500000  1
  O  O91  1  0.476089  0.809040  0.332951  1
  O  O92  1  0.540492  0.131577  0.847668  1
  O  O93  1  0.466091  0.557176  0.347668  1
  O  O94  1  0.881577  0.790492  0.347668  1
  O  O95  1  0.668264  0.668264  0.000000  1
