# generated using pymatgen
data_Yb8Tl3
_symmetry_space_group_name_H-M   'P 1'
_cell_length_a   9.54435093
_cell_length_b   9.57750841
_cell_length_c   9.66734071
_cell_angle_alpha   98.89030560
_cell_angle_beta   101.19613326
_cell_angle_gamma   119.76464667
_symmetry_Int_Tables_number   1
_chemical_formula_structural   Yb8Tl3
_chemical_formula_sum   'Yb16 Tl6'
_cell_volume   719.10257410
_cell_formula_units_Z   2
loop_
 _symmetry_equiv_pos_site_id
 _symmetry_equiv_pos_as_xyz
  1  'x, y, z'
loop_
 _atom_site_type_symbol
 _atom_site_label
 _atom_site_symmetry_multiplicity
 _atom_site_fract_x
 _atom_site_fract_y
 _atom_site_fract_z
 _atom_site_occupancy
  Yb  Yb0  1  0.121992  0.100032  0.354713  1
  Yb  Yb1  1  0.297609  0.002614  0.887258  1
  Yb  Yb2  1  0.959209  0.560561  0.670474  1
  Yb  Yb3  1  0.330554  0.380047  0.112943  1
  Yb  Yb4  1  0.540394  0.207679  0.293988  1
  Yb  Yb5  1  0.669446  0.619953  0.887057  1
  Yb  Yb6  1  0.878008  0.899968  0.645287  1
  Yb  Yb7  1  0.918783  0.268033  0.891694  1
  Yb  Yb8  1  0.228216  0.346849  0.705191  1
  Yb  Yb9  1  0.040791  0.439439  0.329526  1
  Yb  Yb10  1  0.459606  0.792321  0.706012  1
  Yb  Yb11  1  0.771784  0.653151  0.294809  1
  Yb  Yb12  1  0.531500  0.201406  0.648877  1
  Yb  Yb13  1  0.081217  0.731967  0.108306  1
  Yb  Yb14  1  0.468500  0.798594  0.351123  1
  Yb  Yb15  1  0.702391  0.997386  0.112742  1
  Tl  Tl16  1  0.675349  0.338058  0.024568  1
  Tl  Tl17  1  0.827797  0.162774  0.499819  1
  Tl  Tl18  1  0.324651  0.661942  0.975432  1
  Tl  Tl19  1  0.000000  0.000000  0.000000  1
  Tl  Tl20  1  0.172203  0.837226  0.500181  1
  Tl  Tl21  1  0.500000  0.500000  0.500000  1
