# generated using pymatgen
data_NiSnF6
_symmetry_space_group_name_H-M   'P 1'
_cell_length_a   5.54645287
_cell_length_b   5.54645287
_cell_length_c   5.54645287
_cell_angle_alpha   56.07026943
_cell_angle_beta   56.07026943
_cell_angle_gamma   56.07026943
_symmetry_Int_Tables_number   1
_chemical_formula_structural   NiSnF6
_chemical_formula_sum   'Ni1 Sn1 F6'
_cell_volume   109.67040577
_cell_formula_units_Z   1
loop_
 _symmetry_equiv_pos_site_id
 _symmetry_equiv_pos_as_xyz
  1  'x, y, z'
loop_
 _atom_site_type_symbol
 _atom_site_label
 _atom_site_symmetry_multiplicity
 _atom_site_fract_x
 _atom_site_fract_y
 _atom_site_fract_z
 _atom_site_occupancy
  Ni  Ni0  1  0.500000  0.500000  0.500000  1
  Sn  Sn1  1  0.000000  0.000000  0.000000  1
  F  F2  1  0.122204  0.374884  0.751006  1
  F  F3  1  0.374884  0.751006  0.122204  1
  F  F4  1  0.248994  0.877796  0.625116  1
  F  F5  1  0.625116  0.248994  0.877796  1
  F  F6  1  0.877796  0.625116  0.248994  1
  F  F7  1  0.751006  0.122204  0.374884  1
