# generated using pymatgen
data_P2RhClF6
_symmetry_space_group_name_H-M   'P 1'
_cell_length_a   10.70566862
_cell_length_b   10.17607291
_cell_length_c   15.10944531
_cell_angle_alpha   90.00000000
_cell_angle_beta   113.19646724
_cell_angle_gamma   90.00000000
_symmetry_Int_Tables_number   1
_chemical_formula_structural   P2RhClF6
_chemical_formula_sum   'P16 Rh8 Cl8 F48'
_cell_volume   1512.98097748
_cell_formula_units_Z   8
loop_
 _symmetry_equiv_pos_site_id
 _symmetry_equiv_pos_as_xyz
  1  'x, y, z'
loop_
 _atom_site_type_symbol
 _atom_site_label
 _atom_site_symmetry_multiplicity
 _atom_site_fract_x
 _atom_site_fract_y
 _atom_site_fract_z
 _atom_site_occupancy
  P  P0  1  0.020772  0.242129  0.047949  1
  P  P1  1  0.618971  0.061118  0.700203  1
  P  P2  1  0.457317  0.723499  0.467184  1
  P  P3  1  0.100048  0.037113  0.708314  1
  P  P4  1  0.020772  0.257871  0.547949  1
  P  P5  1  0.618971  0.438882  0.200203  1
  P  P6  1  0.100048  0.462887  0.208314  1
  P  P7  1  0.542683  0.276501  0.532816  1
  P  P8  1  0.979228  0.757871  0.952051  1
  P  P9  1  0.899952  0.962887  0.291686  1
  P  P10  1  0.542683  0.223499  0.032816  1
  P  P11  1  0.979228  0.742129  0.452051  1
  P  P12  1  0.899952  0.537113  0.791686  1
  P  P13  1  0.381029  0.938882  0.299797  1
  P  P14  1  0.381029  0.561118  0.799797  1
  P  P15  1  0.457317  0.776501  0.967184  1
  Rh  Rh16  1  0.647694  0.091188  0.568319  1
  Rh  Rh17  1  0.066783  0.579174  0.925983  1
  Rh  Rh18  1  0.933217  0.079174  0.574017  1
  Rh  Rh19  1  0.066783  0.920826  0.425983  1
  Rh  Rh20  1  0.352306  0.591188  0.931681  1
  Rh  Rh21  1  0.352306  0.908812  0.431681  1
  Rh  Rh22  1  0.933217  0.420826  0.074017  1
  Rh  Rh23  1  0.647694  0.408812  0.068319  1
  Cl  Cl24  1  0.722813  0.376361  0.938864  1
  Cl  Cl25  1  0.277187  0.623639  0.061136  1
  Cl  Cl26  1  0.800658  0.593623  0.105245  1
  Cl  Cl27  1  0.199342  0.093623  0.394755  1
  Cl  Cl28  1  0.199342  0.406377  0.894755  1
  Cl  Cl29  1  0.277187  0.876361  0.561136  1
  Cl  Cl30  1  0.800658  0.906377  0.605245  1
  Cl  Cl31  1  0.722813  0.123639  0.438864  1
  F  F32  1  0.363519  0.902434  0.945208  1
  F  F33  1  0.990138  0.298292  0.441057  1
  F  F34  1  0.558371  0.674755  0.421819  1
  F  F35  1  0.822185  0.786041  0.906306  1
  F  F36  1  0.971358  0.111536  0.080327  1
  F  F37  1  0.752249  0.590732  0.766407  1
  F  F38  1  0.971358  0.388464  0.580327  1
  F  F39  1  0.408512  0.417432  0.773106  1
  F  F40  1  0.822185  0.713959  0.406306  1
  F  F41  1  0.009862  0.798292  0.058943  1
  F  F42  1  0.546340  0.693159  0.576180  1
  F  F43  1  0.441629  0.174755  0.078181  1
  F  F44  1  0.492248  0.863887  0.275947  1
  F  F45  1  0.752249  0.909268  0.266407  1
  F  F46  1  0.546340  0.806841  0.076180  1
  F  F47  1  0.636481  0.097566  0.054792  1
  F  F48  1  0.558371  0.825245  0.921819  1
  F  F49  1  0.177815  0.286041  0.593694  1
  F  F50  1  0.247751  0.090732  0.733593  1
  F  F51  1  0.636481  0.402434  0.554792  1
  F  F52  1  0.082780  0.417008  0.302331  1
  F  F53  1  0.135794  0.888425  0.736169  1
  F  F54  1  0.028642  0.888464  0.919673  1
  F  F55  1  0.591488  0.917432  0.726894  1
  F  F56  1  0.864206  0.111575  0.263831  1
  F  F57  1  0.441629  0.325245  0.578181  1
  F  F58  1  0.864206  0.388425  0.763831  1
  F  F59  1  0.009862  0.701708  0.558943  1
  F  F60  1  0.917220  0.582992  0.697669  1
  F  F61  1  0.507752  0.136113  0.724053  1
  F  F62  1  0.453660  0.193159  0.923820  1
  F  F63  1  0.254456  0.592916  0.704177  1
  F  F64  1  0.507752  0.363887  0.224053  1
  F  F65  1  0.745544  0.092916  0.795823  1
  F  F66  1  0.247751  0.409268  0.233593  1
  F  F67  1  0.745544  0.407084  0.295823  1
  F  F68  1  0.917220  0.917008  0.197669  1
  F  F69  1  0.408512  0.082568  0.273106  1
  F  F70  1  0.254456  0.907084  0.204177  1
  F  F71  1  0.591488  0.582568  0.226894  1
  F  F72  1  0.177815  0.213959  0.093694  1
  F  F73  1  0.028642  0.611536  0.419673  1
  F  F74  1  0.990138  0.201708  0.941057  1
  F  F75  1  0.135794  0.611575  0.236169  1
  F  F76  1  0.082780  0.082992  0.802331  1
  F  F77  1  0.453660  0.306841  0.423820  1
  F  F78  1  0.363519  0.597566  0.445208  1
  F  F79  1  0.492248  0.636113  0.775947  1
