# generated using pymatgen
data_Yb2Co12P7
_symmetry_space_group_name_H-M   'P 1'
_cell_length_a   8.99756034
_cell_length_b   8.99756034
_cell_length_c   3.55247467
_cell_angle_alpha   90.00000000
_cell_angle_beta   90.00000000
_cell_angle_gamma   120.00000000
_symmetry_Int_Tables_number   1
_chemical_formula_structural   Yb2Co12P7
_chemical_formula_sum   'Yb2 Co12 P7'
_cell_volume   249.06411403
_cell_formula_units_Z   1
loop_
 _symmetry_equiv_pos_site_id
 _symmetry_equiv_pos_as_xyz
  1  'x, y, z'
loop_
 _atom_site_type_symbol
 _atom_site_label
 _atom_site_symmetry_multiplicity
 _atom_site_fract_x
 _atom_site_fract_y
 _atom_site_fract_z
 _atom_site_occupancy
  Yb  Yb0  1  0.666667  0.333333  0.500000  1
  Yb  Yb1  1  0.333333  0.666667  0.000000  1
  Co  Co2  1  0.727214  0.880215  0.000000  1
  Co  Co3  1  0.940956  0.376245  0.000000  1
  Co  Co4  1  0.235667  0.103541  0.500000  1
  Co  Co5  1  0.896459  0.132126  0.500000  1
  Co  Co6  1  0.153001  0.272786  0.000000  1
  Co  Co7  1  0.382685  0.435458  0.500000  1
  Co  Co8  1  0.119785  0.846999  0.000000  1
  Co  Co9  1  0.435289  0.059044  0.000000  1
  Co  Co10  1  0.052773  0.617315  0.500000  1
  Co  Co11  1  0.564542  0.947227  0.500000  1
  Co  Co12  1  0.623755  0.564711  0.000000  1
  Co  Co13  1  0.867874  0.764333  0.500000  1
  P  P14  1  0.405815  0.292540  0.000000  1
  P  P15  1  0.291753  0.889319  0.500000  1
  P  P16  1  0.707460  0.113275  0.000000  1
  P  P17  1  0.597567  0.708247  0.500000  1
  P  P18  1  0.886725  0.594185  0.000000  1
  P  P19  1  0.110681  0.402433  0.500000  1
  P  P20  1  0.000000  0.000000  0.000000  1
