# generated using pymatgen
data_Cs2I4O11
_symmetry_space_group_name_H-M   'P 1'
_cell_length_a   13.04489233
_cell_length_b   7.60894018
_cell_length_c   16.40679514
_cell_angle_alpha   90.00000000
_cell_angle_beta   122.14342059
_cell_angle_gamma   90.00000000
_symmetry_Int_Tables_number   1
_chemical_formula_structural   Cs2I4O11
_chemical_formula_sum   'Cs8 I16 O44'
_cell_volume   1378.88393667
_cell_formula_units_Z   4
loop_
 _symmetry_equiv_pos_site_id
 _symmetry_equiv_pos_as_xyz
  1  'x, y, z'
loop_
 _atom_site_type_symbol
 _atom_site_label
 _atom_site_symmetry_multiplicity
 _atom_site_fract_x
 _atom_site_fract_y
 _atom_site_fract_z
 _atom_site_occupancy
  Cs  Cs0  1  0.375252  0.754852  0.939419  1
  Cs  Cs1  1  0.129233  0.752663  0.570182  1
  Cs  Cs2  1  0.870767  0.247337  0.429818  1
  Cs  Cs3  1  0.624748  0.254852  0.560581  1
  Cs  Cs4  1  0.375252  0.745148  0.439419  1
  Cs  Cs5  1  0.129233  0.747337  0.070182  1
  Cs  Cs6  1  0.870767  0.252663  0.929818  1
  Cs  Cs7  1  0.624748  0.245148  0.060581  1
  I  I8  1  0.731825  0.726006  0.730832  1
  I  I9  1  0.229534  0.220135  0.005637  1
  I  I10  1  0.004466  0.964050  0.262456  1
  I  I11  1  0.493743  0.018816  0.266622  1
  I  I12  1  0.995534  0.035950  0.737544  1
  I  I13  1  0.229534  0.279865  0.505637  1
  I  I14  1  0.493743  0.481184  0.766622  1
  I  I15  1  0.004466  0.535950  0.762456  1
  I  I16  1  0.268175  0.273994  0.269168  1
  I  I17  1  0.995534  0.464050  0.237544  1
  I  I18  1  0.268175  0.226006  0.769168  1
  I  I19  1  0.506257  0.518816  0.233378  1
  I  I20  1  0.731825  0.773994  0.230832  1
  I  I21  1  0.506257  0.981184  0.733378  1
  I  I22  1  0.770466  0.720135  0.494363  1
  I  I23  1  0.770466  0.779865  0.994363  1
  O  O24  1  0.104892  0.966648  0.392902  1
  O  O25  1  0.389671  0.884172  0.747751  1
  O  O26  1  0.659052  0.820006  0.102902  1
  O  O27  1  0.087840  0.253613  0.245166  1
  O  O28  1  0.912160  0.753613  0.254834  1
  O  O29  1  0.340948  0.179994  0.897098  1
  O  O30  1  0.440088  0.254801  0.280695  1
  O  O31  1  0.264263  0.035337  0.266353  1
  O  O32  1  0.610329  0.384172  0.752249  1
  O  O33  1  0.101548  0.077827  0.922484  1
  O  O34  1  0.895108  0.466648  0.107098  1
  O  O35  1  0.559912  0.745199  0.719305  1
  O  O36  1  0.885606  0.113863  0.245487  1
  O  O37  1  0.264263  0.464663  0.766353  1
  O  O38  1  0.087840  0.246387  0.745166  1
  O  O39  1  0.898452  0.922173  0.077516  1
  O  O40  1  0.912160  0.746387  0.754834  1
  O  O41  1  0.828502  0.790767  0.419136  1
  O  O42  1  0.336048  0.045715  0.080214  1
  O  O43  1  0.171498  0.209233  0.580864  1
  O  O44  1  0.114394  0.613863  0.254513  1
  O  O45  1  0.663952  0.545715  0.419786  1
  O  O46  1  0.898452  0.577827  0.577516  1
  O  O47  1  0.114394  0.886137  0.754513  1
  O  O48  1  0.559912  0.754801  0.219305  1
  O  O49  1  0.171498  0.290767  0.080864  1
  O  O50  1  0.895108  0.033352  0.607098  1
  O  O51  1  0.663952  0.954285  0.919786  1
  O  O52  1  0.735737  0.535337  0.233647  1
  O  O53  1  0.340948  0.320006  0.397098  1
  O  O54  1  0.885606  0.386137  0.745487  1
  O  O55  1  0.578436  0.532068  0.894841  1
  O  O56  1  0.610329  0.115828  0.252249  1
  O  O57  1  0.101548  0.422173  0.422484  1
  O  O58  1  0.421564  0.032068  0.605159  1
  O  O59  1  0.104892  0.533352  0.892902  1
  O  O60  1  0.389671  0.615828  0.247751  1
  O  O61  1  0.659052  0.679994  0.602902  1
  O  O62  1  0.440088  0.245199  0.780695  1
  O  O63  1  0.828502  0.709233  0.919136  1
  O  O64  1  0.421564  0.467932  0.105159  1
  O  O65  1  0.336048  0.454285  0.580214  1
  O  O66  1  0.578436  0.967932  0.394841  1
  O  O67  1  0.735737  0.964663  0.733647  1
