# generated using pymatgen
data_SiC
_symmetry_space_group_name_H-M   'P 1'
_cell_length_a   3.09416318
_cell_length_b   3.09416318
_cell_length_c   98.70974130
_cell_angle_alpha   90.00000000
_cell_angle_beta   90.00000000
_cell_angle_gamma   120.00000000
_symmetry_Int_Tables_number   1
_chemical_formula_structural   SiC
_chemical_formula_sum   'Si39 C39'
_cell_volume   818.42157979
_cell_formula_units_Z   39
loop_
 _symmetry_equiv_pos_site_id
 _symmetry_equiv_pos_as_xyz
  1  'x, y, z'
loop_
 _atom_site_type_symbol
 _atom_site_label
 _atom_site_symmetry_multiplicity
 _atom_site_fract_x
 _atom_site_fract_y
 _atom_site_fract_z
 _atom_site_occupancy
  Si  Si0  1  0.333333  0.666667  0.179493  1
  Si  Si1  1  0.000000  0.000000  0.794844  1
  Si  Si2  1  0.333333  0.666667  0.615387  1
  Si  Si3  1  0.666667  0.333333  0.461541  1
  Si  Si4  1  0.333333  0.666667  0.974351  1
  Si  Si5  1  0.333333  0.666667  0.769227  1
  Si  Si6  1  0.000000  0.000000  0.538465  1
  Si  Si7  1  0.333333  0.666667  0.564091  1
  Si  Si8  1  0.333333  0.666667  0.923069  1
  Si  Si9  1  0.000000  0.000000  0.153841  1
  Si  Si10  1  0.666667  0.333333  0.051259  1
  Si  Si11  1  0.000000  0.000000  0.897443  1
  Si  Si12  1  0.666667  0.333333  0.410247  1
  Si  Si13  1  0.333333  0.666667  0.333332  1
  Si  Si14  1  0.333333  0.666667  0.435885  1
  Si  Si15  1  0.000000  0.000000  0.846136  1
  Si  Si16  1  0.333333  0.666667  0.512796  1
  Si  Si17  1  0.666667  0.333333  0.820503  1
  Si  Si18  1  0.000000  0.000000  0.487155  1
  Si  Si19  1  0.666667  0.333333  0.589732  1
  Si  Si20  1  0.000000  0.000000  0.692313  1
  Si  Si21  1  0.666667  0.333333  0.256408  1
  Si  Si22  1  0.666667  0.333333  0.743581  1
  Si  Si23  1  0.666667  0.333333  0.205106  1
  Si  Si24  1  0.333333  0.666667  0.717930  1
  Si  Si25  1  0.333333  0.666667  0.025643  1
  Si  Si26  1  0.000000  0.000000  0.230763  1
  Si  Si27  1  0.000000  0.000000  0.641006  1
  Si  Si28  1  0.333333  0.666667  0.128183  1
  Si  Si29  1  0.333333  0.666667  0.871769  1
  Si  Si30  1  0.000000  0.000000  0.076910  1
  Si  Si31  1  0.666667  0.333333  0.358948  1
  Si  Si32  1  0.000000  0.000000  0.307680  1
  Si  Si33  1  0.666667  0.333333  0.102560  1
  Si  Si34  1  0.000000  0.000000  0.999991  1
  Si  Si35  1  0.666667  0.333333  0.666661  1
  Si  Si36  1  0.666667  0.333333  0.948712  1
  Si  Si37  1  0.000000  0.000000  0.384612  1
  Si  Si38  1  0.333333  0.666667  0.282018  1
  C  C39  1  0.000000  0.000000  0.403897  1
  C  C40  1  0.000000  0.000000  0.660236  1
  C  C41  1  0.000000  0.000000  0.326961  1
  C  C42  1  0.666667  0.333333  0.429461  1
  C  C43  1  0.666667  0.333333  0.609023  1
  C  C44  1  0.333333  0.666667  0.198724  1
  C  C45  1  0.000000  0.000000  0.916713  1
  C  C46  1  0.000000  0.000000  0.865351  1
  C  C47  1  0.000000  0.000000  0.019274  1
  C  C48  1  0.333333  0.666667  0.455182  1
  C  C49  1  0.333333  0.666667  0.737163  1
  C  C50  1  0.333333  0.666667  0.788472  1
  C  C51  1  0.333333  0.666667  0.147417  1
  C  C52  1  0.333333  0.666667  0.044870  1
  C  C53  1  0.666667  0.333333  0.839786  1
  C  C54  1  0.666667  0.333333  0.121802  1
  C  C55  1  0.333333  0.666667  0.352567  1
  C  C56  1  0.666667  0.333333  0.762865  1
  C  C57  1  0.666667  0.333333  0.275643  1
  C  C58  1  0.666667  0.333333  0.967995  1
  C  C59  1  0.000000  0.000000  0.814079  1
  C  C60  1  0.000000  0.000000  0.711540  1
  C  C61  1  0.000000  0.000000  0.557733  1
  C  C62  1  0.333333  0.666667  0.942284  1
  C  C63  1  0.666667  0.333333  0.378185  1
  C  C64  1  0.000000  0.000000  0.506389  1
  C  C65  1  0.333333  0.666667  0.891043  1
  C  C66  1  0.333333  0.666667  0.301259  1
  C  C67  1  0.666667  0.333333  0.224339  1
  C  C68  1  0.666667  0.333333  0.685944  1
  C  C69  1  0.000000  0.000000  0.173128  1
  C  C70  1  0.333333  0.666667  0.993561  1
  C  C71  1  0.666667  0.333333  0.480776  1
  C  C72  1  0.333333  0.666667  0.532063  1
  C  C73  1  0.333333  0.666667  0.583304  1
  C  C74  1  0.666667  0.333333  0.070493  1
  C  C75  1  0.000000  0.000000  0.096195  1
  C  C76  1  0.333333  0.666667  0.634622  1
  C  C77  1  0.000000  0.000000  0.250047  1
