# generated using pymatgen
data_K2Na3SiP3
_symmetry_space_group_name_H-M   'P 1'
_cell_length_a   4.80082240
_cell_length_b   13.22247543
_cell_length_c   14.66371548
_cell_angle_alpha   90.00000000
_cell_angle_beta   90.00000000
_cell_angle_gamma   90.00000000
_symmetry_Int_Tables_number   1
_chemical_formula_structural   K2Na3SiP3
_chemical_formula_sum   'K8 Na12 Si4 P12'
_cell_volume   930.83442035
_cell_formula_units_Z   4
loop_
 _symmetry_equiv_pos_site_id
 _symmetry_equiv_pos_as_xyz
  1  'x, y, z'
loop_
 _atom_site_type_symbol
 _atom_site_label
 _atom_site_symmetry_multiplicity
 _atom_site_fract_x
 _atom_site_fract_y
 _atom_site_fract_z
 _atom_site_occupancy
  K  K0  1  0.250000  0.940570  0.298261  1
  K  K1  1  0.750000  0.059430  0.701739  1
  K  K2  1  0.750000  0.440570  0.201739  1
  K  K3  1  0.250000  0.559430  0.798261  1
  K  K4  1  0.250000  0.136202  0.511989  1
  K  K5  1  0.750000  0.863798  0.488011  1
  K  K6  1  0.750000  0.636202  0.988011  1
  K  K7  1  0.250000  0.363798  0.011989  1
  Na  Na8  1  0.250000  0.428855  0.559097  1
  Na  Na9  1  0.750000  0.571145  0.440903  1
  Na  Na10  1  0.750000  0.928855  0.940903  1
  Na  Na11  1  0.250000  0.071145  0.059097  1
  Na  Na12  1  0.250000  0.817118  0.084022  1
  Na  Na13  1  0.750000  0.182882  0.915978  1
  Na  Na14  1  0.750000  0.317118  0.415978  1
  Na  Na15  1  0.250000  0.682882  0.584022  1
  Na  Na16  1  0.250000  0.233814  0.257526  1
  Na  Na17  1  0.750000  0.766186  0.742474  1
  Na  Na18  1  0.750000  0.733814  0.242474  1
  Na  Na19  1  0.250000  0.266186  0.757526  1
  Si  Si20  1  0.250000  0.584360  0.296780  1
  Si  Si21  1  0.750000  0.415640  0.703220  1
  Si  Si22  1  0.750000  0.084360  0.203220  1
  Si  Si23  1  0.250000  0.915640  0.796780  1
  P  P24  1  0.250000  0.604066  0.148063  1
  P  P25  1  0.750000  0.395934  0.851937  1
  P  P26  1  0.750000  0.104066  0.351937  1
  P  P27  1  0.250000  0.895934  0.648063  1
  P  P28  1  0.250000  0.432766  0.359419  1
  P  P29  1  0.750000  0.567234  0.640581  1
  P  P30  1  0.750000  0.932766  0.140581  1
  P  P31  1  0.250000  0.067234  0.859419  1
  P  P32  1  0.250000  0.716170  0.386508  1
  P  P33  1  0.750000  0.283830  0.613492  1
  P  P34  1  0.750000  0.216170  0.113492  1
  P  P35  1  0.250000  0.783830  0.886508  1
