# generated using pymatgen
data_Eu2Re6S11
_symmetry_space_group_name_H-M   'P 1'
_cell_length_a   11.81392429
_cell_length_b   11.81392429
_cell_length_c   11.81392429
_cell_angle_alpha   45.35388995
_cell_angle_beta   45.35388995
_cell_angle_gamma   45.35388995
_symmetry_Int_Tables_number   1
_chemical_formula_structural   Eu2Re6S11
_chemical_formula_sum   'Eu4 Re12 S22'
_cell_volume   760.21778265
_cell_formula_units_Z   2
loop_
 _symmetry_equiv_pos_site_id
 _symmetry_equiv_pos_as_xyz
  1  'x, y, z'
loop_
 _atom_site_type_symbol
 _atom_site_label
 _atom_site_symmetry_multiplicity
 _atom_site_fract_x
 _atom_site_fract_y
 _atom_site_fract_z
 _atom_site_occupancy
  Eu  Eu0  1  0.690222  0.690222  0.690222  1
  Eu  Eu1  1  0.809778  0.809778  0.809778  1
  Eu  Eu2  1  0.309778  0.309778  0.309778  1
  Eu  Eu3  1  0.190222  0.190222  0.190222  1
  Re  Re4  1  0.786224  0.116217  0.994431  1
  Re  Re5  1  0.994431  0.786224  0.116217  1
  Re  Re6  1  0.713776  0.505569  0.383783  1
  Re  Re7  1  0.494431  0.616217  0.286224  1
  Re  Re8  1  0.286224  0.494431  0.616217  1
  Re  Re9  1  0.505569  0.383783  0.713776  1
  Re  Re10  1  0.883783  0.005569  0.213776  1
  Re  Re11  1  0.116217  0.994431  0.786224  1
  Re  Re12  1  0.616217  0.286224  0.494431  1
  Re  Re13  1  0.213776  0.883783  0.005569  1
  Re  Re14  1  0.005569  0.213776  0.883783  1
  Re  Re15  1  0.383783  0.713776  0.505569  1
  S  S16  1  0.699354  0.308321  0.083212  1
  S  S17  1  0.300646  0.691679  0.916788  1
  S  S18  1  0.750000  0.000064  0.499936  1
  S  S19  1  0.583212  0.808321  0.199354  1
  S  S20  1  0.592793  0.592793  0.592793  1
  S  S21  1  0.916788  0.300646  0.691679  1
  S  S22  1  0.800646  0.416788  0.191679  1
  S  S23  1  0.191679  0.800646  0.416788  1
  S  S24  1  0.199354  0.583212  0.808321  1
  S  S25  1  0.808321  0.199354  0.583212  1
  S  S26  1  0.250000  0.999936  0.500064  1
  S  S27  1  0.416788  0.191679  0.800646  1
  S  S28  1  0.000064  0.499936  0.750000  1
  S  S29  1  0.499936  0.750000  0.000064  1
  S  S30  1  0.407207  0.407207  0.407207  1
  S  S31  1  0.308321  0.083212  0.699354  1
  S  S32  1  0.691679  0.916788  0.300646  1
  S  S33  1  0.083212  0.699354  0.308321  1
  S  S34  1  0.092793  0.092793  0.092793  1
  S  S35  1  0.500064  0.250000  0.999936  1
  S  S36  1  0.907207  0.907207  0.907207  1
  S  S37  1  0.999936  0.500064  0.250000  1
