# generated using pymatgen
data_TlAsF6
_symmetry_space_group_name_H-M   'P 1'
_cell_length_a   5.15695949
_cell_length_b   5.15695949
_cell_length_c   5.15695949
_cell_angle_alpha   96.82164314
_cell_angle_beta   96.82164314
_cell_angle_gamma   96.82164314
_symmetry_Int_Tables_number   1
_chemical_formula_structural   TlAsF6
_chemical_formula_sum   'Tl1 As1 F6'
_cell_volume   133.97657255
_cell_formula_units_Z   1
loop_
 _symmetry_equiv_pos_site_id
 _symmetry_equiv_pos_as_xyz
  1  'x, y, z'
loop_
 _atom_site_type_symbol
 _atom_site_label
 _atom_site_symmetry_multiplicity
 _atom_site_fract_x
 _atom_site_fract_y
 _atom_site_fract_z
 _atom_site_occupancy
  Tl  Tl0  1  0.000000  0.000000  0.000000  1
  As  As1  1  0.500000  0.500000  0.500000  1
  F  F2  1  0.299039  0.223395  0.578745  1
  F  F3  1  0.223395  0.578745  0.299039  1
  F  F4  1  0.776605  0.421255  0.700961  1
  F  F5  1  0.578745  0.299039  0.223395  1
  F  F6  1  0.421255  0.700961  0.776605  1
  F  F7  1  0.700961  0.776605  0.421255  1
