# generated using pymatgen
data_DyFe2SiC
_symmetry_space_group_name_H-M   'P 1'
_cell_length_a   5.53104750
_cell_length_b   5.53104750
_cell_length_c   6.74100842
_cell_angle_alpha   90.00000000
_cell_angle_beta   90.00000000
_cell_angle_gamma   140.37123404
_symmetry_Int_Tables_number   1
_chemical_formula_structural   DyFe2SiC
_chemical_formula_sum   'Dy2 Fe4 Si2 C2'
_cell_volume   131.53201797
_cell_formula_units_Z   2
loop_
 _symmetry_equiv_pos_site_id
 _symmetry_equiv_pos_as_xyz
  1  'x, y, z'
loop_
 _atom_site_type_symbol
 _atom_site_label
 _atom_site_symmetry_multiplicity
 _atom_site_fract_x
 _atom_site_fract_y
 _atom_site_fract_z
 _atom_site_occupancy
  Dy  Dy0  1  0.050028  0.949972  0.250000  1
  Dy  Dy1  1  0.949972  0.050028  0.750000  1
  Fe  Fe2  1  0.334069  0.665931  0.062405  1
  Fe  Fe3  1  0.665931  0.334069  0.562405  1
  Fe  Fe4  1  0.334069  0.665931  0.437595  1
  Fe  Fe5  1  0.665931  0.334069  0.937595  1
  Si  Si6  1  0.769866  0.230134  0.250000  1
  Si  Si7  1  0.230134  0.769866  0.750000  1
  C  C8  1  0.500000  0.500000  0.000000  1
  C  C9  1  0.500000  0.500000  0.500000  1
