# generated using pymatgen
data_Lu5Ir2
_symmetry_space_group_name_H-M   'P 1'
_cell_length_a   8.27351024
_cell_length_b   8.27351024
_cell_length_c   7.11135342
_cell_angle_alpha   83.46827110
_cell_angle_beta   96.53172890
_cell_angle_gamma   134.56173855
_symmetry_Int_Tables_number   1
_chemical_formula_structural   Lu5Ir2
_chemical_formula_sum   'Lu10 Ir4'
_cell_volume   344.18009301
_cell_formula_units_Z   2
loop_
 _symmetry_equiv_pos_site_id
 _symmetry_equiv_pos_as_xyz
  1  'x, y, z'
loop_
 _atom_site_type_symbol
 _atom_site_label
 _atom_site_symmetry_multiplicity
 _atom_site_fract_x
 _atom_site_fract_y
 _atom_site_fract_z
 _atom_site_occupancy
  Lu  Lu0  1  0.428524  0.428524  0.250000  1
  Lu  Lu1  1  0.787471  0.345415  0.818020  1
  Lu  Lu2  1  0.030489  0.212394  0.580120  1
  Lu  Lu3  1  0.969511  0.787606  0.419880  1
  Lu  Lu4  1  0.787606  0.969511  0.080120  1
  Lu  Lu5  1  0.212529  0.654585  0.181980  1
  Lu  Lu6  1  0.654585  0.212529  0.318020  1
  Lu  Lu7  1  0.345415  0.787471  0.681980  1
  Lu  Lu8  1  0.212394  0.030489  0.919880  1
  Lu  Lu9  1  0.571476  0.571476  0.750000  1
  Ir  Ir10  1  0.172880  0.390804  0.927166  1
  Ir  Ir11  1  0.390804  0.172880  0.572834  1
  Ir  Ir12  1  0.609196  0.827120  0.427166  1
  Ir  Ir13  1  0.827120  0.609196  0.072834  1
