# generated using pymatgen
data_K2MnP2O7
_symmetry_space_group_name_H-M   'P 1'
_cell_length_a   9.69772454
_cell_length_b   5.60369838
_cell_length_c   14.05048700
_cell_angle_alpha   90.00000000
_cell_angle_beta   117.47228178
_cell_angle_gamma   90.00000000
_symmetry_Int_Tables_number   1
_chemical_formula_structural   K2MnP2O7
_chemical_formula_sum   'K8 Mn4 P8 O28'
_cell_volume   677.44525205
_cell_formula_units_Z   4
loop_
 _symmetry_equiv_pos_site_id
 _symmetry_equiv_pos_as_xyz
  1  'x, y, z'
loop_
 _atom_site_type_symbol
 _atom_site_label
 _atom_site_symmetry_multiplicity
 _atom_site_fract_x
 _atom_site_fract_y
 _atom_site_fract_z
 _atom_site_occupancy
  K  K0  1  0.490593  0.266758  0.860994  1
  K  K1  1  0.490593  0.233242  0.360994  1
  K  K2  1  0.964897  0.726935  0.323467  1
  K  K3  1  0.509407  0.733242  0.139006  1
  K  K4  1  0.035103  0.273065  0.676533  1
  K  K5  1  0.509407  0.766758  0.639006  1
  K  K6  1  0.964897  0.773065  0.823467  1
  K  K7  1  0.035103  0.226935  0.176533  1
  Mn  Mn8  1  0.233084  0.242277  0.981867  1
  Mn  Mn9  1  0.766916  0.742277  0.518133  1
  Mn  Mn10  1  0.233084  0.257723  0.481867  1
  Mn  Mn11  1  0.766916  0.757723  0.018133  1
  P  P12  1  0.668564  0.259375  0.637758  1
  P  P13  1  0.668564  0.240625  0.137758  1
  P  P14  1  0.826943  0.224632  0.379125  1
  P  P15  1  0.331436  0.759375  0.862242  1
  P  P16  1  0.173057  0.775368  0.620875  1
  P  P17  1  0.826943  0.275368  0.879125  1
  P  P18  1  0.173057  0.724632  0.120875  1
  P  P19  1  0.331436  0.740625  0.362242  1
  O  O20  1  0.743560  0.045273  0.612083  1
  O  O21  1  0.750536  0.497475  0.644281  1
  O  O22  1  0.256440  0.954727  0.387917  1
  O  O23  1  0.218977  0.026886  0.602524  1
  O  O24  1  0.781023  0.973114  0.397476  1
  O  O25  1  0.020199  0.732319  0.127992  1
  O  O26  1  0.491953  0.229086  0.070024  1
  O  O27  1  0.979801  0.267681  0.872008  1
  O  O28  1  0.750536  0.002525  0.144281  1
  O  O29  1  0.687687  0.199581  0.758722  1
  O  O30  1  0.190512  0.914242  0.049457  1
  O  O31  1  0.020199  0.767681  0.627992  1
  O  O32  1  0.249464  0.502525  0.355719  1
  O  O33  1  0.979801  0.232319  0.372008  1
  O  O34  1  0.687687  0.300419  0.258722  1
  O  O35  1  0.312313  0.800419  0.241278  1
  O  O36  1  0.491953  0.270914  0.570024  1
  O  O37  1  0.256440  0.545273  0.887917  1
  O  O38  1  0.508047  0.770914  0.929976  1
  O  O39  1  0.508047  0.729086  0.429976  1
  O  O40  1  0.249464  0.997475  0.855719  1
  O  O41  1  0.312313  0.699581  0.741278  1
  O  O42  1  0.190512  0.585758  0.549457  1
  O  O43  1  0.218977  0.473114  0.102524  1
  O  O44  1  0.809488  0.414242  0.450543  1
  O  O45  1  0.781023  0.526886  0.897476  1
  O  O46  1  0.743560  0.454727  0.112083  1
  O  O47  1  0.809488  0.085758  0.950543  1
