# generated using pymatgen
data_SiO2
_symmetry_space_group_name_H-M   'P 1'
_cell_length_a   8.81968542
_cell_length_b   7.79790732
_cell_length_c   5.32182845
_cell_angle_alpha   82.14550140
_cell_angle_beta   61.14611311
_cell_angle_gamma   36.70838549
_symmetry_Int_Tables_number   1
_chemical_formula_structural   SiO2
_chemical_formula_sum   'Si4 O8'
_cell_volume   168.31612255
_cell_formula_units_Z   4
loop_
 _symmetry_equiv_pos_site_id
 _symmetry_equiv_pos_as_xyz
  1  'x, y, z'
loop_
 _atom_site_type_symbol
 _atom_site_label
 _atom_site_symmetry_multiplicity
 _atom_site_fract_x
 _atom_site_fract_y
 _atom_site_fract_z
 _atom_site_occupancy
  Si  Si0  1  0.936824  0.936824  0.563176  1
  Si  Si1  1  0.686824  0.686824  0.313176  1
  Si  Si2  1  0.313176  0.313176  0.686824  1
  Si  Si3  1  0.563176  0.563176  0.936824  1
  O  O4  1  0.625000  0.625000  0.125000  1
  O  O5  1  0.625000  0.125000  0.625000  1
  O  O6  1  0.125000  0.625000  0.625000  1
  O  O7  1  0.625000  0.625000  0.625000  1
  O  O8  1  0.813783  0.186217  0.813783  1
  O  O9  1  0.186217  0.813783  0.186217  1
  O  O10  1  0.063783  0.436217  0.063783  1
  O  O11  1  0.436217  0.063783  0.436217  1
